data_PCOD8029015
_publ_section_title
;
Structure prediction by ZEFSAII (Michael W. Deem and Ramdas Pophale) SiO2 
 PCOD8029015
Probable space group: P -1
;
_chemical_formula_sum "Si O2"
_cell_formula_units_Z 14
_cell_length_a 9.557886
_cell_length_b 12.584529
_cell_length_c 9.068196
_cell_angle_alpha 104.327864
_cell_angle_beta 43.938804
_cell_angle_gamma 122.851457
_cell_volume 616.345770
_symmetry_space_group_name_H-M "P -1"
_symmetry_group_IT_number 2
_symmetry_cell_setting 'triclinic'
loop_
_space_group_symop_operation_xyz
x,y,z
-x,-y,-z
loop_
_atom_site_type_symbol
_atom_site_label
_atom_site_fract_x
_atom_site_fract_y
_atom_site_fract_z
Si Si1 0.060249 0.819899 0.441651
Si Si2 0.760737 0.596632 0.079261
Si Si3 0.434361 0.239793 0.829553
Si Si4 0.948563 0.376996 0.410552
Si Si5 0.830046 0.247032 0.976038
Si Si6 0.460193 0.308221 0.168275
Si Si7 0.455296 0.003004 0.706446
O O1 0.964001 0.694502 0.575473
O O2 0.148635 0.811992 0.211852
O O3 0.808574 0.813101 0.622390
O O4 0.289277 0.943880 0.387040
O O5 0.726644 0.715722 0.110718
O O6 0.514603 0.452595 0.220560
O O7 0.906795 0.632246 0.133910
O O8 0.920938 0.585901 0.830458
O O9 0.665090 0.287438 0.567689
O O10 0.329984 0.085013 0.864420
O O11 0.505595 0.302834 0.958981
O O12 0.000000 0.500000 0.500000
O O13 0.649250 0.294107 0.112754
O O14 0.735162 0.140715 0.141069
O O15 0.500000 0.000000 0.500000
#
# Coordination Sequence:
#
# PCOD8029015 Si02
#       7
#     2   2   2   2   2   2   2
#     4  11  24  42  68 100 137 183 227 285 345 408
#     4  12  25  43  72 108 142 183 233 282 345 421
#     4  11  23  42  72 100 136 184 235 287 336 411
#     4  11  19  38  67  99 135 181 226 278 334 403
#     4  12  26  46  68 103 146 182 227 290 349 408
#     4  12  24  43  72 106 141 183 228 281 357 410
#     4  11  26  50  73 100 138 182 242 288 344 413
#
# _framework density 22.714524000000001
#
# number of rings (size 3 to 8) (size 9 to 14) (size 15 to 20)
#    0.000    0.571    5.714    3.857    0.000    4.000 
#    0.000    0.000    0.000    0.000    0.000    0.000 
#    0.000    0.000    0.000    0.000    0.000    0.000 
#
# Total GULP energy -173546.378241 kJ/mol
# GULP energy per Si atom -12396.169874 kJ/mol
# Density = 2.266283 g / cm^3
# Si number density = 22.714524 Si / 1000 Ang^3
#
#
#
# Elastic Constant Matrix: (Units=GPa)
#
#
# Indices 1 2 3 4 5 6 
#
# 1 118.6434 29.5407 22.0987 16.5286 -8.8601 12.0333
# 2 29.5407 79.6796 7.0461 7.5698 -1.3625 5.7755
# 3 22.0987 7.0461 78.6368 0.2651 -2.7996 15.5782
# 4 16.5286 7.5698 0.2651 28.0257 0.2040 -2.0835
# 5 -8.8601 -1.3625 -2.7996 0.2040 42.5017 7.5634
# 6 12.0333 5.7755 15.5782 -2.0835 7.5634 39.4486
#
#
#
# Elastic Compliance Matrix: (Units=1/GPa)
#
#
# Indices 1 2 3 4 5 6 
#
# 1 0.010865 -0.003042 -0.002109 -0.005795 0.002560 -0.002833
# 2 -0.003042 0.013973 -0.000158 -0.002066 0.000021 -0.001169
# 3 -0.002109 -0.000158 0.014415 0.000748 0.001438 -0.005262
# 4 -0.005795 -0.002066 0.000748 0.039986 -0.002183 0.004305
# 5 0.002560 0.000021 0.001438 -0.002183 0.025292 -0.006316
# 6 -0.002833 -0.001169 -0.005262 0.004305 -0.006316 0.029901
#
#
# Mechanical properties :
#
#
# Convention : Reuss Voigt Hill
#
# Bulk Modulus (GPa) = 34.92175 43.81453 39.36814
# Shear Modulus (GPa) = 32.34272 36.54681 34.44477
#
# Velocity S-wave (km/s) = 3.77753 4.01554 3.89835
# Velocity P-wave (km/s) = 5.86803 6.38987 6.13451
#
# Compressibility (1/GPa) = 0.02863545
#
# Stress axis : x y z
#
# Youngs Moduli (GPa) = 92.04132 71.56497 69.37447
#
# Poissons Ratio (x) = 0.21769 0.14629
# Poissons Ratio (y) = 0.27997 0.01096
# Poissons Ratio (z) = 0.19409 0.01131
#
# Static dielectric constant tensor:
#      x y z
#    x 4.177150 -0.120060 -0.030970 
#    y -0.120060 4.243100 -0.002810 
#    z -0.030970 -0.002810 4.174630 
# 
# 
# High freq. dielectric constant tensor:
#      x y z
#    x 1.899140 0.004590 -0.005190 
#    y 0.004590 1.896440 0.000950 
#    z -0.005190 0.000950 1.893820 
# 
# From -- ./inp_files/175716.got.cif
#   From: 2010.06.25/outbox.cif.g09.slc.cpg/sg2_88_cif.got.tgz:175716.got - 2010.06.27 13:26:56.
