data_PCOD8029800
_publ_section_title
;
Structure prediction by ZEFSAII (Michael W. Deem and Ramdas Pophale) SiO2 
 PCOD8029800
Probable space group: P -1
;
_chemical_formula_sum "Si O2"
_cell_formula_units_Z 16
_cell_length_a 23.650686
_cell_length_b 15.459207
_cell_length_c 9.299162
_cell_angle_alpha 134.303665
_cell_angle_beta 29.259305
_cell_angle_gamma 152.740860
_cell_volume 714.593868
_symmetry_space_group_name_H-M "P -1"
_symmetry_group_IT_number 2
_symmetry_cell_setting 'triclinic'
loop_
_space_group_symop_operation_xyz
x,y,z
-x,-y,-z
loop_
_atom_site_type_symbol
_atom_site_label
_atom_site_fract_x
_atom_site_fract_y
_atom_site_fract_z
Si Si1 0.264541 0.468847 0.320495
Si Si2 0.777694 0.575990 0.300892
Si Si3 0.106463 0.834774 0.394487
Si Si4 0.374288 0.934862 0.334641
Si Si5 0.026160 0.504821 0.281003
Si Si6 0.438300 0.410807 0.691634
Si Si7 0.148201 0.969394 0.779899
Si Si8 0.497319 0.097074 0.737439
O O1 0.248584 0.419683 0.466508
O O2 0.325370 0.659950 0.386871
O O3 0.066012 0.270263 0.449079
O O4 0.421779 0.514272 0.949336
O O5 0.589753 0.449128 0.477600
O O6 0.816902 0.466894 0.066667
O O7 0.953376 0.801146 0.108861
O O8 0.093296 0.680942 0.261849
O O9 0.103629 0.900215 0.631308
O O10 0.307032 0.023617 0.084170
O O11 0.311258 0.019531 0.546425
O O12 0.517011 0.012739 0.231124
O O13 0.186438 0.706601 0.542019
O O14 0.500000 0.000000 0.000000
O O15 0.000000 0.500000 0.500000
O O16 0.500000 0.500000 0.500000
O O17 0.232862 0.173480 0.848171
O O18 0.500000 0.000000 0.500000
#
# Coordination Sequence:
#
# PCOD8029800 Si02
#       8
#     2   2   2   2   2   2   2   2
#     4  12  29  48  70 107 151 192 236 293 363 426
#     4  11  27  48  72 105 145 189 240 298 359 427
#     4  12  24  43  71 105 148 184 233 298 354 429
#     4  11  22  39  68 103 142 180 234 292 351 418
#     4  11  21  39  70 105 143 178 229 293 360 416
#     4  12  29  49  78  99 141 193 249 301 348 425
#     4  11  26  44  73 107 133 190 246 292 355 420
#     4  12  27  42  69 108 148 189 231 289 366 435
#
# _framework density 22.390342
#
# number of rings (size 3 to 8) (size 9 to 14) (size 15 to 20)
#    0.000    0.500    5.000    2.625    8.750    4.500 
#    0.000    0.000    0.000    0.000    0.000    0.000 
#    0.000    0.000    0.000    0.000    0.000    0.000 
#
# Total GULP energy -198226.418886 kJ/mol
# GULP energy per Si atom -12389.151180 kJ/mol
# Density = 2.233938 g / cm^3
# Si number density = 22.390342 Si / 1000 Ang^3
#
#
#
# Elastic Constant Matrix: (Units=GPa)
#
#
# Indices 1 2 3 4 5 6 
#
# 1 137.3640 34.3286 57.5399 0.0021 17.6490 10.6598
# 2 34.3286 106.8168 24.7786 11.5727 14.1163 6.6302
# 3 57.5399 24.7786 127.7753 11.5573 23.2407 15.6727
# 4 0.0021 11.5727 11.5573 31.0415 5.4358 4.8137
# 5 17.6490 14.1163 23.2407 5.4358 45.5754 -5.0728
# 6 10.6598 6.6302 15.6727 4.8137 -5.0728 14.7217
#
#
#
# Elastic Compliance Matrix: (Units=1/GPa)
#
#
# Indices 1 2 3 4 5 6 
#
# 1 0.009859 -0.002152 -0.003341 0.003139 -0.002316 -0.004438
# 2 -0.002152 0.010928 -0.000016 -0.003131 -0.002525 -0.003193
# 3 -0.003341 -0.000016 0.012024 -0.001577 -0.005971 -0.011917
# 4 0.003139 -0.003131 -0.001577 0.036927 -0.005303 -0.013086
# 5 -0.002316 -0.002525 -0.005971 -0.005303 0.029649 0.021122
# 6 -0.004438 -0.003193 -0.011917 -0.013086 0.021122 0.096822
#
#
# Mechanical properties :
#
#
# Convention : Reuss Voigt Hill
#
# Bulk Modulus (GPa) = 45.88451 67.25003 56.56727
# Shear Modulus (GPa) = 23.31093 35.28834 29.29964
#
# Velocity S-wave (km/s) = 3.23013 3.97426 3.62136
# Velocity P-wave (km/s) = 5.86934 7.15263 6.54253
#
# Compressibility (1/GPa) = 0.02179385
#
# Stress axis : x y z
#
# Youngs Moduli (GPa) = 101.42963 91.50576 83.16580
#
# Poissons Ratio (x) = 0.19693 0.27784
# Poissons Ratio (y) = 0.21829 0.00133
# Poissons Ratio (z) = 0.33885 0.00146
#
# Static dielectric constant tensor:
#      x y z
#    x 4.093410 0.274750 -0.228250 
#    y 0.274750 4.118260 -0.213060 
#    z -0.228250 -0.213060 4.104420 
# 
# 
# High freq. dielectric constant tensor:
#      x y z
#    x 1.890300 0.002380 -0.001440 
#    y 0.002380 1.883850 -0.010590 
#    z -0.001440 -0.010590 1.894310 
# 
# From -- ./inp_files/354572.got.cif
#   From: 2010.06.25/outbox.cif.g09.slc.cpg/sg2_178_cif.got.tgz:354572.got - 2010.06.27 13:26:56.
