data_PCOD8029091
_publ_section_title
;
Structure prediction by ZEFSAII (Michael W. Deem and Ramdas Pophale) SiO2 
 PCOD8029091
Probable space group: P -1
;
_chemical_formula_sum "Si O2"
_cell_formula_units_Z 16
_cell_length_a 9.076221
_cell_length_b 14.744103
_cell_length_c 10.294565
_cell_angle_alpha 70.810532
_cell_angle_beta 77.045076
_cell_angle_gamma 129.163536
_cell_volume 814.771844
_symmetry_space_group_name_H-M "P -1"
_symmetry_group_IT_number 2
_symmetry_cell_setting 'triclinic'
loop_
_space_group_symop_operation_xyz
x,y,z
-x,-y,-z
loop_
_atom_site_type_symbol
_atom_site_label
_atom_site_fract_x
_atom_site_fract_y
_atom_site_fract_z
Si Si1 0.609472 0.977743 0.085297
Si Si2 0.476601 0.633462 0.018586
Si Si3 0.935306 0.694530 0.171446
Si Si4 0.102420 0.567756 0.259509
Si Si5 0.149661 0.062937 0.072452
Si Si6 0.248074 0.248294 0.610088
Si Si7 0.512088 0.563245 0.777793
Si Si8 0.648227 0.295860 0.591958
O O1 0.455097 0.863640 0.291990
O O2 0.627828 0.893896 0.028677
O O3 0.500000 0.000000 0.000000
O O4 0.865238 0.138321 0.008234
O O5 0.263300 0.605195 0.093602
O O6 0.395094 0.492540 0.159833
O O7 0.728942 0.783483 0.964479
O O8 0.517492 0.645752 0.850622
O O9 0.793108 0.681565 0.318403
O O10 0.755765 0.575055 0.152713
O O11 0.068491 0.666081 0.213604
O O12 0.231302 0.603926 0.350308
O O13 0.844378 0.390462 0.394266
O O14 0.988200 0.930542 0.272850
O O15 0.000000 0.000000 0.000000
O O16 0.308821 0.318136 0.424731
O O17 0.450310 0.277412 0.608597
#
# Coordination Sequence:
#
# PCOD8029091 Si02
#       8
#     2   2   2   2   2   2   2   2
#     4  11  20  33  55  92 120 145 189 246 307 345
#     4  11  24  43  59  84 126 157 204 237 303 359
#     4  11  22  36  62  90 119 154 200 251 290 356
#     4  11  22  36  61  89 121 153 190 255 301 346
#     4  11  20  37  64  88 116 155 189 252 296 352
#     4  11  23  37  61  92 119 150 207 246 296 348
#     4  11  25  40  59  86 118 169 197 246 290 358
#     4  11  21  35  57  92 118 152 187 252 305 334
#
# _framework density 19.637401000000001
#
# number of rings (size 3 to 8) (size 9 to 14) (size 15 to 20)
#    0.000    1.000    5.000    2.625    3.500    1.000 
#    0.000    0.000    0.000    0.750    0.000    0.000 
#    0.000    0.000    0.000    0.000    0.000    0.000 
#
# Total GULP energy -198323.538753 kJ/mol
# GULP energy per Si atom -12395.221172 kJ/mol
# Density = 1.959271 g / cm^3
# Si number density = 19.637401 Si / 1000 Ang^3
#
#
#
# Elastic Constant Matrix: (Units=GPa)
#
#
# Indices 1 2 3 4 5 6 
#
# 1 100.2039 23.2452 33.2307 7.9000 -4.5697 -10.7853
# 2 23.2452 106.9953 70.5810 -3.7999 -6.4588 -4.7579
# 3 33.2307 70.5810 113.9131 -15.8764 3.6752 -8.4659
# 4 7.9000 -3.7999 -15.8764 34.0704 -2.6417 2.7383
# 5 -4.5697 -6.4588 3.6752 -2.6417 29.1827 -4.9337
# 6 -10.7853 -4.7579 -8.4659 2.7383 -4.9337 20.1746
#
#
#
# Elastic Compliance Matrix: (Units=1/GPa)
#
#
# Indices 1 2 3 4 5 6 
#
# 1 0.012542 0.000354 -0.004210 -0.005104 0.003209 0.006499
# 2 0.000354 0.016774 -0.010995 -0.003036 0.005078 0.001185
# 3 -0.004210 -0.010995 0.018094 0.007781 -0.004570 0.000576
# 4 -0.005104 -0.003036 0.007781 0.034199 -0.000178 -0.004865
# 5 0.003209 0.005078 -0.004570 -0.000178 0.038205 0.010363
# 6 0.006499 0.001185 0.000576 -0.004865 0.010363 0.056757
#
#
# Mechanical properties :
#
#
# Convention : Reuss Voigt Hill
#
# Bulk Modulus (GPa) = 56.47413 63.91403 60.19408
# Shear Modulus (GPa) = 23.56532 29.62256 26.59394
#
# Velocity S-wave (km/s) = 3.46789 3.88812 3.68401
# Velocity P-wave (km/s) = 6.69746 7.26460 6.98679
#
# Compressibility (1/GPa) = 0.01770722
#
# Stress axis : x y z
#
# Youngs Moduli (GPa) = 79.73229 59.61596 55.26657
#
# Poissons Ratio (x) = -0.02109 0.23266
# Poissons Ratio (y) = -0.02820 0.60768
# Poissons Ratio (z) = 0.33565 0.65550
#
# Static dielectric constant tensor:
#      x y z
#    x 3.641910 0.000380 -0.077220 
#    y 0.000380 3.478440 -0.421390 
#    z -0.077220 -0.421390 3.869770 
# 
# 
# High freq. dielectric constant tensor:
#      x y z
#    x 1.778160 -0.000890 -0.002320 
#    y -0.000890 1.745630 -0.038240 
#    z -0.002320 -0.038240 1.758320 
# 
# From -- ./inp_files/206879.got.cif
#   From: 2010.06.25/outbox.cif.g09.slc.cpg/sg2_104_cif.got.tgz:206879.got - 2010.06.27 13:26:56.
