data_PCOD8029187
_publ_section_title
;
Structure prediction by ZEFSAII (Michael W. Deem and Ramdas Pophale) SiO2 
 PCOD8029187
Probable space group: P -1
;
_chemical_formula_sum "Si O2"
_cell_formula_units_Z 16
_cell_length_a 13.865531
_cell_length_b 15.519971
_cell_length_c 7.756724
_cell_angle_alpha 69.654454
_cell_angle_beta 117.831685
_cell_angle_gamma 152.199029
_cell_volume 679.772388
_symmetry_space_group_name_H-M "P -1"
_symmetry_group_IT_number 2
_symmetry_cell_setting 'triclinic'
loop_
_space_group_symop_operation_xyz
x,y,z
-x,-y,-z
loop_
_atom_site_type_symbol
_atom_site_label
_atom_site_fract_x
_atom_site_fract_y
_atom_site_fract_z
Si Si1 0.919306 0.024727 0.798375
Si Si2 0.584957 0.175145 0.117529
Si Si3 0.196126 0.370227 0.276834
Si Si4 0.339435 0.439534 0.793045
Si Si5 0.714113 0.054258 0.656131
Si Si6 0.635395 0.700844 0.550082
Si Si7 0.241056 0.890338 0.739801
Si Si8 0.850346 0.553216 0.146570
O O1 0.794078 0.010582 0.814869
O O2 0.118407 0.220129 0.733338
O O3 0.765458 0.880789 0.612023
O O4 0.000000 0.000000 0.000000
O O5 0.733954 0.201042 0.153377
O O6 0.749548 0.382981 0.120668
O O7 0.496722 0.081384 0.301680
O O8 0.385503 0.046469 0.903050
O O9 0.456746 0.599321 0.326027
O O10 0.193354 0.256685 0.367297
O O11 0.022098 0.279149 0.340661
O O12 0.107140 0.341473 0.041733
O O13 0.440189 0.519362 0.635536
O O14 0.308764 0.518461 0.792504
O O15 0.500000 0.500000 0.000000
O O16 0.665941 0.012390 0.439356
O O17 0.900175 0.270887 0.688725
#
# Coordination Sequence:
#
# PCOD8029187 Si02
#       8
#     2   2   2   2   2   2   2   2
#     4  11  22  36  67  98 133 181 222 272 340 407
#     4  11  26  47  74  99 135 181 232 289 352 393
#     4  11  23  43  64  97 145 172 229 281 339 409
#     4  11  20  37  61  93 131 175 226 268 330 406
#     4  11  24  47  70 100 138 178 230 283 340 413
#     4  11  23  40  62  96 136 183 217 277 336 410
#     4  11  26  49  70 102 137 178 234 294 336 411
#     4  11  23  42  69  99 137 182 219 285 342 403
#
# _framework density 23.537288
#
# number of rings (size 3 to 8) (size 9 to 14) (size 15 to 20)
#    0.000    1.000    3.750    3.375    1.750    1.000 
#    0.000    1.875    0.000    0.000    0.000    0.000 
#    0.000    0.000    0.000    0.000    0.000    0.000 
#
# Total GULP energy -198253.509755 kJ/mol
# GULP energy per Si atom -12390.844360 kJ/mol
# Density = 2.348372 g / cm^3
# Si number density = 23.537288 Si / 1000 Ang^3
#
#
#
# Elastic Constant Matrix: (Units=GPa)
#
#
# Indices 1 2 3 4 5 6 
#
# 1 123.6392 51.2437 15.8630 5.6610 7.8840 3.8923
# 2 51.2437 118.7343 19.0703 30.1207 -2.3312 -25.9620
# 3 15.8630 19.0703 70.2784 3.3804 -18.5758 0.5705
# 4 5.6610 30.1207 3.3804 36.8893 1.1542 -9.5494
# 5 7.8840 -2.3312 -18.5758 1.1542 36.5784 0.0811
# 6 3.8923 -25.9620 0.5705 -9.5494 0.0811 39.7046
#
#
#
# Elastic Compliance Matrix: (Units=1/GPa)
#
#
# Indices 1 2 3 4 5 6 
#
# 1 0.011187 -0.006211 -0.001943 0.002482 -0.003862 -0.004525
# 2 -0.006211 0.015783 -0.002076 -0.009552 0.001572 0.008659
# 3 -0.001943 -0.002076 0.017716 -0.000313 0.009296 -0.001516
# 4 0.002482 -0.009552 -0.000313 0.035141 -0.002416 0.001972
# 5 -0.003862 0.001572 0.009296 -0.002416 0.033067 0.000625
# 6 -0.004525 0.008659 -0.001516 0.001972 0.000625 0.031786
#
#
# Mechanical properties :
#
#
# Convention : Reuss Voigt Hill
#
# Bulk Modulus (GPa) = 41.27909 53.88952 47.58431
# Shear Modulus (GPa) = 28.86588 37.73281 33.29934
#
# Velocity S-wave (km/s) = 3.50578 4.00823 3.76539
# Velocity P-wave (km/s) = 5.82779 6.66080 6.25817
#
# Compressibility (1/GPa) = 0.02422534
#
# Stress axis : x y z
#
# Youngs Moduli (GPa) = 89.39341 63.35829 56.44719
#
# Poissons Ratio (x) = 0.39350 0.10968
# Poissons Ratio (y) = 0.55519 0.11720
# Poissons Ratio (z) = 0.17370 0.13155
#
# Static dielectric constant tensor:
#      x y z
#    x 4.406330 -0.005150 -0.044180 
#    y -0.005150 3.995710 0.194810 
#    z -0.044180 0.194810 4.064880 
# 
# 
# High freq. dielectric constant tensor:
#      x y z
#    x 1.940080 -0.000380 -0.002250 
#    y -0.000380 1.915970 0.017530 
#    z -0.002250 0.017530 1.943130 
# 
# From -- ./inp_files/314984.got.cif
#   From: 2010.06.25/outbox.cif.g09.slc.cpg/sg2_158_cif.got.tgz:314984.got - 2010.06.27 13:26:56.
