data_PCOD8029927
_publ_section_title
;
Structure prediction by ZEFSAII (Michael W. Deem and Ramdas Pophale) SiO2 
 PCOD8029927
Probable space group: P -1
;
_chemical_formula_sum "Si O2"
_cell_formula_units_Z 14
_cell_length_a 11.159944
_cell_length_b 11.879565
_cell_length_c 15.294994
_cell_angle_alpha 39.005963
_cell_angle_beta 149.161313
_cell_angle_gamma 130.086261
_cell_volume 652.536298
_symmetry_space_group_name_H-M "P -1"
_symmetry_group_IT_number 2
_symmetry_cell_setting 'triclinic'
loop_
_space_group_symop_operation_xyz
x,y,z
-x,-y,-z
loop_
_atom_site_type_symbol
_atom_site_label
_atom_site_fract_x
_atom_site_fract_y
_atom_site_fract_z
Si Si1 0.437106 0.707219 0.348721
Si Si2 0.079164 0.149262 0.389573
Si Si3 0.893210 0.015326 0.682081
Si Si4 0.050910 0.163858 0.993361
Si Si5 0.389299 0.031339 0.004348
Si Si6 0.346603 0.671502 0.913830
Si Si7 0.469117 0.700380 0.782636
O O1 0.500000 0.500000 0.500000
O O2 0.652103 0.801545 0.470419
O O3 0.190965 0.712426 0.243813
O O4 0.378988 0.826873 0.154713
O O5 0.906720 0.325537 0.198430
O O6 0.046653 0.092165 0.304372
O O7 0.000000 0.000000 0.500000
O O8 0.659088 0.148315 0.450245
O O9 0.124793 0.123727 0.778421
O O10 0.868252 0.884852 0.827346
O O11 0.276430 0.258892 0.042971
O O12 0.000000 0.000000 0.000000
O O13 0.531041 0.155255 0.080479
O O14 0.500000 0.000000 0.000000
O O15 0.307177 0.684913 0.776300
O O16 0.497575 0.484199 0.141066
#
# Coordination Sequence:
#
# PCOD8029927 Si02
#       7
#     2   2   2   2   2   2   2
#     4  11  24  42  66  97 128 170 221 273 328 389
#     4  12  20  41  71  94 127 174 219 271 332 389
#     4  11  22  39  68  93 124 175 224 262 328 398
#     4  11  24  45  63  89 141 175 212 267 338 394
#     4  11  21  41  62  95 128 171 214 273 332 381
#     4  11  23  40  67  93 136 167 218 277 323 392
#     4  11  23  41  62 100 128 174 220 264 329 396
#
# _framework density 21.454746
#
# number of rings (size 3 to 8) (size 9 to 14) (size 15 to 20)
#    0.000    0.857    4.286    3.857    0.000    0.571 
#    5.143    2.143    0.000    0.000    0.000    0.000 
#    0.000    0.000    0.000    0.000    0.000    0.000 
#
# Total GULP energy -173446.192663 kJ/mol
# GULP energy per Si atom -12389.013762 kJ/mol
# Density = 2.140591 g / cm^3
# Si number density = 21.454746 Si / 1000 Ang^3
#
#
#
# Elastic Constant Matrix: (Units=GPa)
#
#
# Indices 1 2 3 4 5 6 
#
# 1 82.8592 21.7506 41.7724 -5.8068 13.0649 -17.2919
# 2 21.7506 94.2564 48.6009 -11.3011 8.7917 -5.2852
# 3 41.7724 48.6009 117.3478 -0.0002 33.9847 -9.0440
# 4 -5.8068 -11.3011 -0.0002 35.3128 -2.1200 14.4680
# 5 13.0649 8.7917 33.9847 -2.1200 44.6798 7.6447
# 6 -17.2919 -5.2852 -9.0440 14.4680 7.6447 37.2020
#
#
#
# Elastic Compliance Matrix: (Units=1/GPa)
#
#
# Indices 1 2 3 4 5 6 
#
# 1 0.016277 -0.001164 -0.003916 -0.000892 -0.002858 0.007383
# 2 -0.001164 0.014669 -0.006946 0.006041 0.003576 -0.003230
# 3 -0.003916 -0.006946 0.016529 -0.005947 -0.011345 0.005855
# 4 -0.000892 0.006041 -0.005947 0.037734 0.008362 -0.017395
# 5 -0.002858 0.003576 -0.011345 0.008362 0.033900 -0.013796
# 6 0.007383 -0.003230 0.005855 -0.017395 -0.013796 0.040877
#
#
# Mechanical properties :
#
#
# Convention : Reuss Voigt Hill
#
# Bulk Modulus (GPa) = 42.68922 57.63457 50.16190
# Shear Modulus (GPa) = 26.06295 35.59487 30.82891
#
# Velocity S-wave (km/s) = 3.48916 4.07758 3.79480
# Velocity P-wave (km/s) = 6.01439 7.00647 6.52930
#
# Compressibility (1/GPa) = 0.02342512
#
# Stress axis : x y z
#
# Youngs Moduli (GPa) = 61.43690 68.17165 60.50003
#
# Poissons Ratio (x) = 0.07932 0.23689
# Poissons Ratio (y) = 0.07148 0.42021
# Poissons Ratio (z) = 0.24056 0.47350
#
# Static dielectric constant tensor:
#      x y z
#    x 2.042350 -0.027090 -1.195840 
#    y -0.027090 4.002710 0.169630 
#    z -1.195840 0.169630 2.873130 
# 
# 
# High freq. dielectric constant tensor:
#      x y z
#    x 1.852610 0.001620 0.025600 
#    y 0.001620 1.830750 0.010300 
#    z 0.025600 0.010300 1.846020 
# 
# From -- ./inp_files/239548.got.cif
#   From: 2010.06.25/outbox.cif.g09.slc.cpg/sg2_120_cif.got.tgz:239548.got - 2010.06.27 13:26:56.
