data_PCOD8029324
_publ_section_title
;
Structure prediction by ZEFSAII (Michael W. Deem and Ramdas Pophale) SiO2 
 PCOD8029324
Probable space group: P -1
;
_chemical_formula_sum "Si O2"
_cell_formula_units_Z 14
_cell_length_a 12.056882
_cell_length_b 8.377021
_cell_length_c 9.317087
_cell_angle_alpha 66.985447
_cell_angle_beta 115.984931
_cell_angle_gamma 128.674363
_cell_volume 651.134355
_symmetry_space_group_name_H-M "P -1"
_symmetry_group_IT_number 2
_symmetry_cell_setting 'triclinic'
loop_
_space_group_symop_operation_xyz
x,y,z
-x,-y,-z
loop_
_atom_site_type_symbol
_atom_site_label
_atom_site_fract_x
_atom_site_fract_y
_atom_site_fract_z
Si Si1 0.480932 0.862802 0.172103
Si Si2 0.182362 0.136970 0.883922
Si Si3 0.796179 0.999393 0.344219
Si Si4 0.275463 0.452690 0.056463
Si Si5 0.230591 0.858483 0.201046
Si Si6 0.142187 0.057669 0.289109
Si Si7 0.956263 0.447867 0.157567
O O1 0.423580 0.636624 0.151614
O O2 0.374009 0.860472 0.234085
O O3 0.637344 0.958722 0.305423
O O4 0.500000 0.000000 0.000000
O O5 0.229962 0.167298 0.733914
O O6 0.298021 0.337740 0.975072
O O7 0.019956 0.097869 0.816983
O O8 0.180120 0.936751 0.009469
O O9 0.917003 0.227975 0.272527
O O10 0.862278 0.960927 0.536058
O O11 0.188599 0.288048 0.192712
O O12 0.188724 0.547541 0.906191
O O13 0.100691 0.628036 0.259678
O O14 0.255097 0.004673 0.300491
O O15 0.000000 0.500000 0.000000
#
# Coordination Sequence:
#
# PCOD8029324 Si02
#       7
#     2   2   2   2   2   2   2
#     4  12  23  42  66  94 124 166 216 253 304 383
#     4  11  20  40  65  95 119 165 212 258 306 365
#     4  12  26  40  63  95 135 163 204 263 314 370
#     4  11  21  38  69  88 120 165 212 254 307 373
#     4  11  21  40  70  91 122 167 214 258 305 375
#     4  11  24  41  62  98 131 159 206 265 322 362
#     4  12  18  38  68  94 115 166 216 255 305 358
#
# _framework density 21.500941000000001
#
# number of rings (size 3 to 8) (size 9 to 14) (size 15 to 20)
#    0.000    0.571    8.571    1.286    0.000    2.286 
#    0.000    0.000    0.000    0.000    0.000    0.000 
#    0.000    0.000    0.000    0.000    0.000    0.000 
#
# Total GULP energy -173525.872271 kJ/mol
# GULP energy per Si atom -12394.705162 kJ/mol
# Density = 2.145200 g / cm^3
# Si number density = 21.500941 Si / 1000 Ang^3
#
#
#
# Elastic Constant Matrix: (Units=GPa)
#
#
# Indices 1 2 3 4 5 6 
#
# 1 84.1527 24.1538 15.0022 4.6423 -11.6706 -0.7765
# 2 24.1538 82.7750 22.1451 -0.4845 -6.7872 -1.9836
# 3 15.0022 22.1451 108.1381 -3.3322 -20.1334 -9.9032
# 4 4.6423 -0.4845 -3.3322 19.0101 -1.2225 0.0359
# 5 -11.6706 -6.7872 -20.1334 -1.2225 29.7938 7.7568
# 6 -0.7765 -1.9836 -9.9032 0.0359 7.7568 30.0809
#
#
#
# Elastic Compliance Matrix: (Units=1/GPa)
#
#
# Indices 1 2 3 4 5 6 
#
# 1 0.013783 -0.003556 -0.000580 -0.003275 0.004374 -0.001193
# 2 -0.003556 0.013746 -0.002248 0.000841 0.000251 0.000009
# 3 -0.000580 -0.002248 0.011240 0.002467 0.006472 0.001865
# 4 -0.003275 0.000841 0.002467 0.054037 0.002794 -0.000002
# 5 0.004374 0.000251 0.006472 0.002794 0.042059 -0.008589
# 6 -0.001193 0.000009 0.001865 -0.000002 -0.008589 0.036042
#
#
# Mechanical properties :
#
#
# Convention : Reuss Voigt Hill
#
# Bulk Modulus (GPa) = 38.45970 44.18532 41.32251
# Shear Modulus (GPa) = 25.99536 30.02793 28.01164
#
# Velocity S-wave (km/s) = 3.48089 3.74115 3.61336
# Velocity P-wave (km/s) = 5.83796 6.26551 6.05551
#
# Compressibility (1/GPa) = 0.02600124
#
# Stress axis : x y z
#
# Youngs Moduli (GPa) = 72.55114 72.74956 88.96743
#
# Poissons Ratio (x) = 0.25870 0.05159
# Poissons Ratio (y) = 0.25799 0.20001
# Poissons Ratio (z) = 0.04207 0.16355
#
# Static dielectric constant tensor:
#      x y z
#    x 3.957360 -0.053920 -0.043760 
#    y -0.053920 4.044040 -0.010140 
#    z -0.043760 -0.010140 3.545410 
# 
# 
# High freq. dielectric constant tensor:
#      x y z
#    x 1.844140 -0.010190 -0.009290 
#    y -0.010190 1.842830 0.001850 
#    z -0.009290 0.001850 1.814690 
# 
# From -- ./inp_files/156702.got.cif
#   From: 2010.06.25/outbox.cif.g09.slc.cpg/sg2_79_cif.got.tgz:156702.got - 2010.06.27 13:26:56.
