data_PCOD8029526
_publ_section_title
;
Structure prediction by ZEFSAII (Michael W. Deem and Ramdas Pophale) SiO2 
 PCOD8029526
Probable space group: P -1
;
_chemical_formula_sum "Si O2"
_cell_formula_units_Z 16
_cell_length_a 8.667787
_cell_length_b 11.057878
_cell_length_c 14.796270
_cell_angle_alpha 130.190931
_cell_angle_beta 129.470512
_cell_angle_gamma 42.999611
_cell_volume 701.410005
_symmetry_space_group_name_H-M "P -1"
_symmetry_group_IT_number 2
_symmetry_cell_setting 'triclinic'
loop_
_space_group_symop_operation_xyz
x,y,z
-x,-y,-z
loop_
_atom_site_type_symbol
_atom_site_label
_atom_site_fract_x
_atom_site_fract_y
_atom_site_fract_z
Si Si1 0.602253 0.740363 0.542810
Si Si2 0.231815 0.073705 0.410937
Si Si3 0.777201 0.482514 0.918936
Si Si4 0.629929 0.122611 0.969050
Si Si5 0.217359 0.674895 0.532408
Si Si6 0.860684 0.128941 0.875789
Si Si7 0.183714 0.737563 0.341311
Si Si8 0.632047 0.060789 0.272656
O O1 0.816822 0.750380 0.586139
O O2 0.703454 0.523503 0.492986
O O3 0.355273 0.820047 0.427255
O O4 0.516884 0.880347 0.662828
O O5 0.057391 0.167327 0.475973
O O6 0.500000 0.000000 0.500000
O O7 0.185142 0.936263 0.268399
O O8 0.827773 0.329078 0.940481
O O9 0.733593 0.430491 0.778515
O O10 0.540635 0.674636 0.952944
O O11 0.000000 0.500000 0.000000
O O12 0.680112 0.148189 0.895711
O O13 0.500669 0.006525 0.874299
O O14 0.869158 0.018111 0.065231
O O15 0.258118 0.652234 0.428919
O O16 0.368611 0.755758 0.672584
O O17 0.905537 0.891471 0.306334
#
# Coordination Sequence:
#
# PCOD8029526 Si02
#       8
#     2   2   2   2   2   2   2   2
#     4  11  23  42  68 102 137 179 236 287 351 416
#     4  12  24  45  71 101 139 185 231 290 359 419
#     4  12  26  46  74 108 139 190 241 289 362 421
#     4  11  26  50  75 101 149 188 241 295 348 434
#     4  11  25  40  70 103 141 180 229 298 348 419
#     4  11  27  50  72 106 143 192 240 294 357 421
#     4  11  23  44  66 102 141 182 229 286 353 424
#     4  11  20  44  68  97 136 184 225 280 358 409
#
# _framework density 22.811195000000001
#
# number of rings (size 3 to 8) (size 9 to 14) (size 15 to 20)
#    0.000    0.750    2.500    6.750    1.750    2.500 
#    4.500    0.000    0.000    0.000    0.000    0.000 
#    0.000    0.000    0.000    0.000    0.000    0.000 
#
# Total GULP energy -198319.213483 kJ/mol
# GULP energy per Si atom -12394.950843 kJ/mol
# Density = 2.275928 g / cm^3
# Si number density = 22.811195 Si / 1000 Ang^3
#
#
#
# Elastic Constant Matrix: (Units=GPa)
#
#
# Indices 1 2 3 4 5 6 
#
# 1 102.5749 33.4109 34.7966 18.6031 17.1260 -8.4530
# 2 33.4109 114.3719 48.1663 24.1856 3.0445 -7.4226
# 3 34.7966 48.1663 104.1109 21.6945 8.3194 1.7951
# 4 18.6031 24.1856 21.6945 35.7182 -2.9959 -2.0918
# 5 17.1260 3.0445 8.3194 -2.9959 42.9349 10.3702
# 6 -8.4530 -7.4226 1.7951 -2.0918 10.3702 33.4356
#
#
#
# Elastic Compliance Matrix: (Units=1/GPa)
#
#
# Indices 1 2 3 4 5 6 
#
# 1 0.013324 -0.001392 -0.002396 -0.004783 -0.006252 0.004828
# 2 -0.001392 0.012074 -0.004119 -0.004845 -0.000415 0.002375
# 3 -0.002396 -0.004119 0.013329 -0.004278 -0.001112 -0.002159
# 4 -0.004783 -0.004845 -0.004278 0.036779 0.006040 -0.001627
# 5 -0.006252 -0.000415 -0.001112 0.006040 0.028916 -0.010203
# 6 0.004828 0.002375 -0.002159 -0.001627 -0.010203 0.034835
#
#
# Mechanical properties :
#
#
# Convention : Reuss Voigt Hill
#
# Bulk Modulus (GPa) = 43.64282 61.53393 52.58837
# Shear Modulus (GPa) = 30.72949 36.06333 33.39641
#
# Velocity S-wave (km/s) = 3.67430 3.98043 3.83042
# Velocity P-wave (km/s) = 6.09708 6.93967 6.53197
#
# Compressibility (1/GPa) = 0.02291328
#
# Stress axis : x y z
#
# Youngs Moduli (GPa) = 75.04988 82.81948 75.02199
#
# Poissons Ratio (x) = 0.11528 0.17978
# Poissons Ratio (y) = 0.10447 0.30903
# Poissons Ratio (z) = 0.17984 0.34115
#
# Static dielectric constant tensor:
#      x y z
#    x 5.472590 0.351450 0.242710 
#    y 0.351450 4.284690 0.224490 
#    z 0.242710 0.224490 4.179480 
# 
# 
# High freq. dielectric constant tensor:
#      x y z
#    x 1.931390 0.002690 0.007140 
#    y 0.002690 1.911580 0.012000 
#    z 0.007140 0.012000 1.899020 
# 
# From -- ./inp_files/175212.got.cif
#   From: 2010.06.25/outbox.cif.g09.slc.cpg/sg2_88_cif.got.tgz:175212.got - 2010.06.27 13:26:56.
