data_PCOD8029275
_publ_section_title
;
Structure prediction by ZEFSAII (Michael W. Deem and Ramdas Pophale) SiO2 
 PCOD8029275
Probable space group: P -1
;
_chemical_formula_sum "Si O2"
_cell_formula_units_Z 16
_cell_length_a 9.098274
_cell_length_b 20.963560
_cell_length_c 15.325859
_cell_angle_alpha 20.470930
_cell_angle_beta 47.375784
_cell_angle_gamma 48.275650
_cell_volume 746.707424
_symmetry_space_group_name_H-M "P -1"
_symmetry_group_IT_number 2
_symmetry_cell_setting 'triclinic'
loop_
_space_group_symop_operation_xyz
x,y,z
-x,-y,-z
loop_
_atom_site_type_symbol
_atom_site_label
_atom_site_fract_x
_atom_site_fract_y
_atom_site_fract_z
Si Si1 0.995991 0.796100 0.423442
Si Si2 0.182942 0.843105 0.636701
Si Si3 0.679232 0.982565 0.064157
Si Si4 0.556412 0.608125 0.177931
Si Si5 0.935972 0.606205 0.145367
Si Si6 0.596518 0.986942 0.288842
Si Si7 0.831655 0.373707 0.252879
Si Si8 0.346821 0.280122 0.741847
O O1 0.767291 0.889124 0.409951
O O2 0.115440 0.934185 0.144171
O O3 0.999180 0.611065 0.603005
O O4 0.098595 0.759437 0.523551
O O5 0.384298 0.922697 0.483821
O O6 0.224057 0.747327 0.649701
O O7 0.000000 0.000000 0.500000
O O8 0.127446 0.701094 0.914522
O O9 0.489028 0.131893 0.930138
O O10 0.665656 0.924450 0.244000
O O11 0.678732 0.797408 0.245120
O O12 0.749447 0.660653 0.085435
O O13 0.630318 0.506011 0.189604
O O14 0.439410 0.472298 0.456739
O O15 0.412353 0.793587 0.977336
O O16 0.868858 0.679563 0.174627
O O17 0.000000 0.500000 0.000000
#
# Coordination Sequence:
#
# PCOD8029275 Si02
#       8
#     2   2   2   2   2   2   2   2
#     4  11  25  42  65  96 134 168 204 269 332 376
#     4  12  23  41  70  94 127 168 223 261 303 385
#     4  11  22  39  66  98 129 162 216 269 316 376
#     4  11  20  39  65  93 125 168 213 265 311 378
#     4  11  21  40  64  93 127 172 213 260 317 374
#     4  12  25  42  64  99 133 169 206 265 333 374
#     4  11  21  43  67  93 124 167 219 257 310 375
#     4  11  21  37  69  98 119 166 229 266 298 379
#
# _framework density 21.427401
#
# number of rings (size 3 to 8) (size 9 to 14) (size 15 to 20)
#    0.000    0.750    7.500    2.250    3.500    0.500 
#    0.000    6.250    0.000    0.000    0.000    0.000 
#    0.000    0.000    0.000    0.000    0.000    0.000 
#
# Total GULP energy -198477.107375 kJ/mol
# GULP energy per Si atom -12404.819211 kJ/mol
# Density = 2.137863 g / cm^3
# Si number density = 21.427401 Si / 1000 Ang^3
#
#
#
# Elastic Constant Matrix: (Units=GPa)
#
#
# Indices 1 2 3 4 5 6 
#
# 1 41.4332 32.4644 22.9887 -6.2849 -3.0812 -13.1007
# 2 32.4644 135.7738 32.3621 -6.2883 3.2842 0.1831
# 3 22.9887 32.3621 88.2371 4.6232 -18.2078 -7.3617
# 4 -6.2849 -6.2883 4.6232 48.5024 -9.4384 -1.0024
# 5 -3.0812 3.2842 -18.2078 -9.4384 24.7848 0.0792
# 6 -13.1007 0.1831 -7.3617 -1.0024 0.0792 33.5940
#
#
#
# Elastic Compliance Matrix: (Units=1/GPa)
#
#
# Indices 1 2 3 4 5 6 
#
# 1 0.039017 -0.007847 -0.005599 0.005619 0.003872 0.014190
# 2 -0.007847 0.010019 -0.002859 -0.000408 -0.004547 -0.003743
# 3 -0.005599 -0.002859 0.016359 -0.000379 0.011552 0.001379
# 4 0.005619 -0.000408 -0.000379 0.023196 0.009299 0.002781
# 5 0.003872 -0.004547 0.011552 0.009299 0.053445 0.004218
# 6 0.014190 -0.003743 0.001379 0.002781 0.004218 0.035697
#
#
# Mechanical properties :
#
#
# Convention : Reuss Voigt Hill
#
# Bulk Modulus (GPa) = 30.50209 49.00828 39.75518
# Shear Modulus (GPa) = 22.59658 33.21816 27.90737
#
# Velocity S-wave (km/s) = 3.25093 3.94161 3.61281
# Velocity P-wave (km/s) = 5.32516 6.60579 5.99975
#
# Compressibility (1/GPa) = 0.03278464
#
# Stress axis : x y z
#
# Youngs Moduli (GPa) = 25.62967 99.80786 61.12793
#
# Poissons Ratio (x) = 0.78323 0.34224
# Poissons Ratio (y) = 0.20113 0.17479
# Poissons Ratio (z) = 0.14349 0.28539
#
# Static dielectric constant tensor:
#      x y z
#    x 3.547460 0.037430 -0.177920 
#    y 0.037430 4.369560 0.054310 
#    z -0.177920 0.054310 3.960470 
# 
# 
# High freq. dielectric constant tensor:
#      x y z
#    x 1.799220 -0.000770 -0.018010 
#    y -0.000770 1.858780 0.000320 
#    z -0.018010 0.000320 1.850020 
# 
# From -- ./inp_files/178853.got.cif
#   From: 2010.06.25/outbox.cif.g09.slc.cpg/sg2_90_cif.got.tgz:178853.got - 2010.06.27 13:26:56.
