data_PCOD8029860
_publ_section_title
;
Structure prediction by ZEFSAII (Michael W. Deem and Ramdas Pophale) SiO2 
 PCOD8029860
Probable space group: P -1
;
_chemical_formula_sum "Si O2"
_cell_formula_units_Z 16
_cell_length_a 11.964430
_cell_length_b 13.641037
_cell_length_c 9.822544
_cell_angle_alpha 75.542578
_cell_angle_beta 138.677976
_cell_angle_gamma 128.618298
_cell_volume 748.776571
_symmetry_space_group_name_H-M "P -1"
_symmetry_group_IT_number 2
_symmetry_cell_setting 'triclinic'
loop_
_space_group_symop_operation_xyz
x,y,z
-x,-y,-z
loop_
_atom_site_type_symbol
_atom_site_label
_atom_site_fract_x
_atom_site_fract_y
_atom_site_fract_z
Si Si1 0.633287 0.491198 0.516568
Si Si2 0.881930 0.359115 0.126531
Si Si3 0.793997 0.001578 0.468300
Si Si4 0.449615 0.527566 0.087028
Si Si5 0.416319 0.749404 0.370902
Si Si6 0.682101 0.186387 0.265684
Si Si7 0.940045 0.361047 0.703807
Si Si8 0.303741 0.163660 0.833338
O O1 0.500000 0.500000 0.500000
O O2 0.610285 0.531736 0.334484
O O3 0.534725 0.336840 0.480582
O O4 0.904351 0.609381 0.763140
O O5 0.761206 0.236038 0.165608
O O6 0.001365 0.497798 0.271881
O O7 0.706715 0.322644 0.861710
O O8 0.682398 0.066456 0.326413
O O9 0.072249 0.116058 0.707939
O O10 0.662804 0.903368 0.514985
O O11 0.752349 0.915598 0.329788
O O12 0.513251 0.672770 0.092124
O O13 0.500000 0.500000 0.000000
O O14 0.181845 0.400047 0.928604
O O15 0.251873 0.750346 0.319602
O O16 0.845575 0.305363 0.485125
O O17 0.426045 0.133595 0.059536
#
# Coordination Sequence:
#
# PCOD8029860 Si02
#       8
#     2   2   2   2   2   2   2   2
#     4  11  22  37  62  98 129 169 209 268 339 387
#     4  11  21  40  67  95 129 170 215 277 331 389
#     4  11  24  46  64  99 130 184 227 264 318 402
#     4  12  24  42  68 102 130 163 219 282 339 388
#     4  11  24  42  64  92 140 173 215 263 329 408
#     4  12  24  42  71  98 128 178 224 270 339 377
#     4  11  23  41  65  97 133 165 209 283 336 391
#     4  11  24  42  70  96 135 167 227 287 309 390
#
# _framework density 21.368189000000001
#
# number of rings (size 3 to 8) (size 9 to 14) (size 15 to 20)
#    0.000    0.750    2.500    6.750    3.500    1.500 
#    2.250    0.625    0.000    0.000    0.000    0.000 
#    0.000    0.000    0.000    0.000    0.000    0.000 
#
# Total GULP energy -198373.454485 kJ/mol
# GULP energy per Si atom -12398.340905 kJ/mol
# Density = 2.131955 g / cm^3
# Si number density = 21.368189 Si / 1000 Ang^3
#
#
#
# Elastic Constant Matrix: (Units=GPa)
#
#
# Indices 1 2 3 4 5 6 
#
# 1 108.7692 43.1778 32.7725 -0.2693 13.2431 8.8878
# 2 43.1778 91.9682 32.3691 -13.2624 14.9914 10.4019
# 3 32.7725 32.3691 81.3971 -5.2222 19.0855 2.5313
# 4 -0.2693 -13.2624 -5.2222 30.8132 -1.6766 8.3974
# 5 13.2431 14.9914 19.0855 -1.6766 41.7233 7.5078
# 6 8.8878 10.4019 2.5313 8.3974 7.5078 37.7498
#
#
#
# Elastic Compliance Matrix: (Units=1/GPa)
#
#
# Indices 1 2 3 4 5 6 
#
# 1 0.012119 -0.004795 -0.002922 -0.002312 -0.000759 -0.000671
# 2 -0.004795 0.016201 -0.003523 0.007459 -0.001589 -0.004442
# 3 -0.002922 -0.003523 0.016121 0.000470 -0.005442 0.001555
# 4 -0.002312 0.007459 0.000470 0.038622 0.001259 -0.010384
# 5 -0.000759 -0.001589 -0.005442 0.001259 0.028202 -0.004908
# 6 -0.000671 -0.004442 0.001555 -0.010384 -0.004908 0.031054
#
#
# Mechanical properties :
#
#
# Convention : Reuss Voigt Hill
#
# Bulk Modulus (GPa) = 45.53510 55.41926 50.47718
# Shear Modulus (GPa) = 29.04947 33.64493 31.34720
#
# Velocity S-wave (km/s) = 3.69110 3.97234 3.83430
# Velocity P-wave (km/s) = 6.28663 6.85792 6.57848
#
# Compressibility (1/GPa) = 0.02196108
#
# Stress axis : x y z
#
# Youngs Moduli (GPa) = 82.51346 61.72285 62.03199
#
# Poissons Ratio (x) = 0.29596 0.18126
# Poissons Ratio (y) = 0.39566 0.21854
# Poissons Ratio (z) = 0.24111 0.21745
#
# Static dielectric constant tensor:
#      x y z
#    x 4.282880 0.234210 0.334040 
#    y 0.234210 3.905610 0.164060 
#    z 0.334040 0.164060 3.985940 
# 
# 
# High freq. dielectric constant tensor:
#      x y z
#    x 1.853140 0.007930 0.018040 
#    y 0.007930 1.824010 0.001040 
#    z 0.018040 0.001040 1.837680 
# 
# From -- ./inp_files/272762.got.cif
#   From: 2010.06.25/outbox.cif.g09.slc.cpg/sg2_137_cif.got.tgz:272762.got - 2010.06.27 13:26:56.
