data_PCOD8029329
_publ_section_title
;
Structure prediction by ZEFSAII (Michael W. Deem and Ramdas Pophale) SiO2 
 PCOD8029329
Probable space group: P -1
;
_chemical_formula_sum "Si O2"
_cell_formula_units_Z 14
_cell_length_a 14.455679
_cell_length_b 8.885088
_cell_length_c 10.969664
_cell_angle_alpha 96.425394
_cell_angle_beta 128.817066
_cell_angle_gamma 124.159464
_cell_volume 630.879616
_symmetry_space_group_name_H-M "P -1"
_symmetry_group_IT_number 2
_symmetry_cell_setting 'triclinic'
loop_
_space_group_symop_operation_xyz
x,y,z
-x,-y,-z
loop_
_atom_site_type_symbol
_atom_site_label
_atom_site_fract_x
_atom_site_fract_y
_atom_site_fract_z
Si Si1 0.110480 0.267706 0.648816
Si Si2 0.670357 0.605017 0.739609
Si Si3 0.000804 0.191034 0.137828
Si Si4 0.708512 0.122029 0.969374
Si Si5 0.606461 0.351589 0.888362
Si Si6 0.760320 0.138804 0.304290
Si Si7 0.712742 0.419005 0.388867
O O1 0.305935 0.503787 0.743955
O O2 0.968118 0.264771 0.507726
O O3 0.200426 0.356791 0.867121
O O4 0.000000 0.000000 0.500000
O O5 0.500000 0.500000 0.500000
O O6 0.546693 0.381222 0.719476
O O7 0.827824 0.651809 0.809839
O O8 0.814051 0.879449 0.946418
O O9 0.120305 0.308219 0.374861
O O10 0.896883 0.249503 0.059333
O O11 0.684411 0.265399 0.912126
O O12 0.504594 0.811144 0.741701
O O13 0.722958 0.133605 0.130149
O O14 0.417863 0.147771 0.807775
O O15 0.782964 0.318983 0.412730
#
# Coordination Sequence:
#
# PCOD8029329 Si02
#       7
#     2   2   2   2   2   2   2
#     4  12  23  35  61 101 136 170 213 259 326 399
#     4  11  27  50  67  88 133 181 225 276 322 381
#     4  11  24  43  72  94 126 179 220 269 333 380
#     4  11  21  41  70 101 134 173 212 267 333 391
#     4  11  24  43  66  98 133 172 223 268 324 394
#     4  11  22  40  66 100 143 172 201 267 334 399
#     4  11  20  40  66  98 136 170 208 265 332 390
#
# _framework density 22.191238999999999
#
# number of rings (size 3 to 8) (size 9 to 14) (size 15 to 20)
#    0.000    0.857    4.286    3.857    0.000    5.714 
#    0.000    6.429    0.000    0.000    0.000    0.000 
#    0.000    0.000    0.000    0.000    0.000    0.000 
#
# Total GULP energy -173488.723291 kJ/mol
# GULP energy per Si atom -12392.051664 kJ/mol
# Density = 2.214073 g / cm^3
# Si number density = 22.191239 Si / 1000 Ang^3
#
#
#
# Elastic Constant Matrix: (Units=GPa)
#
#
# Indices 1 2 3 4 5 6 
#
# 1 81.3488 24.7053 37.7630 8.6058 1.2955 -1.5067
# 2 24.7053 122.7336 56.7003 -6.2884 -3.8909 13.3880
# 3 37.7630 56.7003 132.6982 2.0445 -11.6837 0.1731
# 4 8.6058 -6.2884 2.0445 37.1224 -2.0333 0.8310
# 5 1.2955 -3.8909 -11.6837 -2.0333 30.5172 2.0109
# 6 -1.5067 13.3880 0.1731 0.8310 2.0109 7.7925
#
#
#
# Elastic Compliance Matrix: (Units=1/GPa)
#
#
# Indices 1 2 3 4 5 6 
#
# 1 0.015409 -0.002866 -0.003390 -0.004254 -0.003211 0.009260
# 2 -0.002866 0.014140 -0.005084 0.004020 0.001937 -0.025663
# 3 -0.003390 -0.005084 0.010954 -0.000663 0.003178 0.007087
# 4 -0.004254 0.004020 -0.000663 0.029074 0.003142 -0.011626
# 5 -0.003211 0.001937 0.003178 0.003142 0.035468 -0.013507
# 6 0.009260 -0.025663 0.007087 -0.011626 -0.013507 0.178777
#
#
# Mechanical properties :
#
#
# Convention : Reuss Voigt Hill
#
# Bulk Modulus (GPa) = 56.10543 63.90199 60.00371
# Shear Modulus (GPa) = 16.00290 29.59391 22.79840
#
# Velocity S-wave (km/s) = 2.68831 3.65579 3.20872
# Velocity P-wave (km/s) = 5.91385 6.83215 6.38952
#
# Compressibility (1/GPa) = 0.01782359
#
# Stress axis : x y z
#
# Youngs Moduli (GPa) = 64.89561 70.72033 91.29146
#
# Poissons Ratio (x) = 0.20265 0.30948
# Poissons Ratio (y) = 0.18596 0.46416
# Poissons Ratio (z) = 0.22000 0.35957
#
# Static dielectric constant tensor:
#      x y z
#    x 4.197220 -0.064680 0.083760 
#    y -0.064680 3.779080 0.186250 
#    z 0.083760 0.186250 4.206860 
# 
# 
# High freq. dielectric constant tensor:
#      x y z
#    x 1.875620 -0.007580 0.002820 
#    y -0.007580 1.857400 0.017100 
#    z 0.002820 0.017100 1.885270 
# 
# From -- ./inp_files/315920.got.cif
#   From: 2010.06.25/outbox.cif.g09.slc.cpg/sg2_158_cif.got.tgz:315920.got - 2010.06.27 13:26:56.
