data_PCOD8029260
_publ_section_title
;
Structure prediction by ZEFSAII (Michael W. Deem and Ramdas Pophale) SiO2 
 PCOD8029260
Probable space group: P -1
;
_chemical_formula_sum "Si O2"
_cell_formula_units_Z 16
_cell_length_a 9.869876
_cell_length_b 22.087508
_cell_length_c 18.778555
_cell_angle_alpha 18.466010
_cell_angle_beta 37.865772
_cell_angle_gamma 37.029097
_cell_volume 769.651013
_symmetry_space_group_name_H-M "P -1"
_symmetry_group_IT_number 2
_symmetry_cell_setting 'triclinic'
loop_
_space_group_symop_operation_xyz
x,y,z
-x,-y,-z
loop_
_atom_site_type_symbol
_atom_site_label
_atom_site_fract_x
_atom_site_fract_y
_atom_site_fract_z
Si Si1 0.475390 0.173344 0.070520
Si Si2 0.584269 0.470603 0.917534
Si Si3 0.114321 0.706528 0.289755
Si Si4 0.771502 0.843950 0.400063
Si Si5 0.749707 0.469157 0.140511
Si Si6 0.702816 0.085322 0.664475
Si Si7 0.030991 0.922121 0.834898
Si Si8 0.214351 0.259794 0.743262
O O1 0.547602 0.011391 0.283677
O O2 0.291483 0.107985 0.170015
O O3 0.684954 0.184819 0.920629
O O4 0.385388 0.386647 0.904167
O O5 0.715804 0.634887 0.662063
O O6 0.370673 0.486618 0.935633
O O7 0.500000 0.500000 0.000000
O O8 0.760942 0.260467 0.068225
O O9 0.213759 0.478992 0.525171
O O10 0.957462 0.829888 0.277524
O O11 0.984913 0.722566 0.250810
O O12 0.868907 0.907939 0.361106
O O13 0.750925 0.249879 0.408332
O O14 0.000000 0.500000 0.000000
O O15 0.460504 0.156718 0.724490
O O16 0.909140 0.023535 0.702027
O O17 0.844693 0.860295 0.031122
#
# Coordination Sequence:
#
# PCOD8029260 Si02
#       8
#     2   2   2   2   2   2   2   2
#     4  12  23  44  74 103 135 183 229 275 343 414
#     4  12  28  49  72 101 136 181 237 287 334 403
#     4  11  20  38  76 103 134 181 226 274 341 418
#     4  12  23  44  74 103 135 183 229 275 343 414
#     4  12  28  49  72 101 136 181 237 287 334 403
#     4  12  27  45  70 105 144 178 224 284 346 409
#     4  12  27  45  70 105 144 178 224 284 346 409
#     4  11  20  41  70 104 143 176 218 281 345 410
#
# _framework density 20.788643
#
# number of rings (size 3 to 8) (size 9 to 14) (size 15 to 20)
#    0.000    0.250    7.500    1.500    3.500    2.000 
#    0.000    1.250    0.000    0.000    0.000    0.000 
#    0.000    0.000    0.000    0.000    0.000    0.000 
#
# Total GULP energy -198483.724605 kJ/mol
# GULP energy per Si atom -12405.232788 kJ/mol
# Density = 2.074133 g / cm^3
# Si number density = 20.788643 Si / 1000 Ang^3
#
#
#
# Elastic Constant Matrix: (Units=GPa)
#
#
# Indices 1 2 3 4 5 6 
#
# 1 119.0641 27.1338 25.0315 -1.9281 -13.1306 1.8123
# 2 27.1338 67.5333 36.2491 14.8704 -4.8809 4.2080
# 3 25.0315 36.2491 65.4356 -7.6032 -14.4337 -0.8806
# 4 -1.9281 14.8704 -7.6032 36.3182 4.3930 -3.0669
# 5 -13.1306 -4.8809 -14.4337 4.3930 34.9578 -4.0314
# 6 1.8123 4.2080 -0.8806 -3.0669 -4.0314 31.8057
#
#
#
# Elastic Compliance Matrix: (Units=1/GPa)
#
#
# Indices 1 2 3 4 5 6 
#
# 1 0.009719 -0.003506 -0.001030 0.001452 0.002594 0.000350
# 2 -0.003506 0.029291 -0.017521 -0.015981 -0.003157 -0.006102
# 3 -0.001030 -0.017521 0.028697 0.012609 0.008054 0.005408
# 4 0.001452 -0.015981 0.012609 0.037354 -0.000491 0.005920
# 5 0.002594 -0.003157 0.008054 -0.000491 0.033061 0.004636
# 6 0.000350 -0.006102 0.005408 0.005920 0.004636 0.033536
#
#
# Mechanical properties :
#
#
# Convention : Reuss Voigt Hill
#
# Bulk Modulus (GPa) = 42.38467 47.65130 45.01798
# Shear Modulus (GPa) = 22.35780 31.52424 26.94102
#
# Velocity S-wave (km/s) = 3.28301 3.89834 3.60383
# Velocity P-wave (km/s) = 5.89945 6.57528 6.24651
#
# Compressibility (1/GPa) = 0.02359344
#
# Stress axis : x y z
#
# Youngs Moduli (GPa) = 102.89584 34.13979 34.84738
#
# Poissons Ratio (x) = 0.11969 0.03590
# Poissons Ratio (y) = 0.36074 0.61055
# Poissons Ratio (z) = 0.10599 0.59815
#
# Static dielectric constant tensor:
#      x y z
#    x 3.918850 -0.157590 -0.010150 
#    y -0.157590 4.236480 -0.201570 
#    z -0.010150 -0.201570 4.028830 
# 
# 
# High freq. dielectric constant tensor:
#      x y z
#    x 1.812280 0.005810 -0.010820 
#    y 0.005810 1.815920 -0.009040 
#    z -0.010820 -0.009040 1.829950 
# 
# From -- ./inp_files/202238.got.cif
#   From: 2010.06.25/outbox.cif.g09.slc.cpg/sg2_102_cif.got.tgz:202238.got - 2010.06.27 13:26:56.
