data_PCOD8029305
_publ_section_title
;
Structure prediction by ZEFSAII (Michael W. Deem and Ramdas Pophale) SiO2 
 PCOD8029305
Probable space group: P -1
;
_chemical_formula_sum "Si O2"
_cell_formula_units_Z 16
_cell_length_a 11.407640
_cell_length_b 9.473596
_cell_length_c 13.574533
_cell_angle_alpha 107.195779
_cell_angle_beta 55.012415
_cell_angle_gamma 63.409589
_cell_volume 706.155414
_symmetry_space_group_name_H-M "P -1"
_symmetry_group_IT_number 2
_symmetry_cell_setting 'triclinic'
loop_
_space_group_symop_operation_xyz
x,y,z
-x,-y,-z
loop_
_atom_site_type_symbol
_atom_site_label
_atom_site_fract_x
_atom_site_fract_y
_atom_site_fract_z
Si Si1 0.711860 0.364525 0.036226
Si Si2 0.642506 0.942702 0.146976
Si Si3 0.234595 0.900412 0.739850
Si Si4 0.838398 0.740136 0.505023
Si Si5 0.587837 0.147163 0.013480
Si Si6 0.187852 0.457488 0.120747
Si Si7 0.047691 0.681129 0.584539
Si Si8 0.537518 0.428232 0.610067
O O1 0.570475 0.338429 0.059973
O O2 0.563299 0.556521 0.237049
O O3 0.727607 0.470048 0.964410
O O4 0.962390 0.100366 0.894499
O O5 0.735344 0.965142 0.196373
O O6 0.434964 0.005751 0.299869
O O7 0.556253 0.116195 0.134116
O O8 0.839924 0.665181 0.960068
O O9 0.322968 0.694083 0.721882
O O10 0.381947 0.772288 0.540363
O O11 0.854201 0.552132 0.472829
O O12 0.940003 0.697396 0.339604
O O13 0.979143 0.723896 0.512086
O O14 0.374172 0.259683 0.074659
O O15 0.829060 0.897773 0.801426
O O16 0.241471 0.647524 0.494879
#
# Coordination Sequence:
#
# PCOD8029305 Si02
#       8
#     2   2   2   2   2   2   2   2
#     4  12  26  45  67  98 139 174 215 268 338 392
#     4  12  24  43  71  98 129 177 226 272 318 388
#     4  11  25  42  71  98 124 176 227 275 316 385
#     4  11  22  39  66  99 132 169 216 270 332 381
#     4  12  22  44  71 101 131 171 225 271 327 389
#     4  12  27  43  65 100 141 175 208 273 336 398
#     4  11  20  39  72 100 127 167 224 280 320 380
#     4  11  23  43  71 100 126 169 228 279 321 376
#
# _framework density 22.657900000000001
#
# number of rings (size 3 to 8) (size 9 to 14) (size 15 to 20)
#    0.000    0.500    6.250    3.375    0.000    2.500 
#    0.000    2.500    0.000    0.000    0.000    0.000 
#    0.000    0.000    0.000    0.000    0.000    0.000 
#
# Total GULP energy -198450.635980 kJ/mol
# GULP energy per Si atom -12403.164749 kJ/mol
# Density = 2.260633 g / cm^3
# Si number density = 22.657900 Si / 1000 Ang^3
#
#
#
# Elastic Constant Matrix: (Units=GPa)
#
#
# Indices 1 2 3 4 5 6 
#
# 1 89.8290 19.3461 30.8548 0.6837 23.0024 5.9801
# 2 19.3461 38.4350 22.3022 -16.6840 3.4286 8.7165
# 3 30.8548 22.3022 136.4026 -26.8822 20.2590 -9.4868
# 4 0.6837 -16.6840 -26.8822 31.2310 -1.6463 2.0850
# 5 23.0024 3.4286 20.2590 -1.6463 42.6426 6.9995
# 6 5.9801 8.7165 -9.4868 2.0850 6.9995 19.5340
#
#
#
# Elastic Compliance Matrix: (Units=1/GPa)
#
#
# Indices 1 2 3 4 5 6 
#
# 1 0.015896 -0.009989 -0.002371 -0.008237 -0.007280 0.001927
# 2 -0.009989 0.049855 -0.004003 0.025667 0.008703 -0.026991
# 3 -0.002371 -0.004003 0.011202 0.006693 -0.004941 0.009008
# 4 -0.008237 0.025667 0.006693 0.052679 0.003282 -0.012480
# 5 -0.007280 0.008703 -0.004941 0.003282 0.031742 -0.015779
# 6 0.001927 -0.026991 0.009008 -0.012480 -0.015779 0.074008
#
#
# Mechanical properties :
#
#
# Convention : Reuss Voigt Hill
#
# Bulk Modulus (GPa) = 22.61067 45.51922 34.06495
# Shear Modulus (GPa) = 17.67716 31.49241 24.58478
#
# Velocity S-wave (km/s) = 2.79619 3.73219 3.29757
# Velocity P-wave (km/s) = 4.51949 6.22139 5.43744
#
# Compressibility (1/GPa) = 0.04422691
#
# Stress axis : x y z
#
# Youngs Moduli (GPa) = 62.90728 20.05803 89.27295
#
# Poissons Ratio (x) = 0.20036 0.21164
# Poissons Ratio (y) = 0.62839 0.35739
# Poissons Ratio (z) = 0.14914 0.08030
#
# Static dielectric constant tensor:
#      x y z
#    x 4.152030 -0.005000 0.263440 
#    y -0.005000 3.599020 -0.105360 
#    z 0.263440 -0.105360 4.528730 
# 
# 
# High freq. dielectric constant tensor:
#      x y z
#    x 1.895900 0.008040 0.015240 
#    y 0.008040 1.854890 -0.008270 
#    z 0.015240 -0.008270 1.922110 
# 
# From -- ./inp_files/398068.got.cif
#   From: 2010.06.25/outbox.cif.g09.slc.cpg/sg2_200_cif.got.tgz:398068.got - 2010.06.27 13:26:56.
