data_PCOD8029303
_publ_section_title
;
Structure prediction by ZEFSAII (Michael W. Deem and Ramdas Pophale) SiO2 
 PCOD8029303
Probable space group: P -1
;
_chemical_formula_sum "Si O2"
_cell_formula_units_Z 16
_cell_length_a 9.736666
_cell_length_b 8.701115
_cell_length_c 22.836878
_cell_angle_alpha 135.796263
_cell_angle_beta 133.329498
_cell_angle_gamma 80.286688
_cell_volume 756.196334
_symmetry_space_group_name_H-M "P -1"
_symmetry_group_IT_number 2
_symmetry_cell_setting 'triclinic'
loop_
_space_group_symop_operation_xyz
x,y,z
-x,-y,-z
loop_
_atom_site_type_symbol
_atom_site_label
_atom_site_fract_x
_atom_site_fract_y
_atom_site_fract_z
Si Si1 0.928749 0.345193 0.375631
Si Si2 0.570458 0.857771 0.867273
Si Si3 0.225628 0.228973 0.855336
Si Si4 0.238555 0.275481 0.216644
Si Si5 0.768047 0.778743 0.007186
Si Si6 0.449439 0.646123 0.573230
Si Si7 0.242188 0.678255 0.157294
Si Si8 0.993087 0.484410 0.150420
O O1 0.717893 0.336208 0.281886
O O2 0.000000 0.500000 0.500000
O O3 0.167345 0.510126 0.449319
O O4 0.829514 0.025445 0.268939
O O5 0.703632 0.764135 0.843087
O O6 0.602954 0.837407 0.940994
O O7 0.714535 0.187435 0.981430
O O8 0.189306 0.144950 0.890740
O O9 0.038604 0.275345 0.788032
O O10 0.500000 0.500000 0.000000
O O11 0.489713 0.432815 0.369469
O O12 0.135597 0.452784 0.234654
O O13 0.035630 0.974591 0.107941
O O14 0.622684 0.437667 0.861504
O O15 0.500000 0.500000 0.500000
O O16 0.602835 0.984355 0.706000
O O17 0.168695 0.568184 0.171056
O O18 0.000000 0.500000 0.000000
#
# Coordination Sequence:
#
# PCOD8029303 Si02
#       8
#     2   2   2   2   2   2   2   2
#     4  12  27  46  68  94 147 189 217 275 362 424
#     4  11  21  42  68 107 135 177 219 282 360 403
#     4  12  26  44  67 103 131 181 239 285 333 401
#     4  11  20  40  69 104 133 174 223 288 346 399
#     4  11  22  38  71 102 134 166 237 292 331 397
#     4  12  26  45  65  96 139 189 232 272 342 418
#     4  12  20  37  71  98 123 169 229 283 325 387
#     4  11  20  39  71 102 130 163 233 293 326 388
#
# _framework density 21.158525000000001
#
# number of rings (size 3 to 8) (size 9 to 14) (size 15 to 20)
#    0.000    0.500    7.500    2.250    1.750    0.500 
#    2.250    4.375    0.000    0.000    0.000    0.000 
#    0.000    0.000    0.000    0.000    0.000    0.000 
#
# Total GULP energy -198222.579132 kJ/mol
# GULP energy per Si atom -12388.911196 kJ/mol
# Density = 2.111037 g / cm^3
# Si number density = 21.158525 Si / 1000 Ang^3
#
#
#
# Elastic Constant Matrix: (Units=GPa)
#
#
# Indices 1 2 3 4 5 6 
#
# 1 94.4999 40.3963 41.8943 3.5474 1.2739 -11.0833
# 2 40.3963 127.3185 48.1992 -3.9143 2.0120 -13.2938
# 3 41.8943 48.1992 116.7256 7.9172 4.8401 -11.5157
# 4 3.5474 -3.9143 7.9172 31.9843 -13.7793 2.9282
# 5 1.2739 2.0120 4.8401 -13.7793 42.8131 2.5328
# 6 -11.0833 -13.2938 -11.5157 2.9282 2.5328 28.7279
#
#
#
# Elastic Compliance Matrix: (Units=1/GPa)
#
#
# Indices 1 2 3 4 5 6 
#
# 1 0.013661 -0.002814 -0.003334 -0.001535 -0.000559 0.002838
# 2 -0.002814 0.010242 -0.003207 0.002441 0.000629 0.002064
# 3 -0.003334 -0.003207 0.011745 -0.004295 -0.002614 0.002606
# 4 -0.001535 0.002441 -0.004295 0.039149 0.013392 -0.006355
# 5 -0.000559 0.000629 -0.002614 0.013392 0.028236 -0.004827
# 6 0.002838 0.002064 0.002606 -0.006355 -0.004827 0.038977
#
#
# Mechanical properties :
#
#
# Convention : Reuss Voigt Hill
#
# Bulk Modulus (GPa) = 59.04160 66.61373 62.82767
# Shear Modulus (GPa) = 30.05422 34.57534 32.31478
#
# Velocity S-wave (km/s) = 3.77295 4.04680 3.91227
# Velocity P-wave (km/s) = 6.85165 7.30664 7.08280
#
# Compressibility (1/GPa) = 0.01693721
#
# Stress axis : x y z
#
# Youngs Moduli (GPa) = 73.20097 97.63679 85.14472
#
# Poissons Ratio (x) = 0.27480 0.28385
# Poissons Ratio (y) = 0.20602 0.27307
# Poissons Ratio (z) = 0.24403 0.31313
#
# Static dielectric constant tensor:
#      x y z
#    x 4.112880 -0.261760 -0.025160 
#    y -0.261760 4.414370 0.121190 
#    z -0.025160 0.121190 3.953310 
# 
# 
# High freq. dielectric constant tensor:
#      x y z
#    x 1.823640 -0.011920 0.001200 
#    y -0.011920 1.840920 -0.000170 
#    z 0.001200 -0.000170 1.811900 
# 
# From -- ./inp_files/389476.got.cif
#   From: 2010.06.25/outbox.cif.g09.slc.cpg/sg2_195_cif.got.tgz:389476.got - 2010.06.27 13:26:56.
