data_PCOD8029759
_publ_section_title
;
Structure prediction by ZEFSAII (Michael W. Deem and Ramdas Pophale) SiO2 
 PCOD8029759
Probable space group: P -1
;
_chemical_formula_sum "Si O2"
_cell_formula_units_Z 16
_cell_length_a 15.712657
_cell_length_b 15.044797
_cell_length_c 9.849555
_cell_angle_alpha 133.720086
_cell_angle_beta 43.434440
_cell_angle_gamma 153.807763
_cell_volume 700.550738
_symmetry_space_group_name_H-M "P -1"
_symmetry_group_IT_number 2
_symmetry_cell_setting 'triclinic'
loop_
_space_group_symop_operation_xyz
x,y,z
-x,-y,-z
loop_
_atom_site_type_symbol
_atom_site_label
_atom_site_fract_x
_atom_site_fract_y
_atom_site_fract_z
Si Si1 0.608456 0.326783 0.846118
Si Si2 0.882493 0.758687 0.020189
Si Si3 0.650739 0.061234 0.120932
Si Si4 0.262256 0.282734 0.560636
Si Si5 0.320590 0.997332 0.454116
Si Si6 0.112089 0.897534 0.320339
Si Si7 0.193534 0.730940 0.560778
Si Si8 0.706694 0.824578 0.125263
O O1 0.822227 0.564976 0.886059
O O2 0.622874 0.224837 0.614020
O O3 0.472788 0.327454 0.937929
O O4 0.502503 0.177804 0.940972
O O5 0.817317 0.765666 0.245099
O O6 0.777395 0.744954 0.000024
O O7 0.122160 0.961979 0.930681
O O8 0.792551 0.195904 0.231140
O O9 0.519552 0.080193 0.256382
O O10 0.809475 0.153285 0.916713
O O11 0.500000 0.500000 0.500000
O O12 0.129542 0.268203 0.601050
O O13 0.232452 0.118055 0.377212
O O14 0.152813 0.886317 0.414276
O O15 0.208025 0.838964 0.537864
O O16 0.374616 0.172794 0.640592
O O17 0.000000 0.500000 0.500000
#
# Coordination Sequence:
#
# PCOD8029759 Si02
#       8
#     2   2   2   2   2   2   2   2
#     4  11  21  39  65  98 131 173 223 274 338 398
#     4  11  24  39  69  98 134 178 228 280 338 400
#     4  11  22  43  73  95 140 184 222 278 343 410
#     4  11  25  47  68  96 136 187 230 279 335 408
#     4  11  21  45  66 101 138 179 220 281 344 401
#     4  11  25  45  70  97 139 181 227 281 339 402
#     4  11  23  40  68  98 132 176 221 277 337 404
#     4  11  21  41  64 101 140 169 224 286 339 399
#
# _framework density 22.839174
#
# number of rings (size 3 to 8) (size 9 to 14) (size 15 to 20)
#    0.000    1.000    3.750    3.750    1.750    1.000 
#    6.750    0.625    0.000    0.000    0.000    0.000 
#    0.000    0.000    0.000    0.000    0.000    0.000 
#
# Total GULP energy -198308.071080 kJ/mol
# GULP energy per Si atom -12394.254442 kJ/mol
# Density = 2.278719 g / cm^3
# Si number density = 22.839174 Si / 1000 Ang^3
#
#
#
# Elastic Constant Matrix: (Units=GPa)
#
#
# Indices 1 2 3 4 5 6 
#
# 1 118.9223 24.7898 14.2276 -8.2029 3.1671 15.3236
# 2 24.7898 93.0412 17.3379 7.4458 -0.2229 12.4203
# 3 14.2276 17.3379 103.6081 -9.2499 -7.2170 -2.2010
# 4 -8.2029 7.4458 -9.2499 26.4319 -1.2535 -7.5302
# 5 3.1671 -0.2229 -7.2170 -1.2535 28.4136 4.4618
# 6 15.3236 12.4203 -2.2010 -7.5302 4.4618 21.5208
#
#
#
# Elastic Compliance Matrix: (Units=1/GPa)
#
#
# Indices 1 2 3 4 5 6 
#
# 1 0.009721 -0.001822 -0.001028 0.001636 -0.000453 -0.005309
# 2 -0.001822 0.013790 -0.002959 -0.008306 0.000768 -0.010030
# 3 -0.001028 -0.002959 0.011097 0.005985 0.002361 0.005179
# 4 0.001636 -0.008306 0.005985 0.048852 0.000080 0.021318
# 5 -0.000453 0.000768 0.002361 0.000080 0.037037 -0.007530
# 6 -0.005309 -0.010030 0.005179 0.021318 -0.007530 0.065586
#
#
# Mechanical properties :
#
#
# Convention : Reuss Voigt Hill
#
# Bulk Modulus (GPa) = 43.49630 47.58690 45.54160
# Shear Modulus (GPa) = 24.34716 32.55435 28.45076
#
# Velocity S-wave (km/s) = 3.26855 3.77951 3.53328
# Velocity P-wave (km/s) = 5.77326 6.31879 6.05217
#
# Compressibility (1/GPa) = 0.02299046
#
# Stress axis : x y z
#
# Youngs Moduli (GPa) = 102.87450 72.51581 90.11553
#
# Poissons Ratio (x) = 0.13210 0.09266
# Poissons Ratio (y) = 0.18740 0.26662
# Poissons Ratio (z) = 0.10578 0.21455
#
# Static dielectric constant tensor:
#      x y z
#    x 4.294160 0.177100 -0.423400 
#    y 0.177100 3.870570 -0.046360 
#    z -0.423400 -0.046360 4.405940 
# 
# 
# High freq. dielectric constant tensor:
#      x y z
#    x 1.912280 0.015340 -0.020990 
#    y 0.015340 1.882360 0.004940 
#    z -0.020990 0.004940 1.908370 
# 
# From -- ./inp_files/315817.got.cif
#   From: 2010.06.25/outbox.cif.g09.slc.cpg/sg2_158_cif.got.tgz:315817.got - 2010.06.27 13:26:56.
