data_PCOD8029155
_publ_section_title
;
Structure prediction by ZEFSAII (Michael W. Deem and Ramdas Pophale) SiO2 
 PCOD8029155
Probable space group: P -1
;
_chemical_formula_sum "Si O2"
_cell_formula_units_Z 16
_cell_length_a 19.610007
_cell_length_b 10.687004
_cell_length_c 8.292346
_cell_angle_alpha 57.683292
_cell_angle_beta 43.806253
_cell_angle_gamma 35.852390
_cell_volume 699.127366
_symmetry_space_group_name_H-M "P -1"
_symmetry_group_IT_number 2
_symmetry_cell_setting 'triclinic'
loop_
_space_group_symop_operation_xyz
x,y,z
-x,-y,-z
loop_
_atom_site_type_symbol
_atom_site_label
_atom_site_fract_x
_atom_site_fract_y
_atom_site_fract_z
Si Si1 0.271459 0.164896 0.370808
Si Si2 0.368170 0.004174 0.966636
Si Si3 0.911492 0.758359 0.863345
Si Si4 0.000130 0.649744 0.126526
Si Si5 0.542318 0.769798 0.362313
Si Si6 0.425130 0.430030 0.228906
Si Si7 0.774396 0.469753 0.937972
Si Si8 0.117888 0.759709 0.396910
O O1 0.117555 0.263796 0.600556
O O2 0.252305 0.360684 0.248901
O O3 0.382360 0.998374 0.435388
O O4 0.331645 0.031758 0.196413
O O5 0.521442 0.759430 0.849188
O O6 0.371322 0.171938 0.784852
O O7 0.252059 0.028301 0.054057
O O8 0.919876 0.574679 0.940091
O O9 0.037889 0.689345 0.587732
O O10 0.927825 0.803930 0.986741
O O11 0.111908 0.630873 0.042029
O O12 0.534643 0.662372 0.594868
O O13 0.623487 0.596924 0.195271
O O14 0.253845 0.626166 0.373930
O O15 0.500000 0.500000 0.000000
O O16 0.829585 0.279330 0.853488
O O17 0.000000 0.000000 0.500000
#
# Coordination Sequence:
#
# PCOD8029155 Si02
#       8
#     2   2   2   2   2   2   2   2
#     4  11  20  36  63 103 136 172 215 278 341 387
#     4  11  22  40  69 102 137 174 221 282 338 398
#     4  11  22  38  64 100 138 171 225 267 338 394
#     4  11  21  35  63 101 137 174 208 283 334 393
#     4  11  23  41  69 100 131 174 227 283 340 393
#     4  12  27  47  65  94 136 184 229 274 338 406
#     4  11  21  42  65 101 138 171 223 281 344 394
#     4  12  26  44  67  93 133 184 225 270 332 411
#
# _framework density 22.885674000000002
#
# number of rings (size 3 to 8) (size 9 to 14) (size 15 to 20)
#    0.000    0.750    3.750    6.750    1.750    0.000 
#    0.000    6.250    0.000    0.000    0.000    0.000 
#    0.000    0.000    0.000    0.000    0.000    0.000 
#
# Total GULP energy -198300.809558 kJ/mol
# GULP energy per Si atom -12393.800597 kJ/mol
# Density = 2.283359 g / cm^3
# Si number density = 22.885674 Si / 1000 Ang^3
#
#
#
# Elastic Constant Matrix: (Units=GPa)
#
#
# Indices 1 2 3 4 5 6 
#
# 1 91.8606 49.1859 13.5783 -6.0616 13.9622 -15.7373
# 2 49.1859 105.5223 37.1575 19.7097 12.1681 -8.5398
# 3 13.5783 37.1575 100.8276 -0.2088 13.6184 1.7469
# 4 -6.0616 19.7097 -0.2088 36.0473 1.3630 7.0928
# 5 13.9622 12.1681 13.6184 1.3630 41.5594 15.1050
# 6 -15.7373 -8.5398 1.7469 7.0928 15.1050 47.1409
#
#
#
# Elastic Compliance Matrix: (Units=1/GPa)
#
#
# Indices 1 2 3 4 5 6 
#
# 1 0.017765 -0.009144 0.001704 0.007234 -0.005910 0.005016
# 2 -0.009144 0.018213 -0.005411 -0.011997 -0.001033 0.002583
# 3 0.001704 -0.005411 0.012089 0.003515 -0.002898 -0.000460
# 4 0.007234 -0.011997 0.003515 0.036620 0.000783 -0.005649
# 5 -0.005910 -0.001033 -0.002898 0.000783 0.031761 -0.012347
# 6 0.005016 0.002583 -0.000460 -0.005649 -0.012347 0.028179
#
#
# Mechanical properties :
#
#
# Convention : Reuss Voigt Hill
#
# Bulk Modulus (GPa) = 44.71232 55.33930 50.02581
# Shear Modulus (GPa) = 28.12377 38.16877 33.14627
#
# Velocity S-wave (km/s) = 3.50934 4.08830 3.80984
# Velocity P-wave (km/s) = 6.00003 6.82048 6.42336
#
# Compressibility (1/GPa) = 0.02236520
#
# Stress axis : x y z
#
# Youngs Moduli (GPa) = 56.28891 54.90505 82.71933
#
# Poissons Ratio (x) = 0.50208 -0.14094
# Poissons Ratio (y) = 0.51473 0.44757
# Poissons Ratio (z) = -0.09590 0.29707
#
# Static dielectric constant tensor:
#      x y z
#    x 4.183240 -0.263130 -0.068190 
#    y -0.263130 4.158000 0.304970 
#    z -0.068190 0.304970 4.433120 
# 
# 
# High freq. dielectric constant tensor:
#      x y z
#    x 1.895550 -0.018420 0.013140 
#    y -0.018420 1.896310 0.032770 
#    z 0.013140 0.032770 1.905010 
# 
# From -- ./inp_files/244393.got.cif
#   From: 2010.06.25/outbox.cif.g09.slc.cpg/sg2_123_cif.got.tgz:244393.got - 2010.06.27 13:26:56.
