data_PCOD8029573
_publ_section_title
;
Structure prediction by ZEFSAII (Michael W. Deem and Ramdas Pophale) SiO2 
 PCOD8029573
Probable space group: P -1
;
_chemical_formula_sum "Si O2"
_cell_formula_units_Z 12
_cell_length_a 13.777209
_cell_length_b 27.317207
_cell_length_c 14.092990
_cell_angle_alpha 159.193784
_cell_angle_beta 19.461828
_cell_angle_gamma 157.884553
_cell_volume 580.455750
_symmetry_space_group_name_H-M "P -1"
_symmetry_group_IT_number 2
_symmetry_cell_setting 'triclinic'
loop_
_space_group_symop_operation_xyz
x,y,z
-x,-y,-z
loop_
_atom_site_type_symbol
_atom_site_label
_atom_site_fract_x
_atom_site_fract_y
_atom_site_fract_z
Si Si1 0.762352 0.618702 0.906159
Si Si2 0.182244 0.430970 0.573407
Si Si3 0.286740 0.845706 0.962369
Si Si4 0.135908 0.366557 0.700457
Si Si5 0.168691 0.569012 0.280635
Si Si6 0.820434 0.748813 0.362339
O O1 0.013448 0.755853 0.978112
O O2 0.952608 0.545722 0.532103
O O3 0.500000 0.500000 0.000000
O O4 0.534459 0.677323 0.158659
O O5 0.104850 0.315950 0.526254
O O6 0.546140 0.485398 0.306954
O O7 0.964593 0.361029 0.555825
O O8 0.146485 0.581949 0.917788
O O9 0.491998 0.752201 0.636482
O O10 0.112482 0.877014 0.272972
O O11 0.500000 0.000000 0.000000
O O12 0.141881 0.236216 0.530423
O O13 0.162051 0.407298 0.967361
#
# Coordination Sequence:
#
# PCOD8029573 Si02
#       6
#     2   2   2   2   2   2
#     4  12  24  35  56  81 108 149 187 226 277 329
#     4   9  17  29  47  79 115 136 167 223 277 331
#     4  12  26  40  53  78 113 152 193 228 267 325
#     4   9  17  29  49  77 110 143 171 214 281 331
#     4  11  21  34  56  85 111 142 181 228 280 328
#     4  11  21  36  58  80 110 149 185 228 275 328
#
# _framework density 20.673411000000002
#
# number of rings (size 3 to 8) (size 9 to 14) (size 15 to 20)
#    0.000    1.333    1.667    7.000    0.000    0.000 
#    0.000    0.000    0.000    0.000    0.000    7.000 
#    0.000    0.000    0.000    0.000    0.000    0.000 
#
# Total GULP energy -148661.389729 kJ/mol
# GULP energy per Si atom -12388.449144 kJ/mol
# Density = 2.062636 g / cm^3
# Si number density = 20.673411 Si / 1000 Ang^3
#
#
#
# Elastic Constant Matrix: (Units=GPa)
#
#
# Indices 1 2 3 4 5 6 
#
# 1 149.7367 54.4375 14.0376 -2.8293 -13.4445 -0.8640
# 2 54.4375 92.6901 14.5195 -15.7189 -3.4373 3.2876
# 3 14.0376 14.5195 56.4072 -21.6035 -6.8199 7.5690
# 4 -2.8293 -15.7189 -21.6035 25.5643 2.9658 -2.0825
# 5 -13.4445 -3.4373 -6.8199 2.9658 27.2654 -13.8991
# 6 -0.8640 3.2876 7.5690 -2.0825 -13.8991 23.0304
#
#
#
# Elastic Compliance Matrix: (Units=1/GPa)
#
#
# Indices 1 2 3 4 5 6 
#
# 1 0.009729 -0.006140 -0.002884 -0.005457 0.006875 0.005845
# 2 -0.006140 0.015948 0.001587 0.010572 -0.004082 -0.004536
# 3 -0.002884 0.001587 0.028154 0.023898 -0.000816 -0.007919
# 4 -0.005457 0.010572 0.023898 0.065331 -0.006287 -0.007455
# 5 0.006875 -0.004082 -0.000816 -0.006287 0.058218 0.035676
# 6 0.005845 -0.004536 -0.007919 -0.007455 0.035676 0.067747
#
#
# Mechanical properties :
#
#
# Convention : Reuss Voigt Hill
#
# Bulk Modulus (GPa) = 25.66877 51.64705 38.65791
# Shear Modulus (GPa) = 18.31589 29.56131 23.93860
#
# Velocity S-wave (km/s) = 2.97974 3.78553 3.40655
# Velocity P-wave (km/s) = 4.92765 6.64406 5.84916
#
# Compressibility (1/GPa) = 0.03895784
#
# Stress axis : x y z
#
# Youngs Moduli (GPa) = 102.78730 62.70233 35.51861
#
# Poissons Ratio (x) = 0.38498 0.10243
# Poissons Ratio (y) = 0.63110 -0.05636
# Poissons Ratio (z) = 0.29641 -0.09950
#
# Static dielectric constant tensor:
#      x y z
#    x 4.987200 -0.015570 -0.171110 
#    y -0.015570 3.508450 -0.791320 
#    z -0.171110 -0.791320 3.814700 
# 
# 
# High freq. dielectric constant tensor:
#      x y z
#    x 1.842920 -0.005390 -0.011340 
#    y -0.005390 1.747250 -0.076090 
#    z -0.011340 -0.076090 1.796340 
# 
# From -- ./inp_files/535826.got.cif
#   From: 2010.06.25/outbox.cif.g09.slc.cpg/sg2_268_cif.got.tgz:535826.got - 2010.06.27 13:26:56.
