data_PCOD8029514
_publ_section_title
;
Structure prediction by ZEFSAII (Michael W. Deem and Ramdas Pophale) SiO2 
 PCOD8029514
Probable space group: P -1
;
_chemical_formula_sum "Si O2"
_cell_formula_units_Z 16
_cell_length_a 11.196789
_cell_length_b 14.003024
_cell_length_c 8.626941
_cell_angle_alpha 84.526645
_cell_angle_beta 93.139195
_cell_angle_gamma 31.493005
_cell_volume 678.857680
_symmetry_space_group_name_H-M "P -1"
_symmetry_group_IT_number 2
_symmetry_cell_setting 'triclinic'
loop_
_space_group_symop_operation_xyz
x,y,z
-x,-y,-z
loop_
_atom_site_type_symbol
_atom_site_label
_atom_site_fract_x
_atom_site_fract_y
_atom_site_fract_z
Si Si1 0.146370 0.879159 0.180647
Si Si2 0.340797 0.919828 0.357766
Si Si3 0.014586 0.310247 0.805484
Si Si4 0.417222 0.516329 0.327981
Si Si5 0.290767 0.854113 0.690500
Si Si6 0.232963 0.349484 0.757935
Si Si7 0.092040 0.278800 0.171292
Si Si8 0.501193 0.868258 0.883391
O O1 0.280137 0.883400 0.229525
O O2 0.335294 0.663299 0.195006
O O3 0.976364 0.961273 0.294321
O O4 0.000000 0.000000 0.000000
O O5 0.292313 0.912388 0.523687
O O6 0.621580 0.746188 0.378317
O O7 0.178963 0.124854 0.290943
O O8 0.031877 0.406738 0.726769
O O9 0.795440 0.413515 0.685417
O O10 0.249663 0.091626 0.807383
O O11 0.984985 0.328997 0.986912
O O12 0.500000 0.500000 0.500000
O O13 0.635844 0.308079 0.298875
O O14 0.477142 0.776339 0.831865
O O15 0.115853 0.531284 0.768695
O O16 0.428545 0.180402 0.924511
O O17 0.303067 0.209593 0.186820
#
# Coordination Sequence:
#
# PCOD8029514 Si02
#       8
#     2   2   2   2   2   2   2   2
#     4  12  27  48  76 102 137 186 242 294 345 418
#     4  12  25  42  66 105 145 182 232 289 356 420
#     4  11  20  43  74 102 141 188 239 296 347 414
#     4  12  26  47  74 104 142 191 235 290 354 416
#     4  12  27  46  73  98 143 187 228 289 363 416
#     4  11  22  42  71 107 141 182 239 292 347 426
#     4  11  22  41  73 106 142 185 235 292 349 417
#     4  11  20  43  73 102 142 187 234 292 354 415
#
# _framework density 23.569002999999999
#
# number of rings (size 3 to 8) (size 9 to 14) (size 15 to 20)
#    0.000    0.500    5.000    5.625    0.000    3.000 
#    0.000    1.250    0.000    0.000    0.000    0.000 
#    0.000    0.000    0.000    0.000    0.000    0.000 
#
# Total GULP energy -198465.596050 kJ/mol
# GULP energy per Si atom -12404.099753 kJ/mol
# Density = 2.351536 g / cm^3
# Si number density = 23.569003 Si / 1000 Ang^3
#
#
#
# Elastic Constant Matrix: (Units=GPa)
#
#
# Indices 1 2 3 4 5 6 
#
# 1 94.3814 37.9075 24.6769 -5.8053 7.6934 19.3891
# 2 37.9075 112.9425 34.2877 -0.7704 -19.9163 18.7734
# 3 24.6769 34.2877 64.4065 0.5513 -0.7973 2.2184
# 4 -5.8053 -0.7704 0.5513 28.4437 -0.1794 -1.0516
# 5 7.6934 -19.9163 -0.7973 -0.1794 54.7147 0.4118
# 6 19.3891 18.7734 2.2184 -1.0516 0.4118 42.5574
#
#
#
# Elastic Compliance Matrix: (Units=1/GPa)
#
#
# Indices 1 2 3 4 5 6 
#
# 1 0.014331 -0.003528 -0.003515 0.002703 -0.003306 -0.004691
# 2 -0.003528 0.013320 -0.005532 -0.000368 0.005293 -0.004041
# 3 -0.003515 -0.005532 0.019709 -0.001146 -0.001258 0.002998
# 4 0.002703 -0.000368 -0.001146 0.035714 -0.000413 -0.000123
# 5 -0.003306 0.005293 -0.001258 -0.000413 0.020656 -0.000973
# 6 -0.004691 -0.004041 0.002998 -0.000123 -0.000973 0.027267
#
#
# Mechanical properties :
#
#
# Convention : Reuss Voigt Hill
#
# Bulk Modulus (GPa) = 45.02327 51.71940 48.37133
# Shear Modulus (GPa) = 30.57188 36.80040 33.68614
#
# Velocity S-wave (km/s) = 3.60547 3.95573 3.78465
# Velocity P-wave (km/s) = 6.03960 6.54639 6.29809
#
# Compressibility (1/GPa) = 0.02221074
#
# Stress axis : x y z
#
# Youngs Moduli (GPa) = 69.78054 75.07594 50.73817
#
# Poissons Ratio (x) = 0.26483 0.17836
# Poissons Ratio (y) = 0.24615 0.28066
# Poissons Ratio (z) = 0.24530 0.41529
#
# Static dielectric constant tensor:
#      x y z
#    x 4.221180 -0.114640 0.132910 
#    y -0.114640 4.208640 -0.070330 
#    z 0.132910 -0.070330 3.995340 
# 
# 
# High freq. dielectric constant tensor:
#      x y z
#    x 1.943720 0.010430 0.012290 
#    y 0.010430 1.947480 -0.004270 
#    z 0.012290 -0.004270 1.915270 
# 
# From -- ./inp_files/273189.got.cif
#   From: 2010.06.25/outbox.cif.g09.slc.cpg/sg2_137_cif.got.tgz:273189.got - 2010.06.27 13:26:56.
