data_PCOD8029973
_publ_section_title
;
Structure prediction by ZEFSAII (Michael W. Deem and Ramdas Pophale) SiO2 
 PCOD8029973
Probable space group: P -1
;
_chemical_formula_sum "Si O2"
_cell_formula_units_Z 16
_cell_length_a 8.515690
_cell_length_b 9.908480
_cell_length_c 15.286747
_cell_angle_alpha 115.992868
_cell_angle_beta 87.218234
_cell_angle_gamma 49.102701
_cell_volume 762.091192
_symmetry_space_group_name_H-M "P -1"
_symmetry_group_IT_number 2
_symmetry_cell_setting 'triclinic'
loop_
_space_group_symop_operation_xyz
x,y,z
-x,-y,-z
loop_
_atom_site_type_symbol
_atom_site_label
_atom_site_fract_x
_atom_site_fract_y
_atom_site_fract_z
Si Si1 0.884084 0.958167 0.646267
Si Si2 0.393509 0.993974 0.084503
Si Si3 0.785919 0.818428 0.449087
Si Si4 0.009572 0.790207 0.263591
Si Si5 0.650738 0.573193 0.211392
Si Si6 0.060487 0.609340 0.689808
Si Si7 0.471024 0.601001 0.936677
Si Si8 0.805341 0.711252 0.127123
O O1 0.869166 0.886101 0.533453
O O2 0.005280 0.767484 0.661375
O O3 0.618824 0.197477 0.745995
O O4 0.040430 0.998565 0.653496
O O5 0.556506 0.900840 0.138250
O O6 0.355805 0.846020 0.022929
O O7 0.140597 0.247047 0.188461
O O8 0.500000 0.000000 0.000000
O O9 0.904046 0.772398 0.341143
O O10 0.904418 0.577316 0.409457
O O11 0.500000 0.000000 0.500000
O O12 0.869951 0.832656 0.192773
O O13 0.286389 0.555391 0.170659
O O14 0.695030 0.528051 0.301874
O O15 0.713111 0.369103 0.105958
O O16 0.802776 0.602578 0.179458
O O17 0.500000 0.500000 0.000000
O O18 0.000000 0.500000 0.000000
#
# Coordination Sequence:
#
# PCOD8029973 Si02
#       8
#     2   2   2   2   2   2   2   2
#     4  11  24  45  68  98 132 171 227 289 337 393
#     4  12  24  37  62 103 139 172 227 277 332 403
#     4  12  24  46  74  94 132 185 228 282 349 394
#     4  11  23  41  72 100 134 180 224 274 342 406
#     4  11  22  42  68  94 135 178 226 272 338 409
#     4  12  24  42  70  98 130 177 231 279 339 405
#     4  11  21  41  67  98 139 182 215 271 343 405
#     4  12  20  39  65  96 136 181 216 268 334 407
#
# _framework density 20.994862999999999
#
# number of rings (size 3 to 8) (size 9 to 14) (size 15 to 20)
#    0.000    0.500    6.250    3.000    0.000    1.500 
#    0.000    0.625    0.000    0.000    0.000    0.000 
#    0.000    0.000    0.000    0.000    0.000    0.000 
#
# Total GULP energy -198340.374189 kJ/mol
# GULP energy per Si atom -12396.273387 kJ/mol
# Density = 2.094708 g / cm^3
# Si number density = 20.994863 Si / 1000 Ang^3
#
#
#
# Elastic Constant Matrix: (Units=GPa)
#
#
# Indices 1 2 3 4 5 6 
#
# 1 125.7155 41.2203 48.5998 1.9996 39.7204 7.5696
# 2 41.2203 110.5065 29.5634 0.3320 10.3194 3.1595
# 3 48.5998 29.5634 98.8435 2.0779 19.8770 6.6203
# 4 1.9996 0.3320 2.0779 38.0913 3.4195 8.0704
# 5 39.7204 10.3194 19.8770 3.4195 61.7450 -3.0974
# 6 7.5696 3.1595 6.6203 8.0704 -3.0974 24.2989
#
#
#
# Elastic Compliance Matrix: (Units=1/GPa)
#
#
# Indices 1 2 3 4 5 6 
#
# 1 0.012731 -0.003007 -0.003782 0.000954 -0.006709 -0.003716
# 2 -0.003007 0.010591 -0.001854 0.000069 0.000764 0.000139
# 3 -0.003782 -0.001854 0.013003 0.000149 -0.001570 -0.002373
# 4 0.000954 0.000069 0.000149 0.028603 -0.002769 -0.010200
# 5 -0.006709 0.000764 -0.001570 -0.002769 0.021346 0.006059
# 6 -0.003716 0.000139 -0.002373 -0.010200 0.006059 0.047100
#
#
# Mechanical properties :
#
#
# Convention : Reuss Voigt Hill
#
# Bulk Modulus (GPa) = 52.52410 63.75916 58.14163
# Shear Modulus (GPa) = 31.84569 39.20586 35.52578
#
# Velocity S-wave (km/s) = 3.89888 4.32603 4.11800
# Velocity P-wave (km/s) = 6.73352 7.44229 7.09675
#
# Compressibility (1/GPa) = 0.01903888
#
# Stress axis : x y z
#
# Youngs Moduli (GPa) = 78.54925 94.41740 76.90740
#
# Poissons Ratio (x) = 0.28392 0.29088
# Poissons Ratio (y) = 0.23620 0.14256
# Poissons Ratio (z) = 0.29709 0.17502
#
# Static dielectric constant tensor:
#      x y z
#    x 3.865890 0.390050 0.249640 
#    y 0.390050 3.702340 0.076230 
#    z 0.249640 0.076230 3.952020 
# 
# 
# High freq. dielectric constant tensor:
#      x y z
#    x 1.833150 0.005250 0.020400 
#    y 0.005250 1.812460 -0.003730 
#    z 0.020400 -0.003730 1.831450 
# 
# From -- ./inp_files/218785.got.cif
#   From: 2010.06.25/outbox.cif.g09.slc.cpg/sg2_110_cif.got.tgz:218785.got - 2010.06.27 13:26:56.
