data_PCOD8029188
_publ_section_title
;
Structure prediction by ZEFSAII (Michael W. Deem and Ramdas Pophale) SiO2 
 PCOD8029188
Probable space group: P -1
;
_chemical_formula_sum "Si O2"
_cell_formula_units_Z 16
_cell_length_a 26.857705
_cell_length_b 24.675786
_cell_length_c 10.988724
_cell_angle_alpha 30.730066
_cell_angle_beta 149.382594
_cell_angle_gamma 169.247637
_cell_volume 684.309856
_symmetry_space_group_name_H-M "P -1"
_symmetry_group_IT_number 2
_symmetry_cell_setting 'triclinic'
loop_
_space_group_symop_operation_xyz
x,y,z
-x,-y,-z
loop_
_atom_site_type_symbol
_atom_site_label
_atom_site_fract_x
_atom_site_fract_y
_atom_site_fract_z
Si Si1 0.002633 0.728793 0.489974
Si Si2 0.042846 0.103284 0.087717
Si Si3 0.277060 0.934202 0.297774
Si Si4 0.532387 0.782977 0.310498
Si Si5 0.168581 0.607122 0.415300
Si Si6 0.926623 0.247537 0.043100
Si Si7 0.697139 0.574043 0.292763
Si Si8 0.417068 0.297880 0.986314
O O1 0.889139 0.511820 0.601675
O O2 0.813026 0.573265 0.504761
O O3 0.293755 0.987717 0.656319
O O4 0.011645 0.840890 0.205341
O O5 0.362210 0.423489 0.174672
O O6 0.953644 0.911900 0.191602
O O7 0.878873 0.947601 0.171817
O O8 0.160051 0.860884 0.068183
O O9 0.034003 0.632686 0.440788
O O10 0.518018 0.095780 0.462647
O O11 0.405804 0.160590 0.208776
O O12 0.455205 0.589470 0.580937
O O13 0.249268 0.555657 0.129524
O O14 0.729542 0.972240 0.241737
O O15 0.133127 0.694967 0.146721
O O16 0.502477 0.415062 0.080417
#
# Coordination Sequence:
#
# PCOD8029188 Si02
#       8
#     2   2   2   2   2   2   2   2
#     4  11  22  41  65 102 129 162 205 270 325 371
#     4  11  22  35  66 103 123 154 207 268 332 361
#     4  12  22  45  69  91 129 160 219 273 310 359
#     4  12  25  44  60  93 136 175 210 246 314 401
#     4  12  24  43  70  98 122 159 221 275 316 359
#     4  12  28  43  64  92 128 183 211 249 313 382
#     4  11  22  40  66  97 129 163 206 261 330 369
#     4  11  20  37  62 101 120 157 200 277 318 355
#
# _framework density 23.381219999999999
#
# number of rings (size 3 to 8) (size 9 to 14) (size 15 to 20)
#    0.000    0.500    6.250    4.125    1.750    1.000 
#    0.000    0.000    0.000    4.500    0.000    0.000 
#    0.000    0.000    0.000    0.000    0.000    0.000 
#
# Total GULP energy -198213.685673 kJ/mol
# GULP energy per Si atom -12388.355355 kJ/mol
# Density = 2.332800 g / cm^3
# Si number density = 23.381220 Si / 1000 Ang^3
#
#
#
# Elastic Constant Matrix: (Units=GPa)
#
#
# Indices 1 2 3 4 5 6 
#
# 1 59.7732 41.6782 10.0456 -6.3700 -2.5831 24.5080
# 2 41.6782 123.8426 21.7241 0.6054 -18.4811 46.1803
# 3 10.0456 21.7241 37.2827 -5.5179 -17.5853 2.2378
# 4 -6.3700 0.6054 -5.5179 40.5216 -2.7368 -0.4615
# 5 -2.5831 -18.4811 -17.5853 -2.7368 19.6710 -6.4821
# 6 24.5080 46.1803 2.2378 -0.4615 -6.4821 47.3148
#
#
#
# Elastic Compliance Matrix: (Units=1/GPa)
#
#
# Indices 1 2 3 4 5 6 
#
# 1 0.025389 -0.005511 -0.008533 0.001987 -0.012167 -0.009016
# 2 -0.005511 0.016019 -0.004336 -0.001398 0.006396 -0.011713
# 3 -0.008533 -0.004336 0.056324 0.009976 0.050846 0.013052
# 4 0.001987 -0.001398 0.009976 0.027218 0.012248 0.001806
# 5 -0.012167 0.006396 0.050846 0.012248 0.106480 0.012362
# 6 -0.009016 -0.011713 0.013052 0.001806 0.012362 0.038331
#
#
# Mechanical properties :
#
#
# Convention : Reuss Voigt Hill
#
# Bulk Modulus (GPa) = 16.40120 40.86602 28.63361
# Shear Modulus (GPa) = 15.29777 31.33151 23.31464
#
# Velocity S-wave (km/s) = 2.56066 3.66461 3.16120
# Velocity P-wave (km/s) = 3.97147 5.95163 5.05937
#
# Compressibility (1/GPa) = 0.06097117
#
# Stress axis : x y z
#
# Youngs Moduli (GPa) = 39.38644 62.42612 17.75453
#
# Poissons Ratio (x) = 0.34403 0.15150
# Poissons Ratio (y) = 0.21706 0.07699
# Poissons Ratio (z) = 0.33609 0.27069
#
# Static dielectric constant tensor:
#      x y z
#    x 4.374900 0.538080 -0.024310 
#    y 0.538080 4.913850 -0.082080 
#    z -0.024310 -0.082080 3.911120 
# 
# 
# High freq. dielectric constant tensor:
#      x y z
#    x 1.919010 0.024870 0.009870 
#    y 0.024870 1.954630 -0.008920 
#    z 0.009870 -0.008920 1.888590 
# 
# From -- ./inp_files/477807.got.cif
#   From: 2010.06.25/outbox.cif.g09.slc.cpg/sg2_239_cif.got.tgz:477807.got - 2010.06.27 13:26:56.
