data_PCOD8029465
_publ_section_title
;
Structure prediction by ZEFSAII (Michael W. Deem and Ramdas Pophale) SiO2 
 PCOD8029465
Probable space group: P -1
;
_chemical_formula_sum "Si O2"
_cell_formula_units_Z 16
_cell_length_a 15.092563
_cell_length_b 12.839080
_cell_length_c 14.635567
_cell_angle_alpha 54.654402
_cell_angle_beta 29.028081
_cell_angle_gamma 35.860434
_cell_volume 716.720572
_symmetry_space_group_name_H-M "P -1"
_symmetry_group_IT_number 2
_symmetry_cell_setting 'triclinic'
loop_
_space_group_symop_operation_xyz
x,y,z
-x,-y,-z
loop_
_atom_site_type_symbol
_atom_site_label
_atom_site_fract_x
_atom_site_fract_y
_atom_site_fract_z
Si Si1 0.603265 0.651972 0.136623
Si Si2 0.828010 0.593051 0.324824
Si Si3 0.331065 0.716361 0.013227
Si Si4 0.728980 0.957289 0.449711
Si Si5 0.234654 0.352961 0.441386
Si Si6 0.869729 0.282081 0.426761
Si Si7 0.681231 0.076319 0.919939
Si Si8 0.664311 0.988570 0.699072
O O1 0.443209 0.606739 0.327061
O O2 0.495085 0.770400 0.080821
O O3 0.554806 0.780409 0.195491
O O4 0.941376 0.446241 0.919629
O O5 0.907422 0.537536 0.388719
O O6 0.829646 0.451100 0.352300
O O7 0.521193 0.821429 0.476064
O O8 0.285500 0.838539 0.074844
O O9 0.020569 0.839476 0.194306
O O10 0.500000 0.500000 0.000000
O O11 0.499901 0.694866 0.790132
O O12 0.651390 0.852481 0.553944
O O13 0.787183 0.948831 0.508468
O O14 0.000000 0.500000 0.500000
O O15 0.070227 0.153537 0.399069
O O16 0.007865 0.135773 0.289446
O O17 0.506618 0.050818 0.128498
#
# Coordination Sequence:
#
# PCOD8029465 Si02
#       8
#     2   2   2   2   2   2   2   2
#     4  11  22  39  70  98 134 177 219 279 332 391
#     4  12  27  43  65 102 142 174 218 274 340 400
#     4  12  26  42  72 101 127 175 230 280 328 389
#     4  12  27  45  66 100 139 175 219 281 333 399
#     4  12  25  46  72  97 127 181 228 274 324 394
#     4  11  22  41  70 102 132 175 222 278 330 400
#     4  11  20  42  70 102 131 169 234 284 321 385
#     4  11  20  43  70  97 133 176 227 274 330 392
#
# _framework density 22.323903000000001
#
# number of rings (size 3 to 8) (size 9 to 14) (size 15 to 20)
#    0.000    0.500    5.000    5.625    1.750    2.000 
#    0.000    1.250    0.000    0.000    0.000    0.000 
#    0.000    0.000    0.000    0.000    0.000    0.000 
#
# Total GULP energy -198469.551330 kJ/mol
# GULP energy per Si atom -12404.346958 kJ/mol
# Density = 2.227309 g / cm^3
# Si number density = 22.323903 Si / 1000 Ang^3
#
#
#
# Elastic Constant Matrix: (Units=GPa)
#
#
# Indices 1 2 3 4 5 6 
#
# 1 59.3308 31.7655 38.6751 -0.3420 4.1570 21.2905
# 2 31.7655 99.8729 47.7193 10.0504 -11.8978 15.9786
# 3 38.6751 47.7193 192.5575 -3.8735 -17.6819 6.9891
# 4 -0.3420 10.0504 -3.8735 39.3837 2.4414 -2.7211
# 5 4.1570 -11.8978 -17.6819 2.4414 34.8887 6.5223
# 6 21.2905 15.9786 6.9891 -2.7211 6.5223 28.9682
#
#
#
# Elastic Compliance Matrix: (Units=1/GPa)
#
#
# Indices 1 2 3 4 5 6 
#
# 1 0.028361 -0.004926 -0.004274 0.000231 -0.004227 -0.016123
# 2 -0.004926 0.014636 -0.001974 -0.004742 0.005988 -0.005771
# 3 -0.004274 -0.001974 0.006744 0.001101 0.002788 0.002079
# 4 0.000231 -0.004742 0.001101 0.027355 -0.004060 0.005664
# 5 -0.004227 0.005988 0.002788 -0.004060 0.034596 -0.009040
# 6 -0.016123 -0.005771 0.002079 0.005664 -0.009040 0.051619
#
#
# Mechanical properties :
#
#
# Convention : Reuss Voigt Hill
#
# Bulk Modulus (GPa) = 36.50480 65.34235 50.92358
# Shear Modulus (GPa) = 25.66893 36.22154 30.94524
#
# Velocity S-wave (km/s) = 3.39461 4.03245 3.72720
# Velocity P-wave (km/s) = 5.63492 7.14245 6.43300
#
# Compressibility (1/GPa) = 0.02739365
#
# Stress axis : x y z
#
# Youngs Moduli (GPa) = 35.25987 68.32316 148.28973
#
# Poissons Ratio (x) = 0.33654 0.63378
# Poissons Ratio (y) = 0.17368 0.29270
# Poissons Ratio (z) = 0.15070 0.13486
#
# Static dielectric constant tensor:
#      x y z
#    x 3.898940 0.354240 0.127840 
#    y 0.354240 4.010210 -0.024760 
#    z 0.127840 -0.024760 4.454690 
# 
# 
# High freq. dielectric constant tensor:
#      x y z
#    x 1.860010 0.027130 0.006090 
#    y 0.027130 1.875450 -0.003430 
#    z 0.006090 -0.003430 1.901270 
# 
# From -- ./inp_files/188060.got.cif
#   From: 2010.06.25/outbox.cif.g09.slc.cpg/sg2_95_cif.got.tgz:188060.got - 2010.06.27 13:26:56.
