data_PCOD8029051
_publ_section_title
;
Structure prediction by ZEFSAII (Michael W. Deem and Ramdas Pophale) SiO2 
 PCOD8029051
Probable space group: P -1
;
_chemical_formula_sum "Si O2"
_cell_formula_units_Z 10
_cell_length_a 7.082279
_cell_length_b 11.333597
_cell_length_c 9.519637
_cell_angle_alpha 104.232669
_cell_angle_beta 50.513119
_cell_angle_gamma 72.799857
_cell_volume 455.451654
_symmetry_space_group_name_H-M "P -1"
_symmetry_group_IT_number 2
_symmetry_cell_setting 'triclinic'
loop_
_space_group_symop_operation_xyz
x,y,z
-x,-y,-z
loop_
_atom_site_type_symbol
_atom_site_label
_atom_site_fract_x
_atom_site_fract_y
_atom_site_fract_z
Si Si1 0.721259 0.085908 0.547594
Si Si2 0.177634 0.063766 0.835959
Si Si3 0.786665 0.322076 0.658083
Si Si4 0.451740 0.129638 0.157132
Si Si5 0.616201 0.331621 0.056677
O O1 0.458793 0.073550 0.715267
O O2 0.611213 0.260232 0.650994
O O3 0.838501 0.014928 0.317653
O O4 0.000000 0.000000 0.500000
O O5 0.245405 0.956285 0.907856
O O6 0.873499 0.239763 0.030371
O O7 0.620975 0.493483 0.731916
O O8 0.143307 0.215324 0.418556
O O9 0.777049 0.317970 0.830293
O O10 0.440249 0.255028 0.104980
O O11 0.500000 0.000000 0.000000
#
# Coordination Sequence:
#
# PCOD8029051 Si02
#       5
#     2   2   2   2   2
#     4  11  19  40  70  97 129 175 223 269 329 391
#     4  11  22  39  68  99 127 173 232 267 320 404
#     4  11  23  43  67  95 138 175 214 279 338 387
#     4  12  24  43  69  97 134 179 224 274 325 394
#     4  11  24  41  65 102 134 172 221 274 336 394
#
# _framework density 21.956229
#
# number of rings (size 3 to 8) (size 9 to 14) (size 15 to 20)
#    0.000    0.800    4.000    4.800    0.000    0.800 
#    0.000    6.000    0.000    0.000    0.000    0.000 
#    0.000    0.000    0.000    0.000    0.000    0.000 
#
# Total GULP energy -123997.229880 kJ/mol
# GULP energy per Si atom -12399.722988 kJ/mol
# Density = 2.190626 g / cm^3
# Si number density = 21.956229 Si / 1000 Ang^3
#
#
#
# Elastic Constant Matrix: (Units=GPa)
#
#
# Indices 1 2 3 4 5 6 
#
# 1 121.6876 55.8427 34.8956 24.6881 11.1110 -2.5933
# 2 55.8427 174.8388 57.0019 33.2307 8.1958 7.2730
# 3 34.8956 57.0019 108.2702 23.3422 0.2899 -5.1225
# 4 24.6881 33.2307 23.3422 41.8735 3.1400 4.4899
# 5 11.1110 8.1958 0.2899 3.1400 25.5878 4.3295
# 6 -2.5933 7.2730 -5.1225 4.4899 4.3295 39.8355
#
#
#
# Elastic Compliance Matrix: (Units=1/GPa)
#
#
# Indices 1 2 3 4 5 6 
#
# 1 0.010760 -0.002152 -0.001436 -0.003737 -0.003803 0.001743
# 2 -0.002152 0.008095 -0.002929 -0.003287 -0.000965 -0.001519
# 3 -0.001436 -0.002929 0.012207 -0.003994 0.001525 0.002295
# 4 -0.003737 -0.003287 -0.003994 0.031348 -0.000511 -0.003634
# 5 -0.003803 -0.000965 0.001525 -0.000511 0.041825 -0.004364
# 6 0.001743 -0.001519 0.002295 -0.003634 -0.004364 0.026673
#
#
# Mechanical properties :
#
#
# Convention : Reuss Voigt Hill
#
# Bulk Modulus (GPa) = 55.47408 77.80856 66.64132
# Shear Modulus (GPa) = 33.34404 38.59644 35.97024
#
# Velocity S-wave (km/s) = 3.90123 4.19726 4.05195
# Velocity P-wave (km/s) = 6.75377 7.68142 7.23248
#
# Compressibility (1/GPa) = 0.01802644
#
# Stress axis : x y z
#
# Youngs Moduli (GPa) = 92.93732 123.53170 81.92294
#
# Poissons Ratio (x) = 0.26588 0.11768
# Poissons Ratio (y) = 0.20003 0.23993
# Poissons Ratio (z) = 0.13350 0.36179
#
# Static dielectric constant tensor:
#      x y z
#    x 4.188860 0.261370 -0.065430 
#    y 0.261370 4.582590 0.129170 
#    z -0.065430 0.129170 4.101320 
# 
# 
# High freq. dielectric constant tensor:
#      x y z
#    x 1.862890 0.014700 -0.013830 
#    y 0.014700 1.884150 -0.007840 
#    z -0.013830 -0.007840 1.864840 
# 
# From -- ./inp_files/18405.got.cif
#   From: 2010.06.25/outbox.cif.g09.slc.cpg/sg2_10_cif.got.tgz:18405.got - 2010.06.27 13:26:56.
