data_PCOD8029886
_publ_section_title
;
Structure prediction by ZEFSAII (Michael W. Deem and Ramdas Pophale) SiO2 
 PCOD8029886
Probable space group: P -1
;
_chemical_formula_sum "Si O2"
_cell_formula_units_Z 12
_cell_length_a 10.657528
_cell_length_b 15.006924
_cell_length_c 9.236016
_cell_angle_alpha 122.263399
_cell_angle_beta 27.540485
_cell_angle_gamma 122.075064
_cell_volume 571.230495
_symmetry_space_group_name_H-M "P -1"
_symmetry_group_IT_number 2
_symmetry_cell_setting 'triclinic'
loop_
_space_group_symop_operation_xyz
x,y,z
-x,-y,-z
loop_
_atom_site_type_symbol
_atom_site_label
_atom_site_fract_x
_atom_site_fract_y
_atom_site_fract_z
Si Si1 0.353338 0.767444 0.355618
Si Si2 0.722806 0.942510 0.799354
Si Si3 0.460868 0.710382 0.881981
Si Si4 0.876332 0.907632 0.938421
Si Si5 0.745605 0.456710 0.631180
Si Si6 0.100049 0.424352 0.715410
O O1 0.098238 0.826616 0.620255
O O2 0.277372 0.671968 0.464320
O O3 0.483512 0.716799 0.038318
O O4 0.599833 0.848388 0.246131
O O5 0.611196 0.821699 0.760987
O O6 0.771733 0.951643 0.931084
O O7 0.000000 0.000000 0.500000
O O8 0.500000 0.000000 0.000000
O O9 0.624822 0.622841 0.565934
O O10 0.137985 0.676843 0.151560
O O11 0.000000 0.000000 0.000000
O O12 0.807177 0.500478 0.448005
O O13 0.000000 0.500000 0.500000
O O14 0.500000 0.500000 0.000000
O O15 0.000000 0.500000 0.000000
#
# Coordination Sequence:
#
# PCOD8029886 Si02
#       6
#     2   2   2   2   2   2
#     4  11  21  40  69  95 127 178 222 266 331 403
#     4  11  23  43  69  94 125 176 228 267 324 412
#     4  11  22  42  68  89 129 176 222 263 333 398
#     4  11  24  43  66  98 137 166 216 289 344 377
#     4  12  22  40  68  97 129 170 230 268 315 416
#     4  12  24  42  63  98 135 171 212 279 336 382
#
# _framework density 21.007282
#
# number of rings (size 3 to 8) (size 9 to 14) (size 15 to 20)
#    0.000    0.667    3.333    7.000    0.000    0.000 
#    9.000    0.000    0.000    0.000    0.000    0.000 
#    0.000    0.000    0.000    0.000    0.000    0.000 
#
# Total GULP energy -148664.017988 kJ/mol
# GULP energy per Si atom -12388.668166 kJ/mol
# Density = 2.095947 g / cm^3
# Si number density = 21.007282 Si / 1000 Ang^3
#
#
#
# Elastic Constant Matrix: (Units=GPa)
#
#
# Indices 1 2 3 4 5 6 
#
# 1 96.9526 61.0368 55.1241 2.7012 -8.9128 -7.1281
# 2 61.0368 156.9927 55.4147 -24.1712 -2.9752 -15.6003
# 3 55.1241 55.4147 141.7479 -4.8431 -15.3912 -13.9059
# 4 2.7012 -24.1712 -4.8431 54.2831 2.5257 -5.1874
# 5 -8.9128 -2.9752 -15.3912 2.5257 41.0518 -1.4079
# 6 -7.1281 -15.6003 -13.9059 -5.1874 -1.4079 35.6939
#
#
#
# Elastic Compliance Matrix: (Units=1/GPa)
#
#
# Indices 1 2 3 4 5 6 
#
# 1 0.016430 -0.005573 -0.004283 -0.003889 0.001751 -0.001319
# 2 -0.005573 0.010133 -0.001413 0.005049 -0.001198 0.003452
# 3 -0.004283 -0.001413 0.009837 0.000579 0.002708 0.002550
# 4 -0.003889 0.005049 0.000579 0.021432 -0.001418 0.004714
# 5 0.001751 -0.001198 0.002708 -0.001418 0.025813 0.001693
# 6 -0.001319 0.003452 0.002550 0.004714 0.001693 0.031007
#
#
# Mechanical properties :
#
#
# Convention : Reuss Voigt Hill
#
# Bulk Modulus (GPa) = 72.13844 82.09379 77.11611
# Shear Modulus (GPa) = 35.25856 41.14693 38.20275
#
# Velocity S-wave (km/s) = 4.10127 4.43052 4.26907
# Velocity P-wave (km/s) = 7.53933 8.08308 7.81594
#
# Compressibility (1/GPa) = 0.01386224
#
# Stress axis : x y z
#
# Youngs Moduli (GPa) = 60.86375 98.69063 101.65915
#
# Poissons Ratio (x) = 0.54997 0.43541
# Poissons Ratio (y) = 0.33917 0.14365
# Poissons Ratio (z) = 0.26068 0.13945
#
# Static dielectric constant tensor:
#      x y z
#    x 3.616130 -0.043680 -0.243130 
#    y -0.043680 4.340010 -0.281930 
#    z -0.243130 -0.281930 3.928850 
# 
# 
# High freq. dielectric constant tensor:
#      x y z
#    x 1.801480 -0.003680 -0.021570 
#    y -0.003680 1.846680 -0.016780 
#    z -0.021570 -0.016780 1.839080 
# 
# From -- ./inp_files/57594.got.cif
#   From: 2010.06.25/outbox.cif.g09.slc.cpg/sg2_29_cif.got.tgz:57594.got - 2010.06.27 13:26:56.
