data_PCOD8029079
_publ_section_title
;
Structure prediction by ZEFSAII (Michael W. Deem and Ramdas Pophale) SiO2 
 PCOD8029079
Probable space group: P -1
;
_chemical_formula_sum "Si O2"
_cell_formula_units_Z 16
_cell_length_a 21.110791
_cell_length_b 12.499149
_cell_length_c 9.476406
_cell_angle_alpha 132.424070
_cell_angle_beta 28.171739
_cell_angle_gamma 139.116656
_cell_volume 772.414657
_symmetry_space_group_name_H-M "P -1"
_symmetry_group_IT_number 2
_symmetry_cell_setting 'triclinic'
loop_
_space_group_symop_operation_xyz
x,y,z
-x,-y,-z
loop_
_atom_site_type_symbol
_atom_site_label
_atom_site_fract_x
_atom_site_fract_y
_atom_site_fract_z
Si Si1 0.386001 0.658515 0.451750
Si Si2 0.048112 0.920281 0.213581
Si Si3 0.560970 0.683936 0.597708
Si Si4 0.358631 0.754710 0.280974
Si Si5 0.975855 0.456651 0.347382
Si Si6 0.634239 0.906831 0.380293
Si Si7 0.788164 0.659274 0.328554
Si Si8 0.088955 0.656748 0.062317
O O1 0.379620 0.665981 0.300549
O O2 0.545423 0.791661 0.319698
O O3 0.339759 0.473016 0.431974
O O4 0.260012 0.700475 0.800317
O O5 0.105007 0.808315 0.080733
O O6 0.894789 0.824949 0.344844
O O7 0.000000 0.000000 0.500000
O O8 0.188447 0.038106 0.945388
O O9 0.500000 0.500000 0.500000
O O10 0.589967 0.802539 0.515783
O O11 0.714620 0.722297 0.410006
O O12 0.449805 0.717949 0.947777
O O13 0.187638 0.686617 0.499311
O O14 0.410140 0.945470 0.382667
O O15 0.000000 0.500000 0.500000
O O16 0.001138 0.617958 0.350643
O O17 0.106492 0.411311 0.006701
O O18 0.000000 0.500000 0.000000
#
# Coordination Sequence:
#
# PCOD8029079 Si02
#       8
#     2   2   2   2   2   2   2   2
#     4  11  22  42  80  95 132 182 237 280 340 417
#     4  12  26  43  70 106 140 174 234 296 350 395
#     4  12  28  46  68 102 147 185 229 280 351 423
#     4  12  24  45  72 106 137 182 233 290 342 406
#     4  11  22  41  75 100 134 186 239 273 341 420
#     4  12  26  48  68 105 140 182 231 289 349 415
#     4  11  23  48  68 100 142 183 228 289 344 410
#     4  11  19  44  69  97 134 180 231 288 328 414
#
# _framework density 20.714262000000002
#
# number of rings (size 3 to 8) (size 9 to 14) (size 15 to 20)
#    0.000    0.500    7.500    1.500    3.500    4.000 
#    2.250    0.000    0.000    0.000    0.000    0.000 
#    0.000    0.000    0.000    0.000    0.000    0.000 
#
# Total GULP energy -198291.779383 kJ/mol
# GULP energy per Si atom -12393.236211 kJ/mol
# Density = 2.066712 g / cm^3
# Si number density = 20.714262 Si / 1000 Ang^3
#
#
#
# Elastic Constant Matrix: (Units=GPa)
#
#
# Indices 1 2 3 4 5 6 
#
# 1 137.2408 45.3616 34.2500 -15.2156 18.5651 -2.8714
# 2 45.3616 89.5591 50.5758 -14.7327 7.8996 19.3584
# 3 34.2500 50.5758 110.6916 -3.9888 20.9106 -0.8126
# 4 -15.2156 -14.7327 -3.9888 28.1283 -0.8408 1.2745
# 5 18.5651 7.8996 20.9106 -0.8408 44.2392 -0.5246
# 6 -2.8714 19.3584 -0.8126 1.2745 -0.5246 28.8462
#
#
#
# Elastic Compliance Matrix: (Units=1/GPa)
#
#
# Indices 1 2 3 4 5 6 
#
# 1 0.009778 -0.005321 0.000106 0.002225 -0.003109 0.004393
# 2 -0.005321 0.024578 -0.009837 0.009474 0.002465 -0.017675
# 3 0.000106 -0.009837 0.014378 -0.003529 -0.005067 0.007081
# 4 0.002225 0.009474 -0.003529 0.041575 -0.000263 -0.008078
# 5 -0.003109 0.002465 -0.005067 -0.000263 0.025840 -0.001625
# 6 0.004393 -0.017675 0.007081 -0.008078 -0.001625 0.047492
#
#
# Mechanical properties :
#
#
# Convention : Reuss Voigt Hill
#
# Bulk Modulus (GPa) = 53.68267 66.42960 60.05614
# Shear Modulus (GPa) = 25.00546 34.06300 29.53423
#
# Velocity S-wave (km/s) = 3.47819 4.05955 3.78006
# Velocity P-wave (km/s) = 6.48864 7.35611 6.93595
#
# Compressibility (1/GPa) = 0.01862799
#
# Stress axis : x y z
#
# Youngs Moduli (GPa) = 102.26912 40.68692 69.54993
#
# Poissons Ratio (x) = 0.21651 -0.00734
# Poissons Ratio (y) = 0.54422 0.68418
# Poissons Ratio (z) = -0.01080 0.40025
#
# Static dielectric constant tensor:
#      x y z
#    x 4.974950 0.258080 -0.059820 
#    y 0.258080 4.139200 -0.277150 
#    z -0.059820 -0.277150 3.857990 
# 
# 
# High freq. dielectric constant tensor:
#      x y z
#    x 1.829620 -0.000360 0.001110 
#    y -0.000360 1.809360 -0.013670 
#    z 0.001110 -0.013670 1.811890 
# 
# From -- ./inp_files/298961.got.cif
#   From: 2010.06.25/outbox.cif.g09.slc.cpg/sg2_150_cif.got.tgz:298961.got - 2010.06.27 13:26:56.
