data_PCOD8029401
_publ_section_title
;
Structure prediction by ZEFSAII (Michael W. Deem and Ramdas Pophale) SiO2 
 PCOD8029401
Probable space group: P -1
;
_chemical_formula_sum "Si O2"
_cell_formula_units_Z 16
_cell_length_a 11.949719
_cell_length_b 14.701799
_cell_length_c 9.535497
_cell_angle_alpha 113.870051
_cell_angle_beta 108.644212
_cell_angle_gamma 127.945265
_cell_volume 743.229138
_symmetry_space_group_name_H-M "P -1"
_symmetry_group_IT_number 2
_symmetry_cell_setting 'triclinic'
loop_
_space_group_symop_operation_xyz
x,y,z
-x,-y,-z
loop_
_atom_site_type_symbol
_atom_site_label
_atom_site_fract_x
_atom_site_fract_y
_atom_site_fract_z
Si Si1 0.970978 0.301147 0.221051
Si Si2 0.764419 0.015939 0.749978
Si Si3 0.521146 0.280369 0.323675
Si Si4 0.886347 0.900079 0.085806
Si Si5 0.945447 0.778409 0.554900
Si Si6 0.528800 0.617818 0.993313
Si Si7 0.676397 0.936137 0.341237
Si Si8 0.599187 0.166088 0.062535
O O1 0.869804 0.336170 0.246782
O O2 0.239989 0.491366 0.413455
O O3 0.908112 0.177885 0.244482
O O4 0.843240 0.176655 0.949287
O O5 0.532844 0.816045 0.614126
O O6 0.711558 0.992104 0.550895
O O7 0.969036 0.085567 0.910298
O O8 0.559326 0.237415 0.177836
O O9 0.313953 0.207626 0.166199
O O10 0.761432 0.771242 0.095023
O O11 0.071584 0.120976 0.332802
O O12 0.699860 0.544806 0.296944
O O13 0.076666 0.879925 0.522391
O O14 0.500000 0.500000 0.000000
O O15 0.557042 0.740414 0.168034
O O16 0.515309 0.900013 0.176988
O O17 0.500000 0.000000 0.000000
#
# Coordination Sequence:
#
# PCOD8029401 Si02
#       8
#     2   2   2   2   2   2   2   2
#     4  12  25  42  70  97 126 174 227 272 322 384
#     4  12  26  41  62  99 144 172 205 268 343 396
#     4  12  24  45  66  99 130 172 226 268 322 391
#     4  11  22  41  65  98 134 177 215 265 323 400
#     4  11  20  41  68  94 127 174 227 266 316 384
#     4  11  22  39  65  99 133 173 221 267 321 385
#     4  11  24  43  66 100 134 171 219 272 330 391
#     4  12  21  48  75  92 121 174 232 280 316 377
#
# _framework density 21.527681000000001
#
# number of rings (size 3 to 8) (size 9 to 14) (size 15 to 20)
#    0.000    0.500    7.500    2.250    0.000    6.000 
#    0.000    0.625    0.000    0.000    0.000    0.000 
#    0.000    0.000    0.000    0.000    0.000    0.000 
#
# Total GULP energy -198362.577603 kJ/mol
# GULP energy per Si atom -12397.661100 kJ/mol
# Density = 2.147868 g / cm^3
# Si number density = 21.527681 Si / 1000 Ang^3
#
#
#
# Elastic Constant Matrix: (Units=GPa)
#
#
# Indices 1 2 3 4 5 6 
#
# 1 75.6660 29.9685 25.5165 -9.3666 9.4038 0.4782
# 2 29.9685 111.0133 60.4897 -10.8415 -9.0376 2.7447
# 3 25.5165 60.4897 97.1378 -6.4773 -5.9675 1.4961
# 4 -9.3666 -10.8415 -6.4773 40.4999 0.0635 -2.8643
# 5 9.4038 -9.0376 -5.9675 0.0635 27.6894 -2.3258
# 6 0.4782 2.7447 1.4961 -2.8643 -2.3258 31.2479
#
#
#
# Elastic Compliance Matrix: (Units=1/GPa)
#
#
# Indices 1 2 3 4 5 6 
#
# 1 0.016664 -0.003495 -0.002483 0.002523 -0.007353 -0.000145
# 2 -0.003495 0.014797 -0.007904 0.001855 0.004277 -0.000379
# 3 -0.002483 -0.007904 0.015964 -0.000134 0.001711 0.000083
# 4 0.002523 0.001855 -0.000134 0.025904 -0.000157 0.002168
# 5 -0.007353 0.004277 0.001711 -0.000157 0.040601 0.002662
# 6 -0.000145 -0.000379 0.000083 0.002168 0.002662 0.032431
#
#
# Mechanical properties :
#
#
# Convention : Reuss Voigt Hill
#
# Bulk Modulus (GPa) = 50.85819 57.30739 54.08279
# Shear Modulus (GPa) = 27.67379 31.07693 29.37536
#
# Velocity S-wave (km/s) = 3.58927 3.80357 3.69797
# Velocity P-wave (km/s) = 6.39164 6.77994 6.58865
#
# Compressibility (1/GPa) = 0.01966252
#
# Stress axis : x y z
#
# Youngs Moduli (GPa) = 60.00862 67.58204 62.64203
#
# Poissons Ratio (x) = 0.23617 0.15551
# Poissons Ratio (y) = 0.20970 0.49513
# Poissons Ratio (z) = 0.14898 0.53417
#
# Static dielectric constant tensor:
#      x y z
#    x 3.872790 0.050390 0.157200 
#    y 0.050390 3.921760 0.092510 
#    z 0.157200 0.092510 3.973590 
# 
# 
# High freq. dielectric constant tensor:
#      x y z
#    x 1.835140 0.001150 0.006710 
#    y 0.001150 1.854510 0.003820 
#    z 0.006710 0.003820 1.842590 
# 
# From -- ./inp_files/272628.got.cif
#   From: 2010.06.25/outbox.cif.g09.slc.cpg/sg2_137_cif.got.tgz:272628.got - 2010.06.27 13:26:56.
