data_PCOD8029937
_publ_section_title
;
Structure prediction by ZEFSAII (Michael W. Deem and Ramdas Pophale) SiO2 
 PCOD8029937
Probable space group: P -1
;
_chemical_formula_sum "Si O2"
_cell_formula_units_Z 14
_cell_length_a 12.733581
_cell_length_b 11.671934
_cell_length_c 12.062145
_cell_angle_alpha 51.866445
_cell_angle_beta 83.528546
_cell_angle_gamma 128.587451
_cell_volume 646.795614
_symmetry_space_group_name_H-M "P -1"
_symmetry_group_IT_number 2
_symmetry_cell_setting 'triclinic'
loop_
_space_group_symop_operation_xyz
x,y,z
-x,-y,-z
loop_
_atom_site_type_symbol
_atom_site_label
_atom_site_fract_x
_atom_site_fract_y
_atom_site_fract_z
Si Si1 0.343155 0.942898 0.015870
Si Si2 0.158475 0.318335 0.247764
Si Si3 0.833131 0.497369 0.067683
Si Si4 0.304157 0.945736 0.775308
Si Si5 0.627607 0.781464 0.968700
Si Si6 0.067676 0.744386 0.541752
Si Si7 0.489574 0.287732 0.334596
O O1 0.068264 0.571434 0.277880
O O2 0.372642 0.123196 0.977833
O O3 0.425693 0.087644 0.795310
O O4 0.500000 0.000000 0.000000
O O5 0.143879 0.423591 0.280548
O O6 0.065875 0.261990 0.175186
O O7 0.412888 0.570193 0.046323
O O8 0.000000 0.000000 0.500000
O O9 0.681614 0.196248 0.197123
O O10 0.676132 0.388028 0.240188
O O11 0.041950 0.670628 0.998023
O O12 0.419124 0.201022 0.524459
O O13 0.848591 0.079489 0.687695
O O14 0.602996 0.581639 0.119268
O O15 0.271476 0.982460 0.465410
#
# Coordination Sequence:
#
# PCOD8029937 Si02
#       7
#     2   2   2   2   2   2   2
#     4  12  26  47  67  94 134 183 221 266 332 405
#     4  12  20  38  68 101 135 168 215 278 331 380
#     4  11  21  41  65 101 132 166 225 274 328 386
#     4  11  23  44  66  94 134 174 221 272 329 394
#     4  12  25  42  66 102 140 175 217 268 335 394
#     4  12  22  41  69  98 133 169 222 275 321 387
#     4  12  24  41  72 104 129 169 222 282 329 380
#
# _framework density 21.645167000000001
#
# number of rings (size 3 to 8) (size 9 to 14) (size 15 to 20)
#    0.000    0.286    7.143    3.000    0.000    0.571 
#    2.571    0.714    0.000    0.000    0.000    0.000 
#    0.000    0.000    0.000    0.000    0.000    0.000 
#
# Total GULP energy -173567.158307 kJ/mol
# GULP energy per Si atom -12397.654165 kJ/mol
# Density = 2.159590 g / cm^3
# Si number density = 21.645167 Si / 1000 Ang^3
#
#
#
# Elastic Constant Matrix: (Units=GPa)
#
#
# Indices 1 2 3 4 5 6 
#
# 1 101.8915 33.0160 24.6391 3.2088 -7.9266 -5.4263
# 2 33.0160 97.2740 30.9159 13.5017 6.4984 4.0897
# 3 24.6391 30.9159 109.3903 12.8778 6.1584 6.0201
# 4 3.2088 13.5017 12.8778 38.1386 -3.1678 9.4768
# 5 -7.9266 6.4984 6.1584 -3.1678 35.6919 9.3406
# 6 -5.4263 4.0897 6.0201 9.4768 9.3406 24.6584
#
#
#
# Elastic Compliance Matrix: (Units=1/GPa)
#
#
# Indices 1 2 3 4 5 6 
#
# 1 0.011869 -0.003802 -0.001984 0.000717 0.003142 0.002261
# 2 -0.003802 0.013013 -0.002196 -0.003881 -0.003248 0.000263
# 3 -0.001984 -0.002196 0.010670 -0.002566 -0.001850 -0.000990
# 4 0.000717 -0.003881 -0.002566 0.032550 0.007879 -0.014066
# 5 0.003142 -0.003248 -0.001850 0.007879 0.034053 -0.014245
# 6 0.002261 0.000263 -0.000990 -0.014066 -0.014245 0.052052
#
#
# Mechanical properties :
#
#
# Convention : Reuss Voigt Hill
#
# Bulk Modulus (GPa) = 51.05601 53.96642 52.51122
# Shear Modulus (GPa) = 28.29640 34.36344 31.32992
#
# Velocity S-wave (km/s) = 3.61956 3.98877 3.80864
# Velocity P-wave (km/s) = 6.41149 6.79707 6.60709
#
# Compressibility (1/GPa) = 0.01958633
#
# Stress axis : x y z
#
# Youngs Moduli (GPa) = 84.25647 76.84464 93.72067
#
# Poissons Ratio (x) = 0.29217 0.18598
# Poissons Ratio (y) = 0.32035 0.20583
# Poissons Ratio (z) = 0.16720 0.16877
#
# Static dielectric constant tensor:
#      x y z
#    x 3.781260 0.190910 -0.075180 
#    y 0.190910 3.857720 -0.159540 
#    z -0.075180 -0.159540 4.272840 
# 
# 
# High freq. dielectric constant tensor:
#      x y z
#    x 1.856110 -0.004570 0.003070 
#    y -0.004570 1.826390 0.016130 
#    z 0.003070 0.016130 1.861950 
# 
# From -- ./inp_files/402903.got.cif
#   From: 2010.06.25/outbox.cif.g09.slc.cpg/sg2_202_cif.got.tgz:402903.got - 2010.06.27 13:26:56.
