data_PCOD8029156
_publ_section_title
;
Structure prediction by ZEFSAII (Michael W. Deem and Ramdas Pophale) SiO2 
 PCOD8029156
Probable space group: P -1
;
_chemical_formula_sum "Si O2"
_cell_formula_units_Z 14
_cell_length_a 8.498278
_cell_length_b 9.932816
_cell_length_c 11.421747
_cell_angle_alpha 97.949884
_cell_angle_beta 99.825300
_cell_angle_gamma 43.662668
_cell_volume 655.726793
_symmetry_space_group_name_H-M "P -1"
_symmetry_group_IT_number 2
_symmetry_cell_setting 'triclinic'
loop_
_space_group_symop_operation_xyz
x,y,z
-x,-y,-z
loop_
_atom_site_type_symbol
_atom_site_label
_atom_site_fract_x
_atom_site_fract_y
_atom_site_fract_z
Si Si1 0.240258 0.704569 0.492580
Si Si2 0.639035 0.289639 0.939485
Si Si3 0.815308 0.867353 0.322447
Si Si4 0.110212 0.989781 0.865006
Si Si5 0.007035 0.786448 0.706473
Si Si6 0.380843 0.900236 0.454306
Si Si7 0.704269 0.638868 0.272982
O O1 0.500000 0.500000 0.500000
O O2 0.177256 0.735997 0.622862
O O3 0.219774 0.870275 0.461881
O O4 0.068770 0.717997 0.394101
O O5 0.500270 0.300080 0.820476
O O6 0.877199 0.204592 0.906502
O O7 0.500000 0.500000 0.000000
O O8 0.692605 0.141869 0.026966
O O9 0.787158 0.994438 0.231302
O O10 0.780918 0.739256 0.247182
O O11 0.616312 0.011827 0.415136
O O12 0.034776 0.878837 0.823358
O O13 0.077228 0.593180 0.733985
O O14 0.747026 0.937907 0.645302
O O15 0.624965 0.704478 0.408338
#
# Coordination Sequence:
#
# PCOD8029156 Si02
#       7
#     2   2   2   2   2   2   2
#     4  11  20  36  64  93 124 171 213 243 304 383
#     4  11  24  42  71  91 116 169 223 259 306 377
#     4  11  24  41  62  98 136 160 204 267 314 372
#     4  11  22  43  68  89 121 167 218 259 306 373
#     4  11  20  37  66  89 124 164 213 254 300 381
#     4  11  21  41  64  93 129 173 206 246 314 392
#     4  12  24  40  63  99 132 163 207 263 321 360
#
# _framework density 21.350356000000001
#
# number of rings (size 3 to 8) (size 9 to 14) (size 15 to 20)
#    0.000    0.857    7.143    1.286    0.000    2.857 
#    2.571    0.714    0.000    0.000    0.000    0.000 
#    0.000    0.000    0.000    0.000    0.000    0.000 
#
# Total GULP energy -173562.855884 kJ/mol
# GULP energy per Si atom -12397.346849 kJ/mol
# Density = 2.130176 g / cm^3
# Si number density = 21.350356 Si / 1000 Ang^3
#
#
#
# Elastic Constant Matrix: (Units=GPa)
#
#
# Indices 1 2 3 4 5 6 
#
# 1 37.0731 21.5965 15.2575 7.9563 13.4790 10.2974
# 2 21.5965 115.7438 34.2329 9.2010 5.1967 6.1490
# 3 15.2575 34.2329 81.4171 -0.3749 -5.9483 8.0796
# 4 7.9563 9.2010 -0.3749 38.7590 1.1532 0.9721
# 5 13.4790 5.1967 -5.9483 1.1532 23.5743 5.7169
# 6 10.2974 6.1490 8.0796 0.9721 5.7169 36.2249
#
#
#
# Elastic Compliance Matrix: (Units=1/GPa)
#
#
# Indices 1 2 3 4 5 6 
#
# 1 0.045003 -0.003984 -0.008006 -0.007471 -0.025008 -0.006183
# 2 -0.003984 0.010694 -0.003875 -0.001737 -0.001069 0.000397
# 3 -0.008006 -0.003875 0.016391 0.002483 0.010021 -0.002370
# 4 -0.007471 -0.001737 0.002483 0.027644 0.003802 0.000523
# 5 -0.025008 -0.001069 0.010021 0.003802 0.060407 -0.004580
# 6 -0.006183 0.000397 -0.002370 0.000523 -0.004580 0.030533
#
#
# Mechanical properties :
#
#
# Convention : Reuss Voigt Hill
#
# Bulk Modulus (GPa) = 24.77891 41.82308 33.30100
# Shear Modulus (GPa) = 21.19947 30.58813 25.89380
#
# Velocity S-wave (km/s) = 3.15450 3.78918 3.48631
# Velocity P-wave (km/s) = 4.98988 6.22698 5.64244
#
# Compressibility (1/GPa) = 0.04035690
#
# Stress axis : x y z
#
# Youngs Moduli (GPa) = 22.22096 93.50797 61.00882
#
# Poissons Ratio (x) = 0.37252 0.48845
# Poissons Ratio (y) = 0.08852 0.23644
# Poissons Ratio (z) = 0.17791 0.36238
#
# Static dielectric constant tensor:
#      x y z
#    x 3.607560 -0.009520 -0.067210 
#    y -0.009520 4.173280 0.111400 
#    z -0.067210 0.111400 3.905030 
# 
# 
# High freq. dielectric constant tensor:
#      x y z
#    x 1.816200 -0.004610 -0.002310 
#    y -0.004610 1.848680 0.005000 
#    z -0.002310 0.005000 1.833860 
# 
# From -- ./inp_files/178394.got.cif
#   From: 2010.06.25/outbox.cif.g09.slc.cpg/sg2_90_cif.got.tgz:178394.got - 2010.06.27 13:26:56.
