data_PCOD8029956
_publ_section_title
;
Structure prediction by ZEFSAII (Michael W. Deem and Ramdas Pophale) SiO2 
 PCOD8029956
Probable space group: P -1
;
_chemical_formula_sum "Si O2"
_cell_formula_units_Z 12
_cell_length_a 12.503806
_cell_length_b 9.615468
_cell_length_c 15.553541
_cell_angle_alpha 36.440683
_cell_angle_beta 148.667772
_cell_angle_gamma 130.770810
_cell_volume 574.061597
_symmetry_space_group_name_H-M "P -1"
_symmetry_group_IT_number 2
_symmetry_cell_setting 'triclinic'
loop_
_space_group_symop_operation_xyz
x,y,z
-x,-y,-z
loop_
_atom_site_type_symbol
_atom_site_label
_atom_site_fract_x
_atom_site_fract_y
_atom_site_fract_z
Si Si1 0.329306 0.037025 0.795320
Si Si2 0.670978 0.797029 0.688056
Si Si3 0.090067 0.075443 0.366796
Si Si4 0.396119 0.518911 0.511417
Si Si5 0.321169 0.683423 0.820788
Si Si6 0.028291 0.461235 0.839053
O O1 0.344164 0.265428 0.634558
O O2 0.373350 0.799819 0.888488
O O3 0.114130 0.050401 0.692941
O O4 0.500000 0.000000 0.000000
O O5 0.857540 0.886542 0.715973
O O6 0.545677 0.622304 0.632208
O O7 0.500000 0.000000 0.500000
O O8 0.789387 0.684197 0.908982
O O9 0.075745 0.322101 0.283135
O O10 0.279967 0.893912 0.619993
O O11 0.500000 0.500000 0.500000
O O12 0.169292 0.671351 0.262908
O O13 0.123692 0.545532 0.773763
O O14 0.500000 0.500000 0.000000
#
# Coordination Sequence:
#
# PCOD8029956 Si02
#       6
#     2   2   2   2   2   2
#     4  11  23  41  66  97 123 171 222 258 310 393
#     4  12  27  44  64 100 135 166 213 279 331 370
#     4  11  21  44  66  92 129 170 216 258 321 390
#     4  12  23  42  70  96 126 173 226 258 313 399
#     4  11  21  41  66  94 132 164 206 274 327 365
#     4  11  22  42  70  93 128 176 218 259 320 393
#
# _framework density 20.903680999999999
#
# number of rings (size 3 to 8) (size 9 to 14) (size 15 to 20)
#    0.000    0.667    5.000    4.500    2.333    0.667 
#    3.000    1.667    0.000    0.000    0.000    0.000 
#    0.000    0.000    0.000    0.000    0.000    0.000 
#
# Total GULP energy -148680.141383 kJ/mol
# GULP energy per Si atom -12390.011782 kJ/mol
# Density = 2.085610 g / cm^3
# Si number density = 20.903681 Si / 1000 Ang^3
#
#
#
# Elastic Constant Matrix: (Units=GPa)
#
#
# Indices 1 2 3 4 5 6 
#
# 1 112.1688 33.2387 17.2170 -8.7633 16.5373 20.3402
# 2 33.2387 67.4353 36.3271 12.5510 10.4035 14.4129
# 3 17.2170 36.3271 141.1561 3.7417 6.2439 -1.1750
# 4 -8.7633 12.5510 3.7417 43.0946 -6.7258 3.0736
# 5 16.5373 10.4035 6.2439 -6.7258 38.6920 -5.7735
# 6 20.3402 14.4129 -1.1750 3.0736 -5.7735 28.8539
#
#
#
# Elastic Compliance Matrix: (Units=1/GPa)
#
#
# Indices 1 2 3 4 5 6 
#
# 1 0.012725 -0.004232 -0.000416 0.003691 -0.004820 -0.008231
# 2 -0.004232 0.024422 -0.005345 -0.007853 -0.006745 -0.009947
# 3 -0.000416 -0.005345 0.008484 0.000627 0.000864 0.003415
# 4 0.003691 -0.007853 0.000627 0.027013 0.005051 -0.000521
# 5 -0.004820 -0.006745 0.000864 0.005051 0.032358 0.012739
# 6 -0.008231 -0.009947 0.003415 -0.000521 0.012739 0.048172
#
#
# Mechanical properties :
#
#
# Convention : Reuss Voigt Hill
#
# Bulk Modulus (GPa) = 38.99463 54.92508 46.95986
# Shear Modulus (GPa) = 27.51652 37.72659 32.62155
#
# Velocity S-wave (km/s) = 3.63209 4.25288 3.95468
# Velocity P-wave (km/s) = 6.02365 7.10270 6.58531
#
# Compressibility (1/GPa) = 0.02564455
#
# Stress axis : x y z
#
# Youngs Moduli (GPa) = 78.58806 40.94602 117.86457
#
# Poissons Ratio (x) = 0.17328 0.04904
# Poissons Ratio (y) = 0.33258 0.63002
# Poissons Ratio (z) = 0.03270 0.21887
#
# Static dielectric constant tensor:
#      x y z
#    x 3.985270 0.298160 -0.066590 
#    y 0.298160 3.775290 0.703670 
#    z -0.066590 0.703670 2.500440 
# 
# 
# High freq. dielectric constant tensor:
#      x y z
#    x 1.832470 0.020430 -0.002860 
#    y 0.020430 1.800400 0.009870 
#    z -0.002860 0.009870 1.833770 
# 
# From -- ./inp_files/148329.got.cif
#   From: 2010.06.25/outbox.cif.g09.slc.cpg/sg2_75_cif.got.tgz:148329.got - 2010.06.27 13:26:56.
