data_PCOD8029871
_publ_section_title
;
Structure prediction by ZEFSAII (Michael W. Deem and Ramdas Pophale) SiO2 
 PCOD8029871
Probable space group: P -1
;
_chemical_formula_sum "Si O2"
_cell_formula_units_Z 16
_cell_length_a 9.769939
_cell_length_b 21.016021
_cell_length_c 11.038769
_cell_angle_alpha 22.033225
_cell_angle_beta 67.202005
_cell_angle_gamma 66.510701
_cell_volume 778.750083
_symmetry_space_group_name_H-M "P -1"
_symmetry_group_IT_number 2
_symmetry_cell_setting 'triclinic'
loop_
_space_group_symop_operation_xyz
x,y,z
-x,-y,-z
loop_
_atom_site_type_symbol
_atom_site_label
_atom_site_fract_x
_atom_site_fract_y
_atom_site_fract_z
Si Si1 0.343981 0.380610 0.386036
Si Si2 0.155145 0.401843 0.647645
Si Si3 0.342517 0.495887 0.617500
Si Si4 0.543663 0.899454 0.345628
Si Si5 0.643850 0.878642 0.616795
Si Si6 0.631276 0.262850 0.609854
Si Si7 0.752736 0.254934 0.332948
Si Si8 0.933462 0.872794 0.659999
O O1 0.231289 0.346403 0.592266
O O2 0.362420 0.218187 0.577421
O O3 0.503402 0.403637 0.351431
O O4 0.293202 0.549087 0.030760
O O5 0.238032 0.529838 0.476005
O O6 0.000000 0.500000 0.500000
O O7 0.145490 0.241244 0.018395
O O8 0.500000 0.500000 0.500000
O O9 0.297837 0.654371 0.444148
O O10 0.340842 0.314819 0.001655
O O11 0.630982 0.869104 0.494454
O O12 0.369536 0.859269 0.482984
O O13 0.549121 0.096546 0.961249
O O14 0.800046 0.950952 0.476562
O O15 0.500000 0.000000 0.500000
O O16 0.755755 0.225758 0.528517
O O17 0.924286 0.215303 0.305878
O O18 0.000000 0.000000 0.500000
#
# Coordination Sequence:
#
# PCOD8029871 Si02
#       8
#     2   2   2   2   2   2   2   2
#     4  11  21  40  68  93 129 164 218 257 315 381
#     4  11  24  42  63  97 125 167 210 261 322 373
#     4  11  22  40  68  91 127 165 216 262 308 380
#     4  11  24  40  68  96 129 168 215 264 314 377
#     4  11  24  43  64  96 128 167 217 259 318 378
#     4  11  23  40  67  98 126 169 215 264 315 376
#     4  11  22  42  66  95 127 170 212 263 322 377
#     4  11  26  41  65  94 132 167 207 265 321 380
#
# _framework density 20.545743999999999
#
# number of rings (size 3 to 8) (size 9 to 14) (size 15 to 20)
#    0.000    1.000    2.500    6.000    5.250    2.000 
#    2.250    2.500    0.000    0.000    0.000    0.000 
#    0.000    0.000    0.000    0.000    0.000    0.000 
#
# Total GULP energy -198278.210002 kJ/mol
# GULP energy per Si atom -12392.388125 kJ/mol
# Density = 2.049898 g / cm^3
# Si number density = 20.545744 Si / 1000 Ang^3
#
#
#
# Elastic Constant Matrix: (Units=GPa)
#
#
# Indices 1 2 3 4 5 6 
#
# 1 149.3477 62.0273 34.2283 -7.8429 -3.8338 15.2401
# 2 62.0273 122.7907 33.8447 5.3258 -9.9624 14.4891
# 3 34.2283 33.8447 76.1775 -3.2907 -7.2982 2.1782
# 4 -7.8429 5.3258 -3.2907 38.7974 1.1669 -3.6590
# 5 -3.8338 -9.9624 -7.2982 1.1669 30.1855 -2.2080
# 6 15.2401 14.4891 2.1782 -3.6590 -2.2080 40.6315
#
#
#
# Elastic Compliance Matrix: (Units=1/GPa)
#
#
# Indices 1 2 3 4 5 6 
#
# 1 0.009118 -0.003926 -0.002300 0.002048 -0.000902 -0.001761
# 2 -0.003926 0.011662 -0.003232 -0.002993 0.002491 -0.002647
# 3 -0.002300 -0.003232 0.015858 0.001382 0.002526 0.001427
# 4 0.002048 -0.002993 0.001382 0.026999 -0.001248 0.002589
# 5 -0.000902 0.002491 0.002526 -0.001248 0.034574 0.001081
# 6 -0.001761 -0.002647 0.001427 0.002589 0.001081 0.026431
#
#
# Mechanical properties :
#
#
# Convention : Reuss Voigt Hill
#
# Bulk Modulus (GPa) = 56.43059 67.61295 62.02177
# Shear Modulus (GPa) = 33.45253 36.47059 34.96156
#
# Velocity S-wave (km/s) = 4.03947 4.21775 4.12958
# Velocity P-wave (km/s) = 7.02011 7.52989 7.27946
#
# Compressibility (1/GPa) = 0.01772088
#
# Stress axis : x y z
#
# Youngs Moduli (GPa) = 109.67845 85.74623 63.06075
#
# Poissons Ratio (x) = 0.33663 0.14504
# Poissons Ratio (y) = 0.43059 0.20384
# Poissons Ratio (z) = 0.25227 0.27716
#
# Static dielectric constant tensor:
#      x y z
#    x 3.463210 0.228810 0.105250 
#    y 0.228810 3.726610 0.014050 
#    z 0.105250 0.014050 3.651060 
# 
# 
# High freq. dielectric constant tensor:
#      x y z
#    x 1.801040 0.009320 -0.000870 
#    y 0.009320 1.820910 0.006920 
#    z -0.000870 0.006920 1.804640 
# 
# From -- ./inp_files/350244.got.cif
#   From: 2010.06.25/outbox.cif.g09.slc.cpg/sg2_176_cif.got.tgz:350244.got - 2010.06.27 13:26:56.
