data_PCOD8029490
_publ_section_title
;
Structure prediction by ZEFSAII (Michael W. Deem and Ramdas Pophale) SiO2 
 PCOD8029490
Probable space group: P -1
;
_chemical_formula_sum "Si O2"
_cell_formula_units_Z 14
_cell_length_a 12.275913
_cell_length_b 5.124450
_cell_length_c 15.102884
_cell_angle_alpha 98.538478
_cell_angle_beta 43.951292
_cell_angle_gamma 112.662758
_cell_volume 596.032641
_symmetry_space_group_name_H-M "P -1"
_symmetry_group_IT_number 2
_symmetry_cell_setting 'triclinic'
loop_
_space_group_symop_operation_xyz
x,y,z
-x,-y,-z
loop_
_atom_site_type_symbol
_atom_site_label
_atom_site_fract_x
_atom_site_fract_y
_atom_site_fract_z
Si Si1 0.190966 0.179034 0.998237
Si Si2 0.980641 0.475392 0.364569
Si Si3 0.359311 0.448365 0.656051
Si Si4 0.515913 0.598666 0.759942
Si Si5 0.972992 0.928119 0.254004
Si Si6 0.730506 0.259025 0.653393
Si Si7 0.117055 0.734269 0.873696
O O1 0.023838 0.254313 0.111587
O O2 0.361110 0.474393 0.916159
O O3 0.144023 0.955685 0.097801
O O4 0.206338 0.034545 0.889402
O O5 0.928215 0.668493 0.336688
O O6 0.816699 0.282309 0.508987
O O7 0.134423 0.694553 0.345068
O O8 0.034838 0.240171 0.277439
O O9 0.500000 0.500000 0.500000
O O10 0.455314 0.453646 0.691963
O O11 0.199275 0.146711 0.710699
O O12 0.266788 0.673433 0.732833
O O13 0.662314 0.510763 0.708954
O O14 0.577825 0.942857 0.736838
O O15 0.000000 0.500000 0.000000
#
# Coordination Sequence:
#
# PCOD8029490 Si02
#       7
#     2   2   2   2   2   2   2
#     4  11  24  40  67 102 138 196 239 279 348 450
#     4  11  25  47  71  96 134 188 242 292 355 425
#     4  12  24  40  69 110 145 175 230 300 362 421
#     4  12  25  43  70 103 141 182 232 295 361 419
#     4  12  25  43  70 103 141 182 232 295 361 419
#     4  11  25  47  71  96 134 188 242 292 355 425
#     4  11  20  43  65  93 149 205 236 267 349 449
#
# _framework density 23.488648000000001
#
# number of rings (size 3 to 8) (size 9 to 14) (size 15 to 20)
#    0.000    0.571    2.857    6.000    0.000    3.429 
#    0.000   11.429    0.000    0.000    0.000    0.000 
#    0.000    0.000    0.000    0.000    0.000    0.000 
#
# Total GULP energy -173470.845401 kJ/mol
# GULP energy per Si atom -12390.774672 kJ/mol
# Density = 2.343519 g / cm^3
# Si number density = 23.488648 Si / 1000 Ang^3
#
#
#
# Elastic Constant Matrix: (Units=GPa)
#
#
# Indices 1 2 3 4 5 6 
#
# 1 57.4453 24.0562 21.0453 -3.4280 -11.0953 -3.3025
# 2 24.0562 102.9106 38.9766 -11.0458 3.7577 1.6143
# 3 21.0453 38.9766 141.1674 -3.1674 -17.0487 12.5257
# 4 -3.4280 -11.0458 -3.1674 44.5329 -6.4579 -13.1474
# 5 -11.0953 3.7577 -17.0487 -6.4579 29.2755 5.3876
# 6 -3.3025 1.6143 12.5257 -13.1474 5.3876 26.3828
#
#
#
# Elastic Compliance Matrix: (Units=1/GPa)
#
#
# Indices 1 2 3 4 5 6 
#
# 1 0.021712 -0.004701 -0.001183 0.002535 0.008119 0.003172
# 2 -0.004701 0.012618 -0.003629 0.002526 -0.005461 0.002736
# 3 -0.001183 -0.003629 0.009591 -0.001266 0.006509 -0.006440
# 4 0.002535 0.002526 -0.001266 0.027796 0.003471 0.013907
# 5 0.008119 -0.005461 0.006509 0.003471 0.044153 -0.009026
# 6 0.003172 0.002736 -0.006440 0.013907 -0.009026 0.049964
#
#
# Mechanical properties :
#
#
# Convention : Reuss Voigt Hill
#
# Bulk Modulus (GPa) = 40.16859 52.18662 46.17760
# Shear Modulus (GPa) = 25.88558 34.53459 30.21008
#
# Velocity S-wave (km/s) = 3.32331 3.83857 3.59019
# Velocity P-wave (km/s) = 5.64484 6.47396 6.07357
#
# Compressibility (1/GPa) = 0.02489508
#
# Stress axis : x y z
#
# Youngs Moduli (GPa) = 46.05802 79.25176 104.26453
#
# Poissons Ratio (x) = 0.37260 0.12333
# Poissons Ratio (y) = 0.21654 0.37833
# Poissons Ratio (z) = 0.05448 0.28757
#
# Static dielectric constant tensor:
#      x y z
#    x 4.343690 -0.191840 0.219540 
#    y -0.191840 4.339780 -0.238900 
#    z 0.219540 -0.238900 4.585250 
# 
# 
# High freq. dielectric constant tensor:
#      x y z
#    x 1.916450 -0.006580 0.007920 
#    y -0.006580 1.933330 -0.016770 
#    z 0.007920 -0.016770 1.947460 
# 
# From -- ./inp_files/510418.got.cif
#   From: 2010.06.25/outbox.cif.g09.slc.cpg/sg2_256_cif.got.tgz:510418.got - 2010.06.27 13:26:56.
