data_PCOD8029237
_publ_section_title
;
Structure prediction by ZEFSAII (Michael W. Deem and Ramdas Pophale) SiO2 
 PCOD8029237
Probable space group: P -1
;
_chemical_formula_sum "Si O2"
_cell_formula_units_Z 14
_cell_length_a 9.528226
_cell_length_b 12.714994
_cell_length_c 22.419724
_cell_angle_alpha 151.556127
_cell_angle_beta 144.694151
_cell_angle_gamma 45.748570
_cell_volume 745.759713
_symmetry_space_group_name_H-M "P -1"
_symmetry_group_IT_number 2
_symmetry_cell_setting 'triclinic'
loop_
_space_group_symop_operation_xyz
x,y,z
-x,-y,-z
loop_
_atom_site_type_symbol
_atom_site_label
_atom_site_fract_x
_atom_site_fract_y
_atom_site_fract_z
Si Si1 0.712403 0.811708 0.836218
Si Si2 0.714601 0.588204 0.161050
Si Si3 0.108185 0.084878 0.171636
Si Si4 0.476142 0.944079 0.324445
Si Si5 0.360778 0.740558 0.922054
Si Si6 0.245895 0.627507 0.311990
Si Si7 0.266189 0.565658 0.148899
O O1 0.717032 0.788905 0.754357
O O2 0.616915 0.576406 0.713673
O O3 0.546194 0.013081 0.898007
O O4 0.987170 0.866276 0.985943
O O5 0.728633 0.417344 0.134043
O O6 0.964795 0.617334 0.227054
O O7 0.657725 0.828802 0.285826
O O8 0.500000 0.500000 0.000000
O O9 0.248174 0.022331 0.247635
O O10 0.887251 0.234178 0.189791
O O11 0.618882 0.149342 0.506943
O O12 0.378513 0.777282 0.258410
O O13 0.571209 0.643978 0.907853
O O14 0.261754 0.624272 0.245260
O O15 0.000000 0.500000 0.000000
#
# Coordination Sequence:
#
# PCOD8029237 Si02
#       7
#     2   2   2   2   2   2   2
#     4   9  17  34  63  86 114 147 198 243 293 338
#     4  11  20  38  65  90 113 156 206 243 284 348
#     4   9  17  37  61  87 113 151 199 244 289 346
#     4  11  24  38  60  88 124 154 192 249 305 353
#     4   9  19  37  63  85 112 149 203 249 278 342
#     4  12  22  38  58  91 125 154 189 250 307 348
#     4  11  24  41  62  84 114 163 207 243 286 354
#
# _framework density 18.772803
#
# number of rings (size 3 to 8) (size 9 to 14) (size 15 to 20)
#    0.857    0.857    1.429    5.143    0.000    1.143 
#    0.000    0.714    3.143    0.000    0.000    0.000 
#    0.000    0.000    0.000    0.000    0.000    0.000 
#
# Total GULP energy -173521.810330 kJ/mol
# GULP energy per Si atom -12394.415024 kJ/mol
# Density = 1.873008 g / cm^3
# Si number density = 18.772803 Si / 1000 Ang^3
#
#
#
# Elastic Constant Matrix: (Units=GPa)
#
#
# Indices 1 2 3 4 5 6 
#
# 1 122.2350 58.9314 48.7655 7.4236 -14.7284 -12.2106
# 2 58.9314 122.4534 42.0240 19.1385 -8.5612 -18.2577
# 3 48.7655 42.0240 101.6656 28.1054 -8.1987 -12.2820
# 4 7.4236 19.1385 28.1054 12.7255 -0.0779 2.0190
# 5 -14.7284 -8.5612 -8.1987 -0.0779 25.5824 2.7730
# 6 -12.2106 -18.2577 -12.2820 2.0190 2.7730 31.0671
#
#
#
# Elastic Compliance Matrix: (Units=1/GPa)
#
#
# Indices 1 2 3 4 5 6 
#
# 1 0.016692 -0.010634 -0.017517 0.046505 0.001640 -0.009783
# 2 -0.010634 0.020878 0.017776 -0.067463 0.004283 0.019120
# 3 -0.017517 0.017776 0.056204 -0.146047 0.009702 0.034407
# 4 0.046505 -0.067463 -0.146047 0.492504 -0.029348 -0.108495
# 5 0.001640 0.004283 0.009702 -0.029348 0.043947 0.004982
# 6 -0.009783 0.019120 0.034407 -0.108495 0.004982 0.059789
#
#
# Mechanical properties :
#
#
# Convention : Reuss Voigt Hill
#
# Bulk Modulus (GPa) = 13.69403 71.75511 42.72457
# Shear Modulus (GPa) = 6.80175 26.98387 16.89281
#
# Velocity S-wave (km/s) = 1.90553 3.79541 3.00301
# Velocity P-wave (km/s) = 3.48595 7.58371 5.90189
#
# Compressibility (1/GPa) = 0.07302451
#
# Stress axis : x y z
#
# Youngs Moduli (GPa) = 59.90876 47.89815 17.79227
#
# Poissons Ratio (x) = 0.50935 0.31166
# Poissons Ratio (y) = 0.63707 -0.31628
# Poissons Ratio (z) = 1.04941 -0.85144
#
# Static dielectric constant tensor:
#      x y z
#    x 3.367790 -0.100420 -0.098870 
#    y -0.100420 3.645020 0.199780 
#    z -0.098870 0.199780 3.260370 
# 
# 
# High freq. dielectric constant tensor:
#      x y z
#    x 1.725410 0.002070 -0.007430 
#    y 0.002070 1.744490 0.014660 
#    z -0.007430 0.014660 1.704220 
# 
# From -- ./inp_files/186747.got.cif
#   From: 2010.06.25/outbox.cif.g09.slc.cpg/sg2_94_cif.got.tgz:186747.got - 2010.06.27 13:26:56.
