data_PCOD8029067
_publ_section_title
;
Structure prediction by ZEFSAII (Michael W. Deem and Ramdas Pophale) SiO2 
 PCOD8029067
Probable space group: P -1
;
_chemical_formula_sum "Si O2"
_cell_formula_units_Z 16
_cell_length_a 13.496694
_cell_length_b 11.153604
_cell_length_c 12.241095
_cell_angle_alpha 88.005668
_cell_angle_beta 112.929682
_cell_angle_gamma 146.912727
_cell_volume 754.719796
_symmetry_space_group_name_H-M "P -1"
_symmetry_group_IT_number 2
_symmetry_cell_setting 'triclinic'
loop_
_space_group_symop_operation_xyz
x,y,z
-x,-y,-z
loop_
_atom_site_type_symbol
_atom_site_label
_atom_site_fract_x
_atom_site_fract_y
_atom_site_fract_z
Si Si1 0.894947 0.576542 0.642545
Si Si2 0.404469 0.082188 0.562664
Si Si3 0.109660 0.056899 0.154685
Si Si4 0.354338 0.780527 0.648856
Si Si5 0.981300 0.026161 0.319528
Si Si6 0.248027 0.724269 0.844021
Si Si7 0.625555 0.691604 0.365713
Si Si8 0.163623 0.844474 0.237699
O O1 0.673216 0.315795 0.632383
O O2 0.819620 0.480634 0.487018
O O3 0.951766 0.770486 0.679542
O O4 0.125055 0.729263 0.770258
O O5 0.405295 0.195917 0.640919
O O6 0.297972 0.861152 0.586816
O O7 0.240469 0.947774 0.391815
O O8 0.938024 0.920138 0.187504
O O9 0.373284 0.373344 0.280116
O O10 0.121471 0.925706 0.152501
O O11 0.000000 0.000000 0.000000
O O12 0.289225 0.695580 0.749246
O O13 0.634313 0.028806 0.743389
O O14 0.203488 0.183920 0.469098
O O15 0.736942 0.771469 0.292904
O O16 0.084514 0.478482 0.860014
O O17 0.500000 0.000000 0.000000
#
# Coordination Sequence:
#
# PCOD8029067 Si02
#       8
#     2   2   2   2   2   2   2   2
#     4  11  21  41  69  99 129 173 225 275 331 389
#     4  11  19  41  76  97 134 167 226 286 324 389
#     4  12  27  45  67  96 141 186 220 272 335 413
#     4  11  23  41  71 100 128 176 222 280 330 393
#     4  11  24  41  71 101 134 170 232 286 327 390
#     4  12  27  43  65 100 142 174 214 272 339 414
#     4  11  23  42  70 104 129 177 225 285 333 380
#     4  11  24  44  67  98 132 174 226 275 334 390
#
# _framework density 21.199922999999998
#
# number of rings (size 3 to 8) (size 9 to 14) (size 15 to 20)
#    0.000    0.750    5.000    3.750    1.750    5.000 
#    0.000    0.000    0.000    0.000    0.000    0.000 
#    0.000    0.000    0.000    0.000    0.000    0.000 
#
# Total GULP energy -198515.215113 kJ/mol
# GULP energy per Si atom -12407.200945 kJ/mol
# Density = 2.115167 g / cm^3
# Si number density = 21.199923 Si / 1000 Ang^3
#
#
#
# Elastic Constant Matrix: (Units=GPa)
#
#
# Indices 1 2 3 4 5 6 
#
# 1 105.0272 16.1177 35.4884 -6.8049 7.2608 2.3402
# 2 16.1177 48.8601 11.4413 -3.5668 10.1273 -0.9496
# 3 35.4884 11.4413 84.5594 -6.9591 12.1744 16.2882
# 4 -6.8049 -3.5668 -6.9591 35.5350 4.2022 0.9838
# 5 7.2608 10.1273 12.1744 4.2022 20.5018 -5.1870
# 6 2.3402 -0.9496 16.2882 0.9838 -5.1870 42.9073
#
#
#
# Elastic Compliance Matrix: (Units=1/GPa)
#
#
# Indices 1 2 3 4 5 6 
#
# 1 0.011520 -0.002631 -0.004595 0.001013 0.000002 0.001035
# 2 -0.002631 0.024012 -0.000012 0.003324 -0.011813 -0.000825
# 3 -0.004595 -0.000012 0.017224 0.004053 -0.011388 -0.007758
# 4 0.001013 0.003324 0.004053 0.030944 -0.011671 -0.003641
# 5 0.000002 -0.011813 -0.011388 -0.011671 0.066907 0.012417
# 6 0.001035 -0.000825 -0.007758 -0.003641 0.012417 0.027761
#
#
# Mechanical properties :
#
#
# Convention : Reuss Voigt Hill
#
# Bulk Modulus (GPa) = 26.12284 40.50462 33.31373
# Shear Modulus (GPa) = 24.31873 31.48210 27.90042
#
# Velocity S-wave (km/s) = 3.39058 3.85776 3.63169
# Velocity P-wave (km/s) = 5.26089 6.24425 5.77354
#
# Compressibility (1/GPa) = 0.03828067
#
# Stress axis : x y z
#
# Youngs Moduli (GPa) = 86.80423 41.64554 58.05984
#
# Poissons Ratio (x) = 0.10955 0.26680
# Poissons Ratio (y) = 0.22835 0.00069
# Poissons Ratio (z) = 0.39889 0.00049
#
# Static dielectric constant tensor:
#      x y z
#    x 3.928600 0.192070 0.148380 
#    y 0.192070 3.944670 -0.065840 
#    z 0.148380 -0.065840 3.463420 
# 
# 
# High freq. dielectric constant tensor:
#      x y z
#    x 1.848990 0.005970 0.007480 
#    y 0.005970 1.842460 -0.001100 
#    z 0.007480 -0.001100 1.803660 
# 
# From -- ./inp_files/258409.got.cif
#   From: 2010.06.25/outbox.cif.g09.slc.cpg/sg2_130_cif.got.tgz:258409.got - 2010.06.27 13:26:56.
