data_PCOD8029268
_publ_section_title
;
Structure prediction by ZEFSAII (Michael W. Deem and Ramdas Pophale) SiO2 
 PCOD8029268
Probable space group: P -1
;
_chemical_formula_sum "Si O2"
_cell_formula_units_Z 14
_cell_length_a 10.059859
_cell_length_b 16.975161
_cell_length_c 10.758010
_cell_angle_alpha 146.908063
_cell_angle_beta 97.108756
_cell_angle_gamma 58.399183
_cell_volume 628.031687
_symmetry_space_group_name_H-M "P -1"
_symmetry_group_IT_number 2
_symmetry_cell_setting 'triclinic'
loop_
_space_group_symop_operation_xyz
x,y,z
-x,-y,-z
loop_
_atom_site_type_symbol
_atom_site_label
_atom_site_fract_x
_atom_site_fract_y
_atom_site_fract_z
Si Si1 0.653111 0.052239 0.800107
Si Si2 0.789870 0.020387 0.316286
Si Si3 0.527666 0.900590 0.737703
Si Si4 0.235522 0.592176 0.842509
Si Si5 0.463702 0.684969 0.092811
Si Si6 0.679419 0.464342 0.495685
Si Si7 0.884413 0.221265 0.447811
O O1 0.618238 0.107580 0.721568
O O2 0.654562 0.887226 0.631062
O O3 0.443548 0.288183 0.154986
O O4 0.873107 0.942319 0.716500
O O5 0.703955 0.948408 0.142752
O O6 0.609613 0.239480 0.674526
O O7 0.849339 0.086410 0.305707
O O8 0.992764 0.813151 0.154286
O O9 0.659136 0.643043 0.414252
O O10 0.500000 0.000000 0.000000
O O11 0.193404 0.617390 0.723387
O O12 0.378680 0.608745 0.918529
O O13 0.720638 0.461046 0.822541
O O14 0.500000 0.500000 0.500000
O O15 0.843675 0.271860 0.363436
#
# Coordination Sequence:
#
# PCOD8029268 Si02
#       7
#     2   2   2   2   2   2   2
#     4  11  25  43  67 101 139 174 223 287 332 402
#     4  12  26  44  74  98 136 185 226 277 339 396
#     4  12  28  46  65 102 146 176 221 278 345 409
#     4  12  24  42  72 101 135 176 225 286 330 401
#     4  11  24  46  72 103 132 174 242 277 322 408
#     4  11  20  39  64 103 134 165 230 281 331 393
#     4  11  23  40  74 100 129 181 225 281 336 389
#
# _framework density 22.291871
#
# number of rings (size 3 to 8) (size 9 to 14) (size 15 to 20)
#    0.000    0.571    7.143    0.857    2.000    4.571 
#    0.000    1.429    0.000    0.000    0.000    0.000 
#    0.000    0.000    0.000    0.000    0.000    0.000 
#
# Total GULP energy -173560.012658 kJ/mol
# GULP energy per Si atom -12397.143761 kJ/mol
# Density = 2.224113 g / cm^3
# Si number density = 22.291871 Si / 1000 Ang^3
#
#
#
# Elastic Constant Matrix: (Units=GPa)
#
#
# Indices 1 2 3 4 5 6 
#
# 1 118.8817 39.5865 13.4943 -2.4352 10.1397 13.8190
# 2 39.5865 82.0670 29.0330 8.6356 4.3307 5.1085
# 3 13.4943 29.0330 69.3949 2.2025 3.2191 3.7896
# 4 -2.4352 8.6356 2.2025 31.6757 -0.7186 -1.2632
# 5 10.1397 4.3307 3.2191 -0.7186 23.9104 12.0051
# 6 13.8190 5.1085 3.7896 -1.2632 12.0051 34.5317
#
#
#
# Elastic Compliance Matrix: (Units=1/GPa)
#
#
# Indices 1 2 3 4 5 6 
#
# 1 0.010642 -0.005162 0.000274 0.002049 -0.002206 -0.002683
# 2 -0.005162 0.017335 -0.006090 -0.004702 -0.000328 0.000112
# 3 0.000274 -0.006090 0.016973 0.000451 -0.000915 -0.000737
# 4 0.002049 -0.004702 0.000451 0.033024 0.000479 0.000868
# 5 -0.002206 -0.000328 -0.000915 0.000479 0.051401 -0.016820
# 6 -0.002683 0.000112 -0.000737 0.000868 -0.016820 0.035976
#
#
# Mechanical properties :
#
#
# Convention : Reuss Voigt Hill
#
# Bulk Modulus (GPa) = 43.49121 48.28567 45.88844
# Shear Modulus (GPa) = 25.64471 30.57222 28.10847
#
# Velocity S-wave (km/s) = 3.39544 3.70733 3.55481
# Velocity P-wave (km/s) = 5.90968 6.32720 6.12200
#
# Compressibility (1/GPa) = 0.02299315
#
# Stress axis : x y z
#
# Youngs Moduli (GPa) = 93.97032 57.68630 58.91588
#
# Poissons Ratio (x) = 0.29780 -0.01616
# Poissons Ratio (y) = 0.48512 0.35882
# Poissons Ratio (z) = -0.02578 0.35133
#
# Static dielectric constant tensor:
#      x y z
#    x 3.935400 0.037030 -0.325680 
#    y 0.037030 4.606580 -1.417890 
#    z -0.325680 -1.417890 6.516130 
# 
# 
# High freq. dielectric constant tensor:
#      x y z
#    x 1.866980 0.011960 -0.010500 
#    y 0.011960 1.885120 0.017480 
#    z -0.010500 0.017480 1.882460 
# 
# From -- ./inp_files/403005.got.cif
#   From: 2010.06.25/outbox.cif.g09.slc.cpg/sg2_202_cif.got.tgz:403005.got - 2010.06.27 13:26:56.
