data_PCOD8029133
_publ_section_title
;
Structure prediction by ZEFSAII (Michael W. Deem and Ramdas Pophale) SiO2 
 PCOD8029133
Probable space group: P -1
;
_chemical_formula_sum "Si O2"
_cell_formula_units_Z 16
_cell_length_a 8.673807
_cell_length_b 11.836647
_cell_length_c 20.554726
_cell_angle_alpha 29.614723
_cell_angle_beta 70.688404
_cell_angle_gamma 90.020792
_cell_volume 774.305134
_symmetry_space_group_name_H-M "P -1"
_symmetry_group_IT_number 2
_symmetry_cell_setting 'triclinic'
loop_
_space_group_symop_operation_xyz
x,y,z
-x,-y,-z
loop_
_atom_site_type_symbol
_atom_site_label
_atom_site_fract_x
_atom_site_fract_y
_atom_site_fract_z
Si Si1 0.859729 0.199780 0.996271
Si Si2 0.896843 0.008805 0.890509
Si Si3 0.793624 0.615007 0.860793
Si Si4 0.369844 0.414122 0.962632
Si Si5 0.452134 0.179843 0.872478
Si Si6 0.574151 0.914680 0.592334
Si Si7 0.163575 0.216992 0.453146
Si Si8 0.071178 0.553510 0.666685
O O1 0.858919 0.413533 0.937660
O O2 0.024556 0.372865 0.828817
O O3 0.931572 0.042214 0.105961
O O4 0.631166 0.965589 0.114072
O O5 0.780600 0.908008 0.886931
O O6 0.724220 0.826786 0.062167
O O7 0.016885 0.354637 0.710268
O O8 0.600371 0.517826 0.890874
O O9 0.730449 0.570853 0.966630
O O10 0.987453 0.952967 0.655109
O O11 0.383794 0.626068 0.799641
O O12 0.648958 0.513922 0.665048
O O13 0.500000 0.000000 0.000000
O O14 0.748320 0.887666 0.557764
O O15 0.500000 0.000000 0.500000
O O16 0.685665 0.170547 0.503267
O O17 0.069886 0.343059 0.361808
#
# Coordination Sequence:
#
# PCOD8029133 Si02
#       8
#     2   2   2   2   2   2   2   2
#     4  11  22  38  61  95 130 165 209 261 324 373
#     4  11  23  38  61  93 130 167 206 264 323 370
#     4  11  25  43  65  92 127 173 211 258 311 390
#     4  11  24  45  64  90 128 171 216 252 321 381
#     4  11  20  35  63  94 127 163 208 263 315 366
#     4  12  24  38  64  99 128 162 210 269 313 368
#     4  12  22  38  64  96 123 163 210 263 309 365
#     4  11  21  37  62  92 128 159 210 268 307 365
#
# _framework density 20.663689000000002
#
# number of rings (size 3 to 8) (size 9 to 14) (size 15 to 20)
#    0.000    0.750    6.250    4.125    1.750    0.500 
#    0.000    1.875    0.000    1.500    0.000    0.000 
#    0.000    0.000    0.000    0.000    0.000    0.000 
#
# Total GULP energy -198389.059084 kJ/mol
# GULP energy per Si atom -12399.316193 kJ/mol
# Density = 2.061666 g / cm^3
# Si number density = 20.663689 Si / 1000 Ang^3
#
#
#
# Elastic Constant Matrix: (Units=GPa)
#
#
# Indices 1 2 3 4 5 6 
#
# 1 103.9673 45.4292 42.9856 -17.1618 5.6890 -1.3380
# 2 45.4292 108.5883 48.6565 -24.1966 -0.6521 4.8644
# 3 42.9856 48.6565 93.8584 -21.6730 -8.9936 5.5682
# 4 -17.1618 -24.1966 -21.6730 40.5310 8.2290 -3.9758
# 5 5.6890 -0.6521 -8.9936 8.2290 29.2091 -6.9391
# 6 -1.3380 4.8644 5.5682 -3.9758 -6.9391 27.4920
#
#
#
# Elastic Compliance Matrix: (Units=1/GPa)
#
#
# Indices 1 2 3 4 5 6 
#
# 1 0.013535 -0.003192 -0.004483 0.002468 -0.004459 0.001363
# 2 -0.003192 0.013742 -0.004713 0.004627 -0.002186 -0.001515
# 3 -0.004483 -0.004713 0.016352 0.002970 0.004710 -0.001078
# 4 0.002468 0.004627 0.002970 0.031843 -0.008137 0.001251
# 5 -0.004459 -0.002186 0.004710 -0.008137 0.040777 0.008332
# 6 0.001363 -0.001515 -0.001078 0.001251 0.008332 0.039211
#
#
# Mechanical properties :
#
#
# Convention : Reuss Voigt Hill
#
# Bulk Modulus (GPa) = 53.04001 64.50627 58.77314
# Shear Modulus (GPa) = 26.80671 30.73592 28.77132
#
# Velocity S-wave (km/s) = 3.60569 3.86091 3.73548
# Velocity P-wave (km/s) = 6.56191 7.15266 6.86364
#
# Compressibility (1/GPa) = 0.01885369
#
# Stress axis : x y z
#
# Youngs Moduli (GPa) = 73.88023 72.76794 61.15595
#
# Poissons Ratio (x) = 0.23228 0.27413
# Poissons Ratio (y) = 0.23584 0.28824
# Poissons Ratio (z) = 0.33117 0.34297
#
# Static dielectric constant tensor:
#      x y z
#    x 3.785730 0.081600 -0.172370 
#    y 0.081600 3.733290 -0.516780 
#    z -0.172370 -0.516780 3.820740 
# 
# 
# High freq. dielectric constant tensor:
#      x y z
#    x 1.815800 0.004850 -0.009630 
#    y 0.004850 1.795300 -0.043040 
#    z -0.009630 -0.043040 1.790190 
# 
# From -- ./inp_files/303560.got.cif
#   From: 2010.06.25/outbox.cif.g09.slc.cpg/sg2_152_cif.got.tgz:303560.got - 2010.06.27 13:26:56.
