data_PCOD8029745
_publ_section_title
;
Structure prediction by ZEFSAII (Michael W. Deem and Ramdas Pophale) SiO2 
 PCOD8029745
Probable space group: P -1
;
_chemical_formula_sum "Si O2"
_cell_formula_units_Z 16
_cell_length_a 18.381945
_cell_length_b 8.002491
_cell_length_c 12.517778
_cell_angle_alpha 137.179749
_cell_angle_beta 42.696114
_cell_angle_gamma 139.763473
_cell_volume 741.438796
_symmetry_space_group_name_H-M "P -1"
_symmetry_group_IT_number 2
_symmetry_cell_setting 'triclinic'
loop_
_space_group_symop_operation_xyz
x,y,z
-x,-y,-z
loop_
_atom_site_type_symbol
_atom_site_label
_atom_site_fract_x
_atom_site_fract_y
_atom_site_fract_z
Si Si1 0.346818 0.087174 0.518336
Si Si2 0.762784 0.227908 0.911724
Si Si3 0.001691 0.221637 0.017975
Si Si4 0.820923 0.287854 0.653329
Si Si5 0.629998 0.329785 0.287114
Si Si6 0.756592 0.245838 0.319282
Si Si7 0.859592 0.816656 0.600688
Si Si8 0.995234 0.869994 0.673928
O O1 0.485152 0.176707 0.383631
O O2 0.316815 0.336670 0.635306
O O3 0.258595 0.807343 0.414032
O O4 0.324545 0.013328 0.633869
O O5 0.737485 0.280372 0.840317
O O6 0.894628 0.465910 0.921946
O O7 0.767782 0.942410 0.758526
O O8 0.656022 0.198302 0.091121
O O9 0.872210 0.212382 0.145333
O O10 0.032885 0.148374 0.833070
O O11 0.000000 0.000000 0.000000
O O12 0.943908 0.592746 0.673310
O O13 0.882767 0.081303 0.501091
O O14 0.684238 0.249681 0.293588
O O15 0.795092 0.531332 0.472344
O O16 0.873444 0.777345 0.692649
O O17 0.000000 0.000000 0.500000
#
# Coordination Sequence:
#
# PCOD8029745 Si02
#       8
#     2   2   2   2   2   2   2   2
#     4  11  25  48  72  95 130 181 235 281 332 391
#     4  12  24  40  64 100 137 168 219 274 336 408
#     4  12  23  37  66 104 134 170 216 274 341 408
#     4  11  21  39  64  91 134 171 212 271 331 401
#     4  11  27  46  70  99 131 180 232 283 332 390
#     4  12  24  46  71  98 138 178 223 279 340 402
#     4  12  23  39  62 100 135 173 211 268 345 406
#     4  11  22  36  60  97 129 171 209 262 343 400
#
# _framework density 21.579664000000001
#
# number of rings (size 3 to 8) (size 9 to 14) (size 15 to 20)
#    0.000    0.500    5.000    4.125    1.750    1.500 
#    0.000    0.625    0.000    0.000    0.000    0.000 
#    0.000    0.000    0.000    0.000    0.000    0.000 
#
# Total GULP energy -198285.904082 kJ/mol
# GULP energy per Si atom -12392.869005 kJ/mol
# Density = 2.153055 g / cm^3
# Si number density = 21.579664 Si / 1000 Ang^3
#
#
#
# Elastic Constant Matrix: (Units=GPa)
#
#
# Indices 1 2 3 4 5 6 
#
# 1 92.7580 10.7797 43.3905 1.6862 0.2885 -8.8613
# 2 10.7797 64.7966 29.7502 -0.9182 -5.7432 -6.2597
# 3 43.3905 29.7502 153.0876 -5.4672 8.4841 -5.5198
# 4 1.6862 -0.9182 -5.4672 33.7448 1.1920 3.9965
# 5 0.2885 -5.7432 8.4841 1.1920 39.0439 -0.7564
# 6 -8.8613 -6.2597 -5.5198 3.9965 -0.7564 24.3452
#
#
#
# Elastic Compliance Matrix: (Units=1/GPa)
#
#
# Indices 1 2 3 4 5 6 
#
# 1 0.012901 -0.000039 -0.003606 -0.001754 0.000817 0.004181
# 2 -0.000039 0.017731 -0.003508 -0.000676 0.003468 0.003968
# 3 -0.003606 -0.003508 0.008402 0.001607 -0.002377 -0.000647
# 4 -0.001754 -0.000676 0.001607 0.030671 -0.001479 -0.005529
# 5 0.000817 0.003468 -0.002377 -0.001479 0.026711 0.001723
# 6 0.004181 0.003968 -0.000647 -0.005529 0.001723 0.044433
#
#
# Mechanical properties :
#
#
# Convention : Reuss Voigt Hill
#
# Bulk Modulus (GPa) = 40.44061 53.16480 46.80270
# Shear Modulus (GPa) = 30.60020 34.54157 32.57088
#
# Velocity S-wave (km/s) = 3.76973 4.00516 3.88923
# Velocity P-wave (km/s) = 6.14237 6.78811 6.47329
#
# Compressibility (1/GPa) = 0.02472762
#
# Stress axis : x y z
#
# Youngs Moduli (GPa) = 77.51346 56.39762 119.02198
#
# Poissons Ratio (x) = 0.00220 0.42921
# Poissons Ratio (y) = 0.00302 0.41753
# Poissons Ratio (z) = 0.27953 0.19784
#
# Static dielectric constant tensor:
#      x y z
#    x 3.958580 -0.275620 0.092980 
#    y -0.275620 3.796690 0.010270 
#    z 0.092980 0.010270 4.130090 
# 
# 
# High freq. dielectric constant tensor:
#      x y z
#    x 1.852070 -0.016730 0.011470 
#    y -0.016730 1.833080 0.006440 
#    z 0.011470 0.006440 1.859060 
# 
# From -- ./inp_files/189375.got.cif
#   From: 2010.06.25/outbox.cif.g09.slc.cpg/sg2_95_cif.got.tgz:189375.got - 2010.06.27 13:26:56.
