data_PCOD8029193
_publ_section_title
;
Structure prediction by ZEFSAII (Michael W. Deem and Ramdas Pophale) SiO2 
 PCOD8029193
Probable space group: P -1
;
_chemical_formula_sum "Si O2"
_cell_formula_units_Z 16
_cell_length_a 7.784179
_cell_length_b 26.668698
_cell_length_c 14.086744
_cell_angle_alpha 21.983554
_cell_angle_beta 54.906965
_cell_angle_gamma 42.322803
_cell_volume 662.169142
_symmetry_space_group_name_H-M "P -1"
_symmetry_group_IT_number 2
_symmetry_cell_setting 'triclinic'
loop_
_space_group_symop_operation_xyz
x,y,z
-x,-y,-z
loop_
_atom_site_type_symbol
_atom_site_label
_atom_site_fract_x
_atom_site_fract_y
_atom_site_fract_z
Si Si1 0.725037 0.684549 0.106444
Si Si2 0.061834 0.141766 0.342241
Si Si3 0.576390 0.202019 0.283621
Si Si4 0.415989 0.473661 0.718379
Si Si5 0.901157 0.837253 0.182310
Si Si6 0.982481 0.655913 0.282728
Si Si7 0.910521 0.962622 0.279133
Si Si8 0.416618 0.039843 0.750072
O O1 0.656715 0.575721 0.266785
O O2 0.930304 0.543639 0.377739
O O3 0.904099 0.714613 0.936489
O O4 0.422665 0.871827 0.897741
O O5 0.829239 0.185084 0.269497
O O6 0.342775 0.935483 0.586890
O O7 0.977656 0.159931 0.447250
O O8 0.454843 0.171881 0.463552
O O9 0.360425 0.400795 0.954972
O O10 0.194360 0.691414 0.405704
O O11 0.742585 0.381225 0.775339
O O12 0.881540 0.746827 0.259074
O O13 0.893667 0.993255 0.875164
O O14 0.630578 0.927699 0.178426
O O15 0.702371 0.824403 0.013590
O O16 0.887738 0.881978 0.332974
#
# Coordination Sequence:
#
# PCOD8029193 Si02
#       8
#     2   2   2   2   2   2   2   2
#     4  11  20  37  64  94 119 156 199 260 306 346
#     4  11  22  38  63  94 124 155 205 263 302 356
#     4  11  22  38  60  93 123 159 205 253 309 354
#     4  11  21  40  68  90 122 157 210 258 300 353
#     4  11  23  43  63  89 127 167 201 245 306 374
#     4  11  22  41  65  93 121 159 209 259 298 351
#     4  12  21  40  63  90 126 161 204 249 305 368
#     4  12  26  38  62  93 128 167 198 245 313 369
#
# _framework density 24.163012999999999
#
# number of rings (size 3 to 8) (size 9 to 14) (size 15 to 20)
#    0.000    0.750    5.000    4.875    0.000    2.000 
#    0.000    0.000    0.000    4.500    0.000    0.000 
#    0.000    0.000    0.000    0.000    0.000    0.000 
#
# Total GULP energy -198315.648843 kJ/mol
# GULP energy per Si atom -12394.728053 kJ/mol
# Density = 2.410802 g / cm^3
# Si number density = 24.163013 Si / 1000 Ang^3
#
#
#
# Elastic Constant Matrix: (Units=GPa)
#
#
# Indices 1 2 3 4 5 6 
#
# 1 62.4618 42.5266 20.0190 20.7872 -39.5747 -42.7510
# 2 42.5266 212.0089 19.4117 69.5732 -111.4979 -106.2268
# 3 20.0190 19.4117 132.9835 33.2157 10.7121 -0.5351
# 4 20.7872 69.5732 33.2157 58.0681 -45.4485 -35.8194
# 5 -39.5747 -111.4979 10.7121 -45.4485 129.7612 87.4380
# 6 -42.7510 -106.2268 -0.5351 -35.8194 87.4380 96.9019
#
#
#
# Elastic Compliance Matrix: (Units=1/GPa)
#
#
# Indices 1 2 3 4 5 6 
#
# 1 0.025173 0.002570 -0.004016 -0.001021 0.001905 0.011804
# 2 0.002570 0.013759 -0.000343 -0.008718 0.002108 0.011090
# 3 -0.004016 -0.000343 0.010701 -0.008597 -0.004758 -0.000973
# 4 -0.001021 -0.008718 -0.008597 0.037224 0.008798 -0.004233
# 5 0.001905 0.002108 -0.004758 0.008798 0.023665 -0.014976
# 6 0.011804 0.011090 -0.000973 -0.004233 -0.014976 0.039627
#
#
# Mechanical properties :
#
#
# Convention : Reuss Voigt Hill
#
# Bulk Modulus (GPa) = 21.71315 63.48541 42.59928
# Shear Modulus (GPa) = 29.57203 78.64603 54.10903
#
# Velocity S-wave (km/s) = 3.50216 5.71128 4.73729
# Velocity P-wave (km/s) = 5.03578 8.35599 6.89861
#
# Compressibility (1/GPa) = 0.04605505
#
# Stress axis : x y z
#
# Youngs Moduli (GPa) = 39.72468 72.68034 93.44934
#
# Poissons Ratio (x) = -0.18675 0.37526
# Poissons Ratio (y) = -0.10207 0.03205
# Poissons Ratio (z) = 0.15952 0.02492
#
# Static dielectric constant tensor:
#      x y z
#    x 4.616130 0.258140 0.105660 
#    y 0.258140 4.017230 0.006450 
#    z 0.105660 0.006450 4.753980 
# 
# 
# High freq. dielectric constant tensor:
#      x y z
#    x 1.989910 0.018150 0.012770 
#    y 0.018150 1.922450 0.024140 
#    z 0.012770 0.024140 1.974680 
# 
# From -- ./inp_files/320335.got.cif
#   From: 2010.06.25/outbox.cif.g09.slc.cpg/sg2_161_cif.got.tgz:320335.got - 2010.06.27 13:26:56.
