data_PCOD8029356
_publ_section_title
;
Structure prediction by ZEFSAII (Michael W. Deem and Ramdas Pophale) SiO2 
 PCOD8029356
Probable space group: P -1
;
_chemical_formula_sum "Si O2"
_cell_formula_units_Z 16
_cell_length_a 9.451259
_cell_length_b 10.770102
_cell_length_c 13.168955
_cell_angle_alpha 145.582750
_cell_angle_beta 73.913872
_cell_angle_gamma 94.616258
_cell_volume 700.405363
_symmetry_space_group_name_H-M "P -1"
_symmetry_group_IT_number 2
_symmetry_cell_setting 'triclinic'
loop_
_space_group_symop_operation_xyz
x,y,z
-x,-y,-z
loop_
_atom_site_type_symbol
_atom_site_label
_atom_site_fract_x
_atom_site_fract_y
_atom_site_fract_z
Si Si1 0.770987 0.976597 0.711511
Si Si2 0.879520 0.576112 0.284557
Si Si3 0.810135 0.636148 0.991868
Si Si4 0.016791 0.228510 0.197137
Si Si5 0.345591 0.190915 0.184095
Si Si6 0.096744 0.916321 0.687071
Si Si7 0.339161 0.558301 0.288421
Si Si8 0.337754 0.516801 0.893929
O O1 0.796700 0.839585 0.507356
O O2 0.694560 0.829623 0.703584
O O3 0.928920 0.022275 0.747090
O O4 0.661328 0.233065 0.894700
O O5 0.945673 0.446201 0.288023
O O6 0.761026 0.463543 0.176328
O O7 0.026304 0.558565 0.170964
O O8 0.710682 0.600110 0.891976
O O9 0.723536 0.627105 0.107650
O O10 0.841988 0.883110 0.140608
O O11 0.921172 0.268897 0.349244
O O12 0.197935 0.180540 0.141634
O O13 0.000000 0.000000 0.000000
O O14 0.378056 0.427578 0.301251
O O15 0.500000 0.000000 0.000000
O O16 0.208209 0.791761 0.491118
O O17 0.489101 0.620889 0.259615
#
# Coordination Sequence:
#
# PCOD8029356 Si02
#       8
#     2   2   2   2   2   2   2   2
#     4  11  23  42  71 100 132 171 216 272 333 390
#     4  12  23  43  68 101 131 173 223 271 325 395
#     4  12  25  45  70  94 131 181 227 265 323 391
#     4  11  20  40  69  99 131 170 213 270 334 395
#     4  11  21  40  69  99 132 168 213 273 337 391
#     4  11  23  42  73  98 129 176 219 266 331 399
#     4  12  25  46  67  98 135 174 216 275 336 384
#     4  12  28  44  65  99 137 172 226 278 314 383
#
# _framework density 22.843914999999999
#
# number of rings (size 3 to 8) (size 9 to 14) (size 15 to 20)
#    0.000    0.500    6.250    2.250    0.000    5.000 
#    2.250    1.250    0.000    0.000    0.000    0.000 
#    0.000    0.000    0.000    0.000    0.000    0.000 
#
# Total GULP energy -198371.218024 kJ/mol
# GULP energy per Si atom -12398.201126 kJ/mol
# Density = 2.279192 g / cm^3
# Si number density = 22.843915 Si / 1000 Ang^3
#
#
#
# Elastic Constant Matrix: (Units=GPa)
#
#
# Indices 1 2 3 4 5 6 
#
# 1 101.7694 33.3496 44.0623 -20.8636 -12.7649 20.7861
# 2 33.3496 93.6269 20.9066 -17.3710 -7.3091 22.8847
# 3 44.0623 20.9066 90.3689 -20.2679 -9.6023 10.1083
# 4 -20.8636 -17.3710 -20.2679 27.8724 9.0107 -9.5741
# 5 -12.7649 -7.3091 -9.6023 9.0107 35.8530 -6.4067
# 6 20.7861 22.8847 10.1083 -9.5741 -6.4067 32.3967
#
#
#
# Elastic Compliance Matrix: (Units=1/GPa)
#
#
# Indices 1 2 3 4 5 6 
#
# 1 0.014706 -0.002058 -0.005122 0.003781 0.001610 -0.004948
# 2 -0.002058 0.014098 -0.000473 0.004556 -0.000422 -0.007228
# 3 -0.005122 -0.000473 0.015207 0.007124 0.000557 0.001091
# 4 0.003781 0.004556 0.007124 0.051174 -0.007652 0.005743
# 5 0.001610 -0.000422 0.000557 -0.007652 0.030980 0.002956
# 6 -0.004948 -0.007228 0.001091 0.005743 0.002956 0.041089
#
#
# Mechanical properties :
#
#
# Convention : Reuss Voigt Hill
#
# Bulk Modulus (GPa) = 34.83488 53.60023 44.21755
# Shear Modulus (GPa) = 26.02429 31.72088 28.87259
#
# Velocity S-wave (km/s) = 3.37890 3.73042 3.55900
# Velocity P-wave (km/s) = 5.52311 6.48609 6.02388
#
# Compressibility (1/GPa) = 0.02870686
#
# Stress axis : x y z
#
# Youngs Moduli (GPa) = 68.00118 70.93044 65.75731
#
# Poissons Ratio (x) = 0.14597 0.33678
# Poissons Ratio (y) = 0.13994 0.03108
# Poissons Ratio (z) = 0.34828 0.03353
#
# Static dielectric constant tensor:
#      x y z
#    x 4.110340 0.192370 -0.201980 
#    y 0.192370 4.349060 -0.266150 
#    z -0.201980 -0.266150 4.173010 
# 
# 
# High freq. dielectric constant tensor:
#      x y z
#    x 1.896410 0.016670 -0.008870 
#    y 0.016670 1.899910 -0.015310 
#    z -0.008870 -0.015310 1.900230 
# 
# From -- ./inp_files/188024.got.cif
#   From: 2010.06.25/outbox.cif.g09.slc.cpg/sg2_95_cif.got.tgz:188024.got - 2010.06.27 13:26:56.
