data_PCOD8029801
_publ_section_title
;
Structure prediction by ZEFSAII (Michael W. Deem and Ramdas Pophale) SiO2 
 PCOD8029801
Probable space group: P -1
;
_chemical_formula_sum "Si O2"
_cell_formula_units_Z 14
_cell_length_a 14.446986
_cell_length_b 21.738252
_cell_length_c 13.273108
_cell_angle_alpha 152.560760
_cell_angle_beta 40.179655
_cell_angle_gamma 158.954319
_cell_volume 635.645164
_symmetry_space_group_name_H-M "P -1"
_symmetry_group_IT_number 2
_symmetry_cell_setting 'triclinic'
loop_
_space_group_symop_operation_xyz
x,y,z
-x,-y,-z
loop_
_atom_site_type_symbol
_atom_site_label
_atom_site_fract_x
_atom_site_fract_y
_atom_site_fract_z
Si Si1 0.670451 0.554774 0.648843
Si Si2 0.379661 0.567994 0.811359
Si Si3 0.750790 0.070460 0.332320
Si Si4 0.739567 0.224701 0.371738
Si Si5 0.747719 0.724274 0.045785
Si Si6 0.651083 0.881293 0.845019
Si Si7 0.242548 0.959397 0.497700
O O1 0.462115 0.498950 0.698015
O O2 0.529637 0.298199 0.365406
O O3 0.979817 0.813706 0.719593
O O4 0.699795 0.591684 0.797229
O O5 0.528354 0.688728 0.755046
O O6 0.046744 0.313185 0.709040
O O7 0.475276 0.771320 0.092715
O O8 0.830139 0.246313 0.439314
O O9 0.705966 0.086640 0.508473
O O10 0.000000 0.500000 0.500000
O O11 0.486661 0.126783 0.456896
O O12 0.622501 0.012985 0.090476
O O13 0.757518 0.887106 0.244590
O O14 0.500000 0.500000 0.000000
O O15 0.028978 0.902490 0.126121
#
# Coordination Sequence:
#
# PCOD8029801 Si02
#       7
#     2   2   2   2   2   2   2
#     4  12  21  41  69 104 135 170 224 276 346 396
#     4  11  21  39  70 108 131 163 225 287 339 389
#     4  11  23  41  74  99 132 186 224 281 336 400
#     4  11  26  49  67  95 142 186 224 276 345 404
#     4  12  25  42  67  99 140 182 224 279 338 404
#     4  11  23  42  70  97 135 178 221 280 339 400
#     4  12  24  43  71 101 140 173 231 284 329 405
#
# _framework density 22.024867
#
# number of rings (size 3 to 8) (size 9 to 14) (size 15 to 20)
#    0.000    0.571    7.143    3.000    0.000    2.857 
#    2.571    0.714    0.000    0.000    0.000    0.000 
#    0.000    0.000    0.000    0.000    0.000    0.000 
#
# Total GULP energy -173631.848482 kJ/mol
# GULP energy per Si atom -12402.274892 kJ/mol
# Density = 2.197474 g / cm^3
# Si number density = 22.024867 Si / 1000 Ang^3
#
#
#
# Elastic Constant Matrix: (Units=GPa)
#
#
# Indices 1 2 3 4 5 6 
#
# 1 50.2154 26.4155 36.5210 17.4154 11.3266 1.0927
# 2 26.4155 169.0357 53.7872 9.6400 18.6813 2.9820
# 3 36.5210 53.7872 137.9243 7.4292 21.2491 -1.4015
# 4 17.4154 9.6400 7.4292 27.2364 12.3960 1.5234
# 5 11.3266 18.6813 21.2491 12.3960 29.0592 5.7144
# 6 1.0927 2.9820 -1.4015 1.5234 5.7144 30.9597
#
#
#
# Elastic Compliance Matrix: (Units=1/GPa)
#
#
# Indices 1 2 3 4 5 6 
#
# 1 0.032157 -0.001912 -0.007077 -0.018848 0.002053 -0.000723
# 2 -0.001912 0.007078 -0.001885 0.000407 -0.002551 -0.000249
# 3 -0.007077 -0.001885 0.010573 0.005065 -0.006279 0.001820
# 4 -0.018848 0.000407 0.005065 0.056796 -0.021236 0.001980
# 5 0.002053 -0.002551 -0.006279 -0.021236 0.050553 -0.008397
# 6 -0.000723 -0.000249 0.001820 0.001980 -0.008397 0.033884
#
#
# Mechanical properties :
#
#
# Convention : Reuss Voigt Hill
#
# Bulk Modulus (GPa) = 35.64154 65.62478 50.63316
# Shear Modulus (GPa) = 22.50793 33.48119 27.99456
#
# Velocity S-wave (km/s) = 3.20024 3.90315 3.56904
# Velocity P-wave (km/s) = 5.46561 7.08330 6.32638
#
# Compressibility (1/GPa) = 0.02805715
#
# Stress axis : x y z
#
# Youngs Moduli (GPa) = 31.09737 141.28824 94.58391
#
# Poissons Ratio (x) = 0.27020 0.66942
# Poissons Ratio (y) = 0.05947 0.17831
# Poissons Ratio (z) = 0.22009 0.26636
#
# Static dielectric constant tensor:
#      x y z
#    x 3.888120 0.142600 0.133470 
#    y 0.142600 4.197270 -0.191120 
#    z 0.133470 -0.191120 4.379820 
# 
# 
# High freq. dielectric constant tensor:
#      x y z
#    x 1.850350 0.014980 0.009220 
#    y 0.014980 1.871150 -0.002180 
#    z 0.009220 -0.002180 1.872870 
# 
# From -- ./inp_files/278934.got.cif
#   From: 2010.06.25/outbox.cif.g09.slc.cpg/sg2_140_cif.got.tgz:278934.got - 2010.06.27 13:26:56.
