data_PCOD8029072
_publ_section_title
;
Structure prediction by ZEFSAII (Michael W. Deem and Ramdas Pophale) SiO2 
 PCOD8029072
Probable space group: P -1
;
_chemical_formula_sum "Si O2"
_cell_formula_units_Z 16
_cell_length_a 15.913362
_cell_length_b 14.805535
_cell_length_c 11.191712
_cell_angle_alpha 29.302563
_cell_angle_beta 132.122709
_cell_angle_gamma 143.131499
_cell_volume 771.025303
_symmetry_space_group_name_H-M "P -1"
_symmetry_group_IT_number 2
_symmetry_cell_setting 'triclinic'
loop_
_space_group_symop_operation_xyz
x,y,z
-x,-y,-z
loop_
_atom_site_type_symbol
_atom_site_label
_atom_site_fract_x
_atom_site_fract_y
_atom_site_fract_z
Si Si1 0.524517 0.191866 0.043068
Si Si2 0.491598 0.576664 0.561510
Si Si3 0.675340 0.067523 0.147964
Si Si4 0.743513 0.221697 0.376201
Si Si5 0.064545 0.687591 0.743536
Si Si6 0.293403 0.745387 0.435678
Si Si7 0.212328 0.507969 0.396447
Si Si8 0.457155 0.283125 0.283098
O O1 0.572300 0.093991 0.100065
O O2 0.629728 0.263589 0.173557
O O3 0.362892 0.997646 0.153350
O O4 0.530206 0.408186 0.749983
O O5 0.324213 0.454462 0.537924
O O6 0.551537 0.667131 0.645731
O O7 0.579636 0.811270 0.295176
O O8 0.797759 0.089081 0.321226
O O9 0.739949 0.252089 0.892301
O O10 0.882662 0.377432 0.246821
O O11 0.789815 0.298316 0.469918
O O12 0.688046 0.955450 0.620143
O O13 0.939101 0.701548 0.560728
O O14 0.000000 0.500000 0.000000
O O15 0.197631 0.539786 0.486992
O O16 0.426707 0.755434 0.587621
O O17 0.500000 0.500000 0.000000
#
# Coordination Sequence:
#
# PCOD8029072 Si02
#       8
#     2   2   2   2   2   2   2   2
#     4  10  19  33  57  88 114 139 190 237 280 331
#     4  11  19  32  59  86 110 147 184 239 287 317
#     4  10  19  39  57  82 111 148 194 233 277 331
#     4  10  18  34  55  83 115 146 187 234 271 335
#     4   9  19  37  61  75 109 160 185 224 284 334
#     4  10  19  32  51  83 119 140 182 239 276 332
#     4  10  21  35  56  79 116 154 183 228 289 331
#     4  10  17  30  54  87 112 144 182 231 286 327
#
# _framework density 20.75159
#
# number of rings (size 3 to 8) (size 9 to 14) (size 15 to 20)
#    0.000    2.000    5.000    3.375    0.000    1.000 
#    0.000    0.000    5.500   13.500    0.000    0.000 
#    0.000    0.000    0.000    0.000    0.000    0.000 
#
# Total GULP energy -198216.692023 kJ/mol
# GULP energy per Si atom -12388.543251 kJ/mol
# Density = 2.070436 g / cm^3
# Si number density = 20.751590 Si / 1000 Ang^3
#
#
#
# Elastic Constant Matrix: (Units=GPa)
#
#
# Indices 1 2 3 4 5 6 
#
# 1 92.2876 40.4681 21.8704 -4.2524 -12.2844 -5.8556
# 2 40.4681 87.4708 15.9748 9.8667 13.8630 8.7392
# 3 21.8704 15.9748 91.6179 -11.0992 16.8863 4.1822
# 4 -4.2524 9.8667 -11.0992 17.8821 -2.9856 -0.8091
# 5 -12.2844 13.8630 16.8863 -2.9856 32.2541 3.5917
# 6 -5.8556 8.7392 4.1822 -0.8091 3.5917 27.7101
#
#
#
# Elastic Compliance Matrix: (Units=1/GPa)
#
#
# Indices 1 2 3 4 5 6 
#
# 1 0.021424 -0.014035 -0.004544 0.013197 0.016921 0.007832
# 2 -0.014035 0.023523 0.000351 -0.019243 -0.016433 -0.008869
# 3 -0.004544 0.000351 0.014355 0.006109 -0.008615 -0.001943
# 4 0.013197 -0.019243 0.006109 0.076554 0.016288 0.008060
# 5 0.016921 -0.016433 -0.008615 0.016288 0.050079 0.004043
# 6 0.007832 -0.008869 -0.001943 0.008060 0.004043 0.040544
#
#
# Mechanical properties :
#
#
# Convention : Reuss Voigt Hill
#
# Bulk Modulus (GPa) = 43.77137 47.55589 45.66363
# Shear Modulus (GPa) = 18.48083 28.44015 23.46049
#
# Velocity S-wave (km/s) = 2.98749 3.70605 3.36600
# Velocity P-wave (km/s) = 5.74795 6.42492 6.09584
#
# Compressibility (1/GPa) = 0.02284599
#
# Stress axis : x y z
#
# Youngs Moduli (GPa) = 46.67627 42.51239 69.66116
#
# Poissons Ratio (x) = 0.59665 0.31657
# Poissons Ratio (y) = 0.65509 -0.02446
# Poissons Ratio (z) = 0.21212 -0.01493
#
# Static dielectric constant tensor:
#      x y z
#    x 3.689380 0.091380 -0.311770 
#    y 0.091380 4.135060 0.042980 
#    z -0.311770 0.042980 4.274140 
# 
# 
# High freq. dielectric constant tensor:
#      x y z
#    x 1.799280 -0.014180 -0.025440 
#    y -0.014180 1.804360 0.019420 
#    z -0.025440 0.019420 1.793400 
# 
# From -- ./inp_files/426297.got.cif
#   From: 2010.06.25/outbox.cif.g09.slc.cpg/sg2_214_cif.got.tgz:426297.got - 2010.06.27 13:26:56.
