data_PCOD8029797
_publ_section_title
;
Structure prediction by ZEFSAII (Michael W. Deem and Ramdas Pophale) SiO2 
 PCOD8029797
Probable space group: P -1
;
_chemical_formula_sum "Si O2"
_cell_formula_units_Z 12
_cell_length_a 12.502983
_cell_length_b 19.093652
_cell_length_c 12.561353
_cell_angle_alpha 25.478071
_cell_angle_beta 33.903527
_cell_angle_gamma 24.859737
_cell_volume 541.313331
_symmetry_space_group_name_H-M "P -1"
_symmetry_group_IT_number 2
_symmetry_cell_setting 'triclinic'
loop_
_space_group_symop_operation_xyz
x,y,z
-x,-y,-z
loop_
_atom_site_type_symbol
_atom_site_label
_atom_site_fract_x
_atom_site_fract_y
_atom_site_fract_z
Si Si1 0.846365 0.593669 0.217646
Si Si2 0.129561 0.546709 0.242894
Si Si3 0.632109 0.310613 0.032833
Si Si4 0.853246 0.883593 0.667322
Si Si5 0.760936 0.905155 0.467407
Si Si6 0.374882 0.723455 0.534086
O O1 0.562879 0.689725 0.337246
O O2 0.939034 0.659445 0.146140
O O3 0.020603 0.335846 0.423082
O O4 0.850831 0.699999 0.963424
O O5 0.154267 0.712291 0.045095
O O6 0.000000 0.500000 0.500000
O O7 0.417583 0.345634 0.239462
O O8 0.495657 0.501092 0.798584
O O9 0.791999 0.075383 0.168447
O O10 0.758311 0.915392 0.582966
O O11 0.134171 0.801534 0.557876
O O12 0.669516 0.109035 0.573285
O O13 0.500000 0.000000 0.500000
#
# Coordination Sequence:
#
# PCOD8029797 Si02
#       6
#     2   2   2   2   2   2
#     4  12  25  44  70 105 137 180 231 278 348 409
#     4  11  21  39  70 102 136 177 231 281 323 409
#     4  11  23  43  68 100 142 178 226 279 342 400
#     4  11  25  47  69  97 143 179 229 284 340 408
#     4  12  26  45  71 102 142 185 220 286 355 402
#     4  11  24  45  74 102 131 183 233 283 335 406
#
# _framework density 22.168306000000001
#
# number of rings (size 3 to 8) (size 9 to 14) (size 15 to 20)
#    0.000    0.667    5.000    3.000    2.333    1.333 
#    0.000    0.000    0.000    0.000    0.000    0.000 
#    0.000    0.000    0.000    0.000    0.000    0.000 
#
# Total GULP energy -148721.994505 kJ/mol
# GULP energy per Si atom -12393.499542 kJ/mol
# Density = 2.211785 g / cm^3
# Si number density = 22.168306 Si / 1000 Ang^3
#
#
#
# Elastic Constant Matrix: (Units=GPa)
#
#
# Indices 1 2 3 4 5 6 
#
# 1 145.4378 46.8933 40.2202 -2.9137 -4.6336 -0.5258
# 2 46.8933 95.9546 49.8359 6.0358 -15.2364 -19.4716
# 3 40.2202 49.8359 92.7535 -8.4946 -22.7227 -15.9547
# 4 -2.9137 6.0358 -8.4946 52.0020 -2.5036 -6.3529
# 5 -4.6336 -15.2364 -22.7227 -2.5036 33.1046 -2.3576
# 6 -0.5258 -19.4716 -15.9547 -6.3529 -2.3576 15.2475
#
#
#
# Elastic Compliance Matrix: (Units=1/GPa)
#
#
# Indices 1 2 3 4 5 6 
#
# 1 0.009950 -0.005903 -0.005241 -0.001653 -0.006065 -0.014306
# 2 -0.005903 0.021136 -0.001795 0.000643 0.009617 0.026664
# 3 -0.005241 -0.001795 0.024048 0.008214 0.017621 0.028837
# 4 -0.001653 0.000643 0.008214 0.023334 0.008925 0.020462
# 5 -0.006065 0.009617 0.017621 0.008925 0.049538 0.041889
# 6 -0.014306 0.026664 0.028837 0.020462 0.041889 0.144319
#
#
# Mechanical properties :
#
#
# Convention : Reuss Voigt Hill
#
# Bulk Modulus (GPa) = 34.18104 67.56053 50.87078
# Shear Modulus (GPa) = 16.23609 33.21727 24.72668
#
# Velocity S-wave (km/s) = 2.70923 3.87513 3.34339
# Velocity P-wave (km/s) = 5.02383 7.11088 6.15644
#
# Compressibility (1/GPa) = 0.02925599
#
# Stress axis : x y z
#
# Youngs Moduli (GPa) = 100.49880 47.31230 41.58333
#
# Poissons Ratio (x) = 0.27927 0.21795
# Poissons Ratio (y) = 0.59322 0.07465
# Poissons Ratio (z) = 0.52674 0.08494
#
# Static dielectric constant tensor:
#      x y z
#    x 1.693990 -2.170660 3.015340 
#    y -2.170660 2.183060 2.660050 
#    z 3.015340 2.660050 0.068200 
# 
# 
# High freq. dielectric constant tensor:
#      x y z
#    x 1.884200 -0.009500 -0.008230 
#    y -0.009500 1.859860 -0.008930 
#    z -0.008230 -0.008930 1.884770 
# 
# From -- ./inp_files/437189.got.cif
#   From: 2010.06.25/outbox.cif.g09.slc.cpg/sg2_219_cif.got.tgz:437189.got - 2010.06.27 13:26:56.
