data_PCOD8029981
_publ_section_title
;
Structure prediction by ZEFSAII (Michael W. Deem and Ramdas Pophale) SiO2 
 PCOD8029981
Probable space group: P -1
;
_chemical_formula_sum "Si O2"
_cell_formula_units_Z 14
_cell_length_a 11.985460
_cell_length_b 18.102281
_cell_length_c 12.207623
_cell_angle_alpha 150.522628
_cell_angle_beta 118.202915
_cell_angle_gamma 42.053642
_cell_volume 741.771927
_symmetry_space_group_name_H-M "P -1"
_symmetry_group_IT_number 2
_symmetry_cell_setting 'triclinic'
loop_
_space_group_symop_operation_xyz
x,y,z
-x,-y,-z
loop_
_atom_site_type_symbol
_atom_site_label
_atom_site_fract_x
_atom_site_fract_y
_atom_site_fract_z
Si Si1 0.410760 0.222099 0.965965
Si Si2 0.834085 0.798934 0.543187
Si Si3 0.858454 0.006875 0.224395
Si Si4 0.068737 0.721402 0.358025
Si Si5 0.921185 0.705909 0.049144
Si Si6 0.957452 0.198821 0.184469
Si Si7 0.528350 0.628051 0.613913
O O1 0.285098 0.187272 0.884929
O O2 0.597950 0.010417 0.705219
O O3 0.280685 0.463535 0.155071
O O4 0.484201 0.222252 0.115227
O O5 0.912568 0.832186 0.524639
O O6 0.908709 0.797763 0.691143
O O7 0.913849 0.558798 0.256876
O O8 0.911934 0.119333 0.444733
O O9 0.634265 0.205866 0.339511
O O10 0.890711 0.857419 0.139733
O O11 0.999595 0.840982 0.975060
O O12 0.994826 0.713303 0.203516
O O13 0.733070 0.445928 0.412009
O O14 0.000000 0.000000 0.000000
O O15 0.500000 0.500000 0.500000
#
# Coordination Sequence:
#
# PCOD8029981 Si02
#       7
#     2   2   2   2   2   2   2
#     4  11  21  41  68  94 122 162 214 261 307 364
#     4  11  21  41  68  94 122 162 214 261 307 364
#     4  12  25  40  66  94 131 163 202 264 318 371
#     4  11  23  43  67  89 125 171 218 249 296 379
#     4  11  27  43  57  95 135 171 201 247 321 379
#     4  12  20  38  66  95 121 154 211 263 309 363
#     4  12  20  38  66  95 121 154 211 263 309 363
#
# _framework density 18.873725
#
# number of rings (size 3 to 8) (size 9 to 14) (size 15 to 20)
#    0.000    0.571    8.571    2.143    0.000    4.571 
#    0.000    0.000    0.000    5.143    0.000    0.000 
#    0.000    0.000    0.000    0.000    0.000    0.000 
#
# Total GULP energy -173665.530860 kJ/mol
# GULP energy per Si atom -12404.680776 kJ/mol
# Density = 1.883077 g / cm^3
# Si number density = 18.873725 Si / 1000 Ang^3
#
#
#
# Elastic Constant Matrix: (Units=GPa)
#
#
# Indices 1 2 3 4 5 6 
#
# 1 114.1614 40.5475 75.6096 18.5824 8.9297 -10.3048
# 2 40.5475 83.5142 55.3505 -18.7302 -3.7930 -9.4799
# 3 75.6096 55.3505 120.5440 6.2230 -1.1108 -21.2817
# 4 18.5824 -18.7302 6.2230 39.3963 -15.6342 5.9781
# 5 8.9297 -3.7930 -1.1108 -15.6342 47.9213 8.4012
# 6 -10.3048 -9.4799 -21.2817 5.9781 8.4012 27.0889
#
#
#
# Elastic Compliance Matrix: (Units=1/GPa)
#
#
# Indices 1 2 3 4 5 6 
#
# 1 0.022235 -0.011003 -0.006409 -0.021416 -0.013645 0.008531
# 2 -0.011003 0.030467 -0.010928 0.030018 0.016426 -0.013827
# 3 -0.006409 -0.010928 0.020023 -0.009028 -0.004401 0.012826
# 4 -0.021416 0.030018 -0.009028 0.069392 0.034169 -0.030645
# 5 -0.013645 0.016426 -0.004401 0.034169 0.039747 -0.022767
# 6 0.008531 -0.013827 0.012826 -0.030645 -0.022767 0.059222
#
#
# Mechanical properties :
#
#
# Convention : Reuss Voigt Hill
#
# Bulk Modulus (GPa) = 62.31567 73.47056 67.89311
# Shear Modulus (GPa) = 16.49540 32.66209 24.57875
#
# Velocity S-wave (km/s) = 2.95954 4.16451 3.61262
# Velocity P-wave (km/s) = 6.69084 7.88265 7.31107
#
# Compressibility (1/GPa) = 0.01604733
#
# Stress axis : x y z
#
# Youngs Moduli (GPa) = 44.97350 32.82196 49.94236
#
# Poissons Ratio (x) = 0.36113 0.32006
# Poissons Ratio (y) = 0.49483 0.54577
# Poissons Ratio (z) = 0.28822 0.35868
#
# Static dielectric constant tensor:
#      x y z
#    x 3.637860 -0.006990 -0.185780 
#    y -0.006990 4.145720 -0.166320 
#    z -0.185780 -0.166320 3.797990 
# 
# 
# High freq. dielectric constant tensor:
#      x y z
#    x 1.731940 -0.016520 -0.002340 
#    y -0.016520 1.734150 -0.007640 
#    z -0.002340 -0.007640 1.747420 
# 
# From -- ./inp_files/255728.got.cif
#   From: 2010.06.25/outbox.cif.g09.slc.cpg/sg2_128_cif.got.tgz:255728.got - 2010.06.27 13:26:56.
