data_PCOD8029695
_publ_section_title
;
Structure prediction by ZEFSAII (Michael W. Deem and Ramdas Pophale) SiO2 
 PCOD8029695
Probable space group: P -1
;
_chemical_formula_sum "Si O2"
_cell_formula_units_Z 14
_cell_length_a 11.041451
_cell_length_b 13.795953
_cell_length_c 18.623628
_cell_angle_alpha 158.239451
_cell_angle_beta 144.297421
_cell_angle_gamma 48.825223
_cell_volume 550.260269
_symmetry_space_group_name_H-M "P -1"
_symmetry_group_IT_number 2
_symmetry_cell_setting 'triclinic'
loop_
_space_group_symop_operation_xyz
x,y,z
-x,-y,-z
loop_
_atom_site_type_symbol
_atom_site_label
_atom_site_fract_x
_atom_site_fract_y
_atom_site_fract_z
Si Si1 0.856882 0.645308 0.370523
Si Si2 0.521914 0.416891 0.606297
Si Si3 0.340518 0.999836 0.684656
Si Si4 0.036776 0.726689 0.110888
Si Si5 0.262799 0.582367 0.696612
Si Si6 0.818944 0.562548 0.132281
Si Si7 0.373737 0.820059 0.737414
O O1 0.695256 0.408232 0.189749
O O2 0.792833 0.493099 0.157142
O O3 0.115512 0.719567 0.571634
O O4 0.833310 0.946460 0.569141
O O5 0.507679 0.102098 0.364098
O O6 0.344230 0.350973 0.542741
O O7 0.438484 0.551064 0.591221
O O8 0.781676 0.661478 0.915990
O O9 0.388324 0.933225 0.741531
O O10 0.073664 0.805135 0.402573
O O11 0.375684 0.330839 0.912136
O O12 0.000000 0.500000 0.000000
O O13 0.202636 0.709006 0.114409
O O14 0.000000 0.500000 0.500000
O O15 0.419218 0.869828 0.920142
#
# Coordination Sequence:
#
# PCOD8029695 Si02
#       7
#     2   2   2   2   2   2   2
#     4  11  22  42  67  94 134 172 213 269 325 381
#     4  11  21  38  65  96 126 168 219 263 325 388
#     4   9  19  38  65  92 126 166 216 267 323 382
#     4  11  21  39  71  96 127 176 218 262 329 385
#     4  12  24  40  62  97 132 168 217 265 322 390
#     4   9  20  39  64  98 129 167 219 271 315 386
#     4  11  21  41  67  91 127 172 212 269 328 381
#
# _framework density 25.442505000000001
#
# number of rings (size 3 to 8) (size 9 to 14) (size 15 to 20)
#    0.000    1.429    2.857    5.143    0.000    0.000 
#    2.571    4.286    0.000    0.000    0.000    0.000 
#    0.000    0.000    0.000    0.000    0.000    0.000 
#
# Total GULP energy -173506.259113 kJ/mol
# GULP energy per Si atom -12393.304222 kJ/mol
# Density = 2.538460 g / cm^3
# Si number density = 25.442505 Si / 1000 Ang^3
#
#
#
# Elastic Constant Matrix: (Units=GPa)
#
#
# Indices 1 2 3 4 5 6 
#
# 1 197.7979 69.7439 28.4130 19.6015 2.8384 -2.3220
# 2 69.7439 157.4044 22.5064 4.5039 2.3017 -4.4565
# 3 28.4130 22.5064 46.9830 18.1130 3.7162 -0.9487
# 4 19.6015 4.5039 18.1130 26.7875 -5.9342 -8.1020
# 5 2.8384 2.3017 3.7162 -5.9342 23.1789 3.7396
# 6 -2.3220 -4.4565 -0.9487 -8.1020 3.7396 49.9281
#
#
#
# Elastic Compliance Matrix: (Units=1/GPa)
#
#
# Indices 1 2 3 4 5 6 
#
# 1 0.006552 -0.002635 -0.001016 -0.004120 -0.001349 -0.000517
# 2 -0.002635 0.007955 -0.003632 0.003548 0.000857 0.001030
# 3 -0.001016 -0.003632 0.034079 -0.025001 -0.010901 -0.002964
# 4 -0.004120 0.003548 -0.025001 0.063447 0.019029 0.008520
# 5 -0.001349 0.000857 -0.010901 0.019029 0.049979 -0.000849
# 6 -0.000517 0.001030 -0.002964 0.008520 -0.000849 0.021487
#
#
# Mechanical properties :
#
#
# Convention : Reuss Voigt Hill
#
# Bulk Modulus (GPa) = 29.39332 71.50133 50.44733
# Shear Modulus (GPa) = 23.87722 38.74704 31.31213
#
# Velocity S-wave (km/s) = 3.06678 3.90670 3.51194
# Velocity P-wave (km/s) = 4.91102 6.96519 6.02628
#
# Compressibility (1/GPa) = 0.03402133
#
# Stress axis : x y z
#
# Youngs Moduli (GPa) = 152.61916 125.70643 29.34352
#
# Poissons Ratio (x) = 0.33124 0.02980
# Poissons Ratio (y) = 0.40216 0.10657
# Poissons Ratio (z) = 0.15499 0.45656
#
# Static dielectric constant tensor:
#      x y z
#    x 4.832720 -0.117610 -0.029720 
#    y -0.117610 4.827230 -0.165660 
#    z -0.029720 -0.165660 4.673370 
# 
# 
# High freq. dielectric constant tensor:
#      x y z
#    x 2.033220 0.006080 -0.000140 
#    y 0.006080 2.038370 -0.017610 
#    z -0.000140 -0.017610 1.998360 
# 
# From -- ./inp_files/278380.got.cif
#   From: 2010.06.25/outbox.cif.g09.slc.cpg/sg2_140_cif.got.tgz:278380.got - 2010.06.27 13:26:56.
