data_PCOD8029591
_publ_section_title
;
Structure prediction by ZEFSAII (Michael W. Deem and Ramdas Pophale) SiO2 
 PCOD8029591
Probable space group: P -1
;
_chemical_formula_sum "Si O2"
_cell_formula_units_Z 14
_cell_length_a 11.023565
_cell_length_b 11.410989
_cell_length_c 10.758221
_cell_angle_alpha 125.100652
_cell_angle_beta 36.814532
_cell_angle_gamma 129.140826
_cell_volume 621.839362
_symmetry_space_group_name_H-M "P -1"
_symmetry_group_IT_number 2
_symmetry_cell_setting 'triclinic'
loop_
_space_group_symop_operation_xyz
x,y,z
-x,-y,-z
loop_
_atom_site_type_symbol
_atom_site_label
_atom_site_fract_x
_atom_site_fract_y
_atom_site_fract_z
Si Si1 0.015011 0.668960 0.626447
Si Si2 0.560741 0.087894 0.135989
Si Si3 0.754544 0.699132 0.078621
Si Si4 0.568525 0.619254 0.861055
Si Si5 0.475888 0.830034 0.247459
Si Si6 0.378623 0.339160 0.436755
Si Si7 0.977139 0.665372 0.121271
O O1 0.247900 0.796556 0.484969
O O2 0.000000 0.500000 0.500000
O O3 0.823433 0.698080 0.725369
O O4 0.961544 0.687948 0.826826
O O5 0.419402 0.188226 0.358406
O O6 0.547367 0.984520 0.204361
O O7 0.802895 0.200012 0.992743
O O8 0.500000 0.000000 0.000000
O O9 0.534624 0.560575 0.135664
O O10 0.673593 0.838547 0.187517
O O11 0.808784 0.688292 0.171253
O O12 0.533963 0.648432 0.765495
O O13 0.432672 0.697244 0.100166
O O14 0.500000 0.500000 0.500000
O O15 0.125246 0.312858 0.648716
O O16 0.000000 0.500000 0.000000
#
# Coordination Sequence:
#
# PCOD8029591 Si02
#       7
#     2   2   2   2   2   2   2
#     4  11  21  35  70 102 139 193 233 283 361 418
#     4  12  28  49  72 108 150 184 236 306 362 419
#     4  11  23  42  67 105 143 184 245 290 345 433
#     4  11  21  39  69 107 141 180 245 293 342 428
#     4  11  24  44  67 106 147 183 232 306 355 414
#     4  12  25  45  76 106 140 190 243 293 356 433
#     4  12  28  47  76 104 143 196 241 293 358 427
#
# _framework density 22.513853000000001
#
# number of rings (size 3 to 8) (size 9 to 14) (size 15 to 20)
#    0.000    0.571    7.143    0.857    4.000    4.571 
#    0.000    1.429    0.000    0.000    0.000    0.000 
#    0.000    0.000    0.000    0.000    0.000    0.000 
#
# Total GULP energy -173477.640158 kJ/mol
# GULP energy per Si atom -12391.260011 kJ/mol
# Density = 2.246261 g / cm^3
# Si number density = 22.513853 Si / 1000 Ang^3
#
#
#
# Elastic Constant Matrix: (Units=GPa)
#
#
# Indices 1 2 3 4 5 6 
#
# 1 84.7123 36.6173 26.0983 6.4229 0.4272 -12.4244
# 2 36.6173 128.1430 41.9881 -9.2884 -15.2397 -18.0502
# 3 26.0983 41.9881 131.0557 -21.1594 -15.8808 -6.8092
# 4 6.4229 -9.2884 -21.1594 45.4912 -2.7584 -4.1627
# 5 0.4272 -15.2397 -15.8808 -2.7584 29.3349 -1.2701
# 6 -12.4244 -18.0502 -6.8092 -4.1627 -1.2701 37.9723
#
#
#
# Elastic Compliance Matrix: (Units=1/GPa)
#
#
# Indices 1 2 3 4 5 6 
#
# 1 0.014983 -0.003878 -0.002828 -0.004292 -0.004083 0.001945
# 2 -0.003878 0.010777 -0.001364 0.002813 0.005359 0.004097
# 3 -0.002828 -0.001364 0.010188 0.005279 0.005388 0.001012
# 4 -0.004292 0.002813 0.005279 0.026412 0.007039 0.004010
# 5 -0.004083 0.005359 0.005388 0.007039 0.040698 0.004310
# 6 0.001945 0.004097 0.001012 0.004010 0.004310 0.029684
#
#
# Mechanical properties :
#
#
# Convention : Reuss Voigt Hill
#
# Bulk Modulus (GPa) = 50.48205 61.47981 55.98093
# Shear Modulus (GPa) = 32.15717 38.50682 35.33200
#
# Velocity S-wave (km/s) = 3.78342 4.14014 3.96579
# Velocity P-wave (km/s) = 6.44648 7.08669 6.77415
#
# Compressibility (1/GPa) = 0.01980902
#
# Stress axis : x y z
#
# Youngs Moduli (GPa) = 66.74058 92.78882 98.15021
#
# Poissons Ratio (x) = 0.35980 0.27759
# Poissons Ratio (y) = 0.25879 0.13390
# Poissons Ratio (z) = 0.18875 0.12658
#
# Static dielectric constant tensor:
#      x y z
#    x 4.115730 -0.208760 0.140730 
#    y -0.208760 4.011320 -0.126190 
#    z 0.140730 -0.126190 4.676590 
# 
# 
# High freq. dielectric constant tensor:
#      x y z
#    x 1.882700 -0.016500 0.002840 
#    y -0.016500 1.882190 -0.009210 
#    z 0.002840 -0.009210 1.905880 
# 
# From -- ./inp_files/428840.got.cif
#   From: 2010.06.25/outbox.cif.g09.slc.cpg/sg2_215_cif.got.tgz:428840.got - 2010.06.27 13:26:56.
