data_PCOD8029044
_publ_section_title
;
Structure prediction by ZEFSAII (Michael W. Deem and Ramdas Pophale) SiO2 
 PCOD8029044
Probable space group: P -1
;
_chemical_formula_sum "Si O2"
_cell_formula_units_Z 14
_cell_length_a 9.791269
_cell_length_b 11.429134
_cell_length_c 9.349290
_cell_angle_alpha 116.751775
_cell_angle_beta 134.726335
_cell_angle_gamma 66.273067
_cell_volume 657.694123
_symmetry_space_group_name_H-M "P -1"
_symmetry_group_IT_number 2
_symmetry_cell_setting 'triclinic'
loop_
_space_group_symop_operation_xyz
x,y,z
-x,-y,-z
loop_
_atom_site_type_symbol
_atom_site_label
_atom_site_fract_x
_atom_site_fract_y
_atom_site_fract_z
Si Si1 0.818413 0.287103 0.937249
Si Si2 0.766569 0.819331 0.767948
Si Si3 0.808077 0.777479 0.451789
Si Si4 0.600652 0.109626 0.879685
Si Si5 0.435966 0.648379 0.486554
Si Si6 0.281833 0.515419 0.793867
Si Si7 0.231402 0.741679 0.666792
O O1 0.693310 0.181996 0.856926
O O2 0.707781 0.350945 0.753029
O O3 0.848818 0.402032 0.136548
O O4 0.033784 0.218563 0.017311
O O5 0.821299 0.837389 0.652689
O O6 0.629287 0.707085 0.619109
O O7 0.658209 0.954056 0.825643
O O8 0.631432 0.858678 0.281547
O O9 0.790700 0.622828 0.363160
O O10 0.003099 0.795810 0.520354
O O11 0.663742 0.158390 0.105938
O O12 0.500000 0.500000 0.500000
O O13 0.322261 0.737124 0.574498
O O14 0.264951 0.594373 0.676321
O O15 0.500000 0.500000 0.000000
#
# Coordination Sequence:
#
# PCOD8029044 Si02
#       7
#     2   2   2   2   2   2   2
#     4  11  24  42  70  99 132 174 222 281 323 395
#     4  12  25  44  72  99 132 181 224 271 333 393
#     4  12  22  39  73  98 127 175 225 276 327 385
#     4  11  24  44  73 100 130 172 235 275 318 397
#     4  12  28  45  64 101 144 174 216 275 341 399
#     4  11  19  40  67  96 129 168 227 277 323 380
#     4  11  25  41  64 100 135 172 221 278 329 396
#
# _framework density 21.286491000000002
#
# number of rings (size 3 to 8) (size 9 to 14) (size 15 to 20)
#    0.000    0.571    7.143    3.000    2.000    2.286 
#    0.000    1.429    0.000    0.000    0.000    0.000 
#    0.000    0.000    0.000    0.000    0.000    0.000 
#
# Total GULP energy -173691.070285 kJ/mol
# GULP energy per Si atom -12406.505020 kJ/mol
# Density = 2.123804 g / cm^3
# Si number density = 21.286491 Si / 1000 Ang^3
#
#
#
# Elastic Constant Matrix: (Units=GPa)
#
#
# Indices 1 2 3 4 5 6 
#
# 1 90.6276 8.7650 24.9465 -12.9652 4.7920 -21.5666
# 2 8.7650 100.8670 21.3834 -1.3449 10.8899 -14.9775
# 3 24.9465 21.3834 85.5346 -13.9454 12.9492 -2.0508
# 4 -12.9652 -1.3449 -13.9454 32.9208 -17.5200 4.6753
# 5 4.7920 10.8899 12.9492 -17.5200 36.2678 -13.1284
# 6 -21.5666 -14.9775 -2.0508 4.6753 -13.1284 24.2236
#
#
#
# Elastic Compliance Matrix: (Units=1/GPa)
#
#
# Indices 1 2 3 4 5 6 
#
# 1 0.017694 0.001654 -0.005424 0.007118 0.009890 0.020303
# 2 0.001654 0.011794 -0.003467 -0.001665 -0.000179 0.008696
# 3 -0.005424 -0.003467 0.015193 0.002333 -0.005923 -0.009347
# 4 0.007118 -0.001665 0.002333 0.045662 0.024368 0.009899
# 5 0.009890 -0.000179 -0.005923 0.024368 0.051591 0.031451
# 6 0.020303 0.008696 -0.009347 0.009899 0.031451 0.079078
#
#
# Mechanical properties :
#
#
# Convention : Reuss Voigt Hill
#
# Bulk Modulus (GPa) = 33.10454 43.02434 38.06444
# Shear Modulus (GPa) = 20.36215 33.47807 26.92011
#
# Velocity S-wave (km/s) = 3.09621 3.97008 3.56006
# Velocity P-wave (km/s) = 5.32613 6.42427 5.90080
#
# Compressibility (1/GPa) = 0.03020734
#
# Stress axis : x y z
#
# Youngs Moduli (GPa) = 56.51575 84.79215 65.82053
#
# Poissons Ratio (x) = -0.14027 0.35701
# Poissons Ratio (y) = -0.09349 0.22819
# Poissons Ratio (z) = 0.30654 0.29396
#
# Static dielectric constant tensor:
#      x y z
#    x 3.847170 -0.245480 0.220280 
#    y -0.245480 4.190760 0.469900 
#    z 0.220280 0.469900 4.862170 
# 
# 
# High freq. dielectric constant tensor:
#      x y z
#    x 1.822770 -0.024850 0.009930 
#    y -0.024850 1.838780 -0.000290 
#    z 0.009930 -0.000290 1.846990 
# 
# From -- ./inp_files/181029.got.cif
#   From: 2010.06.25/outbox.cif.g09.slc.cpg/sg2_91_cif.got.tgz:181029.got - 2010.06.27 13:26:56.
