data_PCOD8029926
_publ_section_title
;
Structure prediction by ZEFSAII (Michael W. Deem and Ramdas Pophale) SiO2 
 PCOD8029926
Probable space group: P -1
;
_chemical_formula_sum "Si O2"
_cell_formula_units_Z 16
_cell_length_a 13.570996
_cell_length_b 13.848739
_cell_length_c 14.939721
_cell_angle_alpha 140.805082
_cell_angle_beta 30.424389
_cell_angle_gamma 148.066969
_cell_volume 742.220115
_symmetry_space_group_name_H-M "P -1"
_symmetry_group_IT_number 2
_symmetry_cell_setting 'triclinic'
loop_
_space_group_symop_operation_xyz
x,y,z
-x,-y,-z
loop_
_atom_site_type_symbol
_atom_site_label
_atom_site_fract_x
_atom_site_fract_y
_atom_site_fract_z
Si Si1 0.402033 0.188157 0.820591
Si Si2 0.899582 0.445291 0.314502
Si Si3 0.022781 0.784643 0.797050
Si Si4 0.100079 0.009863 0.526120
Si Si5 0.466303 0.416069 0.562702
Si Si6 0.362191 0.275452 0.208648
Si Si7 0.359002 0.813541 0.186166
Si Si8 0.775836 0.527690 0.657645
O O1 0.527805 0.167852 0.792245
O O2 0.587001 0.328277 0.703740
O O3 0.233526 0.251890 0.027214
O O4 0.236488 0.992789 0.758523
O O5 0.671171 0.380778 0.388946
O O6 0.880981 0.520222 0.477309
O O7 0.925261 0.275514 0.191909
O O8 0.128588 0.608654 0.202995
O O9 0.998020 0.650152 0.639177
O O10 0.219643 0.216425 0.620041
O O11 0.296194 0.963637 0.333454
O O12 0.000000 0.000000 0.500000
O O13 0.893028 0.866230 0.650630
O O14 0.500000 0.500000 0.500000
O O15 0.475008 0.557038 0.729156
O O16 0.344315 0.362313 0.192284
O O17 0.472607 0.161778 0.010794
#
# Coordination Sequence:
#
# PCOD8029926 Si02
#       8
#     2   2   2   2   2   2   2   2
#     4  11  24  38  63  94 138 182 220 283 322 406
#     4  11  23  40  68  94 134 185 222 284 337 401
#     4  11  22  39  59  95 135 176 232 268 334 401
#     4  12  25  49  74  97 138 175 227 293 343 405
#     4  11  23  49  72  99 137 175 230 289 345 407
#     4  11  25  45  73 105 135 185 225 284 346 406
#     4  12  23  46  71 101 143 181 230 279 348 404
#     4  11  21  41  62  94 136 179 222 270 332 393
#
# _framework density 21.556947000000001
#
# number of rings (size 3 to 8) (size 9 to 14) (size 15 to 20)
#    0.000    0.750    6.250    2.250    0.000    3.000 
#    4.500    1.250    0.000    0.000    0.000    0.000 
#    0.000    0.000    0.000    0.000    0.000    0.000 
#
# Total GULP energy -198397.951698 kJ/mol
# GULP energy per Si atom -12399.871981 kJ/mol
# Density = 2.150788 g / cm^3
# Si number density = 21.556947 Si / 1000 Ang^3
#
#
#
# Elastic Constant Matrix: (Units=GPa)
#
#
# Indices 1 2 3 4 5 6 
#
# 1 134.8010 33.1893 29.2177 -2.2466 -8.4135 -9.4603
# 2 33.1893 131.0599 31.9764 -2.2828 7.8936 6.7877
# 3 29.2177 31.9764 83.3703 -4.1046 -10.3943 -3.8080
# 4 -2.2466 -2.2828 -4.1046 20.9526 -2.2338 -4.8417
# 5 -8.4135 7.8936 -10.3943 -2.2338 26.7986 2.6262
# 6 -9.4603 6.7877 -3.8080 -4.8417 2.6262 36.7874
#
#
#
# Elastic Compliance Matrix: (Units=1/GPa)
#
#
# Indices 1 2 3 4 5 6 
#
# 1 0.008640 -0.002005 -0.001784 0.001174 0.002475 0.002385
# 2 -0.002005 0.009418 -0.003649 -0.000961 -0.004661 -0.002425
# 3 -0.001784 -0.003649 0.015078 0.003465 0.006479 0.001769
# 4 0.001174 -0.000961 0.003465 0.050658 0.005521 0.007111
# 5 0.002475 -0.004661 0.006479 0.005521 0.042452 -0.000137
# 6 0.002385 -0.002425 0.001769 0.007111 -0.000137 0.029373
#
#
# Mechanical properties :
#
#
# Convention : Reuss Voigt Hill
#
# Bulk Modulus (GPa) = 54.76014 59.77756 57.26885
# Shear Modulus (GPa) = 28.31571 33.89758 31.10665
#
# Velocity S-wave (km/s) = 3.62820 3.96974 3.80280
# Velocity P-wave (km/s) = 6.55816 6.98584 6.77538
#
# Compressibility (1/GPa) = 0.01826146
#
# Stress axis : x y z
#
# Youngs Moduli (GPa) = 115.74060 106.18415 66.32070
#
# Poissons Ratio (x) = 0.21290 0.11829
# Poissons Ratio (y) = 0.23206 0.24198
# Poissons Ratio (z) = 0.20644 0.38743
#
# Static dielectric constant tensor:
#      x y z
#    x 4.367770 -0.098540 -0.341360 
#    y -0.098540 4.036990 0.121570 
#    z -0.341360 0.121570 3.862010 
# 
# 
# High freq. dielectric constant tensor:
#      x y z
#    x 1.856610 -0.001630 -0.014810 
#    y -0.001630 1.854910 0.003710 
#    z -0.014810 0.003710 1.836740 
# 
# From -- ./inp_files/534408.got.cif
#   From: 2010.06.25/outbox.cif.g09.slc.cpg/sg2_268_cif.got.tgz:534408.got - 2010.06.27 13:26:56.
