data_PCOD8029274
_publ_section_title
;
Structure prediction by ZEFSAII (Michael W. Deem and Ramdas Pophale) SiO2 
 PCOD8029274
Probable space group: P -1
;
_chemical_formula_sum "Si O2"
_cell_formula_units_Z 16
_cell_length_a 11.326968
_cell_length_b 9.591243
_cell_length_c 15.958674
_cell_angle_alpha 144.296674
_cell_angle_beta 72.091274
_cell_angle_gamma 122.320914
_cell_volume 826.348587
_symmetry_space_group_name_H-M "P -1"
_symmetry_group_IT_number 2
_symmetry_cell_setting 'triclinic'
loop_
_space_group_symop_operation_xyz
x,y,z
-x,-y,-z
loop_
_atom_site_type_symbol
_atom_site_label
_atom_site_fract_x
_atom_site_fract_y
_atom_site_fract_z
Si Si1 0.405059 0.559247 0.611297
Si Si2 0.901488 0.790846 0.298506
Si Si3 0.365491 0.050817 0.804103
Si Si4 0.866473 0.202136 0.404797
Si Si5 0.828246 0.006078 0.575232
Si Si6 0.576077 0.524292 0.869180
Si Si7 0.664096 0.191239 0.590503
Si Si8 0.586182 0.330485 0.152309
O O1 0.500000 0.500000 0.500000
O O2 0.244887 0.292690 0.508825
O O3 0.457899 0.590320 0.711587
O O4 0.410349 0.838415 0.723276
O O5 0.902473 0.996289 0.469013
O O6 0.761656 0.476896 0.179084
O O7 0.908836 0.966742 0.300373
O O8 0.047528 0.778993 0.280709
O O9 0.499051 0.270081 0.826325
O O10 0.218559 0.895303 0.710454
O O11 0.335611 0.190454 0.959214
O O12 0.770861 0.239113 0.514658
O O13 0.000000 0.500000 0.500000
O O14 0.705586 0.075878 0.608062
O O15 0.680482 0.479653 0.761816
O O16 0.451137 0.525362 0.842885
O O17 0.500000 0.000000 0.500000
O O18 0.500000 0.000000 0.000000
#
# Coordination Sequence:
#
# PCOD8029274 Si02
#       8
#     2   2   2   2   2   2   2   2
#     4  11  22  34  58  94 123 153 209 265 304 367
#     4   9  18  37  58  83 119 161 203 246 312 375
#     4  11  22  37  60  92 125 162 207 261 317 368
#     4  11  22  37  63  92 124 161 207 261 317 377
#     4   9  19  35  60  86 119 158 200 253 310 366
#     4  11  22  39  61  89 125 165 206 262 318 376
#     4  11  20  39  65  92 121 166 213 258 313 376
#     4  11  21  40  62  88 121 167 208 252 313 380
#
# _framework density 19.362290000000002
#
# number of rings (size 3 to 8) (size 9 to 14) (size 15 to 20)
#    0.000    1.500    3.750    3.000    1.750    1.000 
#    0.000    0.625    0.000    1.500    0.000    0.000 
#    0.000    0.000    0.000    0.000    0.000    0.000 
#
# Total GULP energy -198241.126686 kJ/mol
# GULP energy per Si atom -12390.070418 kJ/mol
# Density = 1.931822 g / cm^3
# Si number density = 19.362290 Si / 1000 Ang^3
#
#
#
# Elastic Constant Matrix: (Units=GPa)
#
#
# Indices 1 2 3 4 5 6 
#
# 1 109.0504 42.9680 62.7475 3.4674 13.5719 -4.7240
# 2 42.9680 97.3373 47.5892 9.6653 8.2385 -3.0550
# 3 62.7475 47.5892 133.3076 1.3797 10.6770 2.9432
# 4 3.4674 9.6653 1.3797 35.2050 -0.0445 1.3271
# 5 13.5719 8.2385 10.6770 -0.0445 30.2099 1.6198
# 6 -4.7240 -3.0550 2.9432 1.3271 1.6198 25.4890
#
#
#
# Elastic Compliance Matrix: (Units=1/GPa)
#
#
# Indices 1 2 3 4 5 6 
#
# 1 0.014057 -0.003185 -0.005242 -0.000426 -0.003760 0.003090
# 2 -0.003185 0.013807 -0.003332 -0.003412 -0.001254 0.001707
# 3 -0.005242 -0.003332 0.011252 0.001091 -0.000567 -0.002691
# 4 -0.000426 -0.003412 0.001091 0.029425 0.000898 -0.002203
# 5 -0.003760 -0.001254 -0.000567 0.000898 0.035500 -0.003084
# 6 0.003090 0.001707 -0.002691 -0.002203 -0.003084 0.040631
#
#
# Mechanical properties :
#
#
# Convention : Reuss Voigt Hill
#
# Bulk Modulus (GPa) = 64.11056 71.81162 67.96109
# Shear Modulus (GPa) = 28.83699 30.60682 29.72191
#
# Velocity S-wave (km/s) = 3.86338 3.98017 3.92221
# Velocity P-wave (km/s) = 7.28587 7.63487 7.46241
#
# Compressibility (1/GPa) = 0.01559805
#
# Stress axis : x y z
#
# Youngs Moduli (GPa) = 71.14113 72.42810 88.87371
#
# Poissons Ratio (x) = 0.23065 0.46589
# Poissons Ratio (y) = 0.22655 0.29612
# Poissons Ratio (z) = 0.37294 0.24132
#
# Static dielectric constant tensor:
#      x y z
#    x 3.808260 -0.211810 0.139460 
#    y -0.211810 3.638180 -0.088650 
#    z 0.139460 -0.088650 3.712150 
# 
# 
# High freq. dielectric constant tensor:
#      x y z
#    x 1.748240 -0.022290 0.016930 
#    y -0.022290 1.754260 0.002090 
#    z 0.016930 0.002090 1.742440 
# 
# From -- ./inp_files/307485.got.cif
#   From: 2010.06.25/outbox.cif.g09.slc.cpg/sg2_154_cif.got.tgz:307485.got - 2010.06.27 13:26:56.
