data_PCOD8029862
_publ_section_title
;
Structure prediction by ZEFSAII (Michael W. Deem and Ramdas Pophale) SiO2 
 PCOD8029862
Probable space group: P -1
;
_chemical_formula_sum "Si O2"
_cell_formula_units_Z 16
_cell_length_a 19.722869
_cell_length_b 8.609144
_cell_length_c 16.558490
_cell_angle_alpha 140.006922
_cell_angle_beta 149.907329
_cell_angle_gamma 31.579220
_cell_volume 733.715886
_symmetry_space_group_name_H-M "P -1"
_symmetry_group_IT_number 2
_symmetry_cell_setting 'triclinic'
loop_
_space_group_symop_operation_xyz
x,y,z
-x,-y,-z
loop_
_atom_site_type_symbol
_atom_site_label
_atom_site_fract_x
_atom_site_fract_y
_atom_site_fract_z
Si Si1 0.574754 0.148452 0.588046
Si Si2 0.638471 0.725710 0.718727
Si Si3 0.856612 0.768886 0.403193
Si Si4 0.510330 0.752012 0.767151
Si Si5 0.818614 0.019687 0.001202
Si Si6 0.229214 0.451701 0.921109
Si Si7 0.939813 0.708234 0.842475
Si Si8 0.920097 0.226063 0.695328
O O1 0.540319 0.135558 0.452728
O O2 0.487843 0.491746 0.662379
O O3 0.500000 0.000000 0.500000
O O4 0.769449 0.978959 0.735174
O O5 0.629032 0.648968 0.770225
O O6 0.772220 0.430990 0.688197
O O7 0.676945 0.969793 0.851304
O O8 0.849295 0.672798 0.266369
O O9 0.000000 0.500000 0.500000
O O10 0.667761 0.933330 0.308728
O O11 0.891959 0.015098 0.530800
O O12 0.602166 0.793542 0.953451
O O13 0.951856 0.779395 0.976815
O O14 0.729911 0.354786 0.012325
O O15 0.909760 0.984880 0.164018
O O16 0.089482 0.665494 0.928873
O O17 0.942561 0.414079 0.727799
#
# Coordination Sequence:
#
# PCOD8029862 Si02
#       8
#     2   2   2   2   2   2   2   2
#     4  12  21  39  65 104 135 165 206 272 337 385
#     4  11  23  39  68 101 130 164 212 278 339 377
#     4  12  27  45  66  91 132 180 223 264 317 391
#     4  12  25  44  68  96 133 172 222 269 325 387
#     4  11  21  40  67  98 135 165 211 273 329 386
#     4  12  25  43  69  94 133 180 221 259 323 391
#     4  11  23  39  69 102 130 166 217 270 332 388
#     4  11  22  42  66  97 134 169 211 271 328 385
#
# _framework density 21.806805000000001
#
# number of rings (size 3 to 8) (size 9 to 14) (size 15 to 20)
#    0.000    0.500    6.250    4.125    3.500    0.500 
#    0.000    0.625    2.750    0.000    0.000    0.000 
#    0.000    0.000    0.000    0.000    0.000    0.000 
#
# Total GULP energy -198380.700603 kJ/mol
# GULP energy per Si atom -12398.793788 kJ/mol
# Density = 2.175717 g / cm^3
# Si number density = 21.806805 Si / 1000 Ang^3
#
#
#
# Elastic Constant Matrix: (Units=GPa)
#
#
# Indices 1 2 3 4 5 6 
#
# 1 62.9556 28.9682 25.3293 -1.1516 -6.9170 7.4630
# 2 28.9682 95.2011 45.4212 -10.9608 -0.6516 15.2405
# 3 25.3293 45.4212 147.0146 -5.2851 -23.0782 4.1164
# 4 -1.1516 -10.9608 -5.2851 46.0516 0.9949 1.0947
# 5 -6.9170 -0.6516 -23.0782 0.9949 34.4876 -3.0477
# 6 7.4630 15.2405 4.1164 1.0947 -3.0477 22.7813
#
#
#
# Elastic Compliance Matrix: (Units=1/GPa)
#
#
# Indices 1 2 3 4 5 6 
#
# 1 0.019246 -0.004916 -0.001339 -0.000844 0.002685 -0.002374
# 2 -0.004916 0.015912 -0.004403 0.003471 -0.004528 -0.009011
# 3 -0.001339 -0.004403 0.009269 -0.000209 0.006081 0.002533
# 4 -0.000844 0.003471 -0.000209 0.022599 -0.001183 -0.003252
# 5 0.002685 -0.004528 0.006081 -0.001183 0.034053 0.005663
# 6 -0.002374 -0.009011 0.002533 -0.003252 0.005663 0.051158
#
#
# Mechanical properties :
#
#
# Convention : Reuss Voigt Hill
#
# Bulk Modulus (GPa) = 43.26976 56.06763 49.66870
# Shear Modulus (GPa) = 27.58515 34.36094 30.97305
#
# Velocity S-wave (km/s) = 3.56051 3.97381 3.77283
# Velocity P-wave (km/s) = 6.06534 6.84265 6.46569
#
# Compressibility (1/GPa) = 0.02311083
#
# Stress axis : x y z
#
# Youngs Moduli (GPa) = 51.95828 62.84639 107.88414
#
# Poissons Ratio (x) = 0.30895 0.14450
# Poissons Ratio (y) = 0.25543 0.47499
# Poissons Ratio (z) = 0.06959 0.27670
#
# Static dielectric constant tensor:
#      x y z
#    x 3.694140 0.192820 -0.115570 
#    y 0.192820 3.921450 -0.099620 
#    z -0.115570 -0.099620 4.358680 
# 
# 
# High freq. dielectric constant tensor:
#      x y z
#    x 1.829570 0.023370 -0.003200 
#    y 0.023370 1.845280 -0.005630 
#    z -0.003200 -0.005630 1.886330 
# 
# From -- ./inp_files/389114.got.cif
#   From: 2010.06.25/outbox.cif.g09.slc.cpg/sg2_195_cif.got.tgz:389114.got - 2010.06.27 13:26:56.
