data_PCOD8029484
_publ_section_title
;
Structure prediction by ZEFSAII (Michael W. Deem and Ramdas Pophale) SiO2 
 PCOD8029484
Probable space group: P -1
;
_chemical_formula_sum "Si O2"
_cell_formula_units_Z 16
_cell_length_a 11.183968
_cell_length_b 11.707717
_cell_length_c 8.233914
_cell_angle_alpha 53.916791
_cell_angle_beta 112.508072
_cell_angle_gamma 82.445056
_cell_volume 706.989307
_symmetry_space_group_name_H-M "P -1"
_symmetry_group_IT_number 2
_symmetry_cell_setting 'triclinic'
loop_
_space_group_symop_operation_xyz
x,y,z
-x,-y,-z
loop_
_atom_site_type_symbol
_atom_site_label
_atom_site_fract_x
_atom_site_fract_y
_atom_site_fract_z
Si Si1 0.739990 0.846461 0.407539
Si Si2 0.007164 0.523935 0.795151
Si Si3 0.319179 0.389792 0.933541
Si Si4 0.510215 0.804675 0.515648
Si Si5 0.295242 0.119191 0.989292
Si Si6 0.007197 0.768185 0.113157
Si Si7 0.118393 0.995589 0.438967
Si Si8 0.720087 0.292198 0.478576
O O1 0.653846 0.759256 0.518111
O O2 0.763828 0.960441 0.451612
O O3 0.895467 0.707043 0.538232
O O4 0.658859 0.944194 0.119431
O O5 0.169024 0.494512 0.864963
O O6 0.965986 0.408995 0.765080
O O7 0.000000 0.500000 0.000000
O O8 0.361053 0.520130 0.773114
O O9 0.443991 0.259618 0.224229
O O10 0.294958 0.289144 0.862375
O O11 0.404378 0.730726 0.467646
O O12 0.410999 0.997894 0.283600
O O13 0.136092 0.136308 0.929680
O O14 0.147761 0.753329 0.290653
O O15 0.982285 0.867214 0.853662
O O16 0.217243 0.823574 0.549500
O O17 0.000000 0.000000 0.500000
#
# Coordination Sequence:
#
# PCOD8029484 Si02
#       8
#     2   2   2   2   2   2   2   2
#     4  12  25  44  70 105 133 180 237 278 344 405
#     4  11  20  42  74  97 129 174 230 291 326 401
#     4  11  24  46  71 100 130 185 232 277 351 396
#     4  12  26  45  69  97 142 188 224 278 345 412
#     4  11  24  45  74  98 134 179 233 285 332 414
#     4  11  23  45  70 102 133 180 229 283 347 391
#     4  12  25  40  71 103 136 178 224 288 340 402
#     4  12  27  44  68 102 144 178 227 286 340 411
#
# _framework density 22.631177999999998
#
# number of rings (size 3 to 8) (size 9 to 14) (size 15 to 20)
#    0.000    0.500    3.750    5.250    3.500    2.000 
#    0.000    2.500    0.000    0.000    0.000    0.000 
#    0.000    0.000    0.000    0.000    0.000    0.000 
#
# Total GULP energy -198391.496301 kJ/mol
# GULP energy per Si atom -12399.468519 kJ/mol
# Density = 2.257967 g / cm^3
# Si number density = 22.631178 Si / 1000 Ang^3
#
#
#
# Elastic Constant Matrix: (Units=GPa)
#
#
# Indices 1 2 3 4 5 6 
#
# 1 113.8352 39.4755 39.5226 10.0307 -4.8348 22.1948
# 2 39.4755 104.9019 49.0519 7.1858 -0.8623 12.5704
# 3 39.5226 49.0519 126.7204 5.4299 -5.5755 9.7228
# 4 10.0307 7.1858 5.4299 36.2018 5.2665 -6.5861
# 5 -4.8348 -0.8623 -5.5755 5.2665 39.3650 2.6520
# 6 22.1948 12.5704 9.7228 -6.5861 2.6520 24.7300
#
#
#
# Elastic Compliance Matrix: (Units=1/GPa)
#
#
# Indices 1 2 3 4 5 6 
#
# 1 0.013095 -0.002220 -0.001982 -0.005402 0.002782 -0.011582
# 2 -0.002220 0.012736 -0.003890 -0.001953 -0.000050 -0.003467
# 3 -0.001982 -0.003890 0.010124 -0.000458 0.001198 -0.000474
# 4 -0.005402 -0.001953 -0.000458 0.033322 -0.006278 0.015568
# 5 0.002782 -0.000050 0.001198 -0.006278 0.027261 -0.007538
# 6 -0.011582 -0.003467 -0.000474 0.015568 -0.007538 0.057734
#
#
# Mechanical properties :
#
#
# Convention : Reuss Voigt Hill
#
# Bulk Modulus (GPa) = 50.58112 66.83974 58.71043
# Shear Modulus (GPa) = 28.24107 34.55320 31.39714
#
# Velocity S-wave (km/s) = 3.53637 3.91166 3.72874
# Velocity P-wave (km/s) = 6.25086 7.07106 6.67358
#
# Compressibility (1/GPa) = 0.01977022
#
# Stress axis : x y z
#
# Youngs Moduli (GPa) = 76.36476 78.51838 98.77341
#
# Poissons Ratio (x) = 0.17432 0.19580
# Poissons Ratio (y) = 0.16954 0.38423
# Poissons Ratio (z) = 0.15138 0.30544
#
# Static dielectric constant tensor:
#      x y z
#    x 4.201380 0.235530 -0.183230 
#    y 0.235530 3.827320 0.490850 
#    z -0.183230 0.490850 2.919880 
# 
# 
# High freq. dielectric constant tensor:
#      x y z
#    x 1.896140 0.010790 0.000050 
#    y 0.010790 1.882690 0.002840 
#    z 0.000050 0.002840 1.908510 
# 
# From -- ./inp_files/261704.got.cif
#   From: 2010.06.25/outbox.cif.g09.slc.cpg/sg2_131_cif.got.tgz:261704.got - 2010.06.27 13:26:56.
