data_PCOD8029674
_publ_section_title
;
Structure prediction by ZEFSAII (Michael W. Deem and Ramdas Pophale) SiO2 
 PCOD8029674
Probable space group: P -1
;
_chemical_formula_sum "Si O2"
_cell_formula_units_Z 16
_cell_length_a 12.308310
_cell_length_b 18.831784
_cell_length_c 21.669331
_cell_angle_alpha 18.502165
_cell_angle_beta 149.635015
_cell_angle_gamma 140.668688
_cell_volume 773.769400
_symmetry_space_group_name_H-M "P -1"
_symmetry_group_IT_number 2
_symmetry_cell_setting 'triclinic'
loop_
_space_group_symop_operation_xyz
x,y,z
-x,-y,-z
loop_
_atom_site_type_symbol
_atom_site_label
_atom_site_fract_x
_atom_site_fract_y
_atom_site_fract_z
Si Si1 0.579513 0.813170 0.817527
Si Si2 0.753622 0.962912 0.279972
Si Si3 0.178240 0.256031 0.787773
Si Si4 0.449039 0.727610 0.248915
Si Si5 0.193288 0.726620 0.626613
Si Si6 0.969420 0.996818 0.801673
Si Si7 0.470231 0.591882 0.240260
Si Si8 0.498173 0.949590 0.286808
O O1 0.372312 0.850971 0.638024
O O2 0.760615 0.919021 0.787867
O O3 0.475471 0.936338 0.728751
O O4 0.695628 0.543502 0.107430
O O5 0.547150 0.914212 0.178679
O O6 0.699043 0.950356 0.336592
O O7 0.985640 0.770988 0.536342
O O8 0.768908 0.219340 0.051703
O O9 0.391848 0.330501 0.809726
O O10 0.000000 0.500000 0.500000
O O11 0.073610 0.096091 0.827514
O O12 0.257403 0.102046 0.015923
O O13 0.500000 0.500000 0.500000
O O14 0.566286 0.656785 0.298691
O O15 0.182512 0.795254 0.048285
O O16 0.111648 0.818937 0.443527
O O17 0.484372 0.321135 0.468239
#
# Coordination Sequence:
#
# PCOD8029674 Si02
#       8
#     2   2   2   2   2   2   2   2
#     4  11  27  45  65  94 129 174 222 271 316 383
#     4  11  22  41  66  97 128 171 214 265 328 384
#     4  11  23  37  61  95 132 172 201 261 333 392
#     4  12  20  36  63  99 126 163 207 265 324 381
#     4  11  25  46  70  90 124 176 227 271 314 375
#     4  12  22  41  65  95 128 165 214 263 321 384
#     4  11  21  38  60  93 136 163 209 262 323 389
#     4  11  24  42  61  99 134 167 213 262 332 390
#
# _framework density 20.677994000000002
#
# number of rings (size 3 to 8) (size 9 to 14) (size 15 to 20)
#    0.000    0.750    5.000    3.750    0.000    5.500 
#    0.000    0.625    0.000    0.000    0.000    0.000 
#    0.000    0.000    0.000    0.000    0.000    0.000 
#
# Total GULP energy -198210.401754 kJ/mol
# GULP energy per Si atom -12388.150110 kJ/mol
# Density = 2.063093 g / cm^3
# Si number density = 20.677994 Si / 1000 Ang^3
#
#
#
# Elastic Constant Matrix: (Units=GPa)
#
#
# Indices 1 2 3 4 5 6 
#
# 1 92.0527 47.8482 24.8373 4.8989 -18.6628 -14.0851
# 2 47.8482 58.0473 29.9786 4.6819 -12.3867 -2.3873
# 3 24.8373 29.9786 105.3136 -8.5625 -24.8619 -7.2152
# 4 4.8989 4.6819 -8.5625 43.5877 -8.7946 -5.7356
# 5 -18.6628 -12.3867 -24.8619 -8.7946 57.7440 13.0759
# 6 -14.0851 -2.3873 -7.2152 -5.7356 13.0759 42.8156
#
#
#
# Elastic Compliance Matrix: (Units=1/GPa)
#
#
# Indices 1 2 3 4 5 6 
#
# 1 0.020609 -0.016807 0.000920 0.000856 0.002361 0.005391
# 2 -0.016807 0.034526 -0.006598 -0.003851 -0.000288 -0.005143
# 3 0.000920 -0.006598 0.012695 0.004208 0.004718 0.001197
# 4 0.000856 -0.003851 0.004208 0.025361 0.004491 0.002802
# 5 0.002361 -0.000288 0.004718 0.004491 0.021750 -0.004485
# 6 0.005391 -0.005143 0.001197 0.002802 -0.004485 0.026790
#
#
# Mechanical properties :
#
#
# Convention : Reuss Voigt Hill
#
# Bulk Modulus (GPa) = 43.74345 51.19354 47.46850
# Shear Modulus (GPa) = 25.73081 39.01276 32.37179
#
# Velocity S-wave (km/s) = 3.53137 4.34831 3.96096
# Velocity P-wave (km/s) = 6.15044 7.07259 6.62758
#
# Compressibility (1/GPa) = 0.02286057
#
# Stress axis : x y z
#
# Youngs Moduli (GPa) = 48.52225 28.96369 78.77396
#
# Poissons Ratio (x) = 0.48678 -0.07248
# Poissons Ratio (y) = 0.81549 0.51975
# Poissons Ratio (z) = -0.04464 0.19110
#
# Static dielectric constant tensor:
#      x y z
#    x 3.766330 0.006570 -0.319380 
#    y 0.006570 3.793400 0.337800 
#    z -0.319380 0.337800 3.028740 
# 
# 
# High freq. dielectric constant tensor:
#      x y z
#    x 1.819260 -0.006240 -0.000760 
#    y -0.006240 1.782830 -0.011350 
#    z -0.000760 -0.011350 1.835290 
# 
# From -- ./inp_files/307018.got.cif
#   From: 2010.06.25/outbox.cif.g09.slc.cpg/sg2_154_cif.got.tgz:307018.got - 2010.06.27 13:26:56.
