data_PCOD8029261
_publ_section_title
;
Structure prediction by ZEFSAII (Michael W. Deem and Ramdas Pophale) SiO2 
 PCOD8029261
Probable space group: P -1
;
_chemical_formula_sum "Si O2"
_cell_formula_units_Z 16
_cell_length_a 13.939102
_cell_length_b 9.312439
_cell_length_c 11.866677
_cell_angle_alpha 35.833799
_cell_angle_beta 67.947016
_cell_angle_gamma 88.275560
_cell_volume 721.148388
_symmetry_space_group_name_H-M "P -1"
_symmetry_group_IT_number 2
_symmetry_cell_setting 'triclinic'
loop_
_space_group_symop_operation_xyz
x,y,z
-x,-y,-z
loop_
_atom_site_type_symbol
_atom_site_label
_atom_site_fract_x
_atom_site_fract_y
_atom_site_fract_z
Si Si1 0.624806 0.010731 0.951250
Si Si2 0.604441 0.772079 0.339218
Si Si3 0.140212 0.433206 0.831004
Si Si4 0.318848 0.401672 0.933500
Si Si5 0.742959 0.924041 0.604071
Si Si6 0.115996 0.920222 0.758340
Si Si7 0.362145 0.983362 0.604081
Si Si8 0.197846 0.382911 0.598356
O O1 0.739368 0.285891 0.673488
O O2 0.606371 0.725721 0.077977
O O3 0.500000 0.000000 0.000000
O O4 0.653019 0.019763 0.066374
O O5 0.500000 0.500000 0.500000
O O6 0.700606 0.692315 0.381751
O O7 0.561312 0.856177 0.420039
O O8 0.227867 0.767631 0.562968
O O9 0.119418 0.307634 0.794127
O O10 0.204212 0.312844 0.961092
O O11 0.014072 0.358249 0.990321
O O12 0.280454 0.282022 0.152091
O O13 0.396398 0.745480 0.701120
O O14 0.858147 0.964542 0.455652
O O15 0.627727 0.816746 0.635555
O O16 0.218720 0.836563 0.796243
O O17 0.115127 0.171785 0.671095
#
# Coordination Sequence:
#
# PCOD8029261 Si02
#       8
#     2   2   2   2   2   2   2   2
#     4  12  25  41  67  90 118 164 210 256 317 365
#     4  11  22  42  69  89 115 165 210 257 316 367
#     4  11  20  39  62  93 127 166 211 243 306 365
#     4  11  22  39  64  93 123 164 204 260 300 372
#     4   9  20  37  59  90 132 158 201 248 307 356
#     4   9  21  39  62  92 128 170 196 255 306 360
#     4   8  22  40  63  90 127 155 201 255 305 371
#     4  11  22  41  63  89 132 158 208 261 302 364
#
# _framework density 22.186833
#
# number of rings (size 3 to 8) (size 9 to 14) (size 15 to 20)
#    0.750    1.000    3.750    0.750    1.750    0.500 
#    0.000    1.875    2.750    0.000    0.000    0.000 
#    0.000    0.000    0.000    0.000    0.000    0.000 
#
# Total GULP energy -198214.839950 kJ/mol
# GULP energy per Si atom -12388.427497 kJ/mol
# Density = 2.213633 g / cm^3
# Si number density = 22.186833 Si / 1000 Ang^3
#
#
#
# Elastic Constant Matrix: (Units=GPa)
#
#
# Indices 1 2 3 4 5 6 
#
# 1 42.4773 30.1060 15.2041 -1.6786 14.8386 -0.8396
# 2 30.1060 128.7371 23.9605 17.5685 16.7054 -8.1472
# 3 15.2041 23.9605 82.6294 14.1737 29.0898 7.1606
# 4 -1.6786 17.5685 14.1737 36.2048 5.3750 7.2519
# 5 14.8386 16.7054 29.0898 5.3750 28.8810 6.0911
# 6 -0.8396 -8.1472 7.1606 7.2519 6.0911 31.9596
#
#
#
# Elastic Compliance Matrix: (Units=1/GPa)
#
#
# Indices 1 2 3 4 5 6 
#
# 1 0.033938 -0.006949 -0.000421 0.007182 -0.014400 0.000329
# 2 -0.006949 0.010845 -0.000522 -0.005972 -0.002002 0.004436
# 3 -0.000421 -0.000522 0.019598 -0.004721 -0.018350 0.000034
# 4 0.007182 -0.005972 -0.004721 0.034335 -0.000176 -0.008033
# 5 -0.014400 -0.002002 -0.018350 -0.000176 0.063563 -0.008852
# 6 0.000329 0.004436 0.000034 -0.008033 -0.008852 0.035931
#
#
# Mechanical properties :
#
#
# Convention : Reuss Voigt Hill
#
# Bulk Modulus (GPa) = 20.57665 43.59833 32.08749
# Shear Modulus (GPa) = 21.72080 31.71397 26.71739
#
# Velocity S-wave (km/s) = 3.13228 3.78485 3.47392
# Velocity P-wave (km/s) = 4.73033 6.22843 5.53034
#
# Compressibility (1/GPa) = 0.04859878
#
# Stress axis : x y z
#
# Youngs Moduli (GPa) = 29.46518 92.20514 51.02544
#
# Poissons Ratio (x) = 0.64075 0.02147
# Poissons Ratio (y) = 0.20476 0.02661
# Poissons Ratio (z) = 0.01240 0.04809
#
# Static dielectric constant tensor:
#      x y z
#    x 4.405370 1.516080 -0.114380 
#    y 1.516080 7.347780 -0.442540 
#    z -0.114380 -0.442540 4.108530 
# 
# 
# High freq. dielectric constant tensor:
#      x y z
#    x 1.848740 0.001260 0.002580 
#    y 0.001260 1.902700 0.012080 
#    z 0.002580 0.012080 1.856450 
# 
# From -- ./inp_files/446632.got.cif
#   From: 2010.06.25/outbox.cif.g09.slc.cpg/sg2_224_cif.got.tgz:446632.got - 2010.06.27 13:26:56.
