data_PCOD8029705
_publ_section_title
;
Structure prediction by ZEFSAII (Michael W. Deem and Ramdas Pophale) SiO2 
 PCOD8029705
Probable space group: P -1
;
_chemical_formula_sum "Si O2"
_cell_formula_units_Z 16
_cell_length_a 14.886112
_cell_length_b 12.454472
_cell_length_c 15.483570
_cell_angle_alpha 118.961091
_cell_angle_beta 40.963459
_cell_angle_gamma 151.455663
_cell_volume 737.738066
_symmetry_space_group_name_H-M "P -1"
_symmetry_group_IT_number 2
_symmetry_cell_setting 'triclinic'
loop_
_space_group_symop_operation_xyz
x,y,z
-x,-y,-z
loop_
_atom_site_type_symbol
_atom_site_label
_atom_site_fract_x
_atom_site_fract_y
_atom_site_fract_z
Si Si1 0.755879 0.036338 0.530554
Si Si2 0.681181 0.972967 0.901049
Si Si3 0.215141 0.212210 0.641006
Si Si4 0.248160 0.116258 0.760440
Si Si5 0.617310 0.468081 0.976135
Si Si6 0.297853 0.862172 0.217911
Si Si7 0.397735 0.540888 0.203106
Si Si8 0.644454 0.236672 0.447507
O O1 0.652753 0.017990 0.686148
O O2 0.086511 0.356491 0.388872
O O3 0.822680 0.943743 0.448046
O O4 0.485653 0.851448 0.588710
O O5 0.752916 0.074987 0.793208
O O6 0.955354 0.107944 0.787144
O O7 0.388128 0.645190 0.993086
O O8 0.605040 0.030020 0.039356
O O9 0.500000 0.500000 0.500000
O O10 0.255178 0.219259 0.717427
O O11 0.312402 0.223423 0.850405
O O12 0.540944 0.265156 0.593255
O O13 0.948086 0.793234 0.853899
O O14 0.521043 0.333760 0.899826
O O15 0.356154 0.360623 0.145872
O O16 0.013216 0.538566 0.298892
O O17 0.500000 0.000000 0.500000
#
# Coordination Sequence:
#
# PCOD8029705 Si02
#       8
#     2   2   2   2   2   2   2   2
#     4  11  23  44  70 100 130 174 223 280 321 393
#     4  11  24  45  67  96 134 183 213 271 338 390
#     4  11  23  43  71 100 135 169 224 278 328 392
#     4  11  22  40  63  99 132 169 221 280 324 385
#     4  11  21  40  63  95 139 167 214 276 330 388
#     4  11  26  45  68  94 140 175 222 271 329 401
#     4  11  21  38  66  99 133 165 220 276 332 385
#     4  11  23  42  66  98 134 174 221 271 330 392
#
# _framework density 21.687916000000001
#
# number of rings (size 3 to 8) (size 9 to 14) (size 15 to 20)
#    0.000    1.000    5.000    3.375    0.000    3.000 
#    0.000    8.125    0.000    0.000    0.000    0.000 
#    0.000    0.000    0.000    0.000    0.000    0.000 
#
# Total GULP energy -198212.983496 kJ/mol
# GULP energy per Si atom -12388.311468 kJ/mol
# Density = 2.163855 g / cm^3
# Si number density = 21.687916 Si / 1000 Ang^3
#
#
#
# Elastic Constant Matrix: (Units=GPa)
#
#
# Indices 1 2 3 4 5 6 
#
# 1 95.6562 59.2899 40.9103 3.7843 5.1910 -5.0418
# 2 59.2899 87.7240 41.5157 -0.9099 20.1506 8.0839
# 3 40.9103 41.5157 105.9934 11.8256 0.8890 6.7423
# 4 3.7843 -0.9099 11.8256 36.3327 -7.1075 10.9273
# 5 5.1910 20.1506 0.8890 -7.1075 43.3374 0.0444
# 6 -5.0418 8.0839 6.7423 10.9273 0.0444 39.5739
#
#
#
# Elastic Compliance Matrix: (Units=1/GPa)
#
#
# Indices 1 2 3 4 5 6 
#
# 1 0.020659 -0.014290 -0.002504 -0.003014 0.003720 0.006806
# 2 -0.014290 0.026219 -0.004643 0.004005 -0.009720 -0.007480
# 3 -0.002504 -0.004643 0.012630 -0.003478 0.001630 -0.000564
# 4 -0.003014 0.004005 -0.003478 0.032746 0.003951 -0.009656
# 5 0.003720 -0.009720 0.001630 0.003951 0.027762 0.001060
# 6 0.006806 -0.007480 -0.000564 -0.009656 0.001060 0.030425
#
#
# Mechanical properties :
#
#
# Convention : Reuss Voigt Hill
#
# Bulk Modulus (GPa) = 60.12606 63.64507 61.88557
# Shear Modulus (GPa) = 25.14325 33.69265 29.41795
#
# Velocity S-wave (km/s) = 3.40857 3.94575 3.68696
# Velocity P-wave (km/s) = 6.57835 7.08295 6.83531
#
# Compressibility (1/GPa) = 0.01663172
#
# Stress axis : x y z
#
# Youngs Moduli (GPa) = 48.40581 38.14078 79.17675
#
# Poissons Ratio (x) = 0.54505 0.19828
# Poissons Ratio (y) = 0.69174 0.36763
# Poissons Ratio (z) = 0.12122 0.17709
#
# Static dielectric constant tensor:
#      x y z
#    x 3.999890 -0.210420 0.056670 
#    y -0.210420 3.862350 -0.180720 
#    z 0.056670 -0.180720 4.112670 
# 
# 
# High freq. dielectric constant tensor:
#      x y z
#    x 1.846900 -0.008620 -0.002160 
#    y -0.008620 1.834830 -0.002990 
#    z -0.002160 -0.002990 1.877890 
# 
# From -- ./inp_files/532597.got.cif
#   From: 2010.06.25/outbox.cif.g09.slc.cpg/sg2_267_cif.got.tgz:532597.got - 2010.06.27 13:26:56.
