data_PCOD8029813
_publ_section_title
;
Structure prediction by ZEFSAII (Michael W. Deem and Ramdas Pophale) SiO2 
 PCOD8029813
Probable space group: P -1
;
_chemical_formula_sum "Si O2"
_cell_formula_units_Z 16
_cell_length_a 10.785157
_cell_length_b 17.434191
_cell_length_c 13.206517
_cell_angle_alpha 34.405827
_cell_angle_beta 145.354158
_cell_angle_gamma 122.763336
_cell_volume 720.820204
_symmetry_space_group_name_H-M "P -1"
_symmetry_group_IT_number 2
_symmetry_cell_setting 'triclinic'
loop_
_space_group_symop_operation_xyz
x,y,z
-x,-y,-z
loop_
_atom_site_type_symbol
_atom_site_label
_atom_site_fract_x
_atom_site_fract_y
_atom_site_fract_z
Si Si1 0.417993 0.911935 0.653707
Si Si2 0.286018 0.252049 0.234083
Si Si3 0.056955 0.329770 0.208395
Si Si4 0.764263 0.152356 0.196471
Si Si5 0.226517 0.788574 0.326293
Si Si6 0.370139 0.162143 0.780164
Si Si7 0.918112 0.646016 0.216217
Si Si8 0.015905 0.099279 0.751833
O O1 0.378295 0.885019 0.771377
O O2 0.223139 0.889574 0.476973
O O3 0.392792 0.083057 0.440907
O O4 0.686956 0.790599 0.943468
O O5 0.123455 0.269249 0.204314
O O6 0.498446 0.295453 0.363443
O O7 0.138794 0.376581 0.914471
O O8 0.270423 0.260214 0.507277
O O9 0.835892 0.286275 0.131713
O O10 0.000000 0.500000 0.000000
O O11 0.573441 0.205815 0.917827
O O12 0.000000 0.000000 0.500000
O O13 0.056205 0.822976 0.272763
O O14 0.152901 0.678970 0.330099
O O15 0.196727 0.927615 0.083576
O O16 0.155072 0.176625 0.696790
O O17 0.500000 0.000000 0.000000
O O18 0.000000 0.500000 0.500000
#
# Coordination Sequence:
#
# PCOD8029813 Si02
#       8
#     2   2   2   2   2   2   2   2
#     4  12  21  45  76 103 137 184 237 290 340 423
#     4  12  25  46  72 100 138 183 240 288 345 427
#     4  12  29  46  69 107 146 186 236 298 363 414
#     4  12  23  44  76 107 140 185 243 294 345 421
#     4  11  23  41  68 103 137 178 229 288 347 409
#     4  12  23  43  72 105 138 188 239 286 348 427
#     4  12  28  45  67 105 144 184 227 287 363 420
#     4  11  21  39  74 106 133 178 237 291 338 410
#
# _framework density 22.196936999999998
#
# number of rings (size 3 to 8) (size 9 to 14) (size 15 to 20)
#    0.000    0.250    6.250    4.125    0.000    5.000 
#    0.000    0.000    0.000    0.000    0.000    0.000 
#    0.000    0.000    0.000    0.000    0.000    0.000 
#
# Total GULP energy -198353.825395 kJ/mol
# GULP energy per Si atom -12397.114087 kJ/mol
# Density = 2.214642 g / cm^3
# Si number density = 22.196937 Si / 1000 Ang^3
#
#
#
# Elastic Constant Matrix: (Units=GPa)
#
#
# Indices 1 2 3 4 5 6 
#
# 1 77.8254 2.3017 40.1515 -0.6516 -16.9844 4.1129
# 2 2.3017 109.1875 63.5997 25.1553 2.5750 8.2887
# 3 40.1515 63.5997 145.9578 21.2386 -31.5629 -1.4670
# 4 -0.6516 25.1553 21.2386 51.9589 -2.3749 -0.6123
# 5 -16.9844 2.5750 -31.5629 -2.3749 36.8565 8.1986
# 6 4.1129 8.2887 -1.4670 -0.6123 8.1986 28.1977
#
#
#
# Elastic Compliance Matrix: (Units=1/GPa)
#
#
# Indices 1 2 3 4 5 6 
#
# 1 0.016506 0.002492 -0.004902 0.001148 0.004339 -0.004632
# 2 0.002492 0.015251 -0.008105 -0.004371 -0.006358 -0.003514
# 3 -0.004902 -0.008105 0.014142 -0.001445 0.010135 0.000855
# 4 0.001148 -0.004371 -0.001445 0.022016 0.000724 0.001310
# 5 0.004339 -0.006358 0.010135 0.000724 0.040527 -0.010004
# 6 -0.004632 -0.003514 0.000855 0.001310 -0.010004 0.040154
#
#
# Mechanical properties :
#
#
# Convention : Reuss Voigt Hill
#
# Bulk Modulus (GPa) = 40.21089 60.56405 50.38747
# Shear Modulus (GPa) = 28.10328 38.53047 33.31688
#
# Velocity S-wave (km/s) = 3.56207 4.17087 3.87843
# Velocity P-wave (km/s) = 5.92222 7.10908 6.54262
#
# Compressibility (1/GPa) = 0.02486889
#
# Stress axis : x y z
#
# Youngs Moduli (GPa) = 60.58493 65.56974 70.71181
#
# Poissons Ratio (x) = -0.16341 0.34662
# Poissons Ratio (y) = -0.15098 0.57313
# Poissons Ratio (z) = 0.29698 0.53145
#
# Static dielectric constant tensor:
#      x y z
#    x 4.113790 -0.121660 -0.293630 
#    y -0.121660 4.004830 0.323430 
#    z -0.293630 0.323430 3.976730 
# 
# 
# High freq. dielectric constant tensor:
#      x y z
#    x 1.883410 0.003810 -0.018160 
#    y 0.003810 1.872420 0.032140 
#    z -0.018160 0.032140 1.871760 
# 
# From -- ./inp_files/524064.got.cif
#   From: 2010.06.25/outbox.cif.g09.slc.cpg/sg2_263_cif.got.tgz:524064.got - 2010.06.27 13:26:56.
