data_PCOD8029597
_publ_section_title
;
Structure prediction by ZEFSAII (Michael W. Deem and Ramdas Pophale) SiO2 
 PCOD8029597
Probable space group: P -1
;
_chemical_formula_sum "Si O2"
_cell_formula_units_Z 16
_cell_length_a 16.799223
_cell_length_b 6.130722
_cell_length_c 8.162674
_cell_angle_alpha 102.276125
_cell_angle_beta 52.315065
_cell_angle_gamma 114.799606
_cell_volume 602.827567
_symmetry_space_group_name_H-M "P -1"
_symmetry_group_IT_number 2
_symmetry_cell_setting 'triclinic'
loop_
_space_group_symop_operation_xyz
x,y,z
-x,-y,-z
loop_
_atom_site_type_symbol
_atom_site_label
_atom_site_fract_x
_atom_site_fract_y
_atom_site_fract_z
Si Si1 0.675063 0.973560 0.192132
Si Si2 0.077235 0.831741 0.124129
Si Si3 0.267837 0.539773 0.620420
Si Si4 0.407744 0.262290 0.423979
Si Si5 0.936321 0.709897 0.977004
Si Si6 0.755997 0.210184 0.608635
Si Si7 0.584603 0.142873 0.050417
Si Si8 0.027519 0.779507 0.535113
O O1 0.679363 0.220975 0.305267
O O2 0.603624 0.946310 0.114431
O O3 0.611107 0.751690 0.357608
O O4 0.796799 0.995289 0.002178
O O5 0.056286 0.549605 0.099323
O O6 0.020118 0.880467 0.374585
O O7 0.028900 0.877480 0.015874
O O8 0.367036 0.461499 0.431797
O O9 0.204495 0.576526 0.542840
O O10 0.180885 0.330049 0.805844
O O11 0.534655 0.319130 0.233556
O O12 0.337352 0.007068 0.394806
O O13 0.951896 0.822283 0.786243
O O14 0.849767 0.120139 0.534450
O O15 0.701816 0.296812 0.845017
O O16 0.500000 0.000000 0.000000
O O17 0.000000 0.500000 0.500000
#
# Coordination Sequence:
#
# PCOD8029597 Si02
#       8
#     2   2   2   2   2   2   2   2
#     4  10  19  38  61  83 114 152 198 241 294 352
#     4   9  16  30  56  85 114 152 196 238 292 350
#     4  10  21  37  58  87 119 153 196 239 289 355
#     4  10  22  38  60  85 116 157 192 244 296 345
#     4   9  17  30  52  87 118 150 195 237 287 350
#     4  10  20  38  60  84 117 152 194 242 295 351
#     4  10  21  38  62  86 114 154 196 243 298 347
#     4  10  17  30  60  86 114 157 198 242 295 351
#
# _framework density 26.541585999999999
#
# number of rings (size 3 to 8) (size 9 to 14) (size 15 to 20)
#    0.000    2.250    1.250    4.125    0.000    1.000 
#    0.000    5.000    0.000    3.750    0.000    0.000 
#    0.000    0.000    0.000    0.000    0.000    0.000 
#
# Total GULP energy -198347.336204 kJ/mol
# GULP energy per Si atom -12396.708513 kJ/mol
# Density = 2.648118 g / cm^3
# Si number density = 26.541586 Si / 1000 Ang^3
#
#
#
# Elastic Constant Matrix: (Units=GPa)
#
#
# Indices 1 2 3 4 5 6 
#
# 1 118.7571 11.4928 36.9213 -6.4040 25.9995 -29.7758
# 2 11.4928 45.0320 32.2588 3.1902 18.9105 -20.2025
# 3 36.9213 32.2588 182.3629 7.3678 12.3379 -22.9643
# 4 -6.4040 3.1902 7.3678 33.6945 -18.4504 10.0029
# 5 25.9995 18.9105 12.3379 -18.4504 50.6122 -5.2610
# 6 -29.7758 -20.2025 -22.9643 10.0029 -5.2610 37.0082
#
#
#
# Elastic Compliance Matrix: (Units=1/GPa)
#
#
# Indices 1 2 3 4 5 6 
#
# 1 0.014910 0.012518 -0.001413 -0.011465 -0.014193 0.019034
# 2 0.012518 0.059149 -0.003517 -0.035377 -0.035931 0.044633
# 3 -0.001413 -0.003517 0.006680 -0.001941 -0.000130 0.001594
# 4 -0.011465 -0.035377 -0.001941 0.064992 0.038931 -0.041773
# 5 -0.014193 -0.035931 -0.000130 0.038931 0.051125 -0.034369
# 6 0.019034 0.044633 0.001594 -0.041773 -0.034369 0.074095
#
#
# Mechanical properties :
#
#
# Convention : Reuss Voigt Hill
#
# Bulk Modulus (GPa) = 10.42577 56.38864 33.40720
# Shear Modulus (GPa) = 17.37649 41.96159 29.66904
#
# Velocity S-wave (km/s) = 2.56147 3.98046 3.34703
# Velocity P-wave (km/s) = 3.56157 6.51283 5.24889
#
# Compressibility (1/GPa) = 0.09591619
#
# Stress axis : x y z
#
# Youngs Moduli (GPa) = 67.07023 16.90646 149.70656
#
# Poissons Ratio (x) = -0.21164 0.21149
# Poissons Ratio (y) = -0.83962 0.52651
# Poissons Ratio (z) = 0.09475 0.05946
#
# Static dielectric constant tensor:
#      x y z
#    x 3.046920 0.580160 0.966670 
#    y 0.580160 4.249690 -0.261160 
#    z 0.966670 -0.261160 5.838880 
# 
# 
# High freq. dielectric constant tensor:
#      x y z
#    x 2.068870 -0.020510 0.015010 
#    y -0.020510 2.068780 0.009760 
#    z 0.015010 0.009760 2.088340 
# 
# From -- ./inp_files/141374.got.cif
#   From: 2010.06.25/outbox.cif.g09.slc.cpg/sg2_71_cif.got.tgz:141374.got - 2010.06.27 13:26:56.
