data_PCOD8029965
_publ_section_title
;
Structure prediction by ZEFSAII (Michael W. Deem and Ramdas Pophale) SiO2 
 PCOD8029965
Probable space group: P -1
;
_chemical_formula_sum "Si O2"
_cell_formula_units_Z 14
_cell_length_a 30.158349
_cell_length_b 29.418538
_cell_length_c 12.337199
_cell_angle_alpha 19.045430
_cell_angle_beta 160.670146
_cell_angle_gamma 170.480079
_cell_volume 577.443126
_symmetry_space_group_name_H-M "P -1"
_symmetry_group_IT_number 2
_symmetry_cell_setting 'triclinic'
loop_
_space_group_symop_operation_xyz
x,y,z
-x,-y,-z
loop_
_atom_site_type_symbol
_atom_site_label
_atom_site_fract_x
_atom_site_fract_y
_atom_site_fract_z
Si Si1 0.082288 0.914796 0.883654
Si Si2 0.444941 0.291917 0.303126
Si Si3 0.337882 0.575004 0.821398
Si Si4 0.381284 0.121880 0.771943
Si Si5 0.292262 0.703937 0.234991
Si Si6 0.983203 0.630712 0.104883
Si Si7 0.839808 0.791765 0.948064
O O1 0.000000 0.000000 0.500000
O O2 0.867056 0.619323 0.113239
O O3 0.106819 0.868710 0.926111
O O4 0.360003 0.166165 0.022650
O O5 0.444885 0.192048 0.632643
O O6 0.653987 0.396828 0.469005
O O7 0.639204 0.610978 0.005989
O O8 0.148370 0.032902 0.147757
O O9 0.319084 0.707307 0.419131
O O10 0.265405 0.388959 0.989002
O O11 0.186722 0.076607 0.454179
O O12 0.670054 0.378906 0.920187
O O13 0.187795 0.816450 0.052497
O O14 0.000000 0.500000 0.000000
O O15 0.500000 0.000000 0.000000
O O16 0.000000 0.500000 0.500000
#
# Coordination Sequence:
#
# PCOD8029965 Si02
#       7
#     2   2   2   2   2   2   2
#     4  12  24  44  69  96 126 174 230 281 334 389
#     4  11  23  39  66 101 133 170 215 269 340 416
#     4  11  23  40  66  95 128 169 215 281 334 384
#     4  12  24  44  69  94 134 183 216 274 341 397
#     4  11  23  40  61  93 130 168 213 261 323 409
#     4  12  28  46  64  96 135 180 237 284 324 393
#     4  11  21  41  67 105 136 162 215 278 341 414
#
# _framework density 24.244810999999999
#
# number of rings (size 3 to 8) (size 9 to 14) (size 15 to 20)
#    0.000    0.571    0.000   10.286    0.000    3.429 
#    0.000    0.000    0.000    0.000    0.000    0.000 
#    0.000    0.000    0.000    0.000    0.000    0.000 
#
# Total GULP energy -173516.108605 kJ/mol
# GULP energy per Si atom -12394.007757 kJ/mol
# Density = 2.418963 g / cm^3
# Si number density = 24.244811 Si / 1000 Ang^3
#
#
#
# Elastic Constant Matrix: (Units=GPa)
#
#
# Indices 1 2 3 4 5 6 
#
# 1 69.7929 40.7450 26.9109 9.1513 -22.2646 5.8740
# 2 40.7450 209.2494 71.5057 29.4771 -25.8282 5.2044
# 3 26.9109 71.5057 157.3611 17.0757 -38.1016 5.0987
# 4 9.1513 29.4771 17.0757 66.2182 5.4143 -18.0122
# 5 -22.2646 -25.8282 -38.1016 5.4143 35.0066 -4.9128
# 6 5.8740 5.2044 5.0987 -18.0122 -4.9128 46.6149
#
#
#
# Elastic Compliance Matrix: (Units=1/GPa)
#
#
# Indices 1 2 3 4 5 6 
#
# 1 0.019821 -0.002090 0.001071 -0.003793 0.012461 -0.002534
# 2 -0.002090 0.006396 -0.001854 -0.002495 0.001611 -0.001042
# 3 0.001071 -0.001854 0.009894 -0.003018 0.010397 -0.001081
# 4 -0.003793 -0.002495 -0.003018 0.020471 -0.009584 0.007987
# 5 0.012461 0.001611 0.010397 -0.009584 0.050298 -0.001290
# 6 -0.002534 -0.001042 -0.001081 0.007987 -0.001290 0.024956
#
#
# Mechanical properties :
#
#
# Convention : Reuss Voigt Hill
#
# Bulk Modulus (GPa) = 32.93310 79.41407 56.17358
# Shear Modulus (GPa) = 33.85127 49.38405 41.61766
#
# Velocity S-wave (km/s) = 3.74067 4.51809 4.14763
# Velocity P-wave (km/s) = 5.68065 7.74879 6.79388
#
# Compressibility (1/GPa) = 0.03036459
#
# Stress axis : x y z
#
# Youngs Moduli (GPa) = 50.45108 156.34941 101.06918
#
# Poissons Ratio (x) = 0.32678 -0.10824
# Poissons Ratio (y) = 0.10545 0.18741
# Poissons Ratio (z) = -0.05403 0.28991
#
# Static dielectric constant tensor:
#      x y z
#    x 4.902410 0.249550 -0.110610 
#    y 0.249550 4.371090 -0.335310 
#    z -0.110610 -0.335310 5.224290 
# 
# 
# High freq. dielectric constant tensor:
#      x y z
#    x 1.977220 0.018270 -0.015900 
#    y 0.018270 1.978850 -0.007000 
#    z -0.015900 -0.007000 1.991070 
# 
# From -- ./inp_files/477837.got.cif
#   From: 2010.06.25/outbox.cif.g09.slc.cpg/sg2_239_cif.got.tgz:477837.got - 2010.06.27 13:26:56.
