data_PCOD8029343
_publ_section_title
;
Structure prediction by ZEFSAII (Michael W. Deem and Ramdas Pophale) SiO2 
 PCOD8029343
Probable space group: P -1
;
_chemical_formula_sum "Si O2"
_cell_formula_units_Z 16
_cell_length_a 13.689330
_cell_length_b 11.357723
_cell_length_c 9.492804
_cell_angle_alpha 103.219087
_cell_angle_beta 110.689483
_cell_angle_gamma 31.438609
_cell_volume 712.127165
_symmetry_space_group_name_H-M "P -1"
_symmetry_group_IT_number 2
_symmetry_cell_setting 'triclinic'
loop_
_space_group_symop_operation_xyz
x,y,z
-x,-y,-z
loop_
_atom_site_type_symbol
_atom_site_label
_atom_site_fract_x
_atom_site_fract_y
_atom_site_fract_z
Si Si1 0.164035 0.042935 0.242844
Si Si2 0.011948 0.560290 0.166702
Si Si3 0.125363 0.057844 0.910717
Si Si4 0.375994 0.078660 0.328918
Si Si5 0.486506 0.530432 0.335671
Si Si6 0.358627 0.208630 0.880616
Si Si7 0.825093 0.244984 0.236715
Si Si8 0.579245 0.592619 0.965189
O O1 0.343610 0.778362 0.290341
O O2 0.236050 0.107711 0.314899
O O3 0.988485 0.190408 0.306748
O O4 0.063807 0.121320 0.060452
O O5 0.979898 0.733915 0.174776
O O6 0.842073 0.670756 0.211457
O O7 0.231272 0.329101 0.276815
O O8 0.000000 0.500000 0.000000
O O9 0.058023 0.995924 0.794789
O O10 0.358805 0.845895 0.963648
O O11 0.500000 0.000000 0.500000
O O12 0.527928 0.886226 0.234558
O O13 0.500000 0.500000 0.500000
O O14 0.706201 0.354688 0.351626
O O15 0.417642 0.474721 0.205248
O O16 0.303688 0.394463 0.969350
O O17 0.500000 0.000000 0.000000
O O18 0.666223 0.415519 0.076692
#
# Coordination Sequence:
#
# PCOD8029343 Si02
#       8
#     2   2   2   2   2   2   2   2
#     4  12  22  45  69 102 137 177 242 284 346 423
#     4  12  23  42  73 106 138 181 247 291 339 420
#     4  11  20  40  68 109 132 172 242 291 330 409
#     4  12  28  48  71 104 148 187 229 298 365 412
#     4  11  25  43  64 103 145 183 222 288 363 416
#     4  12  22  42  73 107 137 183 244 293 338 417
#     4  11  23  40  74  99 133 181 234 289 340 412
#     4  11  20  41  74  97 136 184 233 284 344 409
#
# _framework density 22.467896
#
# number of rings (size 3 to 8) (size 9 to 14) (size 15 to 20)
#    0.000    0.500    7.500    1.875    0.000    2.000 
#    2.250    0.000    0.000    0.000    0.000    0.000 
#    0.000    0.000    0.000    0.000    0.000    0.000 
#
# Total GULP energy -198443.518718 kJ/mol
# GULP energy per Si atom -12402.719920 kJ/mol
# Density = 2.241676 g / cm^3
# Si number density = 22.467896 Si / 1000 Ang^3
#
#
#
# Elastic Constant Matrix: (Units=GPa)
#
#
# Indices 1 2 3 4 5 6 
#
# 1 125.4969 47.5399 49.7131 6.6493 -21.7223 -0.8380
# 2 47.5399 121.9410 43.4542 -9.7414 -11.8315 13.5613
# 3 49.7131 43.4542 121.9995 6.5872 -12.0904 3.3790
# 4 6.6493 -9.7414 6.5872 28.5027 -3.3667 -7.7785
# 5 -21.7223 -11.8315 -12.0904 -3.3667 15.5391 -4.5908
# 6 -0.8380 13.5613 3.3790 -7.7785 -4.5908 43.7503
#
#
#
# Elastic Compliance Matrix: (Units=1/GPa)
#
#
# Indices 1 2 3 4 5 6 
#
# 1 0.012653 -0.002986 -0.002740 -0.000976 0.013856 0.002660
# 2 -0.002986 0.011226 -0.002720 0.004883 0.002671 -0.002178
# 3 -0.002740 -0.002720 0.010600 -0.002629 0.001682 -0.000319
# 4 -0.000976 0.004883 -0.002629 0.040861 0.011264 0.007118
# 5 0.013856 0.002671 0.001682 0.011264 0.092770 0.011045
# 6 0.002660 -0.002178 -0.000319 0.007118 0.011045 0.026032
#
#
# Mechanical properties :
#
#
# Convention : Reuss Voigt Hill
#
# Bulk Modulus (GPa) = 56.86435 72.31686 64.59061
# Shear Modulus (GPa) = 23.05257 32.80708 27.92983
#
# Velocity S-wave (km/s) = 3.20663 3.82537 3.52959
# Velocity P-wave (km/s) = 6.25093 7.19499 6.73951
#
# Compressibility (1/GPa) = 0.01758571
#
# Stress axis : x y z
#
# Youngs Moduli (GPa) = 79.03463 89.08222 94.34259
#
# Poissons Ratio (x) = 0.26597 0.25851
# Poissons Ratio (y) = 0.23597 0.25664
# Poissons Ratio (z) = 0.21656 0.24233
#
# Static dielectric constant tensor:
#      x y z
#    x 4.344540 0.019000 -0.122790 
#    y 0.019000 3.913920 -0.118680 
#    z -0.122790 -0.118680 3.693590 
# 
# 
# High freq. dielectric constant tensor:
#      x y z
#    x 1.902150 -0.002130 -0.008090 
#    y -0.002130 1.906230 -0.008980 
#    z -0.008090 -0.008980 1.841580 
# 
# From -- ./inp_files/307804.got.cif
#   From: 2010.06.25/outbox.cif.g09.slc.cpg/sg2_154_cif.got.tgz:307804.got - 2010.06.27 13:26:56.
