data_PCOD8029883
_publ_section_title
;
Structure prediction by ZEFSAII (Michael W. Deem and Ramdas Pophale) SiO2 
 PCOD8029883
Probable space group: P -1
;
_chemical_formula_sum "Si O2"
_cell_formula_units_Z 14
_cell_length_a 11.723161
_cell_length_b 9.579167
_cell_length_c 13.305268
_cell_angle_alpha 146.564782
_cell_angle_beta 38.967145
_cell_angle_gamma 129.728091
_cell_volume 517.531698
_symmetry_space_group_name_H-M "P -1"
_symmetry_group_IT_number 2
_symmetry_cell_setting 'triclinic'
loop_
_space_group_symop_operation_xyz
x,y,z
-x,-y,-z
loop_
_atom_site_type_symbol
_atom_site_label
_atom_site_fract_x
_atom_site_fract_y
_atom_site_fract_z
Si Si1 0.840311 0.617287 0.750845
Si Si2 0.998229 0.880275 0.583366
Si Si3 0.041158 0.855373 0.035032
Si Si4 0.666004 0.770740 0.147680
Si Si5 0.464924 0.404151 0.193713
Si Si6 0.403311 0.713501 0.605686
Si Si7 0.703763 0.954801 0.671754
O O1 0.950169 0.866882 0.856426
O O2 0.735892 0.671327 0.749582
O O3 0.967976 0.363282 0.510745
O O4 0.687426 0.593164 0.927613
O O5 0.952776 0.117249 0.830622
O O6 0.184521 0.928654 0.426381
O O7 0.840808 0.819438 0.575496
O O8 0.853356 0.736370 0.061018
O O9 0.212611 0.681996 0.776181
O O10 0.509801 0.661789 0.258654
O O11 0.608240 0.054150 0.325324
O O12 0.454655 0.460622 0.353957
O O13 0.604425 0.175657 0.936709
O O14 0.563325 0.753533 0.601851
#
# Coordination Sequence:
#
# PCOD8029883 Si02
#       7
#     2   2   2   2   2   2   2
#     4  11  21  41  73 101 131 175 225 280 341 389
#     4  11  24  43  69  96 138 181 223 277 334 400
#     4  11  24  42  67 103 140 171 222 285 338 395
#     4  11  21  40  69 103 138 166 234 282 326 396
#     4  12  22  43  74 100 131 181 227 278 331 397
#     4  11  23  41  67  99 139 171 224 277 338 394
#     4  11  24  47  66 102 135 181 226 275 330 407
#
# _framework density 27.051486000000001
#
# number of rings (size 3 to 8) (size 9 to 14) (size 15 to 20)
#    0.000    0.857    4.286    5.571    0.000    1.714 
#    2.571    2.857    0.000    0.000    0.000    0.000 
#    0.000    0.000    0.000    0.000    0.000    0.000 
#
# Total GULP energy -173672.751532 kJ/mol
# GULP energy per Si atom -12405.196538 kJ/mol
# Density = 2.698992 g / cm^3
# Si number density = 27.051486 Si / 1000 Ang^3
#
#
#
# Elastic Constant Matrix: (Units=GPa)
#
#
# Indices 1 2 3 4 5 6 
#
# 1 142.4126 26.1165 38.4373 -4.7966 13.4740 11.7831
# 2 26.1165 37.0099 13.0850 -9.8980 4.7682 4.5208
# 3 38.4373 13.0850 180.4872 -27.0781 38.7310 8.3820
# 4 -4.7966 -9.8980 -27.0781 28.0064 3.3128 4.2259
# 5 13.4740 4.7682 38.7310 3.3128 46.8856 -1.1311
# 6 11.7831 4.5208 8.3820 4.2259 -1.1311 36.6489
#
#
#
# Elastic Compliance Matrix: (Units=1/GPa)
#
#
# Indices 1 2 3 4 5 6 
#
# 1 0.008596 -0.005727 -0.001465 -0.001664 -0.000598 -0.001549
# 2 -0.005727 0.035548 0.002191 0.015032 -0.004961 -0.004931
# 3 -0.001465 0.002191 0.009299 0.011022 -0.008345 -0.003455
# 4 -0.001664 0.015032 0.011022 0.054677 -0.014275 -0.010586
# 5 -0.000598 -0.004961 -0.008345 -0.014275 0.030035 0.005286
# 6 -0.001549 -0.004931 -0.003455 -0.010586 0.005286 0.030566
#
#
# Mechanical properties :
#
#
# Convention : Reuss Voigt Hill
#
# Bulk Modulus (GPa) = 23.01933 57.24303 40.13118
# Shear Modulus (GPa) = 25.87970 41.12625 33.50297
#
# Velocity S-wave (km/s) = 3.09639 3.90333 3.52304
# Velocity P-wave (km/s) = 4.61643 6.44370 5.60503
#
# Compressibility (1/GPa) = 0.04344175
#
# Stress axis : x y z
#
# Youngs Moduli (GPa) = 116.33182 28.13098 107.54314
#
# Poissons Ratio (x) = 0.16110 0.15754
# Poissons Ratio (y) = 0.66620 -0.23565
# Poissons Ratio (z) = 0.17041 -0.06164
#
# Static dielectric constant tensor:
#      x y z
#    x 4.752420 -0.025440 0.243760 
#    y -0.025440 4.810050 -0.370430 
#    z 0.243760 -0.370430 4.977350 
# 
# 
# High freq. dielectric constant tensor:
#      x y z
#    x 2.094190 -0.001350 0.014180 
#    y -0.001350 2.094610 -0.028070 
#    z 0.014180 -0.028070 2.104160 
# 
# From -- ./inp_files/519321.got.cif
#   From: 2010.06.25/outbox.cif.g09.slc.cpg/sg2_260_cif.got.tgz:519321.got - 2010.06.27 13:26:56.
