data_PCOD8029311
_publ_section_title
;
Structure prediction by ZEFSAII (Michael W. Deem and Ramdas Pophale) SiO2 
 PCOD8029311
Probable space group: P -1
;
_chemical_formula_sum "Si O2"
_cell_formula_units_Z 16
_cell_length_a 11.749693
_cell_length_b 9.381391
_cell_length_c 9.399938
_cell_angle_alpha 43.993725
_cell_angle_beta 86.111095
_cell_angle_gamma 95.740350
_cell_volume 701.273953
_symmetry_space_group_name_H-M "P -1"
_symmetry_group_IT_number 2
_symmetry_cell_setting 'triclinic'
loop_
_space_group_symop_operation_xyz
x,y,z
-x,-y,-z
loop_
_atom_site_type_symbol
_atom_site_label
_atom_site_fract_x
_atom_site_fract_y
_atom_site_fract_z
Si Si1 0.365800 0.557558 0.863960
Si Si2 0.192026 0.895105 0.357694
Si Si3 0.403223 0.445222 0.254011
Si Si4 0.324125 0.974516 0.562537
Si Si5 0.879848 0.122936 0.156316
Si Si6 0.058351 0.282353 0.429539
Si Si7 0.123700 0.308735 0.075976
Si Si8 0.222310 0.683619 0.222711
O O1 0.454956 0.485599 0.794212
O O2 0.411464 0.813111 0.692628
O O3 0.372547 0.441628 0.093783
O O4 0.228702 0.494633 0.875159
O O5 0.300051 0.980023 0.392561
O O6 0.240200 0.771848 0.315930
O O7 0.080792 0.744854 0.552286
O O8 0.151786 0.099020 0.155654
O O9 0.340628 0.603507 0.230987
O O10 0.361311 0.198902 0.478083
O O11 0.205493 0.841773 0.737120
O O12 0.994727 0.318842 0.018727
O O13 0.914844 0.901929 0.339091
O O14 0.808990 0.136103 0.006598
O O15 0.118747 0.285073 0.266828
O O16 0.111946 0.491659 0.360426
#
# Coordination Sequence:
#
# PCOD8029311 Si02
#       8
#     2   2   2   2   2   2   2   2
#     4  11  23  39  68  93 115 167 218 258 299 359
#     4  11  23  38  62  95 134 161 197 258 320 368
#     4  11  23  42  65  90 127 158 216 264 298 362
#     4  12  20  42  67  94 117 165 216 253 306 374
#     4  11  21  36  69  91 124 166 205 247 315 369
#     4  11  20  40  59  90 130 168 201 253 300 376
#     4  11  20  41  65  93 130 158 214 256 299 372
#     4  12  24  40  59  97 131 163 201 255 322 368
#
# _framework density 22.815619000000002
#
# number of rings (size 3 to 8) (size 9 to 14) (size 15 to 20)
#    0.000    0.750    7.500    1.500    1.750    3.000 
#    2.250    1.250    0.000    0.000    0.000    0.000 
#    0.000    0.000    0.000    0.000    0.000    0.000 
#
# Total GULP energy -198227.813102 kJ/mol
# GULP energy per Si atom -12389.238319 kJ/mol
# Density = 2.276369 g / cm^3
# Si number density = 22.815619 Si / 1000 Ang^3
#
#
#
# Elastic Constant Matrix: (Units=GPa)
#
#
# Indices 1 2 3 4 5 6 
#
# 1 89.5380 25.7642 34.9637 12.4713 -13.6908 -21.7418
# 2 25.7642 105.7985 19.8874 10.2103 -11.8485 -15.0008
# 3 34.9637 19.8874 51.1669 -1.2905 -4.8926 -6.5686
# 4 12.4713 10.2103 -1.2905 21.0338 -4.1852 0.8967
# 5 -13.6908 -11.8485 -4.8926 -4.1852 28.8246 1.6232
# 6 -21.7418 -15.0008 -6.5686 0.8967 1.6232 26.8593
#
#
#
# Elastic Compliance Matrix: (Units=1/GPa)
#
#
# Indices 1 2 3 4 5 6 
#
# 1 0.023223 0.001421 -0.014118 -0.014794 0.006154 0.016261
# 2 0.001421 0.011936 -0.004581 -0.006511 0.003481 0.006703
# 3 -0.014118 -0.004581 0.030279 0.012500 -0.001244 -0.006924
# 4 -0.014794 -0.006511 0.012500 0.061297 0.002148 -0.014731
# 5 0.006154 0.003481 -0.001244 0.002148 0.038911 0.004198
# 6 0.016261 0.006703 -0.006924 -0.014731 0.004198 0.052682
#
#
# Mechanical properties :
#
#
# Convention : Reuss Voigt Hill
#
# Bulk Modulus (GPa) = 32.38211 45.30379 38.84295
# Shear Modulus (GPa) = 18.99860 26.40273 22.70067
#
# Velocity S-wave (km/s) = 2.88879 3.40549 3.15772
# Velocity P-wave (km/s) = 5.03493 5.94666 5.50969
#
# Compressibility (1/GPa) = 0.03088125
#
# Stress axis : x y z
#
# Youngs Moduli (GPa) = 43.06146 83.78365 33.02598
#
# Poissons Ratio (x) = -0.11907 0.46627
# Poissons Ratio (y) = -0.06120 0.15129
# Poissons Ratio (z) = 0.60795 0.38382
#
# Static dielectric constant tensor:
#      x y z
#    x 4.497990 -0.217370 -0.113250 
#    y -0.217370 3.704750 -0.317170 
#    z -0.113250 -0.317170 4.113750 
# 
# 
# High freq. dielectric constant tensor:
#      x y z
#    x 1.908380 -0.022750 -0.005440 
#    y -0.022750 1.866500 -0.032230 
#    z -0.005440 -0.032230 1.892920 
# 
# From -- ./inp_files/242032.got.cif
#   From: 2010.06.25/outbox.cif.g09.slc.cpg/sg2_122_cif.got.tgz:242032.got - 2010.06.27 13:26:56.
