data_PCOD8029892
_publ_section_title
;
Structure prediction by ZEFSAII (Michael W. Deem and Ramdas Pophale) SiO2 
 PCOD8029892
Probable space group: P -1
;
_chemical_formula_sum "Si O2"
_cell_formula_units_Z 14
_cell_length_a 12.459111
_cell_length_b 9.212727
_cell_length_c 12.091376
_cell_angle_alpha 35.443533
_cell_angle_beta 125.382231
_cell_angle_gamma 132.709403
_cell_volume 590.252256
_symmetry_space_group_name_H-M "P -1"
_symmetry_group_IT_number 2
_symmetry_cell_setting 'triclinic'
loop_
_space_group_symop_operation_xyz
x,y,z
-x,-y,-z
loop_
_atom_site_type_symbol
_atom_site_label
_atom_site_fract_x
_atom_site_fract_y
_atom_site_fract_z
Si Si1 0.354326 0.234801 0.043342
Si Si2 0.939823 0.667292 0.657392
Si Si3 0.667134 0.323462 0.578787
Si Si4 0.378855 0.100116 0.661186
Si Si5 0.588064 0.727875 0.188903
Si Si6 0.732840 0.584733 0.763766
Si Si7 0.801301 0.510871 0.083273
O O1 0.337787 0.972579 0.271506
O O2 0.500000 0.500000 0.000000
O O3 0.349506 0.126257 0.981418
O O4 0.215588 0.301719 0.943656
O O5 0.830524 0.553579 0.559191
O O6 0.845283 0.508167 0.807869
O O7 0.062880 0.561351 0.777738
O O8 0.000000 0.000000 0.500000
O O9 0.554048 0.293922 0.632298
O O10 0.603204 0.435897 0.369321
O O11 0.323544 0.121103 0.740296
O O12 0.287858 0.176222 0.466266
O O13 0.345838 0.780936 0.820512
O O14 0.421703 0.682601 0.137921
O O15 0.807719 0.681321 0.868663
#
# Coordination Sequence:
#
# PCOD8029892 Si02
#       7
#     2   2   2   2   2   2   2
#     4  12  26  44  66 105 140 177 223 273 342 412
#     4  12  24  46  69 102 138 174 229 282 336 396
#     4  11  23  43  71  99 138 176 226 281 335 394
#     4  11  21  41  74 104 127 169 237 287 327 385
#     4  11  22  41  74 104 130 171 231 286 336 387
#     4  11  21  40  70 100 129 174 222 282 339 379
#     4  12  26  43  68 102 141 178 218 276 342 409
#
# _framework density 23.718672999999999
#
# number of rings (size 3 to 8) (size 9 to 14) (size 15 to 20)
#    0.000    0.571    7.143    1.286    2.000    3.429 
#    2.571    0.714    0.000    0.000    0.000    0.000 
#    0.000    0.000    0.000    0.000    0.000    0.000 
#
# Total GULP energy -173452.045552 kJ/mol
# GULP energy per Si atom -12389.431825 kJ/mol
# Density = 2.366469 g / cm^3
# Si number density = 23.718673 Si / 1000 Ang^3
#
#
#
# Elastic Constant Matrix: (Units=GPa)
#
#
# Indices 1 2 3 4 5 6 
#
# 1 128.6237 16.2770 19.5469 6.9713 18.8177 4.7717
# 2 16.2770 63.2657 10.5312 -2.4804 5.6145 15.1624
# 3 19.5469 10.5312 67.2405 5.3550 14.6448 3.8421
# 4 6.9713 -2.4804 5.3550 34.1827 -8.0009 0.6601
# 5 18.8177 5.6145 14.6448 -8.0009 38.0157 5.1963
# 6 4.7717 15.1624 3.8421 0.6601 5.1963 32.5135
#
#
#
# Elastic Compliance Matrix: (Units=1/GPa)
#
#
# Indices 1 2 3 4 5 6 
#
# 1 0.008971 -0.001956 -0.001153 -0.002823 -0.004368 0.000487
# 2 -0.001956 0.018712 -0.002236 0.002436 0.000719 -0.008339
# 3 -0.001153 -0.002236 0.017336 -0.004220 -0.006709 0.000321
# 4 -0.002823 0.002436 -0.004220 0.033047 0.009958 -0.002486
# 5 -0.004368 0.000719 -0.006709 0.009958 0.033654 -0.004482
# 6 0.000487 -0.008339 0.000321 -0.002486 -0.004482 0.035303
#
#
# Mechanical properties :
#
#
# Convention : Reuss Voigt Hill
#
# Bulk Modulus (GPa) = 29.12966 39.09335 34.11151
# Shear Modulus (GPa) = 29.55824 35.12739 32.34282
#
# Velocity S-wave (km/s) = 3.53399 3.85255 3.69670
# Velocity P-wave (km/s) = 5.38146 6.02557 5.71260
#
# Compressibility (1/GPa) = 0.03432927
#
# Stress axis : x y z
#
# Youngs Moduli (GPa) = 111.46507 53.44123 57.68191
#
# Poissons Ratio (x) = 0.10453 0.06652
# Poissons Ratio (y) = 0.21802 0.12898
# Poissons Ratio (z) = 0.12855 0.11950
#
# Static dielectric constant tensor:
#      x y z
#    x 4.492610 0.077660 0.120450 
#    y 0.077660 3.848730 -0.027360 
#    z 0.120450 -0.027360 4.490970 
# 
# 
# High freq. dielectric constant tensor:
#      x y z
#    x 1.935590 0.003750 0.018820 
#    y 0.003750 1.899760 0.000270 
#    z 0.018820 0.000270 1.956260 
# 
# From -- ./inp_files/306565.got.cif
#   From: 2010.06.25/outbox.cif.g09.slc.cpg/sg2_154_cif.got.tgz:306565.got - 2010.06.27 13:26:56.
