data_PCOD8029575
_publ_section_title
;
Structure prediction by ZEFSAII (Michael W. Deem and Ramdas Pophale) SiO2 
 PCOD8029575
Probable space group: P -1
;
_chemical_formula_sum "Si O2"
_cell_formula_units_Z 16
_cell_length_a 13.503934
_cell_length_b 14.628082
_cell_length_c 11.535748
_cell_angle_alpha 135.786768
_cell_angle_beta 32.147560
_cell_angle_gamma 126.282894
_cell_volume 844.826507
_symmetry_space_group_name_H-M "P -1"
_symmetry_group_IT_number 2
_symmetry_cell_setting 'triclinic'
loop_
_space_group_symop_operation_xyz
x,y,z
-x,-y,-z
loop_
_atom_site_type_symbol
_atom_site_label
_atom_site_fract_x
_atom_site_fract_y
_atom_site_fract_z
Si Si1 0.946463 0.766766 0.036228
Si Si2 0.026945 0.506709 0.163061
Si Si3 0.840952 0.174477 0.895291
Si Si4 0.999842 0.803703 0.489238
Si Si5 0.662994 0.957923 0.020115
Si Si6 0.816722 0.075305 0.203191
Si Si7 0.273106 0.971428 0.510365
Si Si8 0.711146 0.454988 0.267087
O O1 0.910159 0.610988 0.916739
O O2 0.113978 0.790820 0.801381
O O3 0.770992 0.870733 0.285689
O O4 0.005189 0.790180 0.131508
O O5 0.810197 0.496093 0.327455
O O6 0.054931 0.651015 0.320182
O O7 0.165153 0.481628 0.896437
O O8 0.950352 0.142959 0.638929
O O9 0.714223 0.059916 0.961882
O O10 0.703606 0.298949 0.121817
O O11 0.777637 0.823715 0.750996
O O12 0.093876 0.901142 0.574592
O O13 0.708799 0.999614 0.143033
O O14 0.441351 0.940381 0.225639
O O15 0.683190 0.093537 0.464876
O O16 0.000000 0.000000 0.000000
O O17 0.500000 0.500000 0.500000
#
# Coordination Sequence:
#
# PCOD8029575 Si02
#       8
#     2   2   2   2   2   2   2   2
#     4   9  18  37  59  78 104 144 187 220 262 317
#     4   9  20  35  53  77 108 148 176 216 271 316
#     4   9  19  35  52  80 113 143 176 221 264 314
#     4  11  21  37  51  79 123 141 171 219 275 324
#     4  11  21  34  58  82 105 143 180 226 266 318
#     4   9  17  38  60  78 103 136 183 236 264 306
#     4  11  22  34  59  82 104 142 184 226 270 314
#     4   9  18  33  54  75 107 146 185 220 253 316
#
# _framework density 18.938797999999998
#
# number of rings (size 3 to 8) (size 9 to 14) (size 15 to 20)
#    0.000    2.250    3.750    1.500    1.750    2.500 
#    0.000    0.625    0.000    0.750    0.000    0.000 
#    0.000    0.000    0.000    0.000    0.000    0.000 
#
# Total GULP energy -198219.793136 kJ/mol
# GULP energy per Si atom -12388.737071 kJ/mol
# Density = 1.889569 g / cm^3
# Si number density = 18.938798 Si / 1000 Ang^3
#
#
#
# Elastic Constant Matrix: (Units=GPa)
#
#
# Indices 1 2 3 4 5 6 
#
# 1 50.9177 21.6619 23.5732 -3.5482 0.5833 -14.2956
# 2 21.6619 103.6114 46.3790 9.7269 4.4090 -17.8996
# 3 23.5732 46.3790 108.7971 -11.8888 -7.0901 -9.3621
# 4 -3.5482 9.7269 -11.8888 27.8862 -0.6929 -1.8605
# 5 0.5833 4.4090 -7.0901 -0.6929 29.5183 -10.2281
# 6 -14.2956 -17.8996 -9.3621 -1.8605 -10.2281 25.1520
#
#
#
# Elastic Compliance Matrix: (Units=1/GPa)
#
#
# Indices 1 2 3 4 5 6 
#
# 1 0.026106 -0.002350 -0.002725 0.004027 0.004177 0.014148
# 2 -0.002350 0.014700 -0.006269 -0.007786 -0.001960 0.005419
# 3 -0.002725 -0.006269 0.013815 0.007978 0.005121 0.001804
# 4 0.004027 -0.007786 0.007978 0.042986 0.005834 0.005270
# 5 0.004177 -0.001960 0.005121 0.005834 0.042607 0.020643
# 6 0.014148 0.005419 0.001804 0.005270 0.020643 0.061112
#
#
# Mechanical properties :
#
#
# Convention : Reuss Voigt Hill
#
# Bulk Modulus (GPa) = 31.31651 49.61714 40.46682
# Shear Modulus (GPa) = 21.30762 27.95879 24.63321
#
# Velocity S-wave (km/s) = 3.35786 3.84640 3.61040
# Velocity P-wave (km/s) = 5.62184 6.78099 6.22844
#
# Compressibility (1/GPa) = 0.03193204
#
# Stress axis : x y z
#
# Youngs Moduli (GPa) = 38.30590 68.02914 72.38423
#
# Poissons Ratio (x) = 0.15986 0.19724
# Poissons Ratio (y) = 0.09001 0.45381
# Poissons Ratio (z) = 0.10438 0.42650
#
# Static dielectric constant tensor:
#      x y z
#    x 3.434120 -0.287150 0.112460 
#    y -0.287150 3.808600 -0.116530 
#    z 0.112460 -0.116530 3.491800 
# 
# 
# High freq. dielectric constant tensor:
#      x y z
#    x 1.715090 -0.016860 -0.000850 
#    y -0.016860 1.734190 -0.006950 
#    z -0.000850 -0.006950 1.724430 
# 
# From -- ./inp_files/455030.got.cif
#   From: 2010.06.25/outbox.cif.g09.slc.cpg/sg2_228_cif.got.tgz:455030.got - 2010.06.27 13:26:56.
