data_PCOD8029414
_publ_section_title
;
Structure prediction by ZEFSAII (Michael W. Deem and Ramdas Pophale) SiO2 
 PCOD8029414
Probable space group: P -1
;
_chemical_formula_sum "Si O2"
_cell_formula_units_Z 16
_cell_length_a 8.935984
_cell_length_b 17.732499
_cell_length_c 8.939172
_cell_angle_alpha 139.340277
_cell_angle_beta 101.177929
_cell_angle_gamma 58.969980
_cell_volume 739.888245
_symmetry_space_group_name_H-M "P -1"
_symmetry_group_IT_number 2
_symmetry_cell_setting 'triclinic'
loop_
_space_group_symop_operation_xyz
x,y,z
-x,-y,-z
loop_
_atom_site_type_symbol
_atom_site_label
_atom_site_fract_x
_atom_site_fract_y
_atom_site_fract_z
Si Si1 0.055264 0.021637 0.381933
Si Si2 0.377043 0.140463 0.096517
Si Si3 0.990442 0.834673 0.905476
Si Si4 0.845396 0.278858 0.543818
Si Si5 0.639086 0.421017 0.270773
Si Si6 0.489339 0.880028 0.240952
Si Si7 0.372765 0.396771 0.990489
Si Si8 0.557396 0.656057 0.422985
O O1 0.957602 0.189487 0.580937
O O2 0.278114 0.927929 0.279939
O O3 0.000000 0.000000 0.500000
O O4 0.964661 0.977821 0.170945
O O5 0.381892 0.246082 0.365519
O O6 0.174748 0.174788 0.084402
O O7 0.460224 0.135716 0.945853
O O8 0.500000 0.000000 0.000000
O O9 0.011957 0.815600 0.703301
O O10 0.172915 0.712098 0.836326
O O11 0.655833 0.288138 0.502784
O O12 0.801563 0.437221 0.769142
O O13 0.500000 0.500000 0.500000
O O14 0.688034 0.517638 0.340752
O O15 0.557432 0.371298 0.056261
O O16 0.636894 0.726307 0.118544
O O17 0.500000 0.000000 0.500000
O O18 0.397683 0.372547 0.784144
#
# Coordination Sequence:
#
# PCOD8029414 Si02
#       8
#     2   2   2   2   2   2   2   2
#     4  12  25  42  70 102 133 172 231 281 329 406
#     4  12  26  45  66  96 138 182 223 276 342 403
#     4  12  24  42  70  99 133 176 231 272 338 402
#     4  11  23  42  69 100 131 176 228 277 331 401
#     4  11  20  41  70 102 131 172 224 285 333 402
#     4  12  25  47  69  96 138 178 221 281 345 402
#     4  11  23  43  71  99 132 176 225 275 345 398
#     4  11  23  41  69  96 139 175 220 276 344 396
#
# _framework density 21.624887999999999
#
# number of rings (size 3 to 8) (size 9 to 14) (size 15 to 20)
#    0.000    0.500    3.750    7.125    1.750    0.500 
#    0.000    1.250    0.000    0.000    0.000    0.000 
#    0.000    0.000    0.000    0.000    0.000    0.000 
#
# Total GULP energy -198340.562159 kJ/mol
# GULP energy per Si atom -12396.285135 kJ/mol
# Density = 2.157567 g / cm^3
# Si number density = 21.624888 Si / 1000 Ang^3
#
#
#
# Elastic Constant Matrix: (Units=GPa)
#
#
# Indices 1 2 3 4 5 6 
#
# 1 87.4945 18.6384 48.8139 -7.8896 -2.1562 13.5799
# 2 18.6384 161.6045 56.8357 10.3562 -3.1759 32.1518
# 3 48.8139 56.8357 135.2339 -9.2251 15.2596 13.6115
# 4 -7.8896 10.3562 -9.2251 50.6889 7.5780 -1.0278
# 5 -2.1562 -3.1759 15.2596 7.5780 41.7053 -0.9209
# 6 13.5799 32.1518 13.6115 -1.0278 -0.9209 35.5947
#
#
#
# Elastic Compliance Matrix: (Units=1/GPa)
#
#
# Indices 1 2 3 4 5 6 
#
# 1 0.015262 0.001233 -0.005844 0.000545 0.002820 -0.004613
# 2 0.001233 0.009147 -0.004063 -0.002955 0.002625 -0.007197
# 3 -0.005844 -0.004063 0.011898 0.002930 -0.005469 0.001293
# 4 0.000545 -0.002955 0.002930 0.021762 -0.005183 0.001835
# 5 0.002820 0.002625 -0.005469 -0.005183 0.027249 -0.000800
# 6 -0.004613 -0.007197 0.001293 0.001835 -0.000800 0.035893
#
#
# Mechanical properties :
#
#
# Convention : Reuss Voigt Hill
#
# Bulk Modulus (GPa) = 52.74160 70.32321 61.53240
# Shear Modulus (GPa) = 34.51182 42.93411 38.72296
#
# Velocity S-wave (km/s) = 3.99924 4.46062 4.23622
# Velocity P-wave (km/s) = 6.76517 7.68893 7.24180
#
# Compressibility (1/GPa) = 0.01896037
#
# Stress axis : x y z
#
# Youngs Moduli (GPa) = 65.52407 109.32018 84.04423
#
# Poissons Ratio (x) = -0.13484 0.49115
# Poissons Ratio (y) = -0.08082 0.34148
# Poissons Ratio (z) = 0.38292 0.44418
#
# Static dielectric constant tensor:
#      x y z
#    x 3.675180 0.138720 0.041000 
#    y 0.138720 4.486080 0.241120 
#    z 0.041000 0.241120 3.933650 
# 
# 
# High freq. dielectric constant tensor:
#      x y z
#    x 1.830560 0.012310 0.003650 
#    y 0.012310 1.878460 0.002870 
#    z 0.003650 0.002870 1.862240 
# 
# From -- ./inp_files/218922.got.cif
#   From: 2010.06.25/outbox.cif.g09.slc.cpg/sg2_110_cif.got.tgz:218922.got - 2010.06.27 13:26:56.
