data_PCOD8029129
_publ_section_title
;
Structure prediction by ZEFSAII (Michael W. Deem and Ramdas Pophale) SiO2 
 PCOD8029129
Probable space group: P -1
;
_chemical_formula_sum "Si O2"
_cell_formula_units_Z 16
_cell_length_a 13.864667
_cell_length_b 15.553792
_cell_length_c 9.111320
_cell_angle_alpha 46.257853
_cell_angle_beta 76.577065
_cell_angle_gamma 41.001071
_cell_volume 737.150493
_symmetry_space_group_name_H-M "P -1"
_symmetry_group_IT_number 2
_symmetry_cell_setting 'triclinic'
loop_
_space_group_symop_operation_xyz
x,y,z
-x,-y,-z
loop_
_atom_site_type_symbol
_atom_site_label
_atom_site_fract_x
_atom_site_fract_y
_atom_site_fract_z
Si Si1 0.505284 0.713772 0.649118
Si Si2 0.252976 0.591301 0.809912
Si Si3 0.261555 0.780521 0.347543
Si Si4 0.353932 0.500252 0.440437
Si Si5 0.992247 0.479211 0.855077
Si Si6 0.294446 0.352732 0.844680
Si Si7 0.911336 0.890953 0.761716
Si Si8 0.579209 0.908084 0.418988
O O1 0.640428 0.509370 0.726188
O O2 0.526741 0.831221 0.470193
O O3 0.291255 0.893016 0.496376
O O4 0.572510 0.608040 0.910127
O O5 0.306672 0.649333 0.624970
O O6 0.222808 0.504073 0.827287
O O7 0.061420 0.808809 0.707852
O O8 0.212089 0.745857 0.265360
O O9 0.440824 0.675777 0.363891
O O10 0.098960 0.035626 0.158751
O O11 0.307428 0.417207 0.617186
O O12 0.146725 0.398894 0.811762
O O13 0.796943 0.713159 0.577912
O O14 0.024900 0.308596 0.008525
O O15 0.000000 0.500000 0.000000
O O16 0.492126 0.093324 0.121188
O O17 0.500000 0.000000 0.500000
#
# Coordination Sequence:
#
# PCOD8029129 Si02
#       8
#     2   2   2   2   2   2   2   2
#     4  11  21  37  63  89 122 155 199 245 298 349
#     4  11  21  37  65  93 117 150 205 253 291 344
#     4   9  21  42  62  84 119 162 202 246 293 349
#     4   9  22  42  60  84 122 164 200 238 296 362
#     4  12  20  35  60  93 125 148 194 249 299 352
#     4  11  22  38  62  89 124 161 191 239 305 356
#     4  11  20  35  61  92 120 151 193 251 303 342
#     4  12  20  35  60  92 122 154 190 249 294 351
#
# _framework density 21.705202
#
# number of rings (size 3 to 8) (size 9 to 14) (size 15 to 20)
#    0.000    1.250    6.250    0.375    0.000    2.500 
#    0.000    3.750    0.000    4.500    0.000    0.000 
#    0.000    0.000    0.000    0.000    0.000    0.000 
#
# Total GULP energy -198363.864334 kJ/mol
# GULP energy per Si atom -12397.741521 kJ/mol
# Density = 2.165580 g / cm^3
# Si number density = 21.705202 Si / 1000 Ang^3
#
#
#
# Elastic Constant Matrix: (Units=GPa)
#
#
# Indices 1 2 3 4 5 6 
#
# 1 69.2312 19.8776 19.1996 -8.2348 -10.2411 -10.8718
# 2 19.8776 95.2271 17.9363 -18.2091 -4.7799 4.9075
# 3 19.1996 17.9363 51.7689 -20.2667 -0.8065 -9.4135
# 4 -8.2348 -18.2091 -20.2667 30.6691 -3.0586 -4.4834
# 5 -10.2411 -4.7799 -0.8065 -3.0586 35.1563 -9.4124
# 6 -10.8718 4.9075 -9.4135 -4.4834 -9.4124 44.9855
#
#
#
# Elastic Compliance Matrix: (Units=1/GPa)
#
#
# Indices 1 2 3 4 5 6 
#
# 1 0.018393 -0.002623 -0.003928 0.002247 0.006582 0.005510
# 2 -0.002623 0.012528 -0.001404 0.005683 0.000994 -0.001520
# 3 -0.003928 -0.001404 0.030596 0.019871 0.003312 0.008280
# 4 0.002247 0.005683 0.019871 0.052306 0.009452 0.011272
# 5 0.006582 0.000994 0.003312 0.009452 0.034142 0.010261
# 6 0.005510 -0.001520 0.008280 0.011272 0.010261 0.028730
#
#
# Mechanical properties :
#
#
# Convention : Reuss Voigt Hill
#
# Bulk Modulus (GPa) = 21.92647 36.69492 29.31070
# Shear Modulus (GPa) = 24.06062 32.77643 28.41852
#
# Velocity S-wave (km/s) = 3.33305 3.89018 3.62234
# Velocity P-wave (km/s) = 4.99362 6.09268 5.57032
#
# Compressibility (1/GPa) = 0.04560698
#
# Stress axis : x y z
#
# Youngs Moduli (GPa) = 54.36759 79.81982 32.68379
#
# Poissons Ratio (x) = 0.20940 0.12839
# Poissons Ratio (y) = 0.14263 0.04587
# Poissons Ratio (z) = 0.21358 0.11203
#
# Static dielectric constant tensor:
#      x y z
#    x 4.184990 0.221960 -0.168060 
#    y 0.221960 4.243640 -0.300710 
#    z -0.168060 -0.300710 3.588190 
# 
# 
# High freq. dielectric constant tensor:
#      x y z
#    x 1.866510 0.007850 -0.013350 
#    y 0.007850 1.860040 -0.017110 
#    z -0.013350 -0.017110 1.820890 
# 
# From -- ./inp_files/314652.got.cif
#   From: 2010.06.25/outbox.cif.g09.slc.cpg/sg2_158_cif.got.tgz:314652.got - 2010.06.27 13:26:56.
