data_PCOD8029781
_publ_section_title
;
Structure prediction by ZEFSAII (Michael W. Deem and Ramdas Pophale) SiO2 
 PCOD8029781
Probable space group: P -1
;
_chemical_formula_sum "Si O2"
_cell_formula_units_Z 16
_cell_length_a 18.248331
_cell_length_b 11.807575
_cell_length_c 13.950977
_cell_angle_alpha 137.063575
_cell_angle_beta 148.711444
_cell_angle_gamma 28.216537
_cell_volume 735.445101
_symmetry_space_group_name_H-M "P -1"
_symmetry_group_IT_number 2
_symmetry_cell_setting 'triclinic'
loop_
_space_group_symop_operation_xyz
x,y,z
-x,-y,-z
loop_
_atom_site_type_symbol
_atom_site_label
_atom_site_fract_x
_atom_site_fract_y
_atom_site_fract_z
Si Si1 0.115595 0.655166 0.467522
Si Si2 0.615619 0.428941 0.435912
Si Si3 0.396822 0.328094 0.030892
Si Si4 0.177078 0.997615 0.479918
Si Si5 0.465578 0.151801 0.307277
Si Si6 0.764864 0.786761 0.069885
Si Si7 0.652885 0.823351 0.477990
Si Si8 0.981267 0.349810 0.320627
O O1 0.231831 0.695712 0.562021
O O2 0.271421 0.426701 0.570233
O O3 0.936666 0.879453 0.471378
O O4 0.002499 0.634052 0.249820
O O5 0.720458 0.270940 0.554075
O O6 0.536463 0.681108 0.526066
O O7 0.432782 0.464104 0.218729
O O8 0.244203 0.493422 0.873945
O O9 0.612976 0.075257 0.077475
O O10 0.282247 0.290269 0.941963
O O11 0.359899 0.977049 0.659885
O O12 0.033805 0.141377 0.315522
O O13 0.256900 0.290265 0.104087
O O14 0.523859 0.945049 0.310818
O O15 0.852125 0.774043 0.656134
O O16 0.500000 0.000000 0.500000
O O17 0.000000 0.500000 0.500000
#
# Coordination Sequence:
#
# PCOD8029781 Si02
#       8
#     2   2   2   2   2   2   2   2
#     4  12  23  43  69  97 133 178 217 273 331 394
#     4  12  25  43  65  98 143 169 210 278 348 375
#     4  11  22  40  67 100 129 172 224 269 321 397
#     4  11  22  40  67  94 128 172 220 265 328 392
#     4  11  24  41  70  96 132 174 222 277 318 390
#     4  11  21  39  67  99 126 171 233 264 312 399
#     4  11  22  42  64  96 133 174 215 268 334 380
#     4  11  21  40  71  95 122 172 229 267 308 391
#
# _framework density 21.755531999999999
#
# number of rings (size 3 to 8) (size 9 to 14) (size 15 to 20)
#    0.000    0.750    6.250    3.000    0.000    0.500 
#    0.000    5.625    0.000    0.000    0.000    0.000 
#    0.000    0.000    0.000    0.000    0.000    0.000 
#
# Total GULP energy -198287.450237 kJ/mol
# GULP energy per Si atom -12392.965640 kJ/mol
# Density = 2.170602 g / cm^3
# Si number density = 21.755532 Si / 1000 Ang^3
#
#
#
# Elastic Constant Matrix: (Units=GPa)
#
#
# Indices 1 2 3 4 5 6 
#
# 1 96.2552 26.1707 10.0471 -20.6066 -9.6252 9.7658
# 2 26.1707 82.1898 48.6672 -18.0888 -7.6269 17.2225
# 3 10.0471 48.6672 103.4509 -13.2562 -7.8703 17.7921
# 4 -20.6066 -18.0888 -13.2562 32.3506 6.0711 -15.0563
# 5 -9.6252 -7.6269 -7.8703 6.0711 23.5176 -7.7405
# 6 9.7658 17.2225 17.7921 -15.0563 -7.7405 45.7261
#
#
#
# Elastic Compliance Matrix: (Units=1/GPa)
#
#
# Indices 1 2 3 4 5 6 
#
# 1 0.012786 -0.003203 0.001228 0.006594 0.003133 0.000699
# 2 -0.003203 0.019254 -0.007791 0.004525 0.000513 -0.001960
# 3 0.001228 -0.007791 0.013811 0.000760 0.001689 -0.002165
# 4 0.006594 0.004525 0.000760 0.043384 -0.003388 0.010303
# 5 0.003133 0.000513 0.001689 -0.003388 0.047171 0.005350
# 6 0.000699 -0.001960 -0.002165 0.010303 0.005350 0.027599
#
#
# Mechanical properties :
#
#
# Convention : Reuss Voigt Hill
#
# Bulk Modulus (GPa) = 37.99546 50.18512 44.09029
# Shear Modulus (GPa) = 25.99985 33.45294 29.72639
#
# Velocity S-wave (km/s) = 3.46076 3.92557 3.70047
# Velocity P-wave (km/s) = 5.78548 6.60792 6.21033
#
# Compressibility (1/GPa) = 0.02631893
#
# Stress axis : x y z
#
# Youngs Moduli (GPa) = 78.21226 51.93667 72.40796
#
# Poissons Ratio (x) = 0.16635 -0.08892
# Poissons Ratio (y) = 0.25051 0.56413
# Poissons Ratio (z) = -0.09605 0.40464
#
# Static dielectric constant tensor:
#      x y z
#    x 4.116070 0.143190 -0.147480 
#    y 0.143190 4.153580 -0.297510 
#    z -0.147480 -0.297510 3.793060 
# 
# 
# High freq. dielectric constant tensor:
#      x y z
#    x 1.860130 0.004790 -0.018510 
#    y 0.004790 1.856650 -0.026250 
#    z -0.018510 -0.026250 1.824340 
# 
# From -- ./inp_files/464827.got.cif
#   From: 2010.06.25/outbox.cif.g09.slc.cpg/sg2_233_cif.got.tgz:464827.got - 2010.06.27 13:26:56.
