data_PCOD8029077
_publ_section_title
;
Structure prediction by ZEFSAII (Michael W. Deem and Ramdas Pophale) SiO2 
 PCOD8029077
Probable space group: P -1
;
_chemical_formula_sum "Si O2"
_cell_formula_units_Z 16
_cell_length_a 20.832955
_cell_length_b 11.539766
_cell_length_c 9.390431
_cell_angle_alpha 68.478575
_cell_angle_beta 139.275975
_cell_angle_gamma 142.346138
_cell_volume 729.714469
_symmetry_space_group_name_H-M "P -1"
_symmetry_group_IT_number 2
_symmetry_cell_setting 'triclinic'
loop_
_space_group_symop_operation_xyz
x,y,z
-x,-y,-z
loop_
_atom_site_type_symbol
_atom_site_label
_atom_site_fract_x
_atom_site_fract_y
_atom_site_fract_z
Si Si1 0.412964 0.897809 0.246443
Si Si2 0.694980 0.472420 0.899834
Si Si3 0.676162 0.184717 0.315694
Si Si4 0.375894 0.478783 0.742047
Si Si5 0.718840 0.986986 0.094529
Si Si6 0.325966 0.081203 0.619458
Si Si7 0.881037 0.652743 0.406631
Si Si8 0.210460 0.218847 0.291427
O O1 0.308696 0.655596 0.146722
O O2 0.500000 0.000000 0.500000
O O3 0.599629 0.120288 0.372877
O O4 0.264511 0.847742 0.983642
O O5 0.538477 0.293380 0.837258
O O6 0.676320 0.573108 0.722297
O O7 0.873144 0.677527 0.211886
O O8 0.823963 0.447775 0.412723
O O9 0.778539 0.159642 0.487604
O O10 0.500000 0.000000 0.000000
O O11 0.241252 0.389434 0.678889
O O12 0.245378 0.297226 0.476319
O O13 0.500000 0.500000 0.000000
O O14 0.526338 0.736056 0.811861
O O15 0.901691 0.110524 0.290013
O O16 0.687556 0.914625 0.237887
O O17 0.255713 0.122041 0.391039
O O18 0.000000 0.000000 0.000000
#
# Coordination Sequence:
#
# PCOD8029077 Si02
#       8
#     2   2   2   2   2   2   2   2
#     4  11  22  41  68 100 142 185 227 286 368 409
#     4  11  22  42  71 101 141 189 233 291 350 423
#     4  11  19  43  73  97 138 179 234 291 337 423
#     4  12  25  49  71  98 145 185 232 293 344 424
#     4  12  23  43  73 102 137 182 238 293 349 414
#     4  11  21  44  69 102 136 192 234 280 354 413
#     4  12  24  43  75 110 132 185 247 286 351 424
#     4  12  27  46  67 103 146 186 232 296 352 420
#
# _framework density 21.926383999999999
#
# number of rings (size 3 to 8) (size 9 to 14) (size 15 to 20)
#    0.000    0.500    7.500    1.875    0.000    3.500 
#    9.000    0.625    0.000    0.000    0.000    0.000 
#    0.000    0.000    0.000    0.000    0.000    0.000 
#
# Total GULP energy -198279.286766 kJ/mol
# GULP energy per Si atom -12392.455423 kJ/mol
# Density = 2.187648 g / cm^3
# Si number density = 21.926384 Si / 1000 Ang^3
#
#
#
# Elastic Constant Matrix: (Units=GPa)
#
#
# Indices 1 2 3 4 5 6 
#
# 1 121.5833 48.8171 63.3978 -1.9056 3.2431 -10.4695
# 2 48.8171 103.1186 48.2129 -29.2406 7.8563 -12.6062
# 3 63.3978 48.2129 118.6164 -1.7749 -2.6410 -9.3092
# 4 -1.9056 -29.2406 -1.7749 42.2765 0.9584 6.8557
# 5 3.2431 7.8563 -2.6410 0.9584 39.2544 -12.2806
# 6 -10.4695 -12.6062 -9.3092 6.8557 -12.2806 32.7055
#
#
#
# Elastic Compliance Matrix: (Units=1/GPa)
#
#
# Indices 1 2 3 4 5 6 
#
# 1 0.012597 -0.004293 -0.004903 -0.002869 0.000061 0.001606
# 2 -0.004293 0.017621 -0.004759 0.011849 -0.003725 0.000181
# 3 -0.004903 -0.004759 0.013174 -0.003382 0.003010 0.002185
# 4 -0.002869 0.011849 -0.003382 0.032676 -0.005056 -0.006062
# 5 0.000061 -0.003725 0.003010 -0.005056 0.030251 0.011860
# 6 0.001606 0.000181 0.002185 -0.006062 0.011860 0.037505
#
#
# Mechanical properties :
#
#
# Convention : Reuss Voigt Hill
#
# Bulk Modulus (GPa) = 64.59711 73.79710 69.19711
# Shear Modulus (GPa) = 28.26533 35.04000 31.65267
#
# Velocity S-wave (km/s) = 3.59430 4.00193 3.80358
# Velocity P-wave (km/s) = 6.83741 7.42184 7.13561
#
# Compressibility (1/GPa) = 0.01548057
#
# Stress axis : x y z
#
# Youngs Moduli (GPa) = 79.38425 56.75098 75.90904
#
# Poissons Ratio (x) = 0.24361 0.37222
# Poissons Ratio (y) = 0.34077 0.36127
# Poissons Ratio (z) = 0.38926 0.27009
#
# Static dielectric constant tensor:
#      x y z
#    x 3.700890 0.360210 -0.416260 
#    y 0.360210 2.703100 0.962740 
#    z -0.416260 0.962740 3.310140 
# 
# 
# High freq. dielectric constant tensor:
#      x y z
#    x 1.858480 -0.011300 0.003220 
#    y -0.011300 1.877730 -0.012370 
#    z 0.003220 -0.012370 1.848980 
# 
# From -- ./inp_files/346104.got.cif
#   From: 2010.06.25/outbox.cif.g09.slc.cpg/sg2_174_cif.got.tgz:346104.got - 2010.06.27 13:26:56.
