data_PCOD8029214
_publ_section_title
;
Structure prediction by ZEFSAII (Michael W. Deem and Ramdas Pophale) SiO2 
 PCOD8029214
Probable space group: P -1
;
_chemical_formula_sum "Si O2"
_cell_formula_units_Z 14
_cell_length_a 9.743753
_cell_length_b 15.131151
_cell_length_c 18.003819
_cell_angle_alpha 22.486421
_cell_angle_beta 41.565448
_cell_angle_gamma 45.879695
_cell_volume 673.440346
_symmetry_space_group_name_H-M "P -1"
_symmetry_group_IT_number 2
_symmetry_cell_setting 'triclinic'
loop_
_space_group_symop_operation_xyz
x,y,z
-x,-y,-z
loop_
_atom_site_type_symbol
_atom_site_label
_atom_site_fract_x
_atom_site_fract_y
_atom_site_fract_z
Si Si1 0.545781 0.222555 0.971704
Si Si2 0.863727 0.920701 0.547462
Si Si3 0.774930 0.611545 0.493048
Si Si4 0.938279 0.392149 0.903912
Si Si5 0.072860 0.278910 0.096025
Si Si6 0.158358 0.163986 0.852706
Si Si7 0.391194 0.896127 0.795173
O O1 0.605545 0.451041 0.724518
O O2 0.301033 0.198710 0.089603
O O3 0.621544 0.224658 0.024894
O O4 0.655773 0.997741 0.064078
O O5 0.917803 0.664649 0.699110
O O6 0.623939 0.954122 0.636433
O O7 0.000000 0.000000 0.500000
O O8 0.914448 0.077535 0.334658
O O9 0.745073 0.644348 0.390822
O O10 0.000000 0.500000 0.500000
O O11 0.747820 0.868902 0.337877
O O12 0.053216 0.301043 0.855343
O O13 0.708911 0.283004 0.083277
O O14 0.070538 0.321442 0.976680
O O15 0.000000 0.500000 0.000000
O O16 0.000000 0.000000 0.000000
#
# Coordination Sequence:
#
# PCOD8029214 Si02
#       7
#     2   2   2   2   2   2   2
#     4  11  22  41  71  96 140 181 217 275 343 395
#     4  12  25  45  71  94 140 184 221 277 344 392
#     4  11  20  37  72  99 134 174 220 270 345 386
#     4  12  25  43  71 101 137 174 229 281 330 402
#     4  12  26  45  67  99 138 178 228 279 333 403
#     4  11  22  44  65 101 140 170 221 284 330 399
#     4  11  23  43  70 103 134 176 229 279 331 400
#
# _framework density 20.788775000000001
#
# number of rings (size 3 to 8) (size 9 to 14) (size 15 to 20)
#    0.000    0.571    7.143    1.286    0.000    4.571 
#    0.000    1.429    0.000    0.000    0.000    0.000 
#    0.000    0.000    0.000    0.000    0.000    0.000 
#
# Total GULP energy -173580.539683 kJ/mol
# GULP energy per Si atom -12398.609977 kJ/mol
# Density = 2.074146 g / cm^3
# Si number density = 20.788775 Si / 1000 Ang^3
#
#
#
# Elastic Constant Matrix: (Units=GPa)
#
#
# Indices 1 2 3 4 5 6 
#
# 1 89.7652 55.5168 45.0003 -18.7717 -2.1554 -6.2389
# 2 55.5168 141.1745 63.1631 -17.9299 -7.5586 -6.8093
# 3 45.0003 63.1631 164.6562 -2.2906 9.0171 1.9292
# 4 -18.7717 -17.9299 -2.2906 41.4425 1.1809 0.3809
# 5 -2.1554 -7.5586 9.0171 1.1809 34.5913 2.4167
# 6 -6.2389 -6.8093 1.9292 0.3809 2.4167 37.3174
#
#
#
# Elastic Compliance Matrix: (Units=1/GPa)
#
#
# Indices 1 2 3 4 5 6 
#
# 1 0.016580 -0.004464 -0.002793 0.005393 0.000461 0.002017
# 2 -0.004464 0.010680 -0.003005 0.002346 0.002678 0.001161
# 3 -0.002793 -0.003005 0.008128 -0.002025 -0.002794 -0.001234
# 4 0.005393 0.002346 -0.002025 0.027455 0.000360 0.001131
# 5 0.000461 0.002678 -0.002794 0.000360 0.030327 -0.001258
# 6 0.002017 0.001161 -0.001234 0.001131 -0.001258 0.027480
#
#
# Mechanical properties :
#
#
# Convention : Reuss Voigt Hill
#
# Bulk Modulus (GPa) = 67.26615 80.32846 73.79731
# Shear Modulus (GPa) = 34.21657 38.13128 36.17393
#
# Velocity S-wave (km/s) = 4.06139 4.28743 4.17594
# Velocity P-wave (km/s) = 7.37702 7.95196 7.66988
#
# Compressibility (1/GPa) = 0.01486632
#
# Stress axis : x y z
#
# Youngs Moduli (GPa) = 60.31429 93.62931 123.02408
#
# Poissons Ratio (x) = 0.41792 0.34358
# Poissons Ratio (y) = 0.26922 0.36966
# Poissons Ratio (z) = 0.16845 0.28134
#
# Static dielectric constant tensor:
#      x y z
#    x 3.750380 -0.084420 0.111180 
#    y -0.084420 4.004460 0.092350 
#    z 0.111180 0.092350 4.162600 
# 
# 
# High freq. dielectric constant tensor:
#      x y z
#    x 1.797330 -0.014590 0.013820 
#    y -0.014590 1.829240 0.003700 
#    z 0.013820 0.003700 1.828950 
# 
# From -- ./inp_files/561297.got.cif
#   From: 2010.06.25/outbox.cif.g09.slc.cpg/sg2_281_cif.got.tgz:561297.got - 2010.06.27 13:26:56.
