data_PCOD8029653
_publ_section_title
;
Structure prediction by ZEFSAII (Michael W. Deem and Ramdas Pophale) SiO2 
 PCOD8029653
Probable space group: P -1
;
_chemical_formula_sum "Si O2"
_cell_formula_units_Z 14
_cell_length_a 13.021562
_cell_length_b 23.020929
_cell_length_c 15.570292
_cell_angle_alpha 18.819232
_cell_angle_beta 28.046394
_cell_angle_gamma 28.148231
_cell_volume 674.080977
_symmetry_space_group_name_H-M "P -1"
_symmetry_group_IT_number 2
_symmetry_cell_setting 'triclinic'
loop_
_space_group_symop_operation_xyz
x,y,z
-x,-y,-z
loop_
_atom_site_type_symbol
_atom_site_label
_atom_site_fract_x
_atom_site_fract_y
_atom_site_fract_z
Si Si1 0.799754 0.916964 0.238463
Si Si2 0.729291 0.251609 0.349023
Si Si3 0.645323 0.945177 0.124189
Si Si4 0.867811 0.596031 0.764795
Si Si5 0.974710 0.984620 0.683268
Si Si6 0.346650 0.362259 0.803271
Si Si7 0.300015 0.169890 0.273832
O O1 0.794632 0.902321 0.160098
O O2 0.846463 0.708159 0.534708
O O3 0.563961 0.055791 0.255676
O O4 0.000000 0.000000 0.000000
O O5 0.497640 0.202773 0.568951
O O6 0.916970 0.173785 0.245268
O O7 0.828177 0.174079 0.477673
O O8 0.684910 0.477683 0.066779
O O9 0.810522 0.910033 0.969809
O O10 0.477630 0.159989 0.947596
O O11 0.819669 0.744489 0.669888
O O12 0.123786 0.453196 0.783268
O O13 0.174689 0.023664 0.536694
O O14 0.500000 0.500000 0.500000
O O15 0.276320 0.335809 0.989906
#
# Coordination Sequence:
#
# PCOD8029653 Si02
#       7
#     2   2   2   2   2   2   2
#     4  11  24  46  65  95 134 175 221 271 329 394
#     4  11  23  42  65 103 135 166 222 273 326 394
#     4  11  24  44  68  94 138 182 210 267 338 389
#     4  12  24  39  68  99 134 169 221 277 322 389
#     4  11  21  44  71  94 133 176 217 266 338 384
#     4  11  21  37  65 100 131 164 224 280 313 378
#     4  11  22  43  67  95 130 173 220 271 336 381
#
# _framework density 20.769019
#
# number of rings (size 3 to 8) (size 9 to 14) (size 15 to 20)
#    0.000    0.857    4.286    5.571    2.000    0.571 
#    2.571    0.714    0.000    0.000    0.000    0.000 
#    0.000    0.000    0.000    0.000    0.000    0.000 
#
# Total GULP energy -173678.975093 kJ/mol
# GULP energy per Si atom -12405.641078 kJ/mol
# Density = 2.072175 g / cm^3
# Si number density = 20.769019 Si / 1000 Ang^3
#
#
#
# Elastic Constant Matrix: (Units=GPa)
#
#
# Indices 1 2 3 4 5 6 
#
# 1 119.6663 52.4110 54.5291 5.5775 3.7880 -12.6058
# 2 52.4110 58.2888 31.3552 20.8337 11.7157 -9.4539
# 3 54.5291 31.3552 137.5842 10.6727 -2.9529 -14.1450
# 4 5.5775 20.8337 10.6727 34.0053 -2.2647 4.4630
# 5 3.7880 11.7157 -2.9529 -2.2647 49.8669 7.0090
# 6 -12.6058 -9.4539 -14.1450 4.4630 7.0090 36.0206
#
#
#
# Elastic Compliance Matrix: (Units=1/GPa)
#
#
# Indices 1 2 3 4 5 6 
#
# 1 0.017066 -0.017955 -0.003568 0.009816 0.003441 -0.002027
# 2 -0.017955 0.048836 -0.000749 -0.029253 -0.013231 0.012439
# 3 -0.003568 -0.000749 0.009273 -0.002136 0.000569 0.002350
# 4 0.009816 -0.029253 -0.002136 0.048776 0.010054 -0.013081
# 5 0.003441 -0.013231 0.000569 0.010054 0.024524 -0.008062
# 6 -0.002027 0.012439 0.002350 -0.013081 -0.008062 0.034430
#
#
# Mechanical properties :
#
#
# Convention : Reuss Voigt Hill
#
# Bulk Modulus (GPa) = 32.64749 65.79223 49.21986
# Shear Modulus (GPa) = 21.03849 35.79484 28.41666
#
# Velocity S-wave (km/s) = 3.18618 4.15598 3.70296
# Velocity P-wave (km/s) = 5.41194 7.40111 6.48327
#
# Compressibility (1/GPa) = 0.03063022
#
# Stress axis : x y z
#
# Youngs Moduli (GPa) = 58.59502 20.47674 107.84314
#
# Poissons Ratio (x) = 0.36766 0.38479
# Poissons Ratio (y) = 1.05207 0.08082
# Poissons Ratio (z) = 0.20907 0.01535
#
# Static dielectric constant tensor:
#      x y z
#    x 3.882400 0.033950 0.041270 
#    y 0.033950 3.741390 0.106420 
#    z 0.041270 0.106420 3.892770 
# 
# 
# High freq. dielectric constant tensor:
#      x y z
#    x 1.821350 0.001280 -0.004920 
#    y 0.001280 1.798330 0.014360 
#    z -0.004920 0.014360 1.823450 
# 
# From -- ./inp_files/188601.got.cif
#   From: 2010.06.25/outbox.cif.g09.slc.cpg/sg2_95_cif.got.tgz:188601.got - 2010.06.27 13:26:56.
