data_PCOD8029240
_publ_section_title
;
Structure prediction by ZEFSAII (Michael W. Deem and Ramdas Pophale) SiO2 
 PCOD8029240
Probable space group: P -1
;
_chemical_formula_sum "Si O2"
_cell_formula_units_Z 14
_cell_length_a 15.464270
_cell_length_b 9.400012
_cell_length_c 9.301574
_cell_angle_alpha 75.354708
_cell_angle_beta 140.100219
_cell_angle_gamma 125.703857
_cell_volume 653.144408
_symmetry_space_group_name_H-M "P -1"
_symmetry_group_IT_number 2
_symmetry_cell_setting 'triclinic'
loop_
_space_group_symop_operation_xyz
x,y,z
-x,-y,-z
loop_
_atom_site_type_symbol
_atom_site_label
_atom_site_fract_x
_atom_site_fract_y
_atom_site_fract_z
Si Si1 0.588439 0.377304 0.802137
Si Si2 0.642564 0.043156 0.364445
Si Si3 0.516401 0.595572 0.848117
Si Si4 0.823572 0.314406 0.263269
Si Si5 0.131743 0.778716 0.134805
Si Si6 0.309084 0.991559 0.039059
Si Si7 0.752412 0.472781 0.688521
O O1 0.581622 0.533049 0.822440
O O2 0.614740 0.411480 0.655363
O O3 0.416318 0.166433 0.680242
O O4 0.752936 0.407112 0.068027
O O5 0.687729 0.162365 0.247010
O O6 0.815922 0.156074 0.651091
O O7 0.485264 0.017208 0.250565
O O8 0.655529 0.816579 0.007943
O O9 0.337747 0.548058 0.573784
O O10 0.500000 0.500000 0.000000
O O11 0.000000 0.500000 0.500000
O O12 0.839622 0.188325 0.203855
O O13 0.183704 0.649711 0.192194
O O14 0.244143 0.958159 0.127892
O O15 0.930393 0.685186 0.882862
#
# Coordination Sequence:
#
# PCOD8029240 Si02
#       7
#     2   2   2   2   2   2   2
#     4  11  23  42  63  95 129 170 214 257 318 385
#     4  11  20  38  65  93 125 166 218 261 308 378
#     4  12  25  43  65  93 132 172 211 257 322 391
#     4  11  23  39  63  95 129 163 214 269 317 365
#     4  11  22  39  69  98 124 163 221 272 311 363
#     4  11  22  41  65  94 123 168 220 258 314 381
#     4  11  23  41  65  96 131 167 210 269 322 369
#
# _framework density 21.434771000000001
#
# number of rings (size 3 to 8) (size 9 to 14) (size 15 to 20)
#    0.000    0.857    4.286    6.000    2.000    0.000 
#    0.000    7.143    0.000    0.000    0.000    0.000 
#    0.000    0.000    0.000    0.000    0.000    0.000 
#
# Total GULP energy -173554.925146 kJ/mol
# GULP energy per Si atom -12396.780368 kJ/mol
# Density = 2.138598 g / cm^3
# Si number density = 21.434771 Si / 1000 Ang^3
#
#
#
# Elastic Constant Matrix: (Units=GPa)
#
#
# Indices 1 2 3 4 5 6 
#
# 1 55.4101 28.6413 17.0758 -4.7441 -6.0050 2.6094
# 2 28.6413 119.9769 42.7950 8.1019 2.4231 -5.9707
# 3 17.0758 42.7950 100.2327 8.8767 -13.3235 3.3526
# 4 -4.7441 8.1019 8.8767 35.9055 6.0357 -14.9615
# 5 -6.0050 2.4231 -13.3235 6.0357 23.8137 -0.3139
# 6 2.6094 -5.9707 3.3526 -14.9615 -0.3139 41.0387
#
#
#
# Elastic Compliance Matrix: (Units=1/GPa)
#
#
# Indices 1 2 3 4 5 6 
#
# 1 0.021885 -0.005155 -0.001181 0.003236 0.004551 -0.000831
# 2 -0.005155 0.011490 -0.004738 -0.000333 -0.005006 0.002227
# 3 -0.001181 -0.004738 0.014096 -0.005743 0.009476 -0.003787
# 4 0.003236 -0.000333 -0.005743 0.037484 -0.011682 0.013791
# 5 0.004551 -0.005006 0.009476 -0.011682 0.051838 -0.005654
# 6 -0.000831 0.002227 -0.003787 0.013791 -0.005654 0.030038
#
#
# Mechanical properties :
#
#
# Convention : Reuss Voigt Hill
#
# Bulk Modulus (GPa) = 39.49022 50.29378 44.89200
# Shear Modulus (GPa) = 25.32677 32.62542 28.97609
#
# Velocity S-wave (km/s) = 3.44113 3.90562 3.68071
# Velocity P-wave (km/s) = 5.85252 6.62216 6.24920
#
# Compressibility (1/GPa) = 0.02532272
#
# Stress axis : x y z
#
# Youngs Moduli (GPa) = 45.69292 87.03271 70.94310
#
# Poissons Ratio (x) = 0.44865 0.08380
# Poissons Ratio (y) = 0.23554 0.33612
# Poissons Ratio (z) = 0.05398 0.41235
#
# Static dielectric constant tensor:
#      x y z
#    x 3.732980 0.039100 -0.207080 
#    y 0.039100 4.080460 0.207620 
#    z -0.207080 0.207620 3.968800 
# 
# 
# High freq. dielectric constant tensor:
#      x y z
#    x 1.823660 0.011900 -0.024140 
#    y 0.011900 1.847440 0.009480 
#    z -0.024140 0.009480 1.841540 
# 
# From -- ./inp_files/157404.got.cif
#   From: 2010.06.25/outbox.cif.g09.slc.cpg/sg2_79_cif.got.tgz:157404.got - 2010.06.27 13:26:56.
