data_PCOD8029276
_publ_section_title
;
Structure prediction by ZEFSAII (Michael W. Deem and Ramdas Pophale) SiO2 
 PCOD8029276
Probable space group: P -1
;
_chemical_formula_sum "Si O2"
_cell_formula_units_Z 14
_cell_length_a 8.988297
_cell_length_b 8.956656
_cell_length_c 21.430478
_cell_angle_alpha 40.900122
_cell_angle_beta 141.948273
_cell_angle_gamma 131.567191
_cell_volume 686.212709
_symmetry_space_group_name_H-M "P -1"
_symmetry_group_IT_number 2
_symmetry_cell_setting 'triclinic'
loop_
_space_group_symop_operation_xyz
x,y,z
-x,-y,-z
loop_
_atom_site_type_symbol
_atom_site_label
_atom_site_fract_x
_atom_site_fract_y
_atom_site_fract_z
Si Si1 0.761073 0.116034 0.729939
Si Si2 0.682775 0.819561 0.128780
Si Si3 0.328346 0.801436 0.469488
Si Si4 0.164229 0.072976 0.721416
Si Si5 0.673305 0.618442 0.877166
Si Si6 0.045139 0.433858 0.140543
Si Si7 0.572070 0.354751 0.701228
O O1 0.681419 0.148089 0.623063
O O2 0.693719 0.323890 0.684083
O O3 0.049547 0.100081 0.837914
O O4 0.611200 0.875039 0.783365
O O5 0.707567 0.794867 0.218176
O O6 0.573237 0.569057 0.144258
O O7 0.500000 0.000000 0.000000
O O8 0.422426 0.563914 0.585759
O O9 0.061201 0.798360 0.412223
O O10 0.500000 0.000000 0.500000
O O11 0.375397 0.121396 0.723532
O O12 0.071815 0.801546 0.788305
O O13 0.809841 0.623619 0.854244
O O14 0.832115 0.566701 0.005278
O O15 0.215193 0.601636 0.190691
#
# Coordination Sequence:
#
# PCOD8029276 Si02
#       7
#     2   2   2   2   2   2   2
#     4  11  26  42  62  99 131 163 207 266 325 367
#     4  11  20  39  68  92 124 171 216 253 300 384
#     4  11  22  46  70  87 120 171 221 262 302 379
#     4  11  22  39  66  96 119 167 218 251 316 379
#     4  11  20  39  65  95 125 169 215 256 305 377
#     4  11  21  38  68  94 125 168 217 256 302 385
#     4  12  25  42  63  94 135 164 203 272 326 360
#
# _framework density 20.401837
#
# number of rings (size 3 to 8) (size 9 to 14) (size 15 to 20)
#    0.000    0.857    7.143    1.714    0.000    1.714 
#    0.000    2.143    0.000    0.000    0.000    0.000 
#    0.000    0.000    0.000    0.000    0.000    0.000 
#
# Total GULP energy -173572.228648 kJ/mol
# GULP energy per Si atom -12398.016332 kJ/mol
# Density = 2.035540 g / cm^3
# Si number density = 20.401837 Si / 1000 Ang^3
#
#
#
# Elastic Constant Matrix: (Units=GPa)
#
#
# Indices 1 2 3 4 5 6 
#
# 1 88.0805 43.4685 26.8624 11.4511 -0.3168 1.5572
# 2 43.4685 120.1328 36.7834 12.3597 -5.2460 16.8485
# 3 26.8624 36.7834 66.1424 23.4897 -8.9419 5.5008
# 4 11.4511 12.3597 23.4897 38.6897 5.1542 -3.0113
# 5 -0.3168 -5.2460 -8.9419 5.1542 12.4174 -1.7450
# 6 1.5572 16.8485 5.5008 -3.0113 -1.7450 24.2251
#
#
#
# Elastic Compliance Matrix: (Units=1/GPa)
#
#
# Indices 1 2 3 4 5 6 
#
# 1 0.014914 -0.004708 -0.004631 0.000788 -0.004832 0.003117
# 2 -0.004708 0.012414 -0.003701 -0.001161 0.001887 -0.007499
# 3 -0.004631 -0.003701 0.030209 -0.019822 0.027673 -0.004458
# 4 0.000788 -0.001161 -0.019822 0.042844 -0.031358 0.008324
# 5 -0.004832 0.001887 0.027673 -0.031358 0.113730 -0.002991
# 6 0.003117 -0.007499 -0.004458 0.008324 -0.002991 0.048127
#
#
# Mechanical properties :
#
#
# Convention : Reuss Voigt Hill
#
# Bulk Modulus (GPa) = 31.78851 54.28714 43.03782
# Shear Modulus (GPa) = 16.73340 26.21588 21.47464
#
# Velocity S-wave (km/s) = 2.86700 3.58855 3.24787
# Velocity P-wave (km/s) = 5.15506 6.62095 5.93345
#
# Compressibility (1/GPa) = 0.03145791
#
# Stress axis : x y z
#
# Youngs Moduli (GPa) = 67.05098 80.55226 33.10228
#
# Poissons Ratio (x) = 0.37921 0.15331
# Poissons Ratio (y) = 0.31565 0.12251
# Poissons Ratio (z) = 0.31054 0.29812
#
# Static dielectric constant tensor:
#      x y z
#    x 3.377800 0.049870 -0.169000 
#    y 0.049870 3.893780 -0.044610 
#    z -0.169000 -0.044610 3.613910 
# 
# 
# High freq. dielectric constant tensor:
#      x y z
#    x 1.773140 0.010860 -0.001710 
#    y 0.010860 1.809570 0.006310 
#    z -0.001710 0.006310 1.806230 
# 
# From -- ./inp_files/177246.got.cif
#   From: 2010.06.25/outbox.cif.g09.slc.cpg/sg2_89_cif.got.tgz:177246.got - 2010.06.27 13:26:56.
