data_PCOD8029370
_publ_section_title
;
Structure prediction by ZEFSAII (Michael W. Deem and Ramdas Pophale) SiO2 
 PCOD8029370
Probable space group: P -1
;
_chemical_formula_sum "Si O2"
_cell_formula_units_Z 14
_cell_length_a 5.228271
_cell_length_b 12.917628
_cell_length_c 9.772276
_cell_angle_alpha 109.127466
_cell_angle_beta 83.180426
_cell_angle_gamma 97.313326
_cell_volume 616.386312
_symmetry_space_group_name_H-M "P -1"
_symmetry_group_IT_number 2
_symmetry_cell_setting 'triclinic'
loop_
_space_group_symop_operation_xyz
x,y,z
-x,-y,-z
loop_
_atom_site_type_symbol
_atom_site_label
_atom_site_fract_x
_atom_site_fract_y
_atom_site_fract_z
Si Si1 0.686332 0.917587 0.889430
Si Si2 0.228175 0.992729 0.587494
Si Si3 0.389607 0.443934 0.119995
Si Si4 0.281823 0.551575 0.451705
Si Si5 0.861076 0.305933 0.086239
Si Si6 0.298897 0.786663 0.667913
Si Si7 0.940900 0.883728 0.120403
O O1 0.566895 0.838104 0.742958
O O2 0.766963 0.846220 0.982835
O O3 0.929305 0.991422 0.844703
O O4 0.500000 0.000000 0.000000
O O5 0.180984 0.879077 0.625265
O O6 0.500000 0.000000 0.500000
O O7 0.232984 0.103992 0.728853
O O8 0.000000 0.000000 0.500000
O O9 0.330195 0.529874 0.279232
O O10 0.595778 0.363166 0.125676
O O11 0.112346 0.385914 0.070668
O O12 0.500000 0.500000 0.000000
O O13 0.500000 0.500000 0.500000
O O14 0.329331 0.682797 0.523934
O O15 0.000000 0.500000 0.500000
O O16 0.892457 0.252789 0.212298
O O17 0.853154 0.208530 0.928550
#
# Coordination Sequence:
#
# PCOD8029370 Si02
#       7
#     2   2   2   2   2   2   2
#     4  11  20  40  71 110 141 183 240 320 363 434
#     4  12  29  46  67 105 157 200 244 305 379 462
#     4  12  27  49  72 113 152 189 252 326 384 444
#     4  12  26  47  77 111 148 196 260 317 375 448
#     4  12  25  44  80 105 138 197 251 307 377 453
#     4  12  24  46  77 108 147 198 261 307 377 451
#     4  11  24  41  70 106 147 187 248 300 377 453
#
# _framework density 22.71303
#
# number of rings (size 3 to 8) (size 9 to 14) (size 15 to 20)
#    0.000    0.286    5.714    3.000    0.000    5.714 
#    0.000    0.000    0.000    0.000    0.000    0.000 
#    0.000    0.000    0.000    0.000    0.000    0.000 
#
# Total GULP energy -173517.465954 kJ/mol
# GULP energy per Si atom -12394.104711 kJ/mol
# Density = 2.266133 g / cm^3
# Si number density = 22.713030 Si / 1000 Ang^3
#
#
#
# Elastic Constant Matrix: (Units=GPa)
#
#
# Indices 1 2 3 4 5 6 
#
# 1 137.2525 38.5387 56.9426 6.0535 0.1127 -1.0139
# 2 38.5387 106.1330 71.3546 15.0093 1.2574 -5.1403
# 3 56.9426 71.3546 181.3264 24.1745 -15.9004 -9.7628
# 4 6.0535 15.0093 24.1745 53.3666 -5.3328 -5.6715
# 5 0.1127 1.2574 -15.9004 -5.3328 49.5827 5.5814
# 6 -1.0139 -5.1403 -9.7628 -5.6715 5.5814 39.8111
#
#
#
# Elastic Compliance Matrix: (Units=1/GPa)
#
#
# Indices 1 2 3 4 5 6 
#
# 1 0.008652 -0.001767 -0.002146 0.000387 -0.000576 -0.000398
# 2 -0.001767 0.013501 -0.004693 -0.001615 -0.002086 0.000610
# 3 -0.002146 -0.004693 0.008567 -0.001976 0.002569 0.000799
# 4 0.000387 -0.001615 -0.001976 0.020396 0.001372 0.002030
# 5 -0.000576 -0.002086 0.002569 0.001372 0.021472 -0.002469
# 6 -0.000398 0.000610 0.000799 0.002030 -0.002469 0.026018
#
#
# Mechanical properties :
#
#
# Convention : Reuss Voigt Hill
#
# Bulk Modulus (GPa) = 74.01592 84.26486 79.14039
# Shear Modulus (GPa) = 41.55530 45.74381 43.64955
#
# Velocity S-wave (km/s) = 4.28200 4.49262 4.38857
# Velocity P-wave (km/s) = 7.55682 8.00574 7.78451
#
# Compressibility (1/GPa) = 0.01351061
#
# Stress axis : x y z
#
# Youngs Moduli (GPa) = 115.57378 74.06652 116.72443
#
# Poissons Ratio (x) = 0.13084 0.25045
# Poissons Ratio (y) = 0.20417 0.54779
# Poissons Ratio (z) = 0.24798 0.34760
#
# Static dielectric constant tensor:
#      x y z
#    x 5.066590 -0.703510 0.021560 
#    y -0.703510 4.857300 -0.065720 
#    z 0.021560 -0.065720 4.693670 
# 
# 
# High freq. dielectric constant tensor:
#      x y z
#    x 1.910170 -0.006070 -0.015960 
#    y -0.006070 1.889190 0.018020 
#    z -0.015960 0.018020 1.904820 
# 
# From -- ./inp_files/131769.got.cif
#   From: 2010.06.25/outbox.cif.g09.slc.cpg/sg2_66_cif.got.tgz:131769.got - 2010.06.27 13:26:56.
