data_PCOD8029500
_publ_section_title
;
Structure prediction by ZEFSAII (Michael W. Deem and Ramdas Pophale) SiO2 
 PCOD8029500
Probable space group: P -1
;
_chemical_formula_sum "Si O2"
_cell_formula_units_Z 16
_cell_length_a 12.424311
_cell_length_b 19.593723
_cell_length_c 9.322364
_cell_angle_alpha 141.523660
_cell_angle_beta 145.375465
_cell_angle_gamma 38.235130
_cell_volume 735.467542
_symmetry_space_group_name_H-M "P -1"
_symmetry_group_IT_number 2
_symmetry_cell_setting 'triclinic'
loop_
_space_group_symop_operation_xyz
x,y,z
-x,-y,-z
loop_
_atom_site_type_symbol
_atom_site_label
_atom_site_fract_x
_atom_site_fract_y
_atom_site_fract_z
Si Si1 0.710349 0.527101 0.130332
Si Si2 0.084830 0.574078 0.523764
Si Si3 0.463468 0.793378 0.899592
Si Si4 0.559706 0.543278 0.487222
Si Si5 0.678794 0.965660 0.440296
Si Si6 0.033697 0.975863 0.663177
Si Si7 0.967459 0.841806 0.816445
Si Si8 0.562998 0.215020 0.817669
O O1 0.751989 0.470358 0.240556
O O2 0.554134 0.665955 0.207339
O O3 0.922027 0.512793 0.258163
O O4 0.611947 0.452286 0.808173
O O5 0.211786 0.542935 0.461680
O O6 0.952243 0.716082 0.622607
O O7 0.563673 0.673777 0.718613
O O8 0.221071 0.850162 0.693667
O O9 0.559260 0.888602 0.120874
O O10 0.515921 0.754021 0.056393
O O11 0.500000 0.500000 0.500000
O O12 0.799527 0.914557 0.635219
O O13 0.828588 0.966583 0.479999
O O14 0.518154 0.102703 0.523500
O O15 0.000000 0.000000 0.500000
O O16 0.078536 0.082044 0.962704
O O17 0.192368 0.822317 0.974008
#
# Coordination Sequence:
#
# PCOD8029500 Si02
#       8
#     2   2   2   2   2   2   2   2
#     4  11  25  45  69  98 134 181 227 279 330 406
#     4  11  26  45  68 102 130 183 231 270 341 401
#     4  12  24  42  68 101 133 176 223 275 338 391
#     4  12  26  44  66  98 139 176 221 281 336 395
#     4  11  24  43  72  99 130 177 228 277 320 408
#     4  11  26  43  64 102 138 173 212 283 348 387
#     4  11  21  43  73  96 132 175 227 277 325 402
#     4  11  20  43  70 100 130 173 229 272 330 393
#
# _framework density 21.75487
#
# number of rings (size 3 to 8) (size 9 to 14) (size 15 to 20)
#    0.000    0.750    5.000    2.250    3.500    3.000 
#    2.250    0.000    0.000    0.000    0.000    0.000 
#    0.000    0.000    0.000    0.000    0.000    0.000 
#
# Total GULP energy -198479.801757 kJ/mol
# GULP energy per Si atom -12404.987610 kJ/mol
# Density = 2.170535 g / cm^3
# Si number density = 21.754870 Si / 1000 Ang^3
#
#
#
# Elastic Constant Matrix: (Units=GPa)
#
#
# Indices 1 2 3 4 5 6 
#
# 1 101.5212 27.6037 31.0796 5.7427 -19.4941 6.6066
# 2 27.6037 108.4435 34.6406 19.3355 -24.9840 4.4913
# 3 31.0796 34.6406 119.9779 27.4831 -8.4898 0.2200
# 4 5.7427 19.3355 27.4831 38.8549 -0.0337 -1.2320
# 5 -19.4941 -24.9840 -8.4898 -0.0337 24.2244 0.6227
# 6 6.6066 4.4913 0.2200 -1.2320 0.6227 31.9425
#
#
#
# Elastic Compliance Matrix: (Units=1/GPa)
#
#
# Indices 1 2 3 4 5 6 
#
# 1 0.012618 -0.000160 -0.002556 -0.000057 0.009164 -0.002750
# 2 -0.000160 0.014171 -0.001711 -0.005883 0.013941 -0.002446
# 3 -0.002556 -0.001711 0.010986 -0.006527 0.000008 0.000442
# 4 -0.000057 -0.005883 -0.006527 0.033357 -0.008415 0.002334
# 5 0.009164 0.013941 0.000008 -0.008415 0.063164 -0.005412
# 6 -0.002750 -0.002446 0.000442 0.002334 -0.005412 0.032412
#
#
# Mechanical properties :
#
#
# Convention : Reuss Voigt Hill
#
# Bulk Modulus (GPa) = 34.57795 57.39894 45.98845
# Shear Modulus (GPa) = 26.99754 34.77894 30.88824
#
# Velocity S-wave (km/s) = 3.52659 4.00268 3.77215
# Velocity P-wave (km/s) = 5.70187 6.91402 6.33699
#
# Compressibility (1/GPa) = 0.02892016
#
# Stress axis : x y z
#
# Youngs Moduli (GPa) = 79.25191 70.56624 91.02464
#
# Poissons Ratio (x) = 0.01130 0.23265
# Poissons Ratio (y) = 0.01269 0.15578
# Poissons Ratio (z) = 0.20256 0.12076
#
# Static dielectric constant tensor:
#      x y z
#    x 3.942260 -0.073110 0.093570 
#    y -0.073110 4.033080 0.120250 
#    z 0.093570 0.120250 4.314810 
# 
# 
# High freq. dielectric constant tensor:
#      x y z
#    x 1.856130 -0.005390 0.013630 
#    y -0.005390 1.860310 0.005420 
#    z 0.013630 0.005420 1.855940 
# 
# From -- ./inp_files/280189.got.cif
#   From: 2010.06.25/outbox.cif.g09.slc.cpg/sg2_141_cif.got.tgz:280189.got - 2010.06.27 13:26:56.
