data_PCOD8029710
_publ_section_title
;
Structure prediction by ZEFSAII (Michael W. Deem and Ramdas Pophale) SiO2 
 PCOD8029710
Probable space group: P -1
;
_chemical_formula_sum "Si O2"
_cell_formula_units_Z 16
_cell_length_a 13.946883
_cell_length_b 8.819325
_cell_length_c 20.129781
_cell_angle_alpha 65.662561
_cell_angle_beta 20.656330
_cell_angle_gamma 74.108872
_cell_volume 746.119686
_symmetry_space_group_name_H-M "P -1"
_symmetry_group_IT_number 2
_symmetry_cell_setting 'triclinic'
loop_
_space_group_symop_operation_xyz
x,y,z
-x,-y,-z
loop_
_atom_site_type_symbol
_atom_site_label
_atom_site_fract_x
_atom_site_fract_y
_atom_site_fract_z
Si Si1 0.073262 0.261285 0.159840
Si Si2 0.168620 0.445296 0.706227
Si Si3 0.160958 0.419815 0.561728
Si Si4 0.713315 0.036040 0.790974
Si Si5 0.515829 0.339412 0.976386
Si Si6 0.279611 0.106384 0.484613
Si Si7 0.200732 0.921842 0.926010
Si Si8 0.533811 0.787331 0.190899
O O1 0.951087 0.419921 0.201836
O O2 0.352181 0.324411 0.015425
O O3 0.169020 0.215270 0.033939
O O4 0.823276 0.085126 0.379380
O O5 0.500000 0.500000 0.500000
O O6 0.127513 0.465951 0.651178
O O7 0.998802 0.244380 0.873043
O O8 0.298420 0.263924 0.495967
O O9 0.364120 0.593239 0.362424
O O10 0.845835 0.357806 0.742417
O O11 0.657563 0.161907 0.749537
O O12 0.051873 0.116150 0.574484
O O13 0.500000 0.000000 0.000000
O O14 0.639069 0.836188 0.846633
O O15 0.500000 0.500000 0.000000
O O16 0.593893 0.142541 0.243305
O O17 0.399743 0.072456 0.818317
O O18 0.000000 0.000000 0.000000
#
# Coordination Sequence:
#
# PCOD8029710 Si02
#       8
#     2   2   2   2   2   2   2   2
#     4  11  22  42  69 100 133 179 216 276 336 399
#     4  12  26  46  70  95 131 173 226 285 337 393
#     4  12  24  42  67 101 135 180 223 270 336 401
#     4  11  21  43  66 101 139 177 218 275 335 403
#     4  11  21  38  67  95 139 175 221 266 335 401
#     4  11  23  44  71  98 141 175 226 275 338 396
#     4  12  28  48  69  99 132 176 234 283 332 398
#     4  12  25  42  69 101 139 177 224 276 331 404
#
# _framework density 21.444281
#
# number of rings (size 3 to 8) (size 9 to 14) (size 15 to 20)
#    0.000    0.500    5.000    4.500    1.750    4.500 
#    0.000    5.000    0.000    0.000    0.000    0.000 
#    0.000    0.000    0.000    0.000    0.000    0.000 
#
# Total GULP energy -198459.964503 kJ/mol
# GULP energy per Si atom -12403.747781 kJ/mol
# Density = 2.139547 g / cm^3
# Si number density = 21.444281 Si / 1000 Ang^3
#
#
#
# Elastic Constant Matrix: (Units=GPa)
#
#
# Indices 1 2 3 4 5 6 
#
# 1 48.5410 16.0657 24.8257 -2.6181 6.4033 -19.5987
# 2 16.0657 126.7154 18.1922 1.7326 2.5467 -4.4717
# 3 24.8257 18.1922 99.2136 1.3380 -3.9368 -11.1687
# 4 -2.6181 1.7326 1.3380 51.8667 -3.2926 1.0611
# 5 6.4033 2.5467 -3.9368 -3.2926 32.3634 2.1802
# 6 -19.5987 -4.4717 -11.1687 1.0611 2.1802 35.7152
#
#
#
# Elastic Compliance Matrix: (Units=1/GPa)
#
#
# Indices 1 2 3 4 5 6 
#
# 1 0.032010 -0.002482 -0.006102 0.001035 -0.007839 0.015795
# 2 -0.002482 0.008337 -0.000981 -0.000384 -0.000283 -0.000596
# 3 -0.006102 -0.000981 0.011909 -0.000414 0.002684 0.000102
# 4 0.001035 -0.000384 -0.000414 0.019475 0.001776 -0.000297
# 5 -0.007839 -0.000283 0.002684 0.001776 0.033356 -0.005587
# 6 0.015795 -0.000596 0.000102 -0.000297 -0.005587 0.036974
#
#
# Mechanical properties :
#
#
# Convention : Reuss Voigt Hill
#
# Bulk Modulus (GPa) = 30.18571 43.62637 36.90604
# Shear Modulus (GPa) = 29.03053 38.34815 33.68934
#
# Velocity S-wave (km/s) = 3.68335 4.23338 3.96791
# Velocity P-wave (km/s) = 5.67418 6.65459 6.18384
#
# Compressibility (1/GPa) = 0.03312825
#
# Stress axis : x y z
#
# Youngs Moduli (GPa) = 31.23999 119.94612 83.96690
#
# Poissons Ratio (x) = 0.29766 0.51234
# Poissons Ratio (y) = 0.07753 0.08236
# Poissons Ratio (z) = 0.19062 0.11766
#
# Static dielectric constant tensor:
#      x y z
#    x 3.764260 -0.141920 -0.116310 
#    y -0.141920 3.366030 -0.443830 
#    z -0.116310 -0.443830 3.728780 
# 
# 
# High freq. dielectric constant tensor:
#      x y z
#    x 1.825990 0.002920 -0.004350 
#    y 0.002920 1.872650 -0.003390 
#    z -0.004350 -0.003390 1.842580 
# 
# From -- ./inp_files/319444.got.cif
#   From: 2010.06.25/outbox.cif.g09.slc.cpg/sg2_160_cif.got.tgz:319444.got - 2010.06.27 13:26:56.
