data_PCOD8029623
_publ_section_title
;
Structure prediction by ZEFSAII (Michael W. Deem and Ramdas Pophale) SiO2 
 PCOD8029623
Probable space group: P -1
;
_chemical_formula_sum "Si O2"
_cell_formula_units_Z 16
_cell_length_a 11.392581
_cell_length_b 14.867300
_cell_length_c 9.078428
_cell_angle_alpha 129.913988
_cell_angle_beta 39.973628
_cell_angle_gamma 126.672568
_cell_volume 740.114743
_symmetry_space_group_name_H-M "P -1"
_symmetry_group_IT_number 2
_symmetry_cell_setting 'triclinic'
loop_
_space_group_symop_operation_xyz
x,y,z
-x,-y,-z
loop_
_atom_site_type_symbol
_atom_site_label
_atom_site_fract_x
_atom_site_fract_y
_atom_site_fract_z
Si Si1 0.447402 0.614153 0.245077
Si Si2 0.377563 0.760972 0.925583
Si Si3 0.815879 0.493912 0.081342
Si Si4 0.694404 0.729748 0.388594
Si Si5 0.054857 0.563159 0.664217
Si Si6 0.203824 0.983167 0.834116
Si Si7 0.089058 0.816100 0.028126
Si Si8 0.568389 0.172820 0.723383
O O1 0.611241 0.692245 0.267377
O O2 0.276092 0.565576 0.473343
O O3 0.393889 0.696830 0.252675
O O4 0.500000 0.500000 0.000000
O O5 0.340761 0.618867 0.839179
O O6 0.562826 0.793654 0.681903
O O7 0.210045 0.798509 0.036093
O O8 0.405326 0.825113 0.123718
O O9 0.734393 0.612193 0.308020
O O10 0.000000 0.500000 0.000000
O O11 0.896816 0.479909 0.826920
O O12 0.885458 0.831069 0.295191
O O13 0.041283 0.700809 0.844446
O O14 0.000000 0.500000 0.500000
O O15 0.354462 0.108334 0.824689
O O16 0.193141 0.929130 0.952604
O O17 0.278218 0.896524 0.557734
O O18 0.000000 0.000000 0.000000
#
# Coordination Sequence:
#
# PCOD8029623 Si02
#       8
#     2   2   2   2   2   2   2   2
#     4  12  22  42  66 103 138 179 226 275 336 407
#     4  12  23  43  65  97 141 174 221 280 338 410
#     4  11  21  38  59  95 139 185 214 266 334 397
#     4  11  22  39  64  94 134 183 221 263 339 405
#     4  11  21  37  61  95 135 177 218 272 332 395
#     4  11  25  49  74  96 132 174 236 290 333 398
#     4  11  23  44  66  94 134 176 221 283 336 389
#     4  11  26  45  71 104 131 177 228 285 340 397
#
# _framework density 21.618271
#
# number of rings (size 3 to 8) (size 9 to 14) (size 15 to 20)
#    0.000    0.750    5.000    4.125    0.000    3.500 
#    0.000    1.250    0.000    0.000    0.000    0.000 
#    0.000    0.000    0.000    0.000    0.000    0.000 
#
# Total GULP energy -198305.763943 kJ/mol
# GULP energy per Si atom -12394.110246 kJ/mol
# Density = 2.156907 g / cm^3
# Si number density = 21.618271 Si / 1000 Ang^3
#
#
#
# Elastic Constant Matrix: (Units=GPa)
#
#
# Indices 1 2 3 4 5 6 
#
# 1 123.5453 20.4788 47.8188 3.6725 -1.1797 3.2940
# 2 20.4788 69.4189 32.9036 -8.0251 -2.9266 -2.0212
# 3 47.8188 32.9036 125.7626 -17.8411 -8.0146 11.3264
# 4 3.6725 -8.0251 -17.8411 31.5304 8.7841 -2.6188
# 5 -1.1797 -2.9266 -8.0146 8.7841 38.1140 -9.1630
# 6 3.2940 -2.0212 11.3264 -2.6188 -9.1630 28.6469
#
#
#
# Elastic Compliance Matrix: (Units=1/GPa)
#
#
# Indices 1 2 3 4 5 6 
#
# 1 0.009982 -0.001514 -0.003931 -0.003842 0.000259 0.000031
# 2 -0.001514 0.017061 -0.003795 0.002453 0.000700 0.003326
# 3 -0.003931 -0.003795 0.011602 0.005801 -0.000262 -0.003956
# 4 -0.003842 0.002453 0.005801 0.038150 -0.007657 -0.000640
# 5 0.000259 0.000700 -0.000262 -0.007657 0.030191 0.009080
# 6 0.000031 0.003326 -0.003956 -0.000640 0.009080 0.039549
#
#
# Mechanical properties :
#
#
# Convention : Reuss Voigt Hill
#
# Bulk Modulus (GPa) = 49.59101 57.90325 53.74713
# Shear Modulus (GPa) = 29.11450 34.15997 31.63723
#
# Velocity S-wave (km/s) = 3.67380 3.97941 3.82966
# Velocity P-wave (km/s) = 6.40194 6.92509 6.66865
#
# Compressibility (1/GPa) = 0.02016495
#
# Stress axis : x y z
#
# Youngs Moduli (GPa) = 100.17576 58.61469 86.19523
#
# Poissons Ratio (x) = 0.08874 0.33882
# Poissons Ratio (y) = 0.15166 0.32711
# Poissons Ratio (z) = 0.39378 0.22244
#
# Static dielectric constant tensor:
#      x y z
#    x 9.800010 2.201100 0.547640 
#    y 2.201100 4.687370 -0.102760 
#    z 0.547640 -0.102760 4.073310 
# 
# 
# High freq. dielectric constant tensor:
#      x y z
#    x 1.853490 0.005570 -0.004440 
#    y 0.005570 1.840780 -0.024320 
#    z -0.004440 -0.024320 1.859120 
# 
# From -- ./inp_files/272047.got.cif
#   From: 2010.06.25/outbox.cif.g09.slc.cpg/sg2_137_cif.got.tgz:272047.got - 2010.06.27 13:26:56.
