data_PCOD8029211
_publ_section_title
;
Structure prediction by ZEFSAII (Michael W. Deem and Ramdas Pophale) SiO2 
 PCOD8029211
Probable space group: P -1
;
_chemical_formula_sum "Si O2"
_cell_formula_units_Z 16
_cell_length_a 17.739282
_cell_length_b 18.604787
_cell_length_c 9.085754
_cell_angle_alpha 142.340924
_cell_angle_beta 28.848619
_cell_angle_gamma 149.330081
_cell_volume 729.030945
_symmetry_space_group_name_H-M "P -1"
_symmetry_group_IT_number 2
_symmetry_cell_setting 'triclinic'
loop_
_space_group_symop_operation_xyz
x,y,z
-x,-y,-z
loop_
_atom_site_type_symbol
_atom_site_label
_atom_site_fract_x
_atom_site_fract_y
_atom_site_fract_z
Si Si1 0.202298 0.394910 0.671794
Si Si2 0.964125 0.202757 0.250940
Si Si3 0.546245 0.304178 0.185891
Si Si4 0.883610 0.855859 0.373428
Si Si5 0.830255 0.352973 0.218111
Si Si6 0.313465 0.854426 0.128910
Si Si7 0.280337 0.432215 0.285385
Si Si8 0.809507 0.344828 0.564032
O O1 0.407120 0.543295 0.590335
O O2 0.137096 0.274246 0.710842
O O3 0.212130 0.339673 0.403134
O O4 0.056774 0.444020 0.004532
O O5 0.823407 0.118482 0.494112
O O6 0.848878 0.239055 0.401846
O O7 0.162366 0.337707 0.193340
O O8 0.015568 0.116590 0.914729
O O9 0.324344 0.183415 0.365752
O O10 0.642469 0.246873 0.028142
O O11 0.633035 0.335736 0.925258
O O12 0.000000 0.000000 0.500000
O O13 0.761247 0.447152 0.423276
O O14 0.734121 0.292097 0.442168
O O15 0.788611 0.225067 0.976490
O O16 0.500000 0.000000 0.000000
O O17 0.500000 0.500000 0.000000
O O18 0.000000 0.500000 0.500000
#
# Coordination Sequence:
#
# PCOD8029211 Si02
#       8
#     2   2   2   2   2   2   2   2
#     4  12  23  45  71  99 138 186 234 293 340 406
#     4  11  23  45  67  98 134 183 233 278 342 421
#     4  11  24  43  72 105 136 180 237 285 346 410
#     4  12  29  47  68 100 147 187 226 289 360 415
#     4  12  22  42  70 101 140 176 233 278 351 394
#     4  11  26  45  72 100 140 186 232 286 342 418
#     4  12  25  39  69 109 141 173 229 292 348 407
#     4  11  20  37  71 103 132 173 229 290 336 406
#
# _framework density 21.946943000000001
#
# number of rings (size 3 to 8) (size 9 to 14) (size 15 to 20)
#    0.000    0.500    6.250    2.250    3.500    1.000 
#    0.000    3.750    0.000    0.000    0.000    0.000 
#    0.000    0.000    0.000    0.000    0.000    0.000 
#
# Total GULP energy -198331.397046 kJ/mol
# GULP energy per Si atom -12395.712315 kJ/mol
# Density = 2.189699 g / cm^3
# Si number density = 21.946943 Si / 1000 Ang^3
#
#
#
# Elastic Constant Matrix: (Units=GPa)
#
#
# Indices 1 2 3 4 5 6 
#
# 1 95.5964 22.1985 46.0753 -3.6868 27.3677 7.6826
# 2 22.1985 102.4144 40.0158 -7.6707 15.2008 17.4655
# 3 46.0753 40.0158 138.0157 -12.6541 27.9313 11.7896
# 4 -3.6868 -7.6707 -12.6541 28.6401 3.7219 5.6349
# 5 27.3677 15.2008 27.9313 3.7219 53.8747 -0.6024
# 6 7.6826 17.4655 11.7896 5.6349 -0.6024 32.7317
#
#
#
# Elastic Compliance Matrix: (Units=1/GPa)
#
#
# Indices 1 2 3 4 5 6 
#
# 1 0.013838 -0.000516 -0.003050 0.001438 -0.005427 -0.002222
# 2 -0.000516 0.012452 -0.001992 0.004010 -0.002569 -0.006543
# 3 -0.003050 -0.001992 0.010212 0.004586 -0.003530 -0.002754
# 4 0.001438 0.004010 0.004586 0.041381 -0.007226 -0.011386
# 5 -0.005427 -0.002569 -0.003530 -0.007226 0.024435 0.005610
# 6 -0.002222 -0.006543 -0.002754 -0.011386 0.005610 0.037620
#
#
# Mechanical properties :
#
#
# Convention : Reuss Voigt Hill
#
# Bulk Modulus (GPa) = 39.39117 61.40063 50.39590
# Shear Modulus (GPa) = 31.34513 38.23176 34.78845
#
# Velocity S-wave (km/s) = 3.78328 4.17827 3.98567
# Velocity P-wave (km/s) = 6.08865 7.16343 6.64780
#
# Compressibility (1/GPa) = 0.02538640
#
# Stress axis : x y z
#
# Youngs Moduli (GPa) = 72.26375 80.31034 97.92855
#
# Poissons Ratio (x) = 0.04140 0.29872
# Poissons Ratio (y) = 0.03726 0.19503
# Poissons Ratio (z) = 0.22043 0.15994
#
# Static dielectric constant tensor:
#      x y z
#    x 4.770580 -0.069850 0.375200 
#    y -0.069850 3.608220 -0.250040 
#    z 0.375200 -0.250040 4.295220 
# 
# 
# High freq. dielectric constant tensor:
#      x y z
#    x 1.879870 0.004670 0.016020 
#    y 0.004670 1.826550 -0.015630 
#    z 0.016020 -0.015630 1.876930 
# 
# From -- ./inp_files/184348.got.cif
#   From: 2010.06.25/outbox.cif.g09.slc.cpg/sg2_93_cif.got.tgz:184348.got - 2010.06.27 13:26:56.
