data_PCOD8029206
_publ_section_title
;
Structure prediction by ZEFSAII (Michael W. Deem and Ramdas Pophale) SiO2 
 PCOD8029206
Probable space group: P -1
;
_chemical_formula_sum "Si O2"
_cell_formula_units_Z 16
_cell_length_a 20.134161
_cell_length_b 22.694517
_cell_length_c 11.668311
_cell_angle_alpha 28.387451
_cell_angle_beta 28.588974
_cell_angle_gamma 18.019813
_cell_volume 752.317123
_symmetry_space_group_name_H-M "P -1"
_symmetry_group_IT_number 2
_symmetry_cell_setting 'triclinic'
loop_
_space_group_symop_operation_xyz
x,y,z
-x,-y,-z
loop_
_atom_site_type_symbol
_atom_site_label
_atom_site_fract_x
_atom_site_fract_y
_atom_site_fract_z
Si Si1 0.213939 0.160785 0.448594
Si Si2 0.716864 0.806458 0.350035
Si Si3 0.291204 0.667265 0.611048
Si Si4 0.361748 0.365590 0.079142
Si Si5 0.145080 0.063410 0.934387
Si Si6 0.006048 0.559950 0.113746
Si Si7 0.726515 0.912286 0.777213
Si Si8 0.135056 0.961593 0.507245
O O1 0.113505 0.125559 0.743805
O O2 0.246912 0.082663 0.406307
O O3 0.035255 0.396648 0.312997
O O4 0.456600 0.030260 0.356627
O O5 0.743700 0.659266 0.631076
O O6 0.857008 0.814857 0.187714
O O7 0.810429 0.716763 0.235588
O O8 0.500000 0.500000 0.500000
O O9 0.298632 0.795936 0.442320
O O10 0.300676 0.549748 0.893107
O O11 0.060728 0.819120 0.628003
O O12 0.245927 0.434333 0.012324
O O13 0.624542 0.170954 0.997507
O O14 0.953081 0.100040 0.191005
O O15 0.936786 0.684990 0.892196
O O16 0.722115 0.051397 0.603365
O O17 0.500000 0.000000 0.000000
#
# Coordination Sequence:
#
# PCOD8029206 Si02
#       8
#     2   2   2   2   2   2   2   2
#     4  11  24  43  66  98 131 175 219 265 318 387
#     4  11  22  39  67 104 135 161 213 277 327 381
#     4  11  23  41  65 102 134 162 213 268 332 393
#     4  11  20  37  68 103 131 165 208 268 333 389
#     4  11  22  42  69 101 137 161 211 280 332 386
#     4  12  22  39  69  96 128 172 218 263 329 379
#     4  12  27  48  64  90 133 180 226 265 310 391
#     4  11  26  42  65  94 132 179 208 268 334 377
#
# _framework density 21.267626
#
# number of rings (size 3 to 8) (size 9 to 14) (size 15 to 20)
#    0.000    0.750    6.250    2.250    3.500    1.500 
#    2.250    0.000    0.000    2.250    0.000    0.000 
#    0.000    0.000    0.000    0.000    0.000    0.000 
#
# Total GULP energy -198389.104918 kJ/mol
# GULP energy per Si atom -12399.319057 kJ/mol
# Density = 2.121922 g / cm^3
# Si number density = 21.267626 Si / 1000 Ang^3
#
#
#
# Elastic Constant Matrix: (Units=GPa)
#
#
# Indices 1 2 3 4 5 6 
#
# 1 121.6487 31.4397 52.3965 -4.5544 -1.2280 8.0502
# 2 31.4397 87.5173 41.9594 -11.9060 -4.1644 14.4863
# 3 52.3965 41.9594 125.1269 -9.8488 -6.9570 5.4897
# 4 -4.5544 -11.9060 -9.8488 34.7298 -2.3503 3.9739
# 5 -1.2280 -4.1644 -6.9570 -2.3503 36.9712 -4.1934
# 6 8.0502 14.4863 5.4897 3.9739 -4.1934 32.6931
#
#
#
# Elastic Compliance Matrix: (Units=1/GPa)
#
#
# Indices 1 2 3 4 5 6 
#
# 1 0.010359 -0.001796 -0.003741 -0.000230 -0.000712 -0.001190
# 2 -0.001796 0.015626 -0.003799 0.004810 0.000571 -0.006355
# 3 -0.003741 -0.003799 0.010997 0.001347 0.001695 0.000811
# 4 -0.000230 0.004810 0.001347 0.031611 0.002131 -0.005870
# 5 -0.000712 0.000571 0.001695 0.002131 0.027878 0.002955
# 6 -0.001190 -0.006355 0.000811 -0.005870 0.002955 0.034653
#
#
# Mechanical properties :
#
#
# Convention : Reuss Voigt Hill
#
# Bulk Modulus (GPa) = 54.61309 65.09822 59.85566
# Shear Modulus (GPa) = 32.07209 34.77861 33.42535
#
# Velocity S-wave (km/s) = 3.88754 4.04825 3.96871
# Velocity P-wave (km/s) = 6.77387 7.24753 7.01470
#
# Compressibility (1/GPa) = 0.01831063
#
# Stress axis : x y z
#
# Youngs Moduli (GPa) = 96.53627 63.99471 90.93396
#
# Poissons Ratio (x) = 0.11493 0.34018
# Poissons Ratio (y) = 0.17337 0.34545
# Poissons Ratio (z) = 0.36114 0.24311
#
# Static dielectric constant tensor:
#      x y z
#    x 3.728320 0.039580 0.133280 
#    y 0.039580 3.943260 -0.303570 
#    z 0.133280 -0.303570 4.129370 
# 
# 
# High freq. dielectric constant tensor:
#      x y z
#    x 1.807910 0.012620 0.011850 
#    y 0.012620 1.844660 -0.016360 
#    z 0.011850 -0.016360 1.843240 
# 
# From -- ./inp_files/467024.got.cif
#   From: 2010.06.25/outbox.cif.g09.slc.cpg/sg2_234_cif.got.tgz:467024.got - 2010.06.27 13:26:56.
