data_PCOD8029436
_publ_section_title
;
Structure prediction by ZEFSAII (Michael W. Deem and Ramdas Pophale) SiO2 
 PCOD8029436
Probable space group: P -1
;
_chemical_formula_sum "Si O2"
_cell_formula_units_Z 16
_cell_length_a 15.086828
_cell_length_b 18.109688
_cell_length_c 11.877129
_cell_angle_alpha 129.231471
_cell_angle_beta 151.939696
_cell_angle_gamma 31.773403
_cell_volume 707.146143
_symmetry_space_group_name_H-M "P -1"
_symmetry_group_IT_number 2
_symmetry_cell_setting 'triclinic'
loop_
_space_group_symop_operation_xyz
x,y,z
-x,-y,-z
loop_
_atom_site_type_symbol
_atom_site_label
_atom_site_fract_x
_atom_site_fract_y
_atom_site_fract_z
Si Si1 0.613578 0.278048 0.620888
Si Si2 0.926285 0.619890 0.955349
Si Si3 0.673289 0.454846 0.850713
Si Si4 0.348694 0.143987 0.392619
Si Si5 0.861597 0.007459 0.240519
Si Si6 0.789988 0.216144 0.238501
Si Si7 0.510849 0.955720 0.800178
Si Si8 0.702702 0.182899 0.864915
O O1 0.336702 0.314170 0.359632
O O2 0.500365 0.427043 0.589876
O O3 0.706212 0.253741 0.831853
O O4 0.874611 0.133149 0.687947
O O5 0.752805 0.784507 0.972321
O O6 0.000000 0.500000 0.000000
O O7 0.232462 0.523553 0.133478
O O8 0.430983 0.609111 0.803193
O O9 0.970260 0.295247 0.101859
O O10 0.489967 0.067028 0.354149
O O11 0.418829 0.221405 0.593965
O O12 0.500000 0.000000 0.500000
O O13 0.667479 0.168211 0.112636
O O14 0.000000 0.000000 0.500000
O O15 0.630041 0.014192 0.018314
O O16 0.743605 0.229986 0.066564
O O17 0.148276 0.090617 0.561577
O O18 0.000000 0.000000 0.000000
#
# Coordination Sequence:
#
# PCOD8029436 Si02
#       8
#     2   2   2   2   2   2   2   2
#     4  12  23  48  72 103 145 191 243 296 365 437
#     4  11  24  46  77  99 140 195 245 294 361 438
#     4  11  27  45  68 110 148 183 247 298 363 427
#     4  11  20  41  73 100 138 200 240 286 360 439
#     4  12  26  45  76 103 143 192 251 303 356 434
#     4  12  27  45  70 113 150 187 241 306 361 425
#     4  11  23  47  69 106 141 190 247 283 371 439
#     4  12  20  41  75 102 144 192 239 293 356 441
#
# _framework density 22.626156000000002
#
# number of rings (size 3 to 8) (size 9 to 14) (size 15 to 20)
#    0.000    0.500    8.750    1.500    1.750    4.000 
#    0.000    0.000    0.000    0.000    0.000    0.000 
#    0.000    0.000    0.000    0.000    0.000    0.000 
#
# Total GULP energy -198231.468233 kJ/mol
# GULP energy per Si atom -12389.466765 kJ/mol
# Density = 2.257466 g / cm^3
# Si number density = 22.626156 Si / 1000 Ang^3
#
#
#
# Elastic Constant Matrix: (Units=GPa)
#
#
# Indices 1 2 3 4 5 6 
#
# 1 109.4075 56.8459 26.9587 4.5253 -4.0835 18.2925
# 2 56.8459 143.8076 31.4279 0.4771 5.1163 5.6691
# 3 26.9587 31.4279 45.5320 18.6869 11.7489 5.0268
# 4 4.5253 0.4771 18.6869 44.3490 8.2606 3.6317
# 5 -4.0835 5.1163 11.7489 8.2606 39.5080 3.9100
# 6 18.2925 5.6691 5.0268 3.6317 3.9100 42.0775
#
#
#
# Elastic Compliance Matrix: (Units=1/GPa)
#
#
# Indices 1 2 3 4 5 6 
#
# 1 0.013738 -0.004014 -0.006235 0.000925 0.004110 -0.005148
# 2 -0.004014 0.009675 -0.005277 0.002590 -0.000731 0.000916
# 3 -0.006235 -0.005277 0.036792 -0.013359 -0.008202 0.000941
# 4 0.000925 0.002590 -0.013359 0.028563 -0.002098 -0.001425
# 5 0.004110 -0.000731 -0.008202 -0.002098 0.029028 -0.003225
# 6 -0.005148 0.000916 0.000941 -0.001425 -0.003225 0.026191
#
#
# Mechanical properties :
#
#
# Convention : Reuss Voigt Hill
#
# Bulk Modulus (GPa) = 34.30216 58.80136 46.55176
# Shear Modulus (GPa) = 27.06274 37.42120 32.24197
#
# Velocity S-wave (km/s) = 3.46219 4.07122 3.77899
# Velocity P-wave (km/s) = 5.58352 6.93862 6.29762
#
# Compressibility (1/GPa) = 0.02915269
#
# Stress axis : x y z
#
# Youngs Moduli (GPa) = 72.78977 103.35843 27.18007
#
# Poissons Ratio (x) = 0.41492 0.16946
# Poissons Ratio (y) = 0.29220 0.14343
# Poissons Ratio (z) = 0.45384 0.54541
#
# Static dielectric constant tensor:
#      x y z
#    x 4.036250 0.264850 0.054430 
#    y 0.264850 3.936050 -0.134420 
#    z 0.054430 -0.134420 4.082380 
# 
# 
# High freq. dielectric constant tensor:
#      x y z
#    x 1.900130 0.022880 0.006990 
#    y 0.022880 1.889640 0.013850 
#    z 0.006990 0.013850 1.895980 
# 
# From -- ./inp_files/456997.got.cif
#   From: 2010.06.25/outbox.cif.g09.slc.cpg/sg2_229_cif.got.tgz:456997.got - 2010.06.27 13:26:56.
