data_PCOD8029298
_publ_section_title
;
Structure prediction by ZEFSAII (Michael W. Deem and Ramdas Pophale) SiO2 
 PCOD8029298
Probable space group: P -1
;
_chemical_formula_sum "Si O2"
_cell_formula_units_Z 14
_cell_length_a 13.724231
_cell_length_b 24.433493
_cell_length_c 13.536394
_cell_angle_alpha 157.990150
_cell_angle_beta 147.251396
_cell_angle_gamma 22.565151
_cell_volume 649.175967
_symmetry_space_group_name_H-M "P -1"
_symmetry_group_IT_number 2
_symmetry_cell_setting 'triclinic'
loop_
_space_group_symop_operation_xyz
x,y,z
-x,-y,-z
loop_
_atom_site_type_symbol
_atom_site_label
_atom_site_fract_x
_atom_site_fract_y
_atom_site_fract_z
Si Si1 0.284680 0.036736 0.431483
Si Si2 0.392797 0.974857 0.638663
Si Si3 0.621167 0.592900 0.989055
Si Si4 0.126666 0.408574 0.182740
Si Si5 0.644629 0.344722 0.952902
Si Si6 0.747469 0.451616 0.643375
Si Si7 0.979945 0.637005 0.631207
O O1 0.008417 0.217184 0.448317
O O2 0.500000 0.000000 0.500000
O O3 0.306102 0.079918 0.633508
O O4 0.353996 0.826647 0.128067
O O5 0.688078 0.828593 0.671456
O O6 0.309660 0.851744 0.367312
O O7 0.231721 0.183098 0.916702
O O8 0.535994 0.524961 0.885746
O O9 0.763033 0.467236 0.800080
O O10 0.821880 0.583996 0.199074
O O11 0.270800 0.398494 0.194007
O O12 0.158616 0.487562 0.440581
O O13 0.912862 0.272423 0.080973
O O14 0.500000 0.500000 0.000000
O O15 0.500000 0.500000 0.500000
O O16 0.000000 0.500000 0.500000
#
# Coordination Sequence:
#
# PCOD8029298 Si02
#       7
#     2   2   2   2   2   2   2
#     4  11  20  39  69  94 137 191 224 274 356 415
#     4  11  24  42  71 100 136 181 232 285 356 408
#     4  11  22  40  68  94 139 187 228 285 349 418
#     4  12  23  43  71 102 139 182 233 291 352 413
#     4  11  23  47  70  98 139 185 232 291 356 424
#     4  12  25  40  66 109 144 181 239 291 348 428
#     4  12  24  47  71  98 137 182 235 292 352 425
#
# _framework density 21.565801
#
# number of rings (size 3 to 8) (size 9 to 14) (size 15 to 20)
#    0.000    0.571    7.143    2.143    0.000    3.429 
#    2.571    1.429    0.000    0.000    0.000    0.000 
#    0.000    0.000    0.000    0.000    0.000    0.000 
#
# Total GULP energy -173433.721611 kJ/mol
# GULP energy per Si atom -12388.122972 kJ/mol
# Density = 2.151672 g / cm^3
# Si number density = 21.565801 Si / 1000 Ang^3
#
#
#
# Elastic Constant Matrix: (Units=GPa)
#
#
# Indices 1 2 3 4 5 6 
#
# 1 129.0063 36.2739 35.9641 -0.0152 13.9817 6.6118
# 2 36.2739 143.7100 67.8626 -8.0242 13.0910 -13.1304
# 3 35.9641 67.8626 124.7270 1.9833 13.5928 -3.7435
# 4 -0.0152 -8.0242 1.9833 40.2533 -9.0115 4.5977
# 5 13.9817 13.0910 13.5928 -9.0115 29.7687 -4.6404
# 6 6.6118 -13.1304 -3.7435 4.5977 -4.6404 33.0374
#
#
#
# Elastic Compliance Matrix: (Units=1/GPa)
#
#
# Indices 1 2 3 4 5 6 
#
# 1 0.009158 -0.001617 -0.001447 -0.000710 -0.003620 -0.003049
# 2 -0.001617 0.010153 -0.004941 0.001786 -0.000363 0.003499
# 3 -0.001447 -0.004941 0.011485 -0.002195 -0.003135 -0.000508
# 4 -0.000710 0.001786 -0.002195 0.027450 0.008546 -0.002017
# 5 -0.003620 -0.000363 -0.003135 0.008546 0.040200 0.004682
# 6 -0.003049 0.003499 -0.000508 -0.002017 0.004682 0.033150
#
#
# Mechanical properties :
#
#
# Convention : Reuss Voigt Hill
#
# Bulk Modulus (GPa) = 67.63593 75.29384 71.46488
# Shear Modulus (GPa) = 32.77950 37.76806 35.27378
#
# Velocity S-wave (km/s) = 3.90292 4.18939 4.04869
# Velocity P-wave (km/s) = 7.19312 7.64137 7.42063
#
# Compressibility (1/GPa) = 0.01478504
#
# Stress axis : x y z
#
# Youngs Moduli (GPa) = 109.19424 98.49770 87.07315
#
# Poissons Ratio (x) = 0.15926 0.12596
# Poissons Ratio (y) = 0.17656 0.43027
# Poissons Ratio (z) = 0.15796 0.48673
#
# Static dielectric constant tensor:
#      x y z
#    x 5.602840 1.150590 -0.100630 
#    y 1.150590 4.752520 -0.118120 
#    z -0.100630 -0.118120 3.737400 
# 
# 
# High freq. dielectric constant tensor:
#      x y z
#    x 1.854250 0.006370 0.001020 
#    y 0.006370 1.852170 -0.001020 
#    z 0.001020 -0.001020 1.835380 
# 
# From -- ./inp_files/535590.got.cif
#   From: 2010.06.25/outbox.cif.g09.slc.cpg/sg2_268_cif.got.tgz:535590.got - 2010.06.27 13:26:56.
