data_PCOD8029201
_publ_section_title
;
Structure prediction by ZEFSAII (Michael W. Deem and Ramdas Pophale) SiO2 
 PCOD8029201
Probable space group: P -1
;
_chemical_formula_sum "Si O2"
_cell_formula_units_Z 16
_cell_length_a 19.778877
_cell_length_b 10.167867
_cell_length_c 13.332386
_cell_angle_alpha 128.582990
_cell_angle_beta 155.388951
_cell_angle_gamma 42.133421
_cell_volume 736.727621
_symmetry_space_group_name_H-M "P -1"
_symmetry_group_IT_number 2
_symmetry_cell_setting 'triclinic'
loop_
_space_group_symop_operation_xyz
x,y,z
-x,-y,-z
loop_
_atom_site_type_symbol
_atom_site_label
_atom_site_fract_x
_atom_site_fract_y
_atom_site_fract_z
Si Si1 0.585806 0.904297 0.858354
Si Si2 0.180832 0.905363 0.816580
Si Si3 0.323210 0.330708 0.323040
Si Si4 0.551650 0.401019 0.808707
Si Si5 0.224116 0.428848 0.880109
Si Si6 0.785428 0.691287 0.415140
Si Si7 0.801954 0.393281 0.444680
Si Si8 0.987243 0.285582 0.836019
O O1 0.585282 0.759529 0.703693
O O2 0.361008 0.071325 0.655173
O O3 0.696180 0.766415 0.036912
O O4 0.693703 0.013484 0.021731
O O5 0.101975 0.820443 0.584598
O O6 0.298594 0.724337 0.963764
O O7 0.010742 0.074917 0.739422
O O8 0.490487 0.266422 0.600279
O O9 0.190618 0.576024 0.263102
O O10 0.182312 0.256100 0.131203
O O11 0.371043 0.583400 0.709474
O O12 0.638000 0.485768 0.886042
O O13 0.229006 0.359156 0.741409
O O14 0.007857 0.607387 0.703070
O O15 0.719416 0.578018 0.345933
O O16 0.953673 0.387794 0.727030
#
# Coordination Sequence:
#
# PCOD8029201 Si02
#       8
#     2   2   2   2   2   2   2   2
#     4  11  23  42  65  92 125 179 211 248 324 384
#     4  11  20  37  66  98 122 159 215 263 320 369
#     4   9  21  41  59  89 129 167 210 256 307 379
#     4  11  22  41  63  91 129 165 205 268 309 367
#     4  11  25  42  62  94 135 163 207 267 323 375
#     4  11  22  42  66  93 132 167 206 261 327 383
#     4  11  20  39  67  95 127 157 210 272 313 372
#     4   9  20  36  60  97 126 160 206 268 317 362
#
# _framework density 21.717659000000001
#
# number of rings (size 3 to 8) (size 9 to 14) (size 15 to 20)
#    0.000    1.500    2.500    3.375    0.000    2.500 
#    9.000    0.625    0.000    0.000    0.000    0.000 
#    0.000    0.000    0.000    0.000    0.000    0.000 
#
# Total GULP energy -198240.625063 kJ/mol
# GULP energy per Si atom -12390.039066 kJ/mol
# Density = 2.166823 g / cm^3
# Si number density = 21.717659 Si / 1000 Ang^3
#
#
#
# Elastic Constant Matrix: (Units=GPa)
#
#
# Indices 1 2 3 4 5 6 
#
# 1 71.5159 40.8652 41.4413 2.2273 4.2839 -8.8237
# 2 40.8652 99.9976 44.0395 -4.5856 -2.1780 -20.9785
# 3 41.4413 44.0395 66.0645 1.8840 -0.8718 -18.2902
# 4 2.2273 -4.5856 1.8840 34.3617 -8.4714 -5.0304
# 5 4.2839 -2.1780 -0.8718 -8.4714 29.0357 -0.9622
# 6 -8.8237 -20.9785 -18.2902 -5.0304 -0.9622 47.6032
#
#
#
# Elastic Compliance Matrix: (Units=1/GPa)
#
#
# Indices 1 2 3 4 5 6 
#
# 1 0.024371 -0.005365 -0.012556 -0.003418 -0.005476 -0.003143
# 2 -0.005365 0.016107 -0.006288 0.004243 0.003188 0.004201
# 3 -0.012556 -0.006288 0.028914 -0.000131 0.002411 0.006046
# 4 -0.003418 0.004243 -0.000131 0.033250 0.010683 0.004916
# 5 -0.005476 0.003188 0.002411 0.010683 0.038784 0.003229
# 6 -0.003143 0.004201 0.006046 0.004916 0.003229 0.025183
#
#
# Mechanical properties :
#
#
# Convention : Reuss Voigt Hill
#
# Bulk Modulus (GPa) = 47.67771 54.47442 51.07606
# Shear Modulus (GPa) = 22.52054 29.61559 26.06807
#
# Velocity S-wave (km/s) = 3.22369 3.69679 3.46832
# Velocity P-wave (km/s) = 5.98810 6.58476 6.29351
#
# Compressibility (1/GPa) = 0.02097416
#
# Stress axis : x y z
#
# Youngs Moduli (GPa) = 41.03190 62.08393 34.58538
#
# Poissons Ratio (x) = 0.33309 0.43426
# Poissons Ratio (y) = 0.22014 0.21746
# Poissons Ratio (z) = 0.51521 0.39036
#
# Static dielectric constant tensor:
#      x y z
#    x 3.992710 -0.334970 -0.019090 
#    y -0.334970 4.068730 -0.249590 
#    z -0.019090 -0.249590 4.164170 
# 
# 
# High freq. dielectric constant tensor:
#      x y z
#    x 1.835480 -0.027370 -0.011880 
#    y -0.027370 1.844430 -0.014460 
#    z -0.011880 -0.014460 1.860200 
# 
# From -- ./inp_files/462371.got.cif
#   From: 2010.06.25/outbox.cif.g09.slc.cpg/sg2_232_cif.got.tgz:462371.got - 2010.06.27 13:26:56.
