data_PCOD8029319
_publ_section_title
;
Structure prediction by ZEFSAII (Michael W. Deem and Ramdas Pophale) SiO2 
 PCOD8029319
Probable space group: P -1
;
_chemical_formula_sum "Si O2"
_cell_formula_units_Z 16
_cell_length_a 11.571475
_cell_length_b 9.219930
_cell_length_c 13.907445
_cell_angle_alpha 46.610980
_cell_angle_beta 122.897536
_cell_angle_gamma 143.476952
_cell_volume 641.584921
_symmetry_space_group_name_H-M "P -1"
_symmetry_group_IT_number 2
_symmetry_cell_setting 'triclinic'
loop_
_space_group_symop_operation_xyz
x,y,z
-x,-y,-z
loop_
_atom_site_type_symbol
_atom_site_label
_atom_site_fract_x
_atom_site_fract_y
_atom_site_fract_z
Si Si1 0.867758 0.258382 0.182777
Si Si2 0.204758 0.788475 0.493393
Si Si3 0.300564 0.487288 0.748483
Si Si4 0.395665 0.156745 0.893743
Si Si5 0.253610 0.457938 0.248296
Si Si6 0.144286 0.061622 0.214943
Si Si7 0.806552 0.922789 0.470209
Si Si8 0.344762 0.570034 0.945085
O O1 0.819960 0.430623 0.117518
O O2 0.099078 0.468091 0.207590
O O3 0.800526 0.155582 0.087356
O O4 0.744251 0.967228 0.322377
O O5 0.343915 0.737950 0.595966
O O6 0.000000 0.500000 0.500000
O O7 0.274740 0.007037 0.338720
O O8 0.170342 0.872784 0.537789
O O9 0.382412 0.383728 0.773108
O O10 0.403424 0.600397 0.847568
O O11 0.070153 0.224382 0.782854
O O12 0.565043 0.252934 0.854004
O O13 0.459154 0.169262 0.025840
O O14 0.128454 0.199701 0.233412
O O15 0.328944 0.390924 0.401188
O O16 0.256794 0.272950 0.080372
O O17 0.000000 0.000000 0.500000
#
# Coordination Sequence:
#
# PCOD8029319 Si02
#       8
#     2   2   2   2   2   2   2   2
#     4  11  21  41  66  88 125 171 202 257 313 359
#     4   9  18  34  63  91 121 157 210 246 308 374
#     4  11  20  40  64  90 124 170 200 256 319 359
#     4  11  24  39  63  89 128 165 207 254 306 372
#     4   9  20  40  62  93 123 157 214 251 307 367
#     4   9  19  37  62  91 122 158 206 256 301 373
#     4   9  18  35  63  90 123 160 203 261 305 358
#     4  11  23  39  62  91 127 159 214 256 303 371
#
# _framework density 24.938241999999999
#
# number of rings (size 3 to 8) (size 9 to 14) (size 15 to 20)
#    0.000    2.000    2.500    1.125    1.750    2.500 
#    2.250    5.625    0.000    0.000    0.000    0.000 
#    0.000    0.000    0.000    0.000    0.000    0.000 
#
# Total GULP energy -198257.079808 kJ/mol
# GULP energy per Si atom -12391.067488 kJ/mol
# Density = 2.488148 g / cm^3
# Si number density = 24.938242 Si / 1000 Ang^3
#
#
#
# Elastic Constant Matrix: (Units=GPa)
#
#
# Indices 1 2 3 4 5 6 
#
# 1 76.2209 -4.0433 17.9381 0.2561 27.7770 -13.7618
# 2 -4.0433 36.6193 6.7867 5.6724 3.7518 -5.2037
# 3 17.9381 6.7867 130.0639 4.8556 2.4850 2.3923
# 4 0.2561 5.6724 4.8556 27.7863 -6.0088 3.4275
# 5 27.7770 3.7518 2.4850 -6.0088 41.2174 -2.7639
# 6 -13.7618 -5.2037 2.3923 3.4275 -2.7639 25.7996
#
#
#
# Elastic Compliance Matrix: (Units=1/GPa)
#
#
# Indices 1 2 3 4 5 6 
#
# 1 0.022234 0.007390 -0.003164 -0.006090 -0.015495 0.012793
# 2 0.007390 0.032472 -0.002403 -0.009465 -0.008429 0.011069
# 3 -0.003164 -0.002403 0.008278 -0.000236 0.001634 -0.002733
# 4 -0.006090 -0.009465 -0.000236 0.041439 0.010382 -0.009529
# 5 -0.015495 -0.008429 0.001634 0.010382 0.036377 -0.007599
# 6 0.012793 0.011069 -0.002733 -0.009529 -0.007599 0.048522
#
#
# Mechanical properties :
#
#
# Convention : Reuss Voigt Hill
#
# Bulk Modulus (GPa) = 15.00821 31.58522 23.29671
# Shear Modulus (GPa) = 24.05177 33.77548 28.91362
#
# Velocity S-wave (km/s) = 3.10893 3.68416 3.40870
# Velocity P-wave (km/s) = 4.34954 5.54890 4.98542
#
# Compressibility (1/GPa) = 0.06663021
#
# Stress axis : x y z
#
# Youngs Moduli (GPa) = 44.97710 30.79584 120.79998
#
# Poissons Ratio (x) = -0.22758 0.38220
# Poissons Ratio (y) = -0.33238 0.29025
# Poissons Ratio (z) = 0.14230 0.07400
#
# Static dielectric constant tensor:
#      x y z
#    x 4.200130 -0.173670 0.163280 
#    y -0.173670 4.071680 0.033730 
#    z 0.163280 0.033730 5.450910 
# 
# 
# High freq. dielectric constant tensor:
#      x y z
#    x 1.978370 -0.008680 0.019270 
#    y -0.008680 1.963410 0.000650 
#    z 0.019270 0.000650 2.020130 
# 
# From -- ./inp_files/515101.got.cif
#   From: 2010.06.25/outbox.cif.g09.slc.cpg/sg2_258_cif.got.tgz:515101.got - 2010.06.27 13:26:56.
