data_PCOD8029264
_publ_section_title
;
Structure prediction by ZEFSAII (Michael W. Deem and Ramdas Pophale) SiO2 
 PCOD8029264
Probable space group: P -1
;
_chemical_formula_sum "Si O2"
_cell_formula_units_Z 16
_cell_length_a 10.095428
_cell_length_b 18.087033
_cell_length_c 19.569039
_cell_angle_alpha 21.193393
_cell_angle_beta 147.101215
_cell_angle_gamma 139.252260
_cell_volume 695.815452
_symmetry_space_group_name_H-M "P -1"
_symmetry_group_IT_number 2
_symmetry_cell_setting 'triclinic'
loop_
_space_group_symop_operation_xyz
x,y,z
-x,-y,-z
loop_
_atom_site_type_symbol
_atom_site_label
_atom_site_fract_x
_atom_site_fract_y
_atom_site_fract_z
Si Si1 0.646067 0.404112 0.910724
Si Si2 0.053344 0.947543 0.251605
Si Si3 0.975662 0.836282 0.813408
Si Si4 0.426073 0.927565 0.659366
Si Si5 0.106837 0.480877 0.638312
Si Si6 0.848737 0.411052 0.137780
Si Si7 0.166229 0.861011 0.138561
Si Si8 0.354260 0.196609 0.522127
O O1 0.380029 0.350938 0.866182
O O2 0.585319 0.615690 0.660542
O O3 0.820816 0.438724 0.020056
O O4 0.784203 0.223167 0.078834
O O5 0.951872 0.008233 0.230889
O O6 0.294028 0.057608 0.248345
O O7 0.118459 0.702523 0.486311
O O8 0.850535 0.033556 0.033863
O O9 0.740921 0.934356 0.585275
O O10 0.892533 0.635878 0.989548
O O11 0.377250 0.686657 0.841031
O O12 0.361041 0.994441 0.651879
O O13 0.000000 0.500000 0.500000
O O14 0.933361 0.361026 0.714383
O O15 0.087898 0.244797 0.400099
O O16 0.449392 0.838410 0.302091
O O17 0.000000 0.000000 0.000000
#
# Coordination Sequence:
#
# PCOD8029264 Si02
#       8
#     2   2   2   2   2   2   2   2
#     4  11  20  41  69  95 126 170 213 267 316 379
#     4  12  26  43  64  97 135 171 207 267 326 380
#     4  11  25  42  61  98 140 165 205 266 331 382
#     4  12  21  40  67  98 126 166 217 264 318 377
#     4  12  22  42  71  93 122 168 223 267 309 373
#     4  11  23  38  69  95 126 169 216 265 317 377
#     4  12  23  40  69  95 124 168 225 264 308 381
#     4  11  20  39  63  99 124 156 219 276 301 366
#
# _framework density 22.994603999999999
#
# number of rings (size 3 to 8) (size 9 to 14) (size 15 to 20)
#    0.000    0.500    7.500    2.250    0.000    1.500 
#    0.000    3.125    0.000    0.000    0.000    0.000 
#    0.000    0.000    0.000    0.000    0.000    0.000 
#
# Total GULP energy -198465.720311 kJ/mol
# GULP energy per Si atom -12404.107519 kJ/mol
# Density = 2.294227 g / cm^3
# Si number density = 22.994604 Si / 1000 Ang^3
#
#
#
# Elastic Constant Matrix: (Units=GPa)
#
#
# Indices 1 2 3 4 5 6 
#
# 1 36.4815 31.7952 14.5587 -5.4379 4.9463 -11.6803
# 2 31.7952 107.0177 45.6536 9.7215 13.1695 -12.2421
# 3 14.5587 45.6536 99.6856 18.0597 1.4179 -10.0327
# 4 -5.4379 9.7215 18.0597 49.7757 -1.7362 -2.1071
# 5 4.9463 13.1695 1.4179 -1.7362 19.0053 -9.2531
# 6 -11.6803 -12.2421 -10.0327 -2.1071 -9.2531 35.0969
#
#
#
# Elastic Compliance Matrix: (Units=1/GPa)
#
#
# Indices 1 2 3 4 5 6 
#
# 1 0.042652 -0.012105 -0.001071 0.008002 0.003486 0.011066
# 2 -0.012105 0.016321 -0.005276 -0.003023 -0.009240 -0.002461
# 3 -0.001071 -0.005276 0.013472 -0.003741 0.003767 0.002423
# 4 0.008002 -0.003023 -0.003741 0.023170 0.003840 0.002943
# 5 0.003486 -0.009240 0.003767 0.003840 0.066328 0.016732
# 6 0.011066 -0.002461 0.002423 0.002943 0.016732 0.036597
#
#
# Mechanical properties :
#
#
# Convention : Reuss Voigt Hill
#
# Bulk Modulus (GPa) = 28.13587 47.46664 37.80125
# Shear Modulus (GPa) = 20.21901 30.85406 25.53654
#
# Velocity S-wave (km/s) = 2.96851 3.66703 3.33610
# Velocity P-wave (km/s) = 4.90018 6.21424 5.59592
#
# Compressibility (1/GPa) = 0.03554182
#
# Stress axis : x y z
#
# Youngs Moduli (GPa) = 23.44564 61.26928 74.22806
#
# Poissons Ratio (x) = 0.74168 0.07949
# Poissons Ratio (y) = 0.28381 0.39160
# Poissons Ratio (z) = 0.02511 0.32323
#
# Static dielectric constant tensor:
#      x y z
#    x 3.828870 0.090850 -0.113690 
#    y 0.090850 4.315820 0.057930 
#    z -0.113690 0.057930 4.370370 
# 
# 
# High freq. dielectric constant tensor:
#      x y z
#    x 1.876870 0.014990 -0.013070 
#    y 0.014990 1.910240 0.002790 
#    z -0.013070 0.002790 1.923200 
# 
# From -- ./inp_files/577892.got.cif
#   From: 2010.06.25/outbox.cif.g09.slc.cpg/sg2_289_cif.got.tgz:577892.got - 2010.06.27 13:26:56.
