data_PCOD8029748
_publ_section_title
;
Structure prediction by ZEFSAII (Michael W. Deem and Ramdas Pophale) SiO2 
 PCOD8029748
Probable space group: P -1
;
_chemical_formula_sum "Si O2"
_cell_formula_units_Z 12
_cell_length_a 9.113161
_cell_length_b 8.710419
_cell_length_c 14.119613
_cell_angle_alpha 147.671664
_cell_angle_beta 65.226305
_cell_angle_gamma 112.058281
_cell_volume 543.681859
_symmetry_space_group_name_H-M "P -1"
_symmetry_group_IT_number 2
_symmetry_cell_setting 'triclinic'
loop_
_space_group_symop_operation_xyz
x,y,z
-x,-y,-z
loop_
_atom_site_type_symbol
_atom_site_label
_atom_site_fract_x
_atom_site_fract_y
_atom_site_fract_z
Si Si1 0.536580 0.684530 0.856328
Si Si2 0.898196 0.085417 0.283578
Si Si3 0.770898 0.682108 0.631204
Si Si4 0.667727 0.856088 0.390215
Si Si5 0.635246 0.064186 0.709232
Si Si6 0.311909 0.300730 0.971017
O O1 0.661071 0.560036 0.683103
O O2 0.371079 0.484689 0.796637
O O3 0.628480 0.699186 0.938183
O O4 0.500000 0.000000 0.000000
O O5 0.851945 0.399485 0.422349
O O6 0.089705 0.087578 0.252089
O O7 0.809750 0.975105 0.345958
O O8 0.856641 0.871911 0.095338
O O9 0.656743 0.831537 0.664382
O O10 0.500000 0.000000 0.500000
O O11 0.717458 0.932277 0.525150
O O12 0.444939 0.138027 0.785462
O O13 0.717294 0.370540 0.879086
#
# Coordination Sequence:
#
# PCOD8029748 Si02
#       6
#     2   2   2   2   2   2
#     4  12  24  40  65  96 124 162 213 259 303 371
#     4  11  25  43  64  92 132 165 202 262 313 368
#     4  11  25  43  62  96 130 162 207 259 315 364
#     4  12  21  42  65  90 124 169 207 253 310 373
#     4  11  22  38  67  94 123 164 212 256 305 374
#     4  11  21  39  64  95 123 164 210 256 310 366
#
# _framework density 22.071728
#
# number of rings (size 3 to 8) (size 9 to 14) (size 15 to 20)
#    0.000    0.667    6.667    1.000    2.333    3.333 
#    0.000    0.000    0.000    0.000    0.000    0.000 
#    0.000    0.000    0.000    0.000    0.000    0.000 
#
# Total GULP energy -148745.608180 kJ/mol
# GULP energy per Si atom -12395.467348 kJ/mol
# Density = 2.202149 g / cm^3
# Si number density = 22.071728 Si / 1000 Ang^3
#
#
#
# Elastic Constant Matrix: (Units=GPa)
#
#
# Indices 1 2 3 4 5 6 
#
# 1 52.4801 23.3280 19.1456 6.7126 20.4673 8.2160
# 2 23.3280 94.7952 23.7214 7.0404 8.4300 -6.5877
# 3 19.1456 23.7214 82.6139 11.3182 22.7014 -13.0123
# 4 6.7126 7.0404 11.3182 41.2862 -1.9868 8.1415
# 5 20.4673 8.4300 22.7014 -1.9868 38.5340 5.5727
# 6 8.2160 -6.5877 -13.0123 8.1415 5.5727 29.3560
#
#
#
# Elastic Compliance Matrix: (Units=1/GPa)
#
#
# Indices 1 2 3 4 5 6 
#
# 1 0.028452 -0.005702 -0.002899 -0.001833 -0.011107 -0.007911
# 2 -0.005702 0.012709 -0.001618 -0.001573 0.000533 0.004066
# 3 -0.002899 -0.001618 0.019869 -0.008008 -0.012219 0.013796
# 4 -0.001833 -0.001573 -0.008008 0.030115 0.009548 -0.013554
# 5 -0.011107 0.000533 -0.012219 0.009548 0.041257 -0.012668
# 6 -0.007911 0.004066 0.013796 -0.013554 -0.012668 0.049470
#
#
# Mechanical properties :
#
#
# Convention : Reuss Voigt Hill
#
# Bulk Modulus (GPa) = 24.63600 40.25324 32.44462
# Shear Modulus (GPa) = 23.16515 32.74819 27.95667
#
# Velocity S-wave (km/s) = 3.24317 3.85608 3.56283
# Velocity P-wave (km/s) = 5.02098 6.17275 5.62642
#
# Compressibility (1/GPa) = 0.04059100
#
# Stress axis : x y z
#
# Youngs Moduli (GPa) = 35.14704 78.68307 50.33008
#
# Poissons Ratio (x) = 0.44866 0.14591
# Poissons Ratio (y) = 0.20041 0.08145
# Poissons Ratio (z) = 0.10189 0.12734
#
# Static dielectric constant tensor:
#      x y z
#    x 4.393060 0.181530 1.069880 
#    y 0.181530 4.328600 0.286750 
#    z 1.069880 0.286750 5.719990 
# 
# 
# High freq. dielectric constant tensor:
#      x y z
#    x 1.841350 -0.008120 0.019020 
#    y -0.008120 1.874570 0.011810 
#    z 0.019020 0.011810 1.879230 
# 
# From -- ./inp_files/148030.got.cif
#   From: 2010.06.25/outbox.cif.g09.slc.cpg/sg2_75_cif.got.tgz:148030.got - 2010.06.27 13:26:56.
