data_PCOD8029940
_publ_section_title
;
Structure prediction by ZEFSAII (Michael W. Deem and Ramdas Pophale) SiO2 
 PCOD8029940
Probable space group: P -1
;
_chemical_formula_sum "Si O2"
_cell_formula_units_Z 16
_cell_length_a 12.009994
_cell_length_b 9.277966
_cell_length_c 14.616304
_cell_angle_alpha 140.570126
_cell_angle_beta 131.635882
_cell_angle_gamma 54.931846
_cell_volume 766.620603
_symmetry_space_group_name_H-M "P -1"
_symmetry_group_IT_number 2
_symmetry_cell_setting 'triclinic'
loop_
_space_group_symop_operation_xyz
x,y,z
-x,-y,-z
loop_
_atom_site_type_symbol
_atom_site_label
_atom_site_fract_x
_atom_site_fract_y
_atom_site_fract_z
Si Si1 0.153698 0.867787 0.175394
Si Si2 0.095128 0.449426 0.839769
Si Si3 0.248944 0.441947 0.264145
Si Si4 0.687820 0.734671 0.599378
Si Si5 0.178030 0.669695 0.642509
Si Si6 0.853481 0.692089 0.403130
Si Si7 0.640711 0.144358 0.560051
Si Si8 0.838665 0.842444 0.087808
O O1 0.297100 0.774565 0.269930
O O2 0.004951 0.865929 0.153527
O O3 0.172096 0.123980 0.276315
O O4 0.147739 0.700338 0.003600
O O5 0.163751 0.343432 0.731637
O O6 0.154990 0.294723 0.881851
O O7 0.916691 0.467854 0.746586
O O8 0.332684 0.286989 0.313847
O O9 0.334233 0.662425 0.405586
O O10 0.251119 0.288882 0.099200
O O11 0.719051 0.483955 0.448747
O O12 0.537126 0.871571 0.540579
O O13 0.170840 0.537733 0.669374
O O14 0.016538 0.752820 0.549351
O O15 0.248240 0.903215 0.817190
O O16 0.727464 0.896612 0.462430
#
# Coordination Sequence:
#
# PCOD8029940 Si02
#       8
#     2   2   2   2   2   2   2   2
#     4  11  21  41  65  92 121 168 210 250 307 369
#     4  11  22  39  68  94 123 162 208 263 308 359
#     4  11  23  41  64  94 124 166 209 254 308 368
#     4  12  26  40  65  92 128 170 202 252 314 368
#     4  11  22  40  60  99 125 156 208 264 305 358
#     4  11  23  39  65  94 125 160 211 257 306 363
#     4  12  23  45  63  88 131 168 208 247 306 385
#     4  11  22  40  67  93 127 156 210 266 307 356
#
# _framework density 20.870818
#
# number of rings (size 3 to 8) (size 9 to 14) (size 15 to 20)
#    0.000    0.750    6.250    2.250    3.500    2.000 
#    0.000    2.500    0.000    0.000    0.000    0.000 
#    0.000    0.000    0.000    0.000    0.000    0.000 
#
# Total GULP energy -198440.674907 kJ/mol
# GULP energy per Si atom -12402.542182 kJ/mol
# Density = 2.082332 g / cm^3
# Si number density = 20.870818 Si / 1000 Ang^3
#
#
#
# Elastic Constant Matrix: (Units=GPa)
#
#
# Indices 1 2 3 4 5 6 
#
# 1 52.8056 18.5017 35.5946 0.4362 -11.8512 -3.1742
# 2 18.5017 79.3815 29.8488 8.5852 -12.2949 -2.3957
# 3 35.5946 29.8488 91.3631 14.3955 -15.2656 -4.3388
# 4 0.4362 8.5852 14.3955 37.0023 6.8702 -6.7257
# 5 -11.8512 -12.2949 -15.2656 6.8702 29.8690 1.8354
# 6 -3.1742 -2.3957 -4.3388 -6.7257 1.8354 39.7202
#
#
#
# Elastic Compliance Matrix: (Units=1/GPa)
#
#
# Indices 1 2 3 4 5 6 
#
# 1 0.027236 -0.002446 -0.009633 0.003506 0.003985 0.001386
# 2 -0.002446 0.015284 -0.002732 -0.003399 0.004729 -0.000366
# 3 -0.009633 -0.002732 0.017687 -0.007304 0.005804 -0.000507
# 4 0.003506 -0.003399 -0.007304 0.033826 -0.011862 0.005553
# 5 0.003985 0.004729 0.005804 -0.011862 0.042871 -0.002752
# 6 0.001386 -0.000366 -0.000507 0.005553 -0.002752 0.026277
#
#
# Mechanical properties :
#
#
# Convention : Reuss Voigt Hill
#
# Bulk Modulus (GPa) = 32.69516 43.49334 38.09425
# Shear Modulus (GPa) = 24.63079 30.62531 27.62805
#
# Velocity S-wave (km/s) = 3.43906 3.83479 3.64230
# Velocity P-wave (km/s) = 5.60973 6.36333 5.99838
#
# Compressibility (1/GPa) = 0.03058556
#
# Stress axis : x y z
#
# Youngs Moduli (GPa) = 36.71574 65.42898 56.53795
#
# Poissons Ratio (x) = 0.16005 0.54461
# Poissons Ratio (y) = 0.08981 0.15446
# Poissons Ratio (z) = 0.35367 0.17875
#
# Static dielectric constant tensor:
#      x y z
#    x 3.577200 0.191230 -0.044790 
#    y 0.191230 3.821510 0.092050 
#    z -0.044790 0.092050 4.007740 
# 
# 
# High freq. dielectric constant tensor:
#      x y z
#    x 1.796730 0.022220 -0.007440 
#    y 0.022220 1.820300 0.006730 
#    z -0.007440 0.006730 1.821730 
# 
# From -- ./inp_files/259383.got.cif
#   From: 2010.06.25/outbox.cif.g09.slc.cpg/sg2_130_cif.got.tgz:259383.got - 2010.06.27 13:26:56.
