data_PCOD8029347
_publ_section_title
;
Structure prediction by ZEFSAII (Michael W. Deem and Ramdas Pophale) SiO2 
 PCOD8029347
Probable space group: P -1
;
_chemical_formula_sum "Si O2"
_cell_formula_units_Z 14
_cell_length_a 12.711365
_cell_length_b 15.719330
_cell_length_c 21.498385
_cell_angle_alpha 19.328785
_cell_angle_beta 150.041960
_cell_angle_gamma 153.269559
_cell_volume 631.439366
_symmetry_space_group_name_H-M "P -1"
_symmetry_group_IT_number 2
_symmetry_cell_setting 'triclinic'
loop_
_space_group_symop_operation_xyz
x,y,z
-x,-y,-z
loop_
_atom_site_type_symbol
_atom_site_label
_atom_site_fract_x
_atom_site_fract_y
_atom_site_fract_z
Si Si1 0.647739 0.324425 0.692126
Si Si2 0.587347 0.723925 0.075489
Si Si3 0.995282 0.037295 0.774213
Si Si4 0.736127 0.274207 0.908994
Si Si5 0.522809 0.376843 0.162506
Si Si6 0.159550 0.338617 0.200602
Si Si7 0.960024 0.274471 0.469735
O O1 0.500000 0.500000 0.500000
O O2 0.771390 0.366406 0.792391
O O3 0.838020 0.438083 0.655729
O O4 0.505237 0.976366 0.850104
O O5 0.633228 0.631266 0.095015
O O6 0.374996 0.444208 0.189619
O O7 0.818549 0.829955 0.165427
O O8 0.004226 0.282973 0.561191
O O9 0.733402 0.875834 0.778049
O O10 0.050551 0.816553 0.910585
O O11 0.741791 0.550052 0.756470
O O12 0.500000 0.000000 0.000000
O O13 0.702101 0.239171 0.345434
O O14 0.500000 0.500000 0.000000
O O15 0.019313 0.993966 0.366714
O O16 0.000000 0.500000 0.000000
#
# Coordination Sequence:
#
# PCOD8029347 Si02
#       7
#     2   2   2   2   2   2   2
#     4  11  24  40  68 106 140 173 232 286 346 417
#     4  11  25  46  73  98 136 196 230 279 359 410
#     4  11  23  44  72 100 138 181 234 288 341 416
#     4  11  20  40  68  98 135 181 223 281 342 410
#     4  12  27  49  69  99 146 182 237 293 344 414
#     4  12  22  40  73 101 138 180 230 281 354 412
#     4  12  26  43  70 106 140 183 234 296 342 412
#
# _framework density 22.171567
#
# number of rings (size 3 to 8) (size 9 to 14) (size 15 to 20)
#    0.000    0.571    5.714    3.857    0.000    4.571 
#    0.000    0.000    0.000    0.000    0.000    0.000 
#    0.000    0.000    0.000    0.000    0.000    0.000 
#
# Total GULP energy -173516.308225 kJ/mol
# GULP energy per Si atom -12394.022016 kJ/mol
# Density = 2.212110 g / cm^3
# Si number density = 22.171567 Si / 1000 Ang^3
#
#
#
# Elastic Constant Matrix: (Units=GPa)
#
#
# Indices 1 2 3 4 5 6 
#
# 1 128.2935 29.3754 30.4097 12.2323 -23.3744 -2.4283
# 2 29.3754 72.9136 18.4707 10.3451 -6.4970 -3.5312
# 3 30.4097 18.4707 98.9082 21.5309 -10.9450 -5.7045
# 4 12.2323 10.3451 21.5309 37.4130 2.8083 9.3412
# 5 -23.3744 -6.4970 -10.9450 2.8083 45.7381 -0.7651
# 6 -2.4283 -3.5312 -5.7045 9.3412 -0.7651 51.4872
#
#
#
# Elastic Compliance Matrix: (Units=1/GPa)
#
#
# Indices 1 2 3 4 5 6 
#
# 1 0.009811 -0.002867 -0.001534 -0.001991 0.004370 0.000522
# 2 -0.002867 0.015750 -0.001227 -0.003109 0.000693 0.001384
# 3 -0.001534 -0.001227 0.012871 -0.007426 0.002622 0.002656
# 4 -0.001991 -0.003109 -0.007426 0.034805 -0.005499 -0.007526
# 5 0.004370 0.000693 0.002622 -0.005499 0.025193 0.001916
# 6 0.000522 0.001384 0.002656 -0.007526 0.001916 0.021230
#
#
# Mechanical properties :
#
#
# Convention : Reuss Voigt Hill
#
# Bulk Modulus (GPa) = 36.79506 50.73632 43.76569
# Shear Modulus (GPa) = 35.72107 41.71829 38.71968
#
# Velocity S-wave (km/s) = 4.01823 4.34246 4.18349
# Velocity P-wave (km/s) = 6.17737 6.93367 6.56642
#
# Compressibility (1/GPa) = 0.02717756
#
# Stress axis : x y z
#
# Youngs Moduli (GPa) = 101.93113 63.49023 77.69395
#
# Poissons Ratio (x) = 0.18201 0.11917
# Poissons Ratio (y) = 0.29221 0.09530
# Poissons Ratio (z) = 0.15635 0.07788
#
# Static dielectric constant tensor:
#      x y z
#    x 4.912200 -0.717720 0.175160 
#    y -0.717720 4.016320 0.917410 
#    z 0.175160 0.917410 2.025840 
# 
# 
# High freq. dielectric constant tensor:
#      x y z
#    x 1.889480 -0.005170 -0.001820 
#    y -0.005170 1.868990 0.009510 
#    z -0.001820 0.009510 1.873720 
# 
# From -- ./inp_files/378469.got.cif
#   From: 2010.06.25/outbox.cif.g09.slc.cpg/sg2_190_cif.got.tgz:378469.got - 2010.06.27 13:26:56.
