data_PCOD8029649
_publ_section_title
;
Structure prediction by ZEFSAII (Michael W. Deem and Ramdas Pophale) SiO2 
 PCOD8029649
Probable space group: P -1
;
_chemical_formula_sum "Si O2"
_cell_formula_units_Z 16
_cell_length_a 21.809161
_cell_length_b 9.336638
_cell_length_c 10.490998
_cell_angle_alpha 151.720341
_cell_angle_beta 127.960380
_cell_angle_gamma 54.889312
_cell_volume 794.760749
_symmetry_space_group_name_H-M "P -1"
_symmetry_group_IT_number 2
_symmetry_cell_setting 'triclinic'
loop_
_space_group_symop_operation_xyz
x,y,z
-x,-y,-z
loop_
_atom_site_type_symbol
_atom_site_label
_atom_site_fract_x
_atom_site_fract_y
_atom_site_fract_z
Si Si1 0.863635 0.902624 0.431674
Si Si2 0.537034 0.315994 0.285971
Si Si3 0.845891 0.476272 0.297975
Si Si4 0.932678 0.872760 0.895534
Si Si5 0.957558 0.460373 0.044249
Si Si6 0.683215 0.429539 0.944139
Si Si7 0.308459 0.905005 0.575562
Si Si8 0.478198 0.666030 0.233130
O O1 0.873390 0.602362 0.296653
O O2 0.909091 0.168835 0.755398
O O3 0.773395 0.032285 0.404558
O O4 0.902034 0.769945 0.245081
O O5 0.500000 0.500000 0.500000
O O6 0.630762 0.287311 0.405787
O O7 0.522336 0.490806 0.270648
O O8 0.500000 0.000000 0.000000
O O9 0.861801 0.738133 0.623575
O O10 0.755259 0.420179 0.127377
O O11 0.893960 0.160793 0.150640
O O12 0.970741 0.597098 0.811845
O O13 0.000000 0.000000 0.000000
O O14 0.000000 0.500000 0.000000
O O15 0.654750 0.777988 0.151114
O O16 0.704896 0.253616 0.701861
O O17 0.613884 0.292665 0.823533
O O18 0.500000 0.000000 0.500000
O O19 0.500000 0.500000 0.000000
#
# Coordination Sequence:
#
# PCOD8029649 Si02
#       8
#     2   2   2   2   2   2   2   2
#     4  11  21  39  62  91 122 159 209 261 319 362
#     4  12  22  42  68 100 127 169 232 270 312 389
#     4  11  21  37  64  94 118 156 212 270 304 360
#     4  12  21  38  62  92 120 154 214 259 306 365
#     4  12  25  40  59  88 127 167 201 251 322 389
#     4  11  22  40  64  95 130 164 211 264 329 374
#     4  11  21  39  68  95 122 161 220 279 304 369
#     4  12  25  42  65  98 140 175 208 265 341 398
#
# _framework density 20.131844999999998
#
# number of rings (size 3 to 8) (size 9 to 14) (size 15 to 20)
#    0.000    0.500    5.000    6.000    0.000    0.000 
#    0.000    3.750    0.000    0.000    0.000    0.000 
#    0.000    0.000    0.000    0.000    0.000    0.000 
#
# Total GULP energy -198344.924388 kJ/mol
# GULP energy per Si atom -12396.557774 kJ/mol
# Density = 2.008602 g / cm^3
# Si number density = 20.131845 Si / 1000 Ang^3
#
#
#
# Elastic Constant Matrix: (Units=GPa)
#
#
# Indices 1 2 3 4 5 6 
#
# 1 111.1436 66.6196 50.1353 -14.4590 -0.7784 -18.2287
# 2 66.6196 126.5903 47.1779 -6.4709 -1.2190 -11.5918
# 3 50.1353 47.1779 142.4389 3.5837 -4.0422 -7.6589
# 4 -14.4590 -6.4709 3.5837 30.7153 -1.7378 -1.9250
# 5 -0.7784 -1.2190 -4.0422 -1.7378 42.9735 -0.4980
# 6 -18.2287 -11.5918 -7.6589 -1.9250 -0.4980 34.4796
#
#
#
# Elastic Compliance Matrix: (Units=1/GPa)
#
#
# Indices 1 2 3 4 5 6 
#
# 1 0.016313 -0.006361 -0.003481 0.007137 0.000147 0.006113
# 2 -0.006361 0.011880 -0.001674 -0.000278 0.000056 0.000244
# 3 -0.003481 -0.001674 0.008861 -0.003029 0.000594 -0.000596
# 4 0.007137 -0.000278 -0.003029 0.036607 0.001376 0.005070
# 5 0.000147 0.000056 0.000594 0.001376 0.023393 0.000643
# 6 0.006113 0.000244 -0.000596 0.005070 0.000643 0.032477
#
#
# Mechanical properties :
#
#
# Convention : Reuss Voigt Hill
#
# Bulk Modulus (GPa) = 71.32458 78.67091 74.99775
# Shear Modulus (GPa) = 31.79892 36.04969 33.92431
#
# Velocity S-wave (km/s) = 3.97865 4.23623 4.10946
# Velocity P-wave (km/s) = 7.52408 7.94294 7.73634
#
# Compressibility (1/GPa) = 0.01402041
#
# Stress axis : x y z
#
# Youngs Moduli (GPa) = 61.30139 84.17650 112.84845
#
# Poissons Ratio (x) = 0.53548 0.39288
# Poissons Ratio (y) = 0.38996 0.18891
# Poissons Ratio (z) = 0.21342 0.14091
#
# Static dielectric constant tensor:
#      x y z
#    x 3.624030 -0.174970 0.056460 
#    y -0.174970 3.612780 0.194800 
#    z 0.056460 0.194800 3.862500 
# 
# 
# High freq. dielectric constant tensor:
#      x y z
#    x 1.777460 -0.024540 0.004180 
#    y -0.024540 1.776370 0.008190 
#    z 0.004180 0.008190 1.810290 
# 
# From -- ./inp_files/227980.got.cif
#   From: 2010.06.25/outbox.cif.g09.slc.cpg/sg2_114_cif.got.tgz:227980.got - 2010.06.27 13:26:56.
