data_PCOD8029683
_publ_section_title
;
Structure prediction by ZEFSAII (Michael W. Deem and Ramdas Pophale) SiO2 
 PCOD8029683
Probable space group: P -1
;
_chemical_formula_sum "Si O2"
_cell_formula_units_Z 14
_cell_length_a 13.289708
_cell_length_b 10.515035
_cell_length_c 12.788669
_cell_angle_alpha 80.396251
_cell_angle_beta 158.109018
_cell_angle_gamma 101.621770
_cell_volume 651.660979
_symmetry_space_group_name_H-M "P -1"
_symmetry_group_IT_number 2
_symmetry_cell_setting 'triclinic'
loop_
_space_group_symop_operation_xyz
x,y,z
-x,-y,-z
loop_
_atom_site_type_symbol
_atom_site_label
_atom_site_fract_x
_atom_site_fract_y
_atom_site_fract_z
Si Si1 0.120593 0.595951 0.515550
Si Si2 0.438277 0.424814 0.695995
Si Si3 0.645484 0.752077 0.973935
Si Si4 0.112819 0.732878 0.856176
Si Si5 0.552928 0.677502 0.663611
Si Si6 0.066888 0.655402 0.051170
Si Si7 0.231219 0.996186 0.808546
O O1 0.294090 0.515508 0.619906
O O2 0.360249 0.708631 0.768139
O O3 0.000000 0.500000 0.500000
O O4 0.868343 0.651651 0.210440
O O5 0.694752 0.363280 0.002218
O O6 0.550575 0.520790 0.697652
O O7 0.209132 0.309201 0.457014
O O8 0.582066 0.761548 0.787723
O O9 0.769629 0.885902 0.127442
O O10 0.188557 0.724790 0.052759
O O11 0.182467 0.872106 0.853038
O O12 0.274229 0.700958 0.337566
O O13 0.799141 0.719651 0.816164
O O14 0.000000 0.500000 0.000000
O O15 0.000000 0.000000 0.500000
O O16 0.500000 0.000000 0.000000
#
# Coordination Sequence:
#
# PCOD8029683 Si02
#       7
#     2   2   2   2   2   2   2
#     4  11  24  39  67  96 130 171 223 283 345 395
#     4  11  21  38  63 100 137 165 210 279 338 403
#     4  11  25  46  64  95 135 178 228 268 338 407
#     4  12  25  40  67  99 135 172 233 267 326 406
#     4  11  21  40  64  98 138 173 200 279 348 397
#     4  12  21  38  66 104 138 170 213 271 350 401
#     4  12  29  50  70  91 133 191 232 280 323 388
#
# _framework density 21.483563
#
# number of rings (size 3 to 8) (size 9 to 14) (size 15 to 20)
#    0.000    0.571    2.857    6.857    6.000    0.000 
#    0.000    1.429    0.000    0.000    0.000    0.000 
#    0.000    0.000    0.000    0.000    0.000    0.000 
#
# Total GULP energy -173525.136427 kJ/mol
# GULP energy per Si atom -12394.652602 kJ/mol
# Density = 2.143467 g / cm^3
# Si number density = 21.483563 Si / 1000 Ang^3
#
#
#
# Elastic Constant Matrix: (Units=GPa)
#
#
# Indices 1 2 3 4 5 6 
#
# 1 105.4898 56.4414 42.0584 -0.4455 -6.1028 13.1922
# 2 56.4414 89.7184 24.8453 4.3648 -16.0099 11.4943
# 3 42.0584 24.8453 130.9108 2.1101 0.6163 -0.0324
# 4 -0.4455 4.3648 2.1101 29.9751 -5.0585 -3.8756
# 5 -6.1028 -16.0099 0.6163 -5.0585 40.2372 1.3491
# 6 13.1922 11.4943 -0.0324 -3.8756 1.3491 35.4460
#
#
#
# Elastic Compliance Matrix: (Units=1/GPa)
#
#
# Indices 1 2 3 4 5 6 
#
# 1 0.015940 -0.008913 -0.003447 0.001267 -0.000820 -0.002876
# 2 -0.008913 0.018481 -0.000637 -0.002199 0.005840 -0.003139
# 3 -0.003447 -0.000637 0.008881 -0.000567 -0.001033 0.001475
# 4 0.001267 -0.002199 -0.000567 0.034850 0.003576 0.003915
# 5 -0.000820 0.005840 -0.001033 0.003576 0.027593 -0.002249
# 6 -0.002876 -0.003139 0.001475 0.003915 -0.002249 0.030815
#
#
# Mechanical properties :
#
#
# Convention : Reuss Voigt Hill
#
# Bulk Modulus (GPa) = 57.77302 63.64547 60.70924
# Shear Modulus (GPa) = 29.70490 34.64992 32.17741
#
# Velocity S-wave (km/s) = 3.72248 4.02040 3.87430
# Velocity P-wave (km/s) = 6.73987 7.15828 6.95222
#
# Compressibility (1/GPa) = 0.01730912
#
# Stress axis : x y z
#
# Youngs Moduli (GPa) = 62.73459 54.11074 112.59484
#
# Poissons Ratio (x) = 0.48229 0.38810
# Poissons Ratio (y) = 0.55915 0.07169
# Poissons Ratio (z) = 0.21624 0.03445
#
# Static dielectric constant tensor:
#      x y z
#    x 3.794260 -0.016040 0.010100 
#    y -0.016040 3.660950 0.059370 
#    z 0.010100 0.059370 4.279580 
# 
# 
# High freq. dielectric constant tensor:
#      x y z
#    x 1.852480 -0.000910 0.014200 
#    y -0.000910 1.807410 0.005480 
#    z 0.014200 0.005480 1.871570 
# 
# From -- ./inp_files/527491.got.cif
#   From: 2010.06.25/outbox.cif.g09.slc.cpg/sg2_264_cif.got.tgz:527491.got - 2010.06.27 13:26:56.
