data_PCOD8029257
_publ_section_title
;
Structure prediction by ZEFSAII (Michael W. Deem and Ramdas Pophale) SiO2 
 PCOD8029257
Probable space group: P -1
;
_chemical_formula_sum "Si O2"
_cell_formula_units_Z 16
_cell_length_a 12.323510
_cell_length_b 9.617787
_cell_length_c 7.951125
_cell_angle_alpha 93.003575
_cell_angle_beta 96.362020
_cell_angle_gamma 49.819800
_cell_volume 715.355838
_symmetry_space_group_name_H-M "P -1"
_symmetry_group_IT_number 2
_symmetry_cell_setting 'triclinic'
loop_
_space_group_symop_operation_xyz
x,y,z
-x,-y,-z
loop_
_atom_site_type_symbol
_atom_site_label
_atom_site_fract_x
_atom_site_fract_y
_atom_site_fract_z
Si Si1 0.937117 0.405671 0.429430
Si Si2 0.117843 0.020955 0.528540
Si Si3 0.515818 0.922384 0.676574
Si Si4 0.221465 0.391907 0.922892
Si Si5 0.619292 0.332315 0.624596
Si Si6 0.248629 0.061850 0.839125
Si Si7 0.249793 0.497130 0.273941
Si Si8 0.543939 0.172657 0.872133
O O1 0.851122 0.481683 0.245503
O O2 0.843080 0.426128 0.568452
O O3 0.000000 0.500000 0.500000
O O4 0.066685 0.190508 0.411683
O O5 0.128475 0.067204 0.727163
O O6 0.271183 0.843114 0.482503
O O7 0.000000 0.000000 0.500000
O O8 0.610852 0.707969 0.676366
O O9 0.500000 0.000000 0.500000
O O10 0.356074 0.021383 0.709901
O O11 0.586601 0.982627 0.808178
O O12 0.184616 0.257578 0.917832
O O13 0.390062 0.289095 0.941427
O O14 0.165945 0.508087 0.095009
O O15 0.500000 0.500000 0.500000
O O16 0.701942 0.383994 0.745736
O O17 0.541797 0.290926 0.736243
O O18 0.331960 0.895679 0.976215
#
# Coordination Sequence:
#
# PCOD8029257 Si02
#       8
#     2   2   2   2   2   2   2   2
#     4  12  27  47  72 104 142 203 250 292 371 441
#     4  12  27  50  70  99 153 194 239 302 362 447
#     4  11  20  38  71 104 138 180 238 308 362 423
#     4  11  23  45  75 108 148 182 248 318 360 431
#     4  12  27  47  72 107 146 198 243 295 376 441
#     4  11  21  44  70 106 142 184 238 312 369 418
#     4  12  24  45  69 105 145 186 249 304 358 437
#     4  11  23  41  72 111 139 184 246 306 375 424
#
# _framework density 22.366492999999998
#
# number of rings (size 3 to 8) (size 9 to 14) (size 15 to 20)
#    0.000    0.500    5.000    5.250    1.750    2.000 
#    2.250    1.250    0.000    0.000    0.000    0.000 
#    0.000    0.000    0.000    0.000    0.000    0.000 
#
# Total GULP energy -198410.259395 kJ/mol
# GULP energy per Si atom -12400.641212 kJ/mol
# Density = 2.231559 g / cm^3
# Si number density = 22.366493 Si / 1000 Ang^3
#
#
#
# Elastic Constant Matrix: (Units=GPa)
#
#
# Indices 1 2 3 4 5 6 
#
# 1 79.4974 17.6212 22.9349 -0.4131 12.4374 24.2463
# 2 17.6212 123.8077 38.4547 -9.1125 10.8788 14.2369
# 3 22.9349 38.4547 147.2091 -11.0703 19.8996 4.7108
# 4 -0.4131 -9.1125 -11.0703 38.3573 0.5624 4.3081
# 5 12.4374 10.8788 19.8996 0.5624 45.0555 1.3701
# 6 24.2463 14.2369 4.7108 4.3081 1.3701 33.7579
#
#
#
# Elastic Compliance Matrix: (Units=1/GPa)
#
#
# Indices 1 2 3 4 5 6 
#
# 1 0.017398 -0.000143 -0.001707 0.001083 -0.003657 -0.012187
# 2 -0.000143 0.009419 -0.001986 0.002109 -0.001268 -0.003810
# 3 -0.001707 -0.001986 0.008043 0.001778 -0.002649 0.000822
# 4 0.001083 0.002109 0.001778 0.027727 -0.001776 -0.005382
# 5 -0.003657 -0.001268 -0.002649 -0.001776 0.024619 0.002758
# 6 -0.012187 -0.003810 0.000822 -0.005382 0.002758 0.040443
#
#
# Mechanical properties :
#
#
# Convention : Reuss Voigt Hill
#
# Bulk Modulus (GPa) = 36.78291 56.50398 46.64344
# Shear Modulus (GPa) = 34.62955 41.53437 38.08196
#
# Velocity S-wave (km/s) = 3.93909 4.31396 4.13078
# Velocity P-wave (km/s) = 6.09670 7.08034 6.60685
#
# Compressibility (1/GPa) = 0.02718654
#
# Stress axis : x y z
#
# Youngs Moduli (GPa) = 57.47740 106.16657 124.32646
#
# Poissons Ratio (x) = 0.01523 0.21227
# Poissons Ratio (y) = 0.00825 0.24694
# Poissons Ratio (z) = 0.09813 0.21087
#
# Static dielectric constant tensor:
#      x y z
#    x 3.968580 0.199480 0.070990 
#    y 0.199480 4.254490 0.156780 
#    z 0.070990 0.156780 4.135540 
# 
# 
# High freq. dielectric constant tensor:
#      x y z
#    x 1.871760 0.007060 0.012740 
#    y 0.007060 1.888810 -0.002590 
#    z 0.012740 -0.002590 1.890000 
# 
# From -- ./inp_files/217674.got.cif
#   From: 2010.06.25/outbox.cif.g09.slc.cpg/sg2_109_cif.got.tgz:217674.got - 2010.06.27 13:26:56.
