data_PCOD8029093
_publ_section_title
;
Structure prediction by ZEFSAII (Michael W. Deem and Ramdas Pophale) SiO2 
 PCOD8029093
Probable space group: P -1
;
_chemical_formula_sum "Si O2"
_cell_formula_units_Z 16
_cell_length_a 12.045369
_cell_length_b 11.508033
_cell_length_c 11.504743
_cell_angle_alpha 64.638700
_cell_angle_beta 74.504417
_cell_angle_gamma 32.124481
_cell_volume 750.992582
_symmetry_space_group_name_H-M "P -1"
_symmetry_group_IT_number 2
_symmetry_cell_setting 'triclinic'
loop_
_space_group_symop_operation_xyz
x,y,z
-x,-y,-z
loop_
_atom_site_type_symbol
_atom_site_label
_atom_site_fract_x
_atom_site_fract_y
_atom_site_fract_z
Si Si1 0.918600 0.185896 0.181307
Si Si2 0.210543 0.385709 0.458732
Si Si3 0.125976 0.739715 0.274296
Si Si4 0.593893 0.906625 0.694984
Si Si5 0.665338 0.869478 0.112039
Si Si6 0.011319 0.382600 0.151929
Si Si7 0.118434 0.080512 0.956295
Si Si8 0.461380 0.561082 0.117875
O O1 0.999876 0.243789 0.183272
O O2 0.680519 0.377683 0.204740
O O3 0.066419 0.923300 0.287350
O O4 0.925806 0.195653 0.033794
O O5 0.155082 0.587044 0.412282
O O6 0.278255 0.306648 0.337499
O O7 0.000000 0.500000 0.500000
O O8 0.421743 0.155889 0.570466
O O9 0.340820 0.558160 0.217755
O O10 0.928155 0.894211 0.177313
O O11 0.768682 0.823963 0.750475
O O12 0.455520 0.966686 0.808477
O O13 0.809228 0.605066 0.197578
O O14 0.845716 0.806768 0.062055
O O15 0.500000 0.000000 0.000000
O O16 0.000000 0.500000 0.000000
O O17 0.333427 0.812721 0.054491
O O18 0.500000 0.500000 0.000000
#
# Coordination Sequence:
#
# PCOD8029093 Si02
#       8
#     2   2   2   2   2   2   2   2
#     4  11  22  38  56  94 139 173 214 273 332 405
#     4  11  26  48  72  98 131 178 236 287 325 401
#     4  11  23  38  61  93 128 173 226 274 334 395
#     4  11  25  44  68  99 134 175 227 284 339 393
#     4  12  23  38  65 101 136 176 219 276 341 406
#     4  12  23  40  65  97 140 179 222 272 342 409
#     4  11  20  33  56  90 133 171 217 268 329 401
#     4  11  20  33  56  89 133 172 209 267 338 405
#
# _framework density 21.305137999999999
#
# number of rings (size 3 to 8) (size 9 to 14) (size 15 to 20)
#    0.000    0.750    5.000    3.750    1.750    3.000 
#    0.000    0.625    0.000    3.750    0.000    0.000 
#    0.000    0.000    0.000    0.000    0.000    0.000 
#
# Total GULP energy -198233.438653 kJ/mol
# GULP energy per Si atom -12389.589916 kJ/mol
# Density = 2.125665 g / cm^3
# Si number density = 21.305138 Si / 1000 Ang^3
#
#
#
# Elastic Constant Matrix: (Units=GPa)
#
#
# Indices 1 2 3 4 5 6 
#
# 1 134.9616 53.7616 45.0473 -21.1054 -14.0065 1.5075
# 2 53.7616 126.8084 35.2170 -5.4492 -12.0549 -5.1362
# 3 45.0473 35.2170 71.7571 -11.2496 -6.5196 -2.1065
# 4 -21.1054 -5.4492 -11.2496 34.9073 -0.6906 -0.1946
# 5 -14.0065 -12.0549 -6.5196 -0.6906 33.3025 -9.4912
# 6 1.5075 -5.1362 -2.1065 -0.1946 -9.4912 42.1435
#
#
#
# Elastic Compliance Matrix: (Units=1/GPa)
#
#
# Indices 1 2 3 4 5 6 
#
# 1 0.011176 -0.003027 -0.004530 0.004876 0.002716 -0.000361
# 2 -0.003027 0.010257 -0.003055 -0.001158 0.002308 0.001720
# 3 -0.004530 -0.003055 0.018852 0.002886 0.001017 0.000974
# 4 0.004876 -0.001158 0.002886 0.032409 0.003059 0.000667
# 5 0.002716 0.002308 0.001017 0.003059 0.034557 0.008032
# 6 -0.000361 0.001720 0.000974 0.000667 0.008032 0.025812
#
#
# Mechanical properties :
#
#
# Convention : Reuss Voigt Hill
#
# Bulk Modulus (GPa) = 52.46133 66.84211 59.65172
# Shear Modulus (GPa) = 31.12557 35.37074 33.24815
#
# Velocity S-wave (km/s) = 3.82637 4.07897 3.95469
# Velocity P-wave (km/s) = 6.64821 7.32297 6.99373
#
# Compressibility (1/GPa) = 0.01906166
#
# Stress axis : x y z
#
# Youngs Moduli (GPa) = 89.48025 97.49486 53.04408
#
# Poissons Ratio (x) = 0.29511 0.24027
# Poissons Ratio (y) = 0.27085 0.16205
# Poissons Ratio (z) = 0.40531 0.29786
#
# Static dielectric constant tensor:
#      x y z
#    x 3.852290 -0.255460 -0.044430 
#    y -0.255460 5.158680 0.069470 
#    z -0.044430 0.069470 3.606120 
# 
# 
# High freq. dielectric constant tensor:
#      x y z
#    x 1.837520 -0.006060 -0.004120 
#    y -0.006060 1.860130 -0.007760 
#    z -0.004120 -0.007760 1.793460 
# 
# From -- ./inp_files/427773.got.cif
#   From: 2010.06.25/outbox.cif.g09.slc.cpg/sg2_214_cif.got.tgz:427773.got - 2010.06.27 13:26:56.
