data_PCOD8029318
_publ_section_title
;
Structure prediction by ZEFSAII (Michael W. Deem and Ramdas Pophale) SiO2 
 PCOD8029318
Probable space group: P -1
;
_chemical_formula_sum "Si O2"
_cell_formula_units_Z 16
_cell_length_a 12.207202
_cell_length_b 21.848263
_cell_length_c 8.609404
_cell_angle_alpha 46.234340
_cell_angle_beta 129.026252
_cell_angle_gamma 151.483215
_cell_volume 790.076074
_symmetry_space_group_name_H-M "P -1"
_symmetry_group_IT_number 2
_symmetry_cell_setting 'triclinic'
loop_
_space_group_symop_operation_xyz
x,y,z
-x,-y,-z
loop_
_atom_site_type_symbol
_atom_site_label
_atom_site_fract_x
_atom_site_fract_y
_atom_site_fract_z
Si Si1 0.228880 0.745315 0.884154
Si Si2 0.521622 0.320336 0.271133
Si Si3 0.596422 0.514266 0.401616
Si Si4 0.888591 0.757133 0.015353
Si Si5 0.734463 0.269586 0.419165
Si Si6 0.194478 0.390595 0.087523
Si Si7 0.782601 0.433184 0.625086
Si Si8 0.386608 0.965319 0.125201
O O1 0.221780 0.718094 0.745997
O O2 0.008890 0.698638 0.812017
O O3 0.451844 0.905905 0.841558
O O4 0.228269 0.660211 0.133032
O O5 0.261943 0.234139 0.191162
O O6 0.521594 0.231891 0.330757
O O7 0.617446 0.349071 0.477539
O O8 0.688380 0.462820 0.079045
O O9 0.500000 0.500000 0.500000
O O10 0.385769 0.412918 0.269665
O O11 0.689333 0.463905 0.598415
O O12 0.795096 0.672387 0.241118
O O13 0.894184 0.682265 0.029615
O O14 0.154048 0.911344 0.997474
O O15 0.679480 0.153654 0.645479
O O16 0.954140 0.417011 0.443266
O O17 0.500000 0.000000 0.000000
#
# Coordination Sequence:
#
# PCOD8029318 Si02
#       8
#     2   2   2   2   2   2   2   2
#     4  12  27  41  66 100 136 167 222 273 329 387
#     4  11  22  39  66  98 131 164 219 275 321 385
#     4  11  22  36  66 100 135 166 213 274 335 381
#     4  11  22  43  65  95 132 176 219 265 323 392
#     4  12  25  43  65  99 134 169 217 279 326 382
#     4  11  20  40  63  97 133 170 214 273 324 377
#     4  12  22  41  67 102 129 170 220 269 326 389
#     4  12  25  47  69  91 129 185 223 260 325 399
#
# _framework density 20.251214999999998
#
# number of rings (size 3 to 8) (size 9 to 14) (size 15 to 20)
#    0.000    0.500    6.250    3.375    3.500    0.000 
#    0.000    4.375    0.000    0.000    0.000    0.000 
#    0.000    0.000    0.000    0.000    0.000    0.000 
#
# Total GULP energy -198429.216344 kJ/mol
# GULP energy per Si atom -12401.826022 kJ/mol
# Density = 2.020512 g / cm^3
# Si number density = 20.251215 Si / 1000 Ang^3
#
#
#
# Elastic Constant Matrix: (Units=GPa)
#
#
# Indices 1 2 3 4 5 6 
#
# 1 117.3470 19.6409 26.3781 4.6655 0.9886 18.7857
# 2 19.6409 90.7625 29.6197 -2.6931 3.8164 26.2228
# 3 26.3781 29.6197 96.3602 -6.8057 6.9246 11.3099
# 4 4.6655 -2.6931 -6.8057 21.6753 -0.7240 2.3774
# 5 0.9886 3.8164 6.9246 -0.7240 39.5948 4.7755
# 6 18.7857 26.2228 11.3099 2.3774 4.7755 33.3947
#
#
#
# Elastic Compliance Matrix: (Units=1/GPa)
#
#
# Indices 1 2 3 4 5 6 
#
# 1 0.009895 -0.000152 -0.002340 -0.002358 0.000687 -0.004585
# 2 -0.000152 0.015364 -0.003261 0.002150 0.000471 -0.011095
# 3 -0.002340 -0.003261 0.012470 0.004000 -0.001688 -0.000390
# 4 -0.002358 0.002150 0.004000 0.048769 0.000681 -0.005286
# 5 0.000687 0.000471 -0.001688 0.000681 0.025977 -0.003947
# 6 -0.004585 -0.011095 -0.000390 -0.005286 -0.003947 0.042309
#
#
# Mechanical properties :
#
#
# Convention : Reuss Voigt Hill
#
# Bulk Modulus (GPa) = 38.13209 50.63859 44.38534
# Shear Modulus (GPa) = 28.56628 34.18835 31.37732
#
# Velocity S-wave (km/s) = 3.75986 4.11324 3.94052
# Velocity P-wave (km/s) = 6.14159 6.90057 6.53211
#
# Compressibility (1/GPa) = 0.02622463
#
# Stress axis : x y z
#
# Youngs Moduli (GPa) = 101.06074 65.08537 80.19134
#
# Poissons Ratio (x) = 0.00988 0.18763
# Poissons Ratio (y) = 0.01535 0.26150
# Poissons Ratio (z) = 0.23646 0.21224
#
# Static dielectric constant tensor:
#      x y z
#    x 3.928570 0.207020 0.088940 
#    y 0.207020 3.933740 0.304180 
#    z 0.088940 0.304180 3.983140 
# 
# 
# High freq. dielectric constant tensor:
#      x y z
#    x 1.808130 0.009190 0.005660 
#    y 0.009190 1.778780 0.017350 
#    z 0.005660 0.017350 1.788270 
# 
# From -- ./inp_files/175205.got.cif
#   From: 2010.06.25/outbox.cif.g09.slc.cpg/sg2_88_cif.got.tgz:175205.got - 2010.06.27 13:26:56.
