data_PCOD8029850
_publ_section_title
;
Structure prediction by ZEFSAII (Michael W. Deem and Ramdas Pophale) SiO2 
 PCOD8029850
Probable space group: P -1
;
_chemical_formula_sum "Si O2"
_cell_formula_units_Z 16
_cell_length_a 15.735357
_cell_length_b 24.201326
_cell_length_c 23.751938
_cell_angle_alpha 11.870649
_cell_angle_beta 23.869223
_cell_angle_gamma 24.183701
_cell_volume 736.413851
_symmetry_space_group_name_H-M "P -1"
_symmetry_group_IT_number 2
_symmetry_cell_setting 'triclinic'
loop_
_space_group_symop_operation_xyz
x,y,z
-x,-y,-z
loop_
_atom_site_type_symbol
_atom_site_label
_atom_site_fract_x
_atom_site_fract_y
_atom_site_fract_z
Si Si1 0.136134 0.082264 0.029698
Si Si2 0.393502 0.521708 0.805027
Si Si3 0.338710 0.499543 0.438654
Si Si4 0.681090 0.043804 0.388965
Si Si5 0.288010 0.481635 0.030406
Si Si6 0.124964 0.103289 0.371392
Si Si7 0.715217 0.261996 0.529429
Si Si8 0.799521 0.737105 0.068617
O O1 0.266389 0.793572 0.217270
O O2 0.890742 0.066100 0.203758
O O3 0.246581 0.174334 0.927185
O O4 0.155511 0.319177 0.736332
O O5 0.614126 0.474978 0.682006
O O6 0.425902 0.405533 0.965350
O O7 0.298314 0.844640 0.546490
O O8 0.241195 0.347942 0.037780
O O9 0.558280 0.339014 0.494837
O O10 0.500000 0.000000 0.500000
O O11 0.595149 0.329763 0.188741
O O12 0.737233 0.794018 0.647804
O O13 0.053915 0.662752 0.977232
O O14 0.961473 0.229895 0.393002
O O15 0.000000 0.000000 0.500000
O O16 0.682913 0.978250 0.857981
O O17 0.685317 0.485644 0.374612
#
# Coordination Sequence:
#
# PCOD8029850 Si02
#       8
#     2   2   2   2   2   2   2   2
#     4  11  25  44  60  87 127 162 209 256 318 384
#     4  12  24  38  62  89 129 171 212 259 310 355
#     4  12  26  39  58  88 131 183 209 244 302 372
#     4  11  24  45  76  98 115 148 197 265 330 387
#     4  11  21  40  67 100 124 149 205 268 320 354
#     4  12  22  36  56  87 124 174 229 274 282 328
#     4  12  22  35  58  86 124 173 224 257 299 330
#     4  11  22  38  60  86 122 170 214 271 296 335
#
# _framework density 21.726913
#
# number of rings (size 3 to 8) (size 9 to 14) (size 15 to 20)
#    0.000    0.500    3.750    6.750    1.750    3.000 
#    0.000    0.000    0.000    4.500    0.000    0.000 
#    0.000    0.000    0.000    0.000    0.000    0.000 
#
# Total GULP energy -198437.793053 kJ/mol
# GULP energy per Si atom -12402.362066 kJ/mol
# Density = 2.167746 g / cm^3
# Si number density = 21.726913 Si / 1000 Ang^3
#
#
#
# Elastic Constant Matrix: (Units=GPa)
#
#
# Indices 1 2 3 4 5 6 
#
# 1 73.7135 46.5185 35.0498 13.6962 -3.9958 20.6021
# 2 46.5185 100.8285 52.1115 7.9953 6.7461 35.1624
# 3 35.0498 52.1115 136.4231 0.3866 4.4397 25.6397
# 4 13.6962 7.9953 0.3866 37.4700 9.5979 5.9612
# 5 -3.9958 6.7461 4.4397 9.5979 30.5374 5.6144
# 6 20.6021 35.1624 25.6397 5.9612 5.6144 29.9228
#
#
#
# Elastic Compliance Matrix: (Units=1/GPa)
#
#
# Indices 1 2 3 4 5 6 
#
# 1 0.022705 -0.007547 -0.002307 -0.008055 0.008380 -0.004756
# 2 -0.007547 0.020629 -0.002754 0.001690 -0.002637 -0.016528
# 3 -0.002307 -0.002754 0.009704 0.002208 -0.001114 -0.003722
# 4 -0.008055 0.001690 0.002208 0.032622 -0.011511 -0.002671
# 5 0.008380 -0.002637 -0.001114 -0.011511 0.039461 -0.006827
# 6 -0.004756 -0.016528 -0.003722 -0.002671 -0.006827 0.061117
#
#
# Mechanical properties :
#
#
# Convention : Reuss Voigt Hill
#
# Bulk Modulus (GPa) = 35.94021 64.25830 50.09926
# Shear Modulus (GPa) = 22.65229 31.40506 27.02867
#
# Velocity S-wave (km/s) = 3.23242 3.80603 3.53089
# Velocity P-wave (km/s) = 5.52350 6.99672 6.30330
#
# Compressibility (1/GPa) = 0.02782399
#
# Stress axis : x y z
#
# Youngs Moduli (GPa) = 44.04231 48.47551 103.04816
#
# Poissons Ratio (x) = 0.36583 0.23772
# Poissons Ratio (y) = 0.33237 0.28378
# Poissons Ratio (z) = 0.10160 0.13349
#
# Static dielectric constant tensor:
#      x y z
#    x 3.693050 0.449110 0.010560 
#    y 0.449110 3.991390 -0.057790 
#    z 0.010560 -0.057790 4.279940 
# 
# 
# High freq. dielectric constant tensor:
#      x y z
#    x 1.818420 0.037010 -0.000850 
#    y 0.037010 1.841260 -0.006380 
#    z -0.000850 -0.006380 1.882890 
# 
# From -- ./inp_files/437346.got.cif
#   From: 2010.06.25/outbox.cif.g09.slc.cpg/sg2_219_cif.got.tgz:437346.got - 2010.06.27 13:26:56.
