data_PCOD8029982
_publ_section_title
;
Structure prediction by ZEFSAII (Michael W. Deem and Ramdas Pophale) SiO2 
 PCOD8029982
Probable space group: P -1
;
_chemical_formula_sum "Si O2"
_cell_formula_units_Z 16
_cell_length_a 10.423777
_cell_length_b 8.139682
_cell_length_c 11.737135
_cell_angle_alpha 74.310888
_cell_angle_beta 110.562130
_cell_angle_gamma 104.827195
_cell_volume 883.247832
_symmetry_space_group_name_H-M "P -1"
_symmetry_group_IT_number 2
_symmetry_cell_setting 'triclinic'
loop_
_space_group_symop_operation_xyz
x,y,z
-x,-y,-z
loop_
_atom_site_type_symbol
_atom_site_label
_atom_site_fract_x
_atom_site_fract_y
_atom_site_fract_z
Si Si1 0.194787 0.118520 0.614244
Si Si2 0.284056 0.638895 0.701447
Si Si3 0.312230 0.918473 0.341672
Si Si4 0.562761 0.610352 0.312240
Si Si5 0.902315 0.190322 0.524639
Si Si6 0.322831 0.884666 0.860677
Si Si7 0.506697 0.760849 0.579077
Si Si8 0.608600 0.120521 0.870123
O O1 0.333216 0.258779 0.597381
O O2 0.068099 0.218083 0.585282
O O3 0.156280 0.992304 0.520312
O O4 0.227718 0.015110 0.756780
O O5 0.332568 0.453166 0.737935
O O6 0.135578 0.649548 0.592270
O O7 0.283624 0.697164 0.821939
O O8 0.394170 0.783640 0.638980
O O9 0.168627 0.820128 0.370504
O O10 0.442866 0.821354 0.430201
O O11 0.296012 0.911525 0.201492
O O12 0.348976 0.116503 0.363391
O O13 0.480295 0.443028 0.386892
O O14 0.452156 0.702306 0.195744
O O15 0.485645 0.956350 0.876564
O O16 0.293966 0.859349 0.991125
#
# Coordination Sequence:
#
# PCOD8029982 Si02
#       8
#     2   2   2   2   2   2   2   2
#     4   9  18  33  50  70  91 119 168 191 221 272
#     4   8  15  31  43  69  93 120 146 187 240 265
#     4  10  17  31  47  67  98 129 147 185 238 284
#     4   9  18  29  45  77  94 118 150 197 233 272
#     4   9  18  32  50  67  93 127 155 188 231 281
#     4   9  17  31  48  65  93 127 159 191 224 275
#     4   8  17  29  45  69  97 121 145 187 242 276
#     4  10  18  28  47  70  94 124 158 189 228 277
#
# _framework density 18.11496
#
# number of rings (size 3 to 8) (size 9 to 14) (size 15 to 20)
#    0.750    2.250    1.250    0.000    5.250    1.500 
#    0.000    0.625    0.000    0.000    0.000    1.750 
#    0.000    0.000    0.000    0.000    0.000    0.000 
#
# Total GULP energy -198263.259128 kJ/mol
# GULP energy per Si atom -12391.453695 kJ/mol
# Density = 1.807373 g / cm^3
# Si number density = 18.114960 Si / 1000 Ang^3
#
#
#
# Elastic Constant Matrix: (Units=GPa)
#
#
# Indices 1 2 3 4 5 6 
#
# 1 43.1656 -10.7129 14.8014 -2.2602 0.3685 -4.8330
# 2 -10.7129 56.5542 2.8782 -10.8017 3.1010 1.4864
# 3 14.8014 2.8782 87.6397 6.9959 -12.9568 -1.7218
# 4 -2.2602 -10.8017 6.9959 17.4921 -5.1743 -1.5711
# 5 0.3685 3.1010 -12.9568 -5.1743 25.8093 -0.6333
# 6 -4.8330 1.4864 -1.7218 -1.5711 -0.6333 18.6701
#
#
#
# Elastic Compliance Matrix: (Units=1/GPa)
#
#
# Indices 1 2 3 4 5 6 
#
# 1 0.028566 0.007739 -0.006115 0.010948 -0.002040 0.007067
# 2 0.007739 0.022414 -0.003489 0.015951 -0.001328 0.001195
# 3 -0.006115 -0.003489 0.014002 -0.006752 0.006173 -0.000373
# 4 0.010948 0.015951 -0.006752 0.074680 0.009695 0.007555
# 5 -0.002040 -0.001328 0.006173 0.009695 0.044037 0.002457
# 6 0.007067 0.001195 -0.000373 0.007555 0.002457 0.055981
#
#
# Mechanical properties :
#
#
# Convention : Reuss Voigt Hill
#
# Bulk Modulus (GPa) = 16.32607 22.36588 19.34598
# Shear Modulus (GPa) = 18.95175 24.42047 21.68611
#
# Velocity S-wave (km/s) = 3.23800 3.67561 3.46372
# Velocity P-wave (km/s) = 4.79704 5.51243 5.16713
#
# Compressibility (1/GPa) = 0.06125171
#
# Stress axis : x y z
#
# Youngs Moduli (GPa) = 35.00643 44.61531 71.41798
#
# Poissons Ratio (x) = -0.34530 0.43674
# Poissons Ratio (y) = -0.27093 0.24920
# Poissons Ratio (z) = 0.21407 0.15568
#
# Static dielectric constant tensor:
#      x y z
#    x 3.074470 -0.121430 0.007820 
#    y -0.121430 3.208070 0.005890 
#    z 0.007820 0.005890 3.198630 
# 
# 
# High freq. dielectric constant tensor:
#      x y z
#    x 1.670080 -0.015670 -0.006010 
#    y -0.015670 1.694210 0.004360 
#    z -0.006010 0.004360 1.678520 
# 
# From -- ./inp_files/414749.got.cif
#   From: 2010.06.25/outbox.cif.g09.slc.cpg/sg2_208_cif.got.tgz:414749.got - 2010.06.27 13:26:56.
