data_PCOD8029780
_publ_section_title
;
Structure prediction by ZEFSAII (Michael W. Deem and Ramdas Pophale) SiO2 
 PCOD8029780
Probable space group: P -1
;
_chemical_formula_sum "Si O2"
_cell_formula_units_Z 16
_cell_length_a 15.175172
_cell_length_b 17.564986
_cell_length_c 9.058587
_cell_angle_alpha 30.812678
_cell_angle_beta 40.086621
_cell_angle_gamma 43.146323
_cell_volume 776.956151
_symmetry_space_group_name_H-M "P -1"
_symmetry_group_IT_number 2
_symmetry_cell_setting 'triclinic'
loop_
_space_group_symop_operation_xyz
x,y,z
-x,-y,-z
loop_
_atom_site_type_symbol
_atom_site_label
_atom_site_fract_x
_atom_site_fract_y
_atom_site_fract_z
Si Si1 0.815681 0.145275 0.608506
Si Si2 0.132550 0.367935 0.224135
Si Si3 0.894421 0.809542 0.718790
Si Si4 0.876230 0.591149 0.330123
Si Si5 0.109668 0.179536 0.822805
Si Si6 0.649277 0.441639 0.479278
Si Si7 0.803994 0.141271 0.283288
Si Si8 0.356864 0.580098 0.124998
O O1 0.711222 0.271228 0.626926
O O2 0.780207 0.170454 0.439885
O O3 0.974745 0.158534 0.408510
O O4 0.801288 0.975937 0.959757
O O5 0.055734 0.296798 0.309127
O O6 0.189647 0.226508 0.498291
O O7 0.019536 0.497277 0.232818
O O8 0.257212 0.439705 0.883836
O O9 0.793726 0.969928 0.538781
O O10 0.807227 0.721699 0.083971
O O11 0.913465 0.670680 0.296367
O O12 0.764995 0.490445 0.673594
O O13 0.955494 0.163048 0.999831
O O14 0.500000 0.500000 0.500000
O O15 0.635346 0.435236 0.683875
O O16 0.681387 0.245050 0.170967
O O17 0.500000 0.500000 0.000000
#
# Coordination Sequence:
#
# PCOD8029780 Si02
#       8
#     2   2   2   2   2   2   2   2
#     4  11  22  41  65  97 137 169 209 264 327 377
#     4  12  24  39  68 101 128 168 220 269 318 376
#     4  11  21  39  67  98 135 165 212 267 324 375
#     4  12  21  42  66  99 131 168 220 265 311 385
#     4  11  23  37  67 103 131 170 210 266 323 380
#     4  12  27  46  66  92 133 172 213 269 325 383
#     4  11  22  41  65  98 135 170 210 263 327 379
#     4  12  28  44  67  95 128 174 218 263 324 385
#
# _framework density 20.593181999999999
#
# number of rings (size 3 to 8) (size 9 to 14) (size 15 to 20)
#    0.000    0.500    6.250    3.000    5.250    1.000 
#    0.000    2.500    0.000    0.000    0.000    0.000 
#    0.000    0.000    0.000    0.000    0.000    0.000 
#
# Total GULP energy -198395.212361 kJ/mol
# GULP energy per Si atom -12399.700773 kJ/mol
# Density = 2.054631 g / cm^3
# Si number density = 20.593182 Si / 1000 Ang^3
#
#
#
# Elastic Constant Matrix: (Units=GPa)
#
#
# Indices 1 2 3 4 5 6 
#
# 1 74.9287 23.3066 40.0946 2.1232 14.5939 4.4206
# 2 23.3066 97.7761 45.2998 -0.7336 3.0485 -3.3472
# 3 40.0946 45.2998 122.3225 -1.7002 26.3732 -4.1354
# 4 2.1232 -0.7336 -1.7002 34.6862 3.4736 4.5723
# 5 14.5939 3.0485 26.3732 3.4736 34.7130 -3.4619
# 6 4.4206 -3.3472 -4.1354 4.5723 -3.4619 41.2900
#
#
#
# Elastic Compliance Matrix: (Units=1/GPa)
#
#
# Indices 1 2 3 4 5 6 
#
# 1 0.017167 -0.002202 -0.004004 -0.000515 -0.004200 -0.002713
# 2 -0.002202 0.012898 -0.004793 -0.000336 0.003582 0.001139
# 3 -0.004004 -0.004793 0.012998 0.001501 -0.007869 0.000516
# 4 -0.000515 -0.000336 0.001501 0.029809 -0.004224 -0.003477
# 5 -0.004200 0.003582 -0.007869 -0.004224 0.037012 0.003523
# 6 -0.002713 0.001139 0.000516 -0.003477 0.003523 0.025334
#
#
# Mechanical properties :
#
#
# Convention : Reuss Voigt Hill
#
# Bulk Modulus (GPa) = 47.47839 56.93659 52.20749
# Shear Modulus (GPa) = 30.44376 34.55958 32.50167
#
# Velocity S-wave (km/s) = 3.84909 4.10103 3.97706
# Velocity P-wave (km/s) = 6.54671 7.08046 6.81881
#
# Compressibility (1/GPa) = 0.02106221
#
# Stress axis : x y z
#
# Youngs Moduli (GPa) = 58.25248 77.53238 76.93702
#
# Poissons Ratio (x) = 0.17076 0.30809
# Poissons Ratio (y) = 0.12830 0.36876
# Poissons Ratio (z) = 0.23327 0.37161
#
# Static dielectric constant tensor:
#      x y z
#    x 3.770200 0.162690 0.184660 
#    y 0.162690 3.752520 -0.320210 
#    z 0.184660 -0.320210 4.336130 
# 
# 
# High freq. dielectric constant tensor:
#      x y z
#    x 1.793700 0.024960 0.022600 
#    y 0.024960 1.797340 -0.022730 
#    z 0.022600 -0.022730 1.823650 
# 
# From -- ./inp_files/185055.got.cif
#   From: 2010.06.25/outbox.cif.g09.slc.cpg/sg2_93_cif.got.tgz:185055.got - 2010.06.27 13:26:56.
