data_PCOD8029677
_publ_section_title
;
Structure prediction by ZEFSAII (Michael W. Deem and Ramdas Pophale) SiO2 
 PCOD8029677
Probable space group: P -1
;
_chemical_formula_sum "Si O2"
_cell_formula_units_Z 16
_cell_length_a 15.668740
_cell_length_b 15.131283
_cell_length_c 10.774954
_cell_angle_alpha 51.716041
_cell_angle_beta 112.220004
_cell_angle_gamma 153.216603
_cell_volume 785.366869
_symmetry_space_group_name_H-M "P -1"
_symmetry_group_IT_number 2
_symmetry_cell_setting 'triclinic'
loop_
_space_group_symop_operation_xyz
x,y,z
-x,-y,-z
loop_
_atom_site_type_symbol
_atom_site_label
_atom_site_fract_x
_atom_site_fract_y
_atom_site_fract_z
Si Si1 0.737474 0.706826 0.602696
Si Si2 0.427827 0.248422 0.644384
Si Si3 0.490042 0.592272 0.005508
Si Si4 0.662699 0.354872 0.496760
Si Si5 0.974425 0.105703 0.885822
Si Si6 0.065753 0.766251 0.045833
Si Si7 0.395691 0.727184 0.748623
Si Si8 0.221337 0.756274 0.326313
O O1 0.633091 0.496953 0.634751
O O2 0.639130 0.714911 0.497252
O O3 0.655529 0.594594 0.792936
O O4 0.000000 0.000000 0.500000
O O5 0.480874 0.213477 0.601925
O O6 0.211953 0.963827 0.839803
O O7 0.500000 0.500000 0.000000
O O8 0.388617 0.585222 0.886327
O O9 0.736155 0.888809 0.918051
O O10 0.581336 0.227913 0.425724
O O11 0.725765 0.309136 0.642319
O O12 0.864364 0.665909 0.328314
O O13 0.016238 0.211083 0.948184
O O14 0.000000 0.000000 0.000000
O O15 0.202629 0.825835 0.145658
O O16 0.820600 0.450937 0.154386
O O17 0.598873 0.006316 0.684338
O O18 0.000000 0.500000 0.500000
#
# Coordination Sequence:
#
# PCOD8029677 Si02
#       8
#     2   2   2   2   2   2   2   2
#     4  11  24  41  63  90 134 182 205 257 327 390
#     4  11  24  44  60  93 137 165 218 258 324 391
#     4  12  22  37  62  96 128 165 219 264 315 382
#     4  11  25  40  66  98 125 172 212 273 316 379
#     4  11  21  38  61  94 125 162 213 261 318 368
#     4  11  23  42  67  90 125 176 206 265 325 376
#     4  11  22  41  67  93 125 163 220 265 322 375
#     4  12  22  45  69  96 126 164 224 267 323 372
#
# _framework density 20.372644999999999
#
# number of rings (size 3 to 8) (size 9 to 14) (size 15 to 20)
#    0.000    0.750    5.000    4.125    3.500    0.500 
#    2.250    0.625    0.000    0.000    0.000    0.000 
#    0.000    0.000    0.000    0.000    0.000    0.000 
#
# Total GULP energy -198311.941545 kJ/mol
# GULP energy per Si atom -12394.496347 kJ/mol
# Density = 2.032628 g / cm^3
# Si number density = 20.372645 Si / 1000 Ang^3
#
#
#
# Elastic Constant Matrix: (Units=GPa)
#
#
# Indices 1 2 3 4 5 6 
#
# 1 125.3516 27.9193 57.1797 0.7721 3.6797 12.8115
# 2 27.9193 87.5836 9.3082 -24.6754 -0.3809 19.1305
# 3 57.1797 9.3082 79.1094 -4.7485 1.8840 1.1555
# 4 0.7721 -24.6754 -4.7485 31.6227 9.4990 2.0029
# 5 3.6797 -0.3809 1.8840 9.4990 43.6519 -0.6566
# 6 12.8115 19.1305 1.1555 2.0029 -0.6566 22.9282
#
#
#
# Elastic Compliance Matrix: (Units=1/GPa)
#
#
# Indices 1 2 3 4 5 6 
#
# 1 0.013596 -0.003849 -0.009604 -0.004612 0.000186 -0.003493
# 2 -0.003849 0.022035 0.001752 0.019957 -0.004175 -0.018186
# 3 -0.009604 0.001752 0.019646 0.004698 -0.001008 0.002475
# 4 -0.004612 0.019957 0.004698 0.052653 -0.011387 -0.019237
# 5 0.000186 -0.004175 -0.001008 -0.011387 0.025455 0.005154
# 6 -0.003493 -0.018186 0.002475 -0.019237 0.005154 0.062444
#
#
# Mechanical properties :
#
#
# Convention : Reuss Voigt Hill
#
# Bulk Modulus (GPa) = 31.37212 53.42876 42.40044
# Shear Modulus (GPa) = 21.75274 32.81639 27.28456
#
# Velocity S-wave (km/s) = 3.27118 4.01784 3.66358
# Velocity P-wave (km/s) = 5.44977 6.91424 6.22522
#
# Compressibility (1/GPa) = 0.03187544
#
# Stress axis : x y z
#
# Youngs Moduli (GPa) = 73.55182 45.38200 50.90001
#
# Poissons Ratio (x) = 0.17466 0.48886
# Poissons Ratio (y) = 0.28308 -0.08918
# Poissons Ratio (z) = 0.70642 -0.07952
#
# Static dielectric constant tensor:
#      x y z
#    x 0.784720 1.708830 -0.754270 
#    y 1.708830 3.475600 0.262260 
#    z -0.754270 0.262260 3.569730 
# 
# 
# High freq. dielectric constant tensor:
#      x y z
#    x 1.794650 0.019040 0.010710 
#    y 0.019040 1.804160 -0.011520 
#    z 0.010710 -0.011520 1.804820 
# 
# From -- ./inp_files/315876.got.cif
#   From: 2010.06.25/outbox.cif.g09.slc.cpg/sg2_158_cif.got.tgz:315876.got - 2010.06.27 13:26:56.
