data_PCOD8029979
_publ_section_title
;
Structure prediction by ZEFSAII (Michael W. Deem and Ramdas Pophale) SiO2 
 PCOD8029979
Probable space group: P -1
;
_chemical_formula_sum "Si O2"
_cell_formula_units_Z 16
_cell_length_a 27.482852
_cell_length_b 28.017167
_cell_length_c 8.876636
_cell_angle_alpha 139.147321
_cell_angle_beta 39.863545
_cell_angle_gamma 169.687277
_cell_volume 784.232696
_symmetry_space_group_name_H-M "P -1"
_symmetry_group_IT_number 2
_symmetry_cell_setting 'triclinic'
loop_
_space_group_symop_operation_xyz
x,y,z
-x,-y,-z
loop_
_atom_site_type_symbol
_atom_site_label
_atom_site_fract_x
_atom_site_fract_y
_atom_site_fract_z
Si Si1 0.229091 0.753543 0.651497
Si Si2 0.536168 0.226363 0.377449
Si Si3 0.155173 0.064058 0.444736
Si Si4 0.286435 0.749091 0.833832
Si Si5 0.720356 0.567354 0.457624
Si Si6 0.986062 0.069139 0.875883
Si Si7 0.022981 0.707212 0.161232
Si Si8 0.433962 0.578895 0.182674
O O1 0.268959 0.747845 0.697362
O O2 0.000000 0.500000 0.500000
O O3 0.500000 0.000000 0.500000
O O4 0.163606 0.778521 0.888700
O O5 0.605507 0.233553 0.361625
O O6 0.766301 0.429061 0.185493
O O7 0.551661 0.321074 0.636493
O O8 0.234109 0.932579 0.323510
O O9 0.448649 0.303490 0.372446
O O10 0.164475 0.160128 0.664618
O O11 0.116308 0.003389 0.220105
O O12 0.903447 0.802742 0.521818
O O13 0.000000 0.500000 0.000000
O O14 0.500000 0.000000 0.000000
O O15 0.908395 0.668730 0.244389
O O16 0.618904 0.491456 0.686392
O O17 0.181565 0.314867 0.054061
O O18 0.725415 0.815408 0.999982
#
# Coordination Sequence:
#
# PCOD8029979 Si02
#       8
#     2   2   2   2   2   2   2   2
#     4  12  25  42  63  97 133 161 207 268 315 361
#     4  11  21  41  68  93 122 167 216 259 308 371
#     4  11  24  43  65  91 130 172 207 244 322 392
#     4  12  22  42  70  92 120 174 217 250 303 386
#     4  11  23  41  67  95 121 169 216 253 310 381
#     4  11  24  43  64  92 132 167 201 265 315 367
#     4  11  22  42  67  89 131 169 203 261 320 370
#     4  11  23  40  66  97 127 159 213 270 306 356
#
# _framework density 20.402107999999998
#
# number of rings (size 3 to 8) (size 9 to 14) (size 15 to 20)
#    0.000    0.750    2.500    6.750    0.000    5.000 
#    6.750    0.000    0.000    0.000    0.000    0.000 
#    0.000    0.000    0.000    0.000    0.000    0.000 
#
# Total GULP energy -198486.121916 kJ/mol
# GULP energy per Si atom -12405.382620 kJ/mol
# Density = 2.035567 g / cm^3
# Si number density = 20.402108 Si / 1000 Ang^3
#
#
#
# Elastic Constant Matrix: (Units=GPa)
#
#
# Indices 1 2 3 4 5 6 
#
# 1 135.7884 48.4907 56.0693 6.5059 6.5694 11.1777
# 2 48.4907 130.9549 35.2391 6.9827 7.8166 13.3199
# 3 56.0693 35.2391 111.1414 7.9707 3.6264 11.2432
# 4 6.5059 6.9827 7.9707 44.5854 2.7284 4.4583
# 5 6.5694 7.8166 3.6264 2.7284 25.0150 0.7730
# 6 11.1777 13.3199 11.2432 4.4583 0.7730 38.8226
#
#
#
# Elastic Compliance Matrix: (Units=1/GPa)
#
#
# Indices 1 2 3 4 5 6 
#
# 1 0.010102 -0.002449 -0.004184 -0.000186 -0.001236 -0.000811
# 2 -0.002449 0.009264 -0.001402 -0.000528 -0.001930 -0.001968
# 3 -0.004184 -0.001402 0.011795 -0.001118 -0.000002 -0.001602
# 4 -0.000186 -0.000528 -0.001118 0.023071 -0.002077 -0.002049
# 5 -0.001236 -0.001930 -0.000002 -0.002077 0.041117 0.000438
# 6 -0.000811 -0.001968 -0.001602 -0.002049 0.000438 0.027357
#
#
# Mechanical properties :
#
#
# Convention : Reuss Voigt Hill
#
# Bulk Modulus (GPa) = 66.26325 73.05366 69.65846
# Shear Modulus (GPa) = 34.76909 37.55698 36.16303
#
# Velocity S-wave (km/s) = 4.13266 4.29515 4.21469
# Velocity P-wave (km/s) = 7.43781 7.77705 7.60932
#
# Compressibility (1/GPa) = 0.01509132
#
# Stress axis : x y z
#
# Youngs Moduli (GPa) = 98.99053 107.94836 84.77960
#
# Poissons Ratio (x) = 0.26431 0.35474
# Poissons Ratio (y) = 0.24238 0.11886
# Poissons Ratio (z) = 0.41421 0.15134
#
# Static dielectric constant tensor:
#      x y z
#    x 3.370650 0.062020 -0.048370 
#    y 0.062020 3.931660 -0.040200 
#    z -0.048370 -0.040200 3.716350 
# 
# 
# High freq. dielectric constant tensor:
#      x y z
#    x 1.801830 0.002580 -0.006460 
#    y 0.002580 1.823050 0.001900 
#    z -0.006460 0.001900 1.795050 
# 
# From -- ./inp_files/223340.got.cif
#   From: 2010.06.25/outbox.cif.g09.slc.cpg/sg2_112_cif.got.tgz:223340.got - 2010.06.27 13:26:56.
