data_PCOD8029382
_publ_section_title
;
Structure prediction by ZEFSAII (Michael W. Deem and Ramdas Pophale) SiO2 
 PCOD8029382
Probable space group: P -1
;
_chemical_formula_sum "Si O2"
_cell_formula_units_Z 16
_cell_length_a 7.230520
_cell_length_b 17.718440
_cell_length_c 7.256304
_cell_angle_alpha 116.467109
_cell_angle_beta 118.391645
_cell_angle_gamma 87.895523
_cell_volume 713.751301
_symmetry_space_group_name_H-M "P -1"
_symmetry_group_IT_number 2
_symmetry_cell_setting 'triclinic'
loop_
_space_group_symop_operation_xyz
x,y,z
-x,-y,-z
loop_
_atom_site_type_symbol
_atom_site_label
_atom_site_fract_x
_atom_site_fract_y
_atom_site_fract_z
Si Si1 0.092969 0.522035 0.353604
Si Si2 0.389076 0.165589 0.090532
Si Si3 0.581243 0.892128 0.582378
Si Si4 0.503018 0.351253 0.229142
Si Si5 0.631032 0.088378 0.860676
Si Si6 0.081579 0.196032 0.260438
Si Si7 0.322725 0.474235 0.047307
Si Si8 0.264134 0.392537 0.520016
O O1 0.243304 0.608007 0.601119
O O2 0.189391 0.499841 0.182079
O O3 0.085903 0.445233 0.419088
O O4 0.852413 0.541715 0.225279
O O5 0.524798 0.155992 0.332601
O O6 0.482309 0.249507 0.103318
O O7 0.149258 0.168999 0.054363
O O8 0.415686 0.087973 0.881649
O O9 0.403014 0.879199 0.325999
O O10 0.785135 0.849997 0.580054
O O11 0.676987 0.993597 0.777255
O O12 0.393763 0.385425 0.036584
O O13 0.398092 0.380998 0.392297
O O14 0.828384 0.157275 0.120403
O O15 0.144502 0.299007 0.439500
O O16 0.539467 0.551806 0.191831
#
# Coordination Sequence:
#
# PCOD8029382 Si02
#       8
#     2   2   2   2   2   2   2   2
#     4   8  13  22  42  71 101 142 180 219 269 321
#     4   9  20  38  58  85 117 148 185 237 278 331
#     4   9  22  39  58  88 113 145 192 231 276 350
#     4   8  14  28  41  71 111 135 179 228 263 321
#     4  11  20  41  60  82 118 147 185 235 285 336
#     4   9  20  36  56  85 116 149 186 236 281 332
#     4   8  13  22  42  67 106 141 175 226 266 315
#     4   8  14  26  43  71 109 138 179 227 268 318
#
# _framework density 22.416771000000001
#
# number of rings (size 3 to 8) (size 9 to 14) (size 15 to 20)
#    0.750    2.500    0.000    2.250    0.000    1.000 
#    9.000    1.250    0.000    3.000    0.000    5.250 
#    0.000    0.000    0.000    0.000    0.000    0.000 
#
# Total GULP energy -198233.054618 kJ/mol
# GULP energy per Si atom -12389.565914 kJ/mol
# Density = 2.236575 g / cm^3
# Si number density = 22.416771 Si / 1000 Ang^3
#
#
#
# Elastic Constant Matrix: (Units=GPa)
#
#
# Indices 1 2 3 4 5 6 
#
# 1 81.5586 29.8151 26.4661 -7.0072 8.7723 -11.2582
# 2 29.8151 146.3239 50.8555 -17.1769 15.3825 -15.7974
# 3 26.4661 50.8555 96.2679 -14.1478 16.9988 -10.9570
# 4 -7.0072 -17.1769 -14.1478 30.8034 1.0783 -0.5217
# 5 8.7723 15.3825 16.9988 1.0783 28.2199 -2.9346
# 6 -11.2582 -15.7974 -10.9570 -0.5217 -2.9346 30.1441
#
#
#
# Elastic Compliance Matrix: (Units=1/GPa)
#
#
# Indices 1 2 3 4 5 6 
#
# 1 0.014340 -0.001349 -0.002206 0.001632 -0.002074 0.003673
# 2 -0.001349 0.009218 -0.003204 0.003500 -0.002499 0.002979
# 3 -0.002206 -0.003204 0.014785 0.004766 -0.006414 0.002329
# 4 0.001632 0.003500 0.004766 0.037266 -0.006272 0.004210
# 5 -0.002074 -0.002499 -0.006414 -0.006272 0.041496 -0.000485
# 6 0.003673 0.002979 0.002329 0.004210 -0.000485 0.036980
#
#
# Mechanical properties :
#
#
# Convention : Reuss Voigt Hill
#
# Bulk Modulus (GPa) = 40.28124 59.82488 50.05306
# Shear Modulus (GPa) = 28.42890 32.30107 30.36498
#
# Velocity S-wave (km/s) = 3.56504 3.80008 3.68444
# Velocity P-wave (km/s) = 5.91221 6.78230 6.36215
#
# Compressibility (1/GPa) = 0.02482545
#
# Stress axis : x y z
#
# Youngs Moduli (GPa) = 69.73294 108.48567 67.63787
#
# Poissons Ratio (x) = 0.14638 0.14918
# Poissons Ratio (y) = 0.09409 0.21670
# Poissons Ratio (z) = 0.15380 0.34757
#
# Static dielectric constant tensor:
#      x y z
#    x 4.216180 -0.204650 -0.155820 
#    y -0.204650 4.298570 -0.109680 
#    z -0.155820 -0.109680 3.922310 
# 
# 
# High freq. dielectric constant tensor:
#      x y z
#    x 1.911690 -0.009630 -0.017810 
#    y -0.009630 1.887410 -0.016480 
#    z -0.017810 -0.016480 1.860490 
# 
# From -- ./inp_files/215392.got.cif
#   From: 2010.06.25/outbox.cif.g09.slc.cpg/sg2_108_cif.got.tgz:215392.got - 2010.06.27 13:26:56.
