data_PCOD8029666
_publ_section_title
;
Structure prediction by ZEFSAII (Michael W. Deem and Ramdas Pophale) SiO2 
 PCOD8029666
Probable space group: P -1
;
_chemical_formula_sum "Si O2"
_cell_formula_units_Z 16
_cell_length_a 9.254026
_cell_length_b 9.000648
_cell_length_c 14.545954
_cell_angle_alpha 127.533557
_cell_angle_beta 115.452181
_cell_angle_gamma 97.900555
_cell_volume 720.124364
_symmetry_space_group_name_H-M "P -1"
_symmetry_group_IT_number 2
_symmetry_cell_setting 'triclinic'
loop_
_space_group_symop_operation_xyz
x,y,z
-x,-y,-z
loop_
_atom_site_type_symbol
_atom_site_label
_atom_site_fract_x
_atom_site_fract_y
_atom_site_fract_z
Si Si1 0.599993 0.706881 0.675781
Si Si2 0.000177 0.531635 0.404976
Si Si3 0.701068 0.279007 0.706088
Si Si4 0.996923 0.102731 0.212290
Si Si5 0.059037 0.931073 0.349216
Si Si6 0.338855 0.352384 0.128200
Si Si7 0.747861 0.673048 0.311185
Si Si8 0.598524 0.124504 0.424515
O O1 0.500000 0.500000 0.500000
O O2 0.558609 0.635715 0.743300
O O3 0.507853 0.845670 0.677937
O O4 0.829526 0.868982 0.788394
O O5 0.183301 0.775749 0.511779
O O6 0.000000 0.500000 0.500000
O O7 0.813475 0.524301 0.322443
O O8 0.002027 0.328578 0.282912
O O9 0.853850 0.207447 0.719198
O O10 0.788789 0.538781 0.856103
O O11 0.608246 0.252785 0.569820
O O12 0.529900 0.137731 0.680990
O O13 0.024994 0.061176 0.309742
O O14 0.794858 0.897536 0.041100
O O15 0.852191 0.757084 0.272834
O O16 0.206017 0.115075 0.532869
O O17 0.519668 0.505881 0.167708
#
# Coordination Sequence:
#
# PCOD8029666 Si02
#       8
#     2   2   2   2   2   2   2   2
#     4  12  21  42  69  97 128 168 227 275 319 384
#     4  12  23  40  68  96 131 172 222 272 326 389
#     4  11  22  40  69  97 131 168 220 275 324 385
#     4  12  26  43  65  99 138 175 214 273 336 394
#     4  11  23  44  69  97 129 172 232 274 318 386
#     4  12  27  43  64  99 142 176 210 270 341 394
#     4  11  24  43  68  97 129 174 227 275 319 390
#     4  11  21  37  69 101 121 165 229 281 315 370
#
# _framework density 22.218385000000001
#
# number of rings (size 3 to 8) (size 9 to 14) (size 15 to 20)
#    0.000    0.500    6.250    3.375    1.750    1.500 
#    0.000    0.000    0.000    0.000    0.000    0.000 
#    0.000    0.000    0.000    0.000    0.000    0.000 
#
# Total GULP energy -198361.293522 kJ/mol
# GULP energy per Si atom -12397.580845 kJ/mol
# Density = 2.216782 g / cm^3
# Si number density = 22.218385 Si / 1000 Ang^3
#
#
#
# Elastic Constant Matrix: (Units=GPa)
#
#
# Indices 1 2 3 4 5 6 
#
# 1 94.4125 30.3447 24.3671 11.1535 14.0326 3.3446
# 2 30.3447 85.0732 6.8429 6.7048 -4.1561 5.0479
# 3 24.3671 6.8429 69.4171 11.6804 15.2890 7.5516
# 4 11.1535 6.7048 11.6804 19.8611 3.1507 3.8390
# 5 14.0326 -4.1561 15.2890 3.1507 26.7267 8.7921
# 6 3.3446 5.0479 7.5516 3.8390 8.7921 47.8295
#
#
#
# Elastic Compliance Matrix: (Units=1/GPa)
#
#
# Indices 1 2 3 4 5 6 
#
# 1 0.014291 -0.005002 -0.002488 -0.004076 -0.006875 0.001512
# 2 -0.005002 0.014159 -0.000343 -0.002328 0.005956 -0.001998
# 3 -0.002488 -0.000343 0.018525 -0.007969 -0.008219 -0.000564
# 4 -0.004076 -0.002328 -0.007969 0.058624 0.000410 -0.002992
# 5 -0.006875 0.005956 -0.008219 0.000410 0.049214 -0.007929
# 6 0.001512 -0.001998 -0.000564 -0.002992 -0.007929 0.022800
#
#
# Mechanical properties :
#
#
# Convention : Reuss Voigt Hill
#
# Bulk Modulus (GPa) = 31.93776 41.33468 36.63622
# Shear Modulus (GPa) = 24.54402 31.37332 27.95867
#
# Velocity S-wave (km/s) = 3.32727 3.76179 3.55118
# Velocity P-wave (km/s) = 5.40061 6.12473 5.77403
#
# Compressibility (1/GPa) = 0.03131090
#
# Stress axis : x y z
#
# Youngs Moduli (GPa) = 69.97253 70.62511 53.97995
#
# Poissons Ratio (x) = 0.35325 0.13431
# Poissons Ratio (y) = 0.34999 0.01850
# Poissons Ratio (z) = 0.17410 0.02420
#
# Static dielectric constant tensor:
#      x y z
#    x 4.070450 0.090110 0.043180 
#    y 0.090110 4.579870 0.159740 
#    z 0.043180 0.159740 3.515510 
# 
# 
# High freq. dielectric constant tensor:
#      x y z
#    x 1.881920 0.003120 0.007300 
#    y 0.003120 1.901420 0.012720 
#    z 0.007300 0.012720 1.824230 
# 
# From -- ./inp_files/187828.got.cif
#   From: 2010.06.25/outbox.cif.g09.slc.cpg/sg2_94_cif.got.tgz:187828.got - 2010.06.27 13:26:56.
