data_PCOD8029416
_publ_section_title
;
Structure prediction by ZEFSAII (Michael W. Deem and Ramdas Pophale) SiO2 
 PCOD8029416
Probable space group: P -1
;
_chemical_formula_sum "Si O2"
_cell_formula_units_Z 16
_cell_length_a 17.406683
_cell_length_b 9.244763
_cell_length_c 18.214798
_cell_angle_alpha 141.102573
_cell_angle_beta 150.739801
_cell_angle_gamma 29.649174
_cell_volume 706.275422
_symmetry_space_group_name_H-M "P -1"
_symmetry_group_IT_number 2
_symmetry_cell_setting 'triclinic'
loop_
_space_group_symop_operation_xyz
x,y,z
-x,-y,-z
loop_
_atom_site_type_symbol
_atom_site_label
_atom_site_fract_x
_atom_site_fract_y
_atom_site_fract_z
Si Si1 0.484266 0.027012 0.723735
Si Si2 0.648876 0.611410 0.564323
Si Si3 0.185141 0.356492 0.041640
Si Si4 0.844990 0.023208 0.564329
Si Si5 0.771852 0.164331 0.723756
Si Si6 0.074910 0.427447 0.330808
Si Si7 0.285863 0.074704 0.860587
Si Si8 0.746305 0.413023 0.330821
O O1 0.445623 0.303868 0.759230
O O2 0.603636 0.743161 0.659634
O O3 0.616884 0.931550 0.869434
O O4 0.268024 0.115876 0.598358
O O5 0.777325 0.261066 0.538466
O O6 0.446473 0.740574 0.401645
O O7 0.776793 0.687466 0.659805
O O8 0.204102 0.605439 0.130563
O O9 0.169388 0.233790 0.903199
O O10 0.000000 0.500000 0.000000
O O11 0.791108 0.181211 0.659726
O O12 0.081397 0.773748 0.659742
O O13 0.935803 0.833123 0.759271
O O14 0.169774 0.490889 0.500005
O O15 0.853037 0.714905 0.239339
O O16 0.318475 0.770772 0.760702
O O17 0.500000 0.000000 0.000000
#
# Coordination Sequence:
#
# PCOD8029416 Si02
#       8
#     2   2   2   2   2   2   2   2
#     4  11  23  40  75 105 129 175 240 299 341 400
#     4  11  20  41  70 108 132 170 233 302 347 392
#     4  12  26  47  70  97 144 195 235 283 349 427
#     4  11  20  41  70 108 132 170 233 302 347 392
#     4  11  23  40  75 105 129 175 240 299 341 400
#     4  12  26  44  72 104 139 182 233 292 349 413
#     4  12  31  46  64  99 151 199 225 274 361 441
#     4  12  26  44  72 104 139 182 233 292 349 413
#
# _framework density 22.654053000000001
#
# number of rings (size 3 to 8) (size 9 to 14) (size 15 to 20)
#    0.000    0.500    6.250    3.375    3.500    2.000 
#    0.000    0.000    0.000    0.000    0.000    0.000 
#    0.000    0.000    0.000    0.000    0.000    0.000 
#
# Total GULP energy -198444.265349 kJ/mol
# GULP energy per Si atom -12402.766584 kJ/mol
# Density = 2.260249 g / cm^3
# Si number density = 22.654053 Si / 1000 Ang^3
#
#
#
# Elastic Constant Matrix: (Units=GPa)
#
#
# Indices 1 2 3 4 5 6 
#
# 1 68.0066 30.8814 12.7387 -3.4379 12.1435 3.5621
# 2 30.8814 162.7221 44.9089 -4.9659 0.9262 45.6868
# 3 12.7387 44.9089 67.9034 -1.2810 0.8308 16.2736
# 4 -3.4379 -4.9659 -1.2810 26.6544 -3.3696 2.7125
# 5 12.1435 0.9262 0.8308 -3.3696 33.1138 -3.7587
# 6 3.5621 45.6868 16.2736 2.7125 -3.7587 42.9858
#
#
#
# Elastic Compliance Matrix: (Units=1/GPa)
#
#
# Indices 1 2 3 4 5 6 
#
# 1 0.017550 -0.003525 -0.001422 0.000550 -0.005988 0.002273
# 2 -0.003525 0.010733 -0.004070 0.002366 0.000234 -0.009703
# 3 -0.001422 -0.004070 0.018289 0.000180 -0.000089 -0.002500
# 4 0.000550 0.002366 0.000180 0.038925 0.003142 -0.004810
# 5 -0.005988 0.000234 -0.000089 0.003142 0.033047 0.002972
# 6 0.002273 -0.009703 -0.002500 -0.004810 0.002972 0.034898
#
#
# Mechanical properties :
#
#
# Convention : Reuss Voigt Hill
#
# Bulk Modulus (GPa) = 35.04176 52.85446 43.94811
# Shear Modulus (GPa) = 27.62623 34.55766 31.09195
#
# Velocity S-wave (km/s) = 3.49590 3.90994 3.70870
# Velocity P-wave (km/s) = 5.63887 6.61553 6.14663
#
# Compressibility (1/GPa) = 0.02853738
#
# Stress axis : x y z
#
# Youngs Moduli (GPa) = 56.98147 93.17138 54.67869
#
# Poissons Ratio (x) = 0.32846 0.07774
# Poissons Ratio (y) = 0.20088 0.22253
# Poissons Ratio (z) = 0.08101 0.37918
#
# Static dielectric constant tensor:
#      x y z
#    x 4.051780 0.053080 0.084230 
#    y 0.053080 4.149230 -0.040420 
#    z 0.084230 -0.040420 3.991530 
# 
# 
# High freq. dielectric constant tensor:
#      x y z
#    x 1.892110 0.007600 0.005600 
#    y 0.007600 1.906510 -0.003330 
#    z 0.005600 -0.003330 1.874210 
# 
# From -- ./inp_files/188561.got.cif
#   From: 2010.06.25/outbox.cif.g09.slc.cpg/sg2_95_cif.got.tgz:188561.got - 2010.06.27 13:26:56.
