data_PCOD8029757
_publ_section_title
;
Structure prediction by ZEFSAII (Michael W. Deem and Ramdas Pophale) SiO2 
 PCOD8029757
Probable space group: P -1
;
_chemical_formula_sum "Si O2"
_cell_formula_units_Z 14
_cell_length_a 9.266974
_cell_length_b 9.341174
_cell_length_c 11.704441
_cell_angle_alpha 67.080904
_cell_angle_beta 129.548485
_cell_angle_gamma 123.891056
_cell_volume 647.583275
_symmetry_space_group_name_H-M "P -1"
_symmetry_group_IT_number 2
_symmetry_cell_setting 'triclinic'
loop_
_space_group_symop_operation_xyz
x,y,z
-x,-y,-z
loop_
_atom_site_type_symbol
_atom_site_label
_atom_site_fract_x
_atom_site_fract_y
_atom_site_fract_z
Si Si1 0.144568 0.684975 0.748373
Si Si2 0.954659 0.942598 0.188154
Si Si3 0.098881 0.320083 0.146663
Si Si4 0.436699 0.016924 0.087921
Si Si5 0.121791 0.185533 0.557590
Si Si6 0.960551 0.326977 0.817525
Si Si7 0.407334 0.669502 0.281599
O O1 0.376244 0.831265 0.797939
O O2 0.141890 0.495561 0.795981
O O3 0.068332 0.700121 0.833121
O O4 0.998592 0.701922 0.570126
O O5 0.867988 0.838510 0.294441
O O6 0.062657 0.848132 0.197552
O O7 0.760915 0.940744 0.019936
O O8 0.126437 0.141961 0.227463
O O9 0.316527 0.491076 0.218109
O O10 0.006107 0.332225 0.973987
O O11 0.381843 0.831384 0.167386
O O12 0.500000 0.000000 0.000000
O O13 0.352392 0.279728 0.588084
O O14 0.000000 0.000000 0.500000
O O15 0.750750 0.358943 0.682365
#
# Coordination Sequence:
#
# PCOD8029757 Si02
#       7
#     2   2   2   2   2   2   2
#     4  11  23  42  69  89 129 170 217 257 308 380
#     4  12  25  40  67  97 133 161 211 265 322 370
#     4  11  21  39  65  96 126 162 212 260 311 375
#     4  12  18  37  67  96 117 169 213 261 307 368
#     4  12  23  44  68  93 122 174 221 253 302 392
#     4  11  25  41  62 101 134 160 203 275 323 364
#     4  11  22  38  70  92 125 168 216 255 316 376
#
# _framework density 21.618839999999999
#
# number of rings (size 3 to 8) (size 9 to 14) (size 15 to 20)
#    0.000    0.571    7.143    3.000    0.000    3.429 
#    0.000    0.714    3.143    0.000    0.000    0.000 
#    0.000    0.000    0.000    0.000    0.000    0.000 
#
# Total GULP energy -173442.919503 kJ/mol
# GULP energy per Si atom -12388.779964 kJ/mol
# Density = 2.156963 g / cm^3
# Si number density = 21.618840 Si / 1000 Ang^3
#
#
#
# Elastic Constant Matrix: (Units=GPa)
#
#
# Indices 1 2 3 4 5 6 
#
# 1 55.1575 44.0377 27.7352 17.2083 16.4825 -2.0526
# 2 44.0377 187.5923 41.9045 4.5749 14.7620 3.6483
# 3 27.7352 41.9045 85.5502 -4.1374 15.6254 3.5928
# 4 17.2083 4.5749 -4.1374 38.4264 11.2831 5.1176
# 5 16.4825 14.7620 15.6254 11.2831 25.0941 -0.0383
# 6 -2.0526 3.6483 3.5928 5.1176 -0.0383 36.2023
#
#
#
# Elastic Compliance Matrix: (Units=1/GPa)
#
#
# Indices 1 2 3 4 5 6 
#
# 1 0.032630 -0.005151 -0.007472 -0.013168 -0.007821 0.004964
# 2 -0.005151 0.006893 -0.001500 0.001601 -0.000459 -0.001065
# 3 -0.007472 -0.001500 0.016922 0.008247 -0.008459 -0.003127
# 4 -0.013168 0.001601 0.008247 0.037800 -0.014435 -0.007085
# 5 -0.007821 -0.000459 -0.008459 -0.014435 0.057018 0.002543
# 6 0.004964 -0.001065 -0.003127 -0.007085 0.002543 0.029326
#
#
# Mechanical properties :
#
#
# Convention : Reuss Voigt Hill
#
# Bulk Modulus (GPa) = 35.46477 61.73941 48.60209
# Shear Modulus (GPa) = 22.91114 34.25273 28.58194
#
# Velocity S-wave (km/s) = 3.25895 3.98476 3.63999
# Velocity P-wave (km/s) = 5.53184 7.05629 6.34005
#
# Compressibility (1/GPa) = 0.02819700
#
# Stress axis : x y z
#
# Youngs Moduli (GPa) = 30.64692 145.07936 59.09572
#
# Poissons Ratio (x) = 0.74725 0.44159
# Poissons Ratio (y) = 0.15785 0.08867
# Poissons Ratio (z) = 0.22901 0.21769
#
# Static dielectric constant tensor:
#      x y z
#    x 4.187050 0.749060 0.099610 
#    y 0.749060 4.987150 -0.052360 
#    z 0.099610 -0.052360 4.080560 
# 
# 
# High freq. dielectric constant tensor:
#      x y z
#    x 1.817410 0.021100 0.006180 
#    y 0.021100 1.882420 -0.013570 
#    z 0.006180 -0.013570 1.830260 
# 
# From -- ./inp_files/154975.got.cif
#   From: 2010.06.25/outbox.cif.g09.slc.cpg/sg2_78_cif.got.tgz:154975.got - 2010.06.27 13:26:56.
