data_PCOD8029304
_publ_section_title
;
Structure prediction by ZEFSAII (Michael W. Deem and Ramdas Pophale) SiO2 
 PCOD8029304
Probable space group: P -1
;
_chemical_formula_sum "Si O2"
_cell_formula_units_Z 16
_cell_length_a 14.099029
_cell_length_b 5.555966
_cell_length_c 18.381772
_cell_angle_alpha 126.212979
_cell_angle_beta 140.949143
_cell_angle_gamma 69.902239
_cell_volume 712.883786
_symmetry_space_group_name_H-M "P -1"
_symmetry_group_IT_number 2
_symmetry_cell_setting 'triclinic'
loop_
_space_group_symop_operation_xyz
x,y,z
-x,-y,-z
loop_
_atom_site_type_symbol
_atom_site_label
_atom_site_fract_x
_atom_site_fract_y
_atom_site_fract_z
Si Si1 0.863938 0.386318 0.310427
Si Si2 0.625509 0.303328 0.041668
Si Si3 0.871086 0.685531 0.936028
Si Si4 0.602803 0.660047 0.874102
Si Si5 0.270330 0.289799 0.591058
Si Si6 0.845626 0.728472 0.156153
Si Si7 0.164854 0.580258 0.440609
Si Si8 0.937336 0.660778 0.812298
O O1 0.685068 0.278569 0.155238
O O2 0.852003 0.564273 0.409999
O O3 0.995833 0.587654 0.373131
O O4 0.913159 0.061456 0.291641
O O5 0.790940 0.483782 0.142529
O O6 0.500000 0.500000 0.000000
O O7 0.562501 0.994654 0.902238
O O8 0.705949 0.560993 0.853648
O O9 0.835760 0.676935 0.826744
O O10 0.000000 0.500000 0.000000
O O11 0.929009 0.032140 0.059647
O O12 0.446831 0.404845 0.742351
O O13 0.698423 0.701462 0.012575
O O14 0.259830 0.416229 0.525001
O O15 0.241224 0.927635 0.523606
O O16 0.986756 0.631517 0.181830
O O17 0.158401 0.379781 0.327011
#
# Coordination Sequence:
#
# PCOD8029304 Si02
#       8
#     2   2   2   2   2   2   2   2
#     4  11  24  42  67 104 134 189 245 284 340 410
#     4  11  22  37  69  99 143 175 219 298 355 410
#     4  11  23  42  78 105 129 168 229 312 364 415
#     4  11  24  43  64 107 142 180 233 288 362 415
#     4  12  29  44  69  99 149 199 235 276 338 427
#     4  11  20  39  71  98 142 171 224 309 352 400
#     4  12  27  47  69  97 146 195 238 285 331 422
#     4  11  23  43  71 107 127 174 236 296 361 404
#
# _framework density 22.444053
#
# number of rings (size 3 to 8) (size 9 to 14) (size 15 to 20)
#    0.000    0.750    3.750    3.750    7.000    2.000 
#    0.000    1.250    0.000    0.000    0.000    0.000 
#    0.000    0.000    0.000    0.000    0.000    0.000 
#
# Total GULP energy -198280.012809 kJ/mol
# GULP energy per Si atom -12392.500801 kJ/mol
# Density = 2.239297 g / cm^3
# Si number density = 22.444053 Si / 1000 Ang^3
#
#
#
# Elastic Constant Matrix: (Units=GPa)
#
#
# Indices 1 2 3 4 5 6 
#
# 1 94.4136 24.5017 39.5955 15.7316 -10.1808 3.2160
# 2 24.5017 101.8398 30.7615 15.9443 -6.9607 5.6952
# 3 39.5955 30.7615 93.4384 16.5552 -17.0251 14.9522
# 4 15.7316 15.9443 16.5552 39.3645 1.4583 0.9493
# 5 -10.1808 -6.9607 -17.0251 1.4583 38.7748 0.2490
# 6 3.2160 5.6952 14.9522 0.9493 0.2490 34.2279
#
#
#
# Elastic Compliance Matrix: (Units=1/GPa)
#
#
# Indices 1 2 3 4 5 6 
#
# 1 0.013506 -0.001339 -0.004682 -0.002962 0.001354 0.001072
# 2 -0.001339 0.011442 -0.002408 -0.003100 0.000766 -0.000646
# 3 -0.004682 -0.002408 0.016209 -0.004031 0.005647 -0.006170
# 4 -0.002962 -0.003100 -0.004031 0.029652 -0.004231 0.001763
# 5 0.001354 0.000766 0.005647 -0.004231 0.028940 -0.002815
# 6 0.001072 -0.000646 -0.006170 0.001763 -0.002815 0.031889
#
#
# Mechanical properties :
#
#
# Convention : Reuss Voigt Hill
#
# Bulk Modulus (GPa) = 41.15126 53.26768 47.20947
# Shear Modulus (GPa) = 31.92913 35.46234 33.69574
#
# Velocity S-wave (km/s) = 3.77584 3.97928 3.87889
# Velocity P-wave (km/s) = 6.11426 6.70059 6.41413
#
# Compressibility (1/GPa) = 0.02430059
#
# Stress axis : x y z
#
# Youngs Moduli (GPa) = 74.04159 87.39380 61.69247
#
# Poissons Ratio (x) = 0.11699 0.28887
# Poissons Ratio (y) = 0.09911 0.14853
# Poissons Ratio (z) = 0.34670 0.21040
#
# Static dielectric constant tensor:
#      x y z
#    x 4.345640 0.423480 -0.170780 
#    y 0.423480 4.316890 0.061260 
#    z -0.170780 0.061260 4.001300 
# 
# 
# High freq. dielectric constant tensor:
#      x y z
#    x 1.875050 0.008700 -0.010040 
#    y 0.008700 1.891340 0.003650 
#    z -0.010040 0.003650 1.883840 
# 
# From -- ./inp_files/38725.got.cif
#   From: 2010.06.25/outbox.cif.g09.slc.cpg/sg2_20_cif.got.tgz:38725.got - 2010.06.27 13:26:56.
