data_PCOD8029282
_publ_section_title
;
Structure prediction by ZEFSAII (Michael W. Deem and Ramdas Pophale) SiO2 
 PCOD8029282
Probable space group: P -1
;
_chemical_formula_sum "Si O2"
_cell_formula_units_Z 14
_cell_length_a 14.607336
_cell_length_b 9.101556
_cell_length_c 14.952970
_cell_angle_alpha 75.586049
_cell_angle_beta 146.730216
_cell_angle_gamma 127.891463
_cell_volume 681.230383
_symmetry_space_group_name_H-M "P -1"
_symmetry_group_IT_number 2
_symmetry_cell_setting 'triclinic'
loop_
_space_group_symop_operation_xyz
x,y,z
-x,-y,-z
loop_
_atom_site_type_symbol
_atom_site_label
_atom_site_fract_x
_atom_site_fract_y
_atom_site_fract_z
Si Si1 0.104852 0.371970 0.520207
Si Si2 0.081483 0.754853 0.283679
Si Si3 0.795627 0.061623 0.006205
Si Si4 0.400481 0.400155 0.032968
Si Si5 0.760494 0.943091 0.799788
Si Si6 0.822100 0.522485 0.626053
Si Si7 0.715652 0.159520 0.376599
O O1 0.342903 0.423905 0.723872
O O2 0.029504 0.302310 0.365304
O O3 0.187754 0.601648 0.571160
O O4 0.866472 0.169286 0.422026
O O5 0.101517 0.599757 0.286073
O O6 0.243619 0.893582 0.486432
O O7 0.209761 0.945375 0.283772
O O8 0.783189 0.591780 0.084060
O O9 0.075779 0.316779 0.227845
O O10 0.754625 0.865824 0.043363
O O11 0.764012 0.048407 0.875152
O O12 0.581612 0.035169 0.868693
O O13 0.500000 0.500000 0.000000
O O14 0.485690 0.666057 0.609269
O O15 0.000000 0.000000 0.000000
#
# Coordination Sequence:
#
# PCOD8029282 Si02
#       7
#     2   2   2   2   2   2   2
#     4   9  17  36  61  86 125 164 198 251 311 363
#     4  11  21  39  65  93 122 167 209 256 309 366
#     4  11  24  42  64  94 125 166 209 256 313 368
#     4  11  20  39  67  92 126 167 202 253 319 371
#     4  12  23  44  66  89 128 167 206 257 316 368
#     4  11  24  41  66  93 124 164 213 258 306 370
#     4   9  18  35  61  88 121 163 205 247 307 368
#
# _framework density 20.551051999999999
#
# number of rings (size 3 to 8) (size 9 to 14) (size 15 to 20)
#    0.000    1.429    7.143    0.429    2.000    1.714 
#    0.000    2.143    0.000    0.000    0.000    0.000 
#    0.000    0.000    0.000    0.000    0.000    0.000 
#
# Total GULP energy -173525.105949 kJ/mol
# GULP energy per Si atom -12394.650425 kJ/mol
# Density = 2.050428 g / cm^3
# Si number density = 20.551052 Si / 1000 Ang^3
#
#
#
# Elastic Constant Matrix: (Units=GPa)
#
#
# Indices 1 2 3 4 5 6 
#
# 1 80.4882 36.8016 49.8612 8.6522 4.9922 26.5420
# 2 36.8016 62.4818 32.7196 -15.6142 -4.0024 22.2675
# 3 49.8612 32.7196 139.8730 1.5958 9.7701 -5.1757
# 4 8.6522 -15.6142 1.5958 33.5639 -3.1365 -5.3142
# 5 4.9922 -4.0024 9.7701 -3.1365 43.2493 -14.1791
# 6 26.5420 22.2675 -5.1757 -5.3142 -14.1791 32.7145
#
#
#
# Elastic Compliance Matrix: (Units=1/GPa)
#
#
# Indices 1 2 3 4 5 6 
#
# 1 0.041853 -0.010886 -0.012341 -0.023271 -0.017858 -0.040019
# 2 -0.010886 0.032901 -0.004612 0.017036 0.003264 -0.010110
# 3 -0.012341 -0.004612 0.012951 0.003581 0.004087 0.017554
# 4 -0.023271 0.017036 0.003581 0.048321 0.014111 0.021817
# 5 -0.017858 0.003264 0.004087 0.014111 0.035634 0.030650
# 6 -0.040019 -0.010110 0.017554 0.021817 0.030650 0.089523
#
#
# Mechanical properties :
#
#
# Convention : Reuss Voigt Hill
#
# Bulk Modulus (GPa) = 31.22418 57.95642 44.59030
# Shear Modulus (GPa) = 15.26550 32.80292 24.03421
#
# Velocity S-wave (km/s) = 2.72841 3.99954 3.42349
# Velocity P-wave (km/s) = 5.01518 7.04208 6.11322
#
# Compressibility (1/GPa) = 0.03202646
#
# Stress axis : x y z
#
# Youngs Moduli (GPa) = 23.89338 30.39406 77.21580
#
# Poissons Ratio (x) = 0.33086 0.95291
# Poissons Ratio (y) = 0.26010 0.35614
# Poissons Ratio (z) = 0.29487 0.14019
#
# Static dielectric constant tensor:
#      x y z
#    x 3.991180 0.165490 0.413230 
#    y 0.165490 2.557530 0.270610 
#    z 0.413230 0.270610 3.608800 
# 
# 
# High freq. dielectric constant tensor:
#      x y z
#    x 1.806600 0.028510 0.014320 
#    y 0.028510 1.770810 -0.028390 
#    z 0.014320 -0.028390 1.813800 
# 
# From -- ./inp_files/186342.got.cif
#   From: 2010.06.25/outbox.cif.g09.slc.cpg/sg2_94_cif.got.tgz:186342.got - 2010.06.27 13:26:56.
