data_PCOD8029513
_publ_section_title
;
Structure prediction by ZEFSAII (Michael W. Deem and Ramdas Pophale) SiO2 
 PCOD8029513
Probable space group: P -1
;
_chemical_formula_sum "Si O2"
_cell_formula_units_Z 10
_cell_length_a 6.239247
_cell_length_b 11.592912
_cell_length_c 9.314836
_cell_angle_alpha 115.670338
_cell_angle_beta 85.461220
_cell_angle_gamma 47.434654
_cell_volume 370.347405
_symmetry_space_group_name_H-M "P -1"
_symmetry_group_IT_number 2
_symmetry_cell_setting 'triclinic'
loop_
_space_group_symop_operation_xyz
x,y,z
-x,-y,-z
loop_
_atom_site_type_symbol
_atom_site_label
_atom_site_fract_x
_atom_site_fract_y
_atom_site_fract_z
Si Si1 0.915323 0.725609 0.698259
Si Si2 0.641460 0.537434 0.222506
Si Si3 0.891796 0.213557 0.841356
Si Si4 0.660140 0.117417 0.995264
Si Si5 0.393226 0.176192 0.514080
O O1 0.930983 0.677752 0.503712
O O2 0.299827 0.539679 0.656952
O O3 0.737987 0.946888 0.822969
O O4 0.684524 0.733101 0.807670
O O5 0.257491 0.682014 0.254704
O O6 0.677140 0.674865 0.292458
O O7 0.928990 0.327983 0.993822
O O8 0.603896 0.255035 0.953075
O O9 0.259974 0.965063 0.680000
O O10 0.000000 0.000000 0.000000
O O11 0.500000 0.000000 0.500000
#
# Coordination Sequence:
#
# PCOD8029513 Si02
#       5
#     2   2   2   2   2
#     4  11  23  42  71 104 134 177 231 276 337 402
#     4  11  25  43  69 103 135 178 230 279 336 403
#     4  11  24  46  69  99 138 182 225 275 345 402
#     4  11  20  43  73 100 136 181 221 278 341 400
#     4  12  26  46  66  99 143 180 224 284 338 402
#
# _framework density 27.001676
#
# number of rings (size 3 to 8) (size 9 to 14) (size 15 to 20)
#    0.000    0.800    4.000    3.600    0.000    4.800 
#    0.000    5.000    0.000    0.000    0.000    0.000 
#    0.000    0.000    0.000    0.000    0.000    0.000 
#
# Total GULP energy -123908.425855 kJ/mol
# GULP energy per Si atom -12390.842585 kJ/mol
# Density = 2.694022 g / cm^3
# Si number density = 27.001676 Si / 1000 Ang^3
#
#
#
# Elastic Constant Matrix: (Units=GPa)
#
#
# Indices 1 2 3 4 5 6 
#
# 1 75.0807 36.2505 54.6233 -11.4566 35.6389 22.6732
# 2 36.2505 173.0534 43.8444 -25.0962 28.7660 -7.5874
# 3 54.6233 43.8444 87.3638 -11.1311 46.3777 15.7937
# 4 -11.4566 -25.0962 -11.1311 49.9797 1.6471 13.6160
# 5 35.6389 28.7660 46.3777 1.6471 48.3187 -9.5291
# 6 22.6732 -7.5874 15.7937 13.6160 -9.5291 57.6894
#
#
#
# Elastic Compliance Matrix: (Units=1/GPa)
#
#
# Indices 1 2 3 4 5 6 
#
# 1 0.041578 -0.001566 0.002257 0.018044 -0.037978 -0.027697
# 2 -0.001566 0.007207 -0.002067 0.002452 -0.000961 0.001392
# 3 0.002257 -0.002067 0.042376 0.017121 -0.046521 -0.024486
# 4 0.018044 0.002452 0.017121 0.037673 -0.037728 -0.026580
# 5 -0.037978 -0.000961 -0.046521 -0.037728 0.105853 0.053925
# 6 -0.027697 0.001392 -0.024486 -0.026580 0.053925 0.050287
#
#
# Mechanical properties :
#
#
# Convention : Reuss Voigt Hill
#
# Bulk Modulus (GPa) = 11.31109 67.21492 39.26301
# Shear Modulus (GPa) = 15.76320 44.58290 30.17305
#
# Velocity S-wave (km/s) = 2.41879 4.06780 3.34646
# Velocity P-wave (km/s) = 3.46393 6.85635 5.43178
#
# Compressibility (1/GPa) = 0.08840878
#
# Stress axis : x y z
#
# Youngs Moduli (GPa) = 24.05138 138.76361 23.59804
#
# Poissons Ratio (x) = 0.21730 -0.05326
# Poissons Ratio (y) = 0.03766 0.04877
# Poissons Ratio (z) = -0.05428 0.28680
#
# Static dielectric constant tensor:
#      x y z
#    x 5.275390 0.284600 -0.074540 
#    y 0.284600 5.509800 -0.178150 
#    z -0.074540 -0.178150 5.056350 
# 
# 
# High freq. dielectric constant tensor:
#      x y z
#    x 2.067990 -0.004300 0.032340 
#    y -0.004300 2.113150 -0.005750 
#    z 0.032340 -0.005750 2.065340 
# 
# From -- ./inp_files/16186.got.cif
#   From: 2010.06.25/outbox.cif.g09.slc.cpg/sg2_9_cif.got.tgz:16186.got - 2010.06.27 13:26:56.
