data_PCOD8029472
_publ_section_title
;
Structure prediction by ZEFSAII (Michael W. Deem and Ramdas Pophale) SiO2 
 PCOD8029472
Probable space group: P -1
;
_chemical_formula_sum "Si O2"
_cell_formula_units_Z 14
_cell_length_a 22.620902
_cell_length_b 9.630835
_cell_length_c 8.219458
_cell_angle_alpha 108.167573
_cell_angle_beta 145.771651
_cell_angle_gamma 49.335356
_cell_volume 646.956753
_symmetry_space_group_name_H-M "P -1"
_symmetry_group_IT_number 2
_symmetry_cell_setting 'triclinic'
loop_
_space_group_symop_operation_xyz
x,y,z
-x,-y,-z
loop_
_atom_site_type_symbol
_atom_site_label
_atom_site_fract_x
_atom_site_fract_y
_atom_site_fract_z
Si Si1 0.617445 0.965912 0.638966
Si Si2 0.574752 0.572335 0.633797
Si Si3 0.528842 0.315059 0.926938
Si Si4 0.840321 0.857475 0.368602
Si Si5 0.369896 0.226597 0.706741
Si Si6 0.058939 0.780236 0.605025
Si Si7 0.078411 0.485931 0.333131
O O1 0.691749 0.790407 0.603155
O O2 0.500000 0.000000 0.500000
O O3 0.522297 0.195918 0.420878
O O4 0.764053 0.867195 0.038722
O O5 0.500000 0.500000 0.500000
O O6 0.549431 0.617380 0.401274
O O7 0.755753 0.400686 0.022961
O O8 0.437831 0.311915 0.847061
O O9 0.500000 0.500000 0.000000
O O10 0.711526 0.084619 0.255071
O O11 0.907503 0.658236 0.557321
O O12 0.981042 0.818461 0.615828
O O13 0.242652 0.378793 0.609684
O O14 0.500000 0.000000 0.000000
O O15 0.004908 0.708101 0.327888
O O16 0.000000 0.000000 0.500000
O O17 0.000000 0.500000 0.000000
#
# Coordination Sequence:
#
# PCOD8029472 Si02
#       7
#     2   2   2   2   2   2   2
#     4  11  20  42  71  99 129 178 233 277 331 404
#     4  11  25  43  71  99 132 182 229 278 340 412
#     4  11  26  43  68 104 138 174 226 288 345 401
#     4  11  24  47  69  99 138 180 230 280 340 416
#     4  12  23  42  70 100 136 174 228 284 339 399
#     4  12  27  47  70 100 141 185 232 282 344 417
#     4  12  28  44  70 103 141 183 226 287 347 405
#
# _framework density 21.639776000000001
#
# number of rings (size 3 to 8) (size 9 to 14) (size 15 to 20)
#    0.000    0.571    4.286    4.714    8.000    1.143 
#    0.000    1.429    0.000    0.000    0.000    0.000 
#    0.000    0.000    0.000    0.000    0.000    0.000 
#
# Total GULP energy -173563.820694 kJ/mol
# GULP energy per Si atom -12397.415764 kJ/mol
# Density = 2.159052 g / cm^3
# Si number density = 21.639776 Si / 1000 Ang^3
#
#
#
# Elastic Constant Matrix: (Units=GPa)
#
#
# Indices 1 2 3 4 5 6 
#
# 1 145.5339 53.8759 29.4759 -6.5339 20.9695 34.6485
# 2 53.8759 173.9193 36.0247 -2.2335 -3.5037 21.2165
# 3 29.4759 36.0247 102.4939 -7.7511 2.7157 16.7953
# 4 -6.5339 -2.2335 -7.7511 25.7662 7.6859 -1.2885
# 5 20.9695 -3.5037 2.7157 7.6859 35.3941 0.4119
# 6 34.6485 21.2165 16.7953 -1.2885 0.4119 44.1601
#
#
#
# Elastic Compliance Matrix: (Units=1/GPa)
#
#
# Indices 1 2 3 4 5 6 
#
# 1 0.010807 -0.002483 -0.000593 0.004223 -0.007440 -0.006868
# 2 -0.002483 0.007024 -0.001796 -0.001381 0.002613 -0.000808
# 3 -0.000593 -0.001796 0.011320 0.003372 -0.001394 -0.002865
# 4 0.004223 -0.001381 0.003372 0.044380 -0.012505 -0.002520
# 5 -0.007440 0.002613 -0.001394 -0.012505 0.035691 0.004414
# 6 -0.006868 -0.000808 -0.002865 -0.002520 0.004414 0.029397
#
#
# Mechanical properties :
#
#
# Convention : Reuss Voigt Hill
#
# Bulk Modulus (GPa) = 51.52699 73.41112 62.46906
# Shear Modulus (GPa) = 32.29255 41.23544 36.76400
#
# Velocity S-wave (km/s) = 3.86719 4.36998 4.12625
# Velocity P-wave (km/s) = 6.61840 7.71104 7.18552
#
# Compressibility (1/GPa) = 0.01940730
#
# Stress axis : x y z
#
# Youngs Moduli (GPa) = 92.52928 142.35970 88.33837
#
# Poissons Ratio (x) = 0.35344 0.05242
# Poissons Ratio (y) = 0.22972 0.15867
# Poissons Ratio (z) = 0.05491 0.25570
#
# Static dielectric constant tensor:
#      x y z
#    x 4.126570 0.125460 0.110950 
#    y 0.125460 3.886280 -0.056900 
#    z 0.110950 -0.056900 3.953760 
# 
# 
# High freq. dielectric constant tensor:
#      x y z
#    x 1.870410 0.003520 0.008020 
#    y 0.003520 1.860640 -0.002310 
#    z 0.008020 -0.002310 1.847450 
# 
# From -- ./inp_files/190881.got.cif
#   From: 2010.06.25/outbox.cif.g09.slc.cpg/sg2_96_cif.got.tgz:190881.got - 2010.06.27 13:26:56.
