data_PCOD8029833
_publ_section_title
;
Structure prediction by ZEFSAII (Michael W. Deem and Ramdas Pophale) SiO2 
 PCOD8029833
Probable space group: P -1
;
_chemical_formula_sum "Si O2"
_cell_formula_units_Z 12
_cell_length_a 9.020747
_cell_length_b 12.604656
_cell_length_c 8.735164
_cell_angle_alpha 92.087135
_cell_angle_beta 59.220510
_cell_angle_gamma 129.388380
_cell_volume 594.082050
_symmetry_space_group_name_H-M "P -1"
_symmetry_group_IT_number 2
_symmetry_cell_setting 'triclinic'
loop_
_space_group_symop_operation_xyz
x,y,z
-x,-y,-z
loop_
_atom_site_type_symbol
_atom_site_label
_atom_site_fract_x
_atom_site_fract_y
_atom_site_fract_z
Si Si1 0.936116 0.067496 0.431898
Si Si2 0.777395 0.126754 0.795853
Si Si3 0.585056 0.938126 0.358869
Si Si4 0.234061 0.660065 0.313087
Si Si5 0.010455 0.127699 0.947658
Si Si6 0.615674 0.661491 0.995976
O O1 0.792851 0.092906 0.610028
O O2 0.756831 0.945181 0.385198
O O3 0.000000 0.000000 0.500000
O O4 0.188542 0.222511 0.232351
O O5 0.851516 0.283913 0.754038
O O6 0.979878 0.146145 0.785836
O O7 0.500000 0.000000 0.000000
O O8 0.381219 0.770813 0.387699
O O9 0.500000 0.000000 0.500000
O O10 0.755850 0.064683 0.143476
O O11 0.400984 0.654445 0.123613
O O12 0.000000 0.500000 0.500000
O O13 0.250015 0.288519 0.905913
O O14 0.000000 0.000000 0.000000
O O15 0.500000 0.500000 0.000000
#
# Coordination Sequence:
#
# PCOD8029833 Si02
#       6
#     2   2   2   2   2   2
#     4  11  23  38  68  97 124 164 223 263 314 388
#     4  12  21  41  68 101 127 169 219 268 317 389
#     4  11  21  40  65  93 125 169 214 261 322 385
#     4  12  25  43  65  95 137 171 212 273 331 375
#     4  11  21  41  71  94 126 169 217 266 321 381
#     4  11  25  45  64  92 133 173 213 268 328 379
#
# _framework density 20.199228999999999
#
# number of rings (size 3 to 8) (size 9 to 14) (size 15 to 20)
#    0.000    0.667    5.000    4.000    2.333    0.000 
#    3.000    2.500    0.000    0.000    0.000    0.000 
#    0.000    0.000    0.000    0.000    0.000    0.000 
#
# Total GULP energy -148691.178157 kJ/mol
# GULP energy per Si atom -12390.931513 kJ/mol
# Density = 2.015326 g / cm^3
# Si number density = 20.199229 Si / 1000 Ang^3
#
#
#
# Elastic Constant Matrix: (Units=GPa)
#
#
# Indices 1 2 3 4 5 6 
#
# 1 128.9879 60.1650 33.5826 -8.5113 21.6026 -1.9989
# 2 60.1650 140.9037 33.8929 -4.4290 4.4973 1.9149
# 3 33.5826 33.8929 118.6599 -1.4099 -8.5983 -6.7921
# 4 -8.5113 -4.4290 -1.4099 39.8410 -4.1977 -1.9678
# 5 21.6026 4.4973 -8.5983 -4.1977 39.6698 6.4414
# 6 -1.9989 1.9149 -6.7921 -1.9678 6.4414 37.1216
#
#
#
# Elastic Compliance Matrix: (Units=1/GPa)
#
#
# Indices 1 2 3 4 5 6 
#
# 1 0.011486 -0.004091 -0.002443 0.001312 -0.006436 0.001569
# 2 -0.004091 0.009179 -0.001449 0.000152 0.001074 -0.001137
# 3 -0.002443 -0.001449 0.009850 0.000086 0.003452 0.001151
# 4 0.001312 0.000152 0.000086 0.025647 0.001819 0.001122
# 5 -0.006436 0.001074 0.003452 0.001819 0.030334 -0.004938
# 6 0.001569 -0.001137 0.001151 0.001122 -0.004938 0.028209
#
#
# Mechanical properties :
#
#
# Convention : Reuss Voigt Hill
#
# Bulk Modulus (GPa) = 68.74276 71.53695 70.13985
# Shear Modulus (GPa) = 36.89488 40.72054 38.80771
#
# Velocity S-wave (km/s) = 4.27845 4.49480 4.38796
# Velocity P-wave (km/s) = 7.64939 7.90128 7.77635
#
# Compressibility (1/GPa) = 0.01454699
#
# Stress axis : x y z
#
# Youngs Moduli (GPa) = 87.06266 108.94899 101.52440
#
# Poissons Ratio (x) = 0.44576 0.24803
# Poissons Ratio (y) = 0.35621 0.14713
# Poissons Ratio (z) = 0.21270 0.15789
#
# Static dielectric constant tensor:
#      x y z
#    x 4.297540 0.226230 -0.171100 
#    y 0.226230 3.671180 0.489920 
#    z -0.171100 0.489920 4.072040 
# 
# 
# High freq. dielectric constant tensor:
#      x y z
#    x 1.807090 -0.000660 -0.010630 
#    y -0.000660 1.774770 0.024540 
#    z -0.010630 0.024540 1.800820 
# 
# From -- ./inp_files/144954.got.cif
#   From: 2010.06.25/outbox.cif.g09.slc.cpg/sg2_73_cif.got.tgz:144954.got - 2010.06.27 13:26:56.
