data_PCOD8029481
_publ_section_title
;
Structure prediction by ZEFSAII (Michael W. Deem and Ramdas Pophale) SiO2 
 PCOD8029481
Probable space group: P -1
;
_chemical_formula_sum "Si O2"
_cell_formula_units_Z 12
_cell_length_a 8.942303
_cell_length_b 21.221784
_cell_length_c 11.245290
_cell_angle_alpha 148.318509
_cell_angle_beta 128.985661
_cell_angle_gamma 29.969968
_cell_volume 510.182310
_symmetry_space_group_name_H-M "P -1"
_symmetry_group_IT_number 2
_symmetry_cell_setting 'triclinic'
loop_
_space_group_symop_operation_xyz
x,y,z
-x,-y,-z
loop_
_atom_site_type_symbol
_atom_site_label
_atom_site_fract_x
_atom_site_fract_y
_atom_site_fract_z
Si Si1 0.353438 0.199223 0.284785
Si Si2 0.392711 0.283624 0.841271
Si Si3 0.367692 0.419121 0.521994
Si Si4 0.327554 0.642171 0.029444
Si Si5 0.575250 0.002012 0.308495
Si Si6 0.634787 0.164969 0.035075
O O1 0.544852 0.222567 0.372594
O O2 0.333186 0.201135 0.420477
O O3 0.021346 0.382586 0.341160
O O4 0.500000 0.000000 0.000000
O O5 0.497507 0.095822 0.550899
O O6 0.575281 0.219251 0.953550
O O7 0.547303 0.288023 0.822553
O O8 0.000000 0.500000 0.000000
O O9 0.466295 0.496855 0.751780
O O10 0.441242 0.365497 0.333159
O O11 0.500000 0.500000 0.000000
O O12 0.940377 0.837029 0.174837
O O13 0.495004 0.901785 0.105177
O O14 0.000000 0.000000 0.000000
#
# Coordination Sequence:
#
# PCOD8029481 Si02
#       6
#     2   2   2   2   2   2
#     4  11  20  42  74 108 138 189 241 314 363 427
#     4  12  29  50  73 107 156 204 247 307 387 452
#     4  11  24  43  72 110 151 181 255 305 371 442
#     4  12  27  46  79 108 147 198 258 313 368 448
#     4  12  25  49  78 105 151 197 258 304 376 451
#     4  12  29  45  75 113 154 199 247 313 382 452
#
# _framework density 23.521003
#
# number of rings (size 3 to 8) (size 9 to 14) (size 15 to 20)
#    0.000    0.333    3.333    5.000    9.333    0.667 
#    0.000    0.000    0.000    0.000    0.000    0.000 
#    0.000    0.000    0.000    0.000    0.000    0.000 
#
# Total GULP energy -148675.263706 kJ/mol
# GULP energy per Si atom -12389.605309 kJ/mol
# Density = 2.346747 g / cm^3
# Si number density = 23.521003 Si / 1000 Ang^3
#
#
#
# Elastic Constant Matrix: (Units=GPa)
#
#
# Indices 1 2 3 4 5 6 
#
# 1 109.1845 43.8335 23.7975 6.8225 -1.2860 -7.8785
# 2 43.8335 124.4818 38.4312 -3.8593 -4.4777 10.1041
# 3 23.7975 38.4312 160.8921 -17.4289 -21.7711 -8.5545
# 4 6.8225 -3.8593 -17.4289 41.9480 11.1809 -4.1220
# 5 -1.2860 -4.4777 -21.7711 11.1809 34.1360 -2.1583
# 6 -7.8785 10.1041 -8.5545 -4.1220 -2.1583 50.9296
#
#
#
# Elastic Compliance Matrix: (Units=1/GPa)
#
#
# Indices 1 2 3 4 5 6 
#
# 1 0.011233 -0.003944 -0.000820 -0.002396 0.000307 0.002201
# 2 -0.003944 0.010292 -0.002034 0.000578 -0.000473 -0.002967
# 3 -0.000820 -0.002034 0.007712 0.002274 0.003998 0.001926
# 4 -0.002396 0.000578 0.002274 0.027381 -0.007419 0.001798
# 5 0.000307 -0.000473 0.003998 -0.007419 0.034329 0.001667
# 6 0.002201 -0.002967 0.001926 0.001798 0.001667 0.021104
#
#
# Mechanical properties :
#
#
# Convention : Reuss Voigt Hill
#
# Bulk Modulus (GPa) = 63.93868 67.40920 65.67394
# Shear Modulus (GPa) = 38.20819 44.63581 41.42200
#
# Velocity S-wave (km/s) = 4.03479 4.36099 4.20106
# Velocity P-wave (km/s) = 6.99634 7.35384 7.17732
#
# Compressibility (1/GPa) = 0.01563999
#
# Stress axis : x y z
#
# Youngs Moduli (GPa) = 89.02133 97.16400 129.66356
#
# Poissons Ratio (x) = 0.38323 0.10638
# Poissons Ratio (y) = 0.35112 0.26375
# Poissons Ratio (z) = 0.07303 0.19764
#
# Static dielectric constant tensor:
#      x y z
#    x 4.732440 0.238840 0.432800 
#    y 0.238840 4.390470 -0.709580 
#    z 0.432800 -0.709580 4.711700 
# 
# 
# High freq. dielectric constant tensor:
#      x y z
#    x 1.921860 0.012350 0.003210 
#    y 0.012350 1.938710 -0.009800 
#    z 0.003210 -0.009800 1.954150 
# 
# From -- ./inp_files/118763.got.cif
#   From: 2010.06.25/outbox.cif.g09.slc.cpg/sg2_60_cif.got.tgz:118763.got - 2010.06.27 13:26:56.
