data_PCOD8029554
_publ_section_title
;
Structure prediction by ZEFSAII (Michael W. Deem and Ramdas Pophale) SiO2 
 PCOD8029554
Probable space group: P -1
;
_chemical_formula_sum "Si O2"
_cell_formula_units_Z 16
_cell_length_a 20.801556
_cell_length_b 9.271482
_cell_length_c 8.991420
_cell_angle_alpha 117.999080
_cell_angle_beta 121.091010
_cell_angle_gamma 28.866718
_cell_volume 716.291934
_symmetry_space_group_name_H-M "P -1"
_symmetry_group_IT_number 2
_symmetry_cell_setting 'triclinic'
loop_
_space_group_symop_operation_xyz
x,y,z
-x,-y,-z
loop_
_atom_site_type_symbol
_atom_site_label
_atom_site_fract_x
_atom_site_fract_y
_atom_site_fract_z
Si Si1 0.729491 0.041290 0.227946
Si Si2 0.280094 0.245514 0.731931
Si Si3 0.858627 0.199710 0.010200
Si Si4 0.948158 0.764255 0.129318
Si Si5 0.362610 0.460988 0.559631
Si Si6 0.403090 0.941729 0.139046
Si Si7 0.585782 0.735046 0.787552
Si Si8 0.781304 0.604531 0.604399
O O1 0.780874 0.797319 0.271603
O O2 0.846309 0.911696 0.210601
O O3 0.680142 0.273904 0.392761
O O4 0.614753 0.188403 0.043478
O O5 0.197377 0.557108 0.831152
O O6 0.251292 0.268393 0.535699
O O7 0.446518 0.952322 0.818372
O O8 0.885196 0.986511 0.029409
O O9 0.728315 0.387161 0.838934
O O10 0.000000 0.000000 0.000000
O O11 0.061288 0.665864 0.297886
O O12 0.000000 0.500000 0.000000
O O13 0.443743 0.316931 0.742437
O O14 0.451199 0.242750 0.417346
O O15 0.244359 0.542899 0.481242
O O16 0.373883 0.147302 0.094022
O O17 0.301269 0.131772 0.249949
#
# Coordination Sequence:
#
# PCOD8029554 Si02
#       8
#     2   2   2   2   2   2   2   2
#     4  12  27  41  69 108 152 183 242 302 358 426
#     4  12  25  46  75 110 143 192 246 301 361 431
#     4  12  26  45  75 106 147 192 244 297 366 436
#     4  12  27  48  71 103 146 196 240 294 366 438
#     4  11  23  42  72 109 140 188 240 298 367 421
#     4  11  20  45  72 103 144 189 234 299 361 428
#     4  11  23  44  76 108 147 191 245 299 363 437
#     4  11  23  47  77  95 143 195 242 291 361 439
#
# _framework density 22.337261999999999
#
# number of rings (size 3 to 8) (size 9 to 14) (size 15 to 20)
#    0.000    0.500    5.000    4.500    0.000    6.000 
#    0.000    0.000    0.000    0.000    0.000    0.000 
#    0.000    0.000    0.000    0.000    0.000    0.000 
#
# Total GULP energy -198337.337341 kJ/mol
# GULP energy per Si atom -12396.083584 kJ/mol
# Density = 2.228642 g / cm^3
# Si number density = 22.337262 Si / 1000 Ang^3
#
#
#
# Elastic Constant Matrix: (Units=GPa)
#
#
# Indices 1 2 3 4 5 6 
#
# 1 140.2119 56.5226 48.9611 0.8284 -3.3797 7.2430
# 2 56.5226 108.7177 24.3853 -6.9984 6.5022 4.3974
# 3 48.9611 24.3853 96.2300 0.8708 13.2905 0.6341
# 4 0.8284 -6.9984 0.8708 43.8997 2.5051 5.3131
# 5 -3.3797 6.5022 13.2905 2.5051 42.5549 -0.6693
# 6 7.2430 4.3974 0.6341 5.3131 -0.6693 46.1745
#
#
#
# Elastic Compliance Matrix: (Units=1/GPa)
#
#
# Indices 1 2 3 4 5 6 
#
# 1 0.010840 -0.004781 -0.004717 -0.000926 0.003103 -0.001029
# 2 -0.004781 0.012064 -0.000328 0.002232 -0.002263 -0.000684
# 3 -0.004717 -0.000328 0.013497 -0.000036 -0.004530 0.000524
# 4 -0.000926 0.002232 -0.000036 0.023598 -0.001837 -0.002809
# 5 0.003103 -0.002263 -0.004530 -0.001837 0.025620 0.000374
# 6 -0.001029 -0.000684 0.000524 -0.002809 0.000374 0.022205
#
#
# Mechanical properties :
#
#
# Convention : Reuss Voigt Hill
#
# Bulk Modulus (GPa) = 59.70360 67.21084 63.45722
# Shear Modulus (GPa) = 37.57713 40.87851 39.22782
#
# Velocity S-wave (km/s) = 4.10599 4.28256 4.19520
# Velocity P-wave (km/s) = 7.01891 7.38974 7.20671
#
# Compressibility (1/GPa) = 0.01674941
#
# Stress axis : x y z
#
# Youngs Moduli (GPa) = 92.24980 82.89050 74.08882
#
# Poissons Ratio (x) = 0.39633 0.34949
# Poissons Ratio (y) = 0.44108 0.02427
# Poissons Ratio (z) = 0.43516 0.02715
#
# Static dielectric constant tensor:
#      x y z
#    x 4.075540 -0.089340 -0.041160 
#    y -0.089340 3.579000 -0.163010 
#    z -0.041160 -0.163010 3.956800 
# 
# 
# High freq. dielectric constant tensor:
#      x y z
#    x 1.885070 -0.000740 -0.004360 
#    y -0.000740 1.870570 -0.000500 
#    z -0.004360 -0.000500 1.896060 
# 
# From -- ./inp_files/222893.got.cif
#   From: 2010.06.25/outbox.cif.g09.slc.cpg/sg2_112_cif.got.tgz:222893.got - 2010.06.27 13:26:56.
