data_PCOD8029930
_publ_section_title
;
Structure prediction by ZEFSAII (Michael W. Deem and Ramdas Pophale) SiO2 
 PCOD8029930
Probable space group: P -1
;
_chemical_formula_sum "Si O2"
_cell_formula_units_Z 16
_cell_length_a 14.682254
_cell_length_b 14.156337
_cell_length_c 14.881415
_cell_angle_alpha 129.636200
_cell_angle_beta 42.645292
_cell_angle_gamma 160.397112
_cell_volume 682.101979
_symmetry_space_group_name_H-M "P -1"
_symmetry_group_IT_number 2
_symmetry_cell_setting 'triclinic'
loop_
_space_group_symop_operation_xyz
x,y,z
-x,-y,-z
loop_
_atom_site_type_symbol
_atom_site_label
_atom_site_fract_x
_atom_site_fract_y
_atom_site_fract_z
Si Si1 0.564573 0.127934 0.897064
Si Si2 0.388672 0.626097 0.311414
Si Si3 0.742565 0.953022 0.077606
Si Si4 0.302547 0.710683 0.722358
Si Si5 0.353356 0.968611 0.513243
Si Si6 0.295672 0.088716 0.192491
Si Si7 0.484689 0.552856 0.902742
Si Si8 0.389932 0.537432 0.642907
O O1 0.388470 0.069096 0.918252
O O2 0.940021 0.444100 0.803664
O O3 0.427236 0.877987 0.826089
O O4 0.480547 0.114198 0.048471
O O5 0.559952 0.832997 0.228689
O O6 0.444469 0.529153 0.212417
O O7 0.022187 0.360574 0.416289
O O8 0.554305 0.816332 0.395846
O O9 0.670103 0.752487 0.978517
O O10 0.115707 0.279322 0.018431
O O11 0.335340 0.590729 0.634897
O O12 0.509092 0.938654 0.629908
O O13 0.500000 0.000000 0.500000
O O14 0.381027 0.268658 0.173357
O O15 0.355936 0.189432 0.309638
O O16 0.927426 0.749138 0.244221
O O17 0.500000 0.500000 0.500000
#
# Coordination Sequence:
#
# PCOD8029930 Si02
#       8
#     2   2   2   2   2   2   2   2
#     4  11  23  44  72  99 136 173 230 285 338 407
#     4  12  24  39  68  93 137 180 227 279 328 418
#     4  11  21  41  64 102 137 174 218 281 346 388
#     4  12  26  44  70 100 135 184 230 280 342 396
#     4  12  26  44  65  98 135 181 228 274 339 398
#     4  11  25  45  71 101 133 179 224 282 347 390
#     4  11  23  39  68  98 136 173 226 278 338 406
#     4  12  28  46  70  98 141 178 226 282 336 410
#
# _framework density 23.456903000000001
#
# number of rings (size 3 to 8) (size 9 to 14) (size 15 to 20)
#    0.000    0.500    0.000    9.750    3.500    3.000 
#    0.000    0.000    0.000    0.000    0.000    0.000 
#    0.000    0.000    0.000    0.000    0.000    0.000 
#
# Total GULP energy -198457.898319 kJ/mol
# GULP energy per Si atom -12403.618645 kJ/mol
# Density = 2.340351 g / cm^3
# Si number density = 23.456903 Si / 1000 Ang^3
#
#
#
# Elastic Constant Matrix: (Units=GPa)
#
#
# Indices 1 2 3 4 5 6 
#
# 1 55.2453 20.6844 43.5454 -5.6033 -8.1240 -6.1332
# 2 20.6844 96.4339 25.6006 -1.1308 10.8748 -8.8460
# 3 43.5454 25.6006 116.5037 3.5234 -3.3127 -9.9999
# 4 -5.6033 -1.1308 3.5234 62.2188 -2.5619 1.0688
# 5 -8.1240 10.8748 -3.3127 -2.5619 26.0114 12.0779
# 6 -6.1332 -8.8460 -9.9999 1.0688 12.0779 30.7467
#
#
#
# Elastic Compliance Matrix: (Units=1/GPa)
#
#
# Indices 1 2 3 4 5 6 
#
# 1 0.029856 -0.005465 -0.010053 0.003742 0.012526 -0.003937
# 2 -0.005465 0.013530 -0.000626 -0.000768 -0.010687 0.006824
# 3 -0.010053 -0.000626 0.012721 -0.001811 -0.002901 0.003155
# 4 0.003742 -0.000768 -0.001811 0.016697 0.003917 -0.002183
# 5 0.012526 -0.010687 -0.002901 0.003917 0.058232 -0.024531
# 6 -0.003937 0.006824 0.003155 -0.002183 -0.024531 0.044440
#
#
# Mechanical properties :
#
#
# Convention : Reuss Voigt Hill
#
# Bulk Modulus (GPa) = 41.98072 49.76040 45.87056
# Shear Modulus (GPa) = 23.18007 35.68553 29.43280
#
# Velocity S-wave (km/s) = 3.14697 3.90465 3.54610
# Velocity P-wave (km/s) = 5.58036 6.44887 6.03027
#
# Compressibility (1/GPa) = 0.02382046
#
# Stress axis : x y z
#
# Youngs Moduli (GPa) = 33.49447 73.90874 78.60717
#
# Poissons Ratio (x) = 0.40389 0.79025
# Poissons Ratio (y) = 0.18304 0.04917
# Poissons Ratio (z) = 0.33673 0.04623
#
# Static dielectric constant tensor:
#      x y z
#    x 4.078680 -0.013840 0.031990 
#    y -0.013840 4.717350 0.338100 
#    z 0.031990 0.338100 4.516270 
# 
# 
# High freq. dielectric constant tensor:
#      x y z
#    x 1.924920 -0.005340 -0.002960 
#    y -0.005340 1.952090 0.008370 
#    z -0.002960 0.008370 1.938910 
# 
# From -- ./inp_files/533784.got.cif
#   From: 2010.06.25/outbox.cif.g09.slc.cpg/sg2_267_cif.got.tgz:533784.got - 2010.06.27 13:26:56.
