data_PCOD8029822
_publ_section_title
;
Structure prediction by ZEFSAII (Michael W. Deem and Ramdas Pophale) SiO2 
 PCOD8029822
Probable space group: P -1
;
_chemical_formula_sum "Si O2"
_cell_formula_units_Z 14
_cell_length_a 25.559270
_cell_length_b 9.624738
_cell_length_c 21.862904
_cell_angle_alpha 151.514160
_cell_angle_beta 15.751726
_cell_angle_gamma 150.045896
_cell_volume 687.574553
_symmetry_space_group_name_H-M "P -1"
_symmetry_group_IT_number 2
_symmetry_cell_setting 'triclinic'
loop_
_space_group_symop_operation_xyz
x,y,z
-x,-y,-z
loop_
_atom_site_type_symbol
_atom_site_label
_atom_site_fract_x
_atom_site_fract_y
_atom_site_fract_z
Si Si1 0.100519 0.951986 0.274186
Si Si2 0.931718 0.159552 0.428774
Si Si3 0.473255 0.137520 0.274223
Si Si4 0.541662 0.211093 0.475610
Si Si5 0.081266 0.006152 0.076445
Si Si6 0.316768 0.050374 0.545250
Si Si7 0.942812 0.524966 0.384341
O O1 0.079401 0.222612 0.445770
O O2 0.963893 0.960588 0.373070
O O3 0.009490 0.646669 0.290083
O O4 0.326912 0.966541 0.009801
O O5 0.000000 0.500000 0.500000
O O6 0.705324 0.108804 0.642973
O O7 0.063205 0.044859 0.184147
O O8 0.451420 0.444765 0.383607
O O9 0.471473 0.159403 0.359263
O O10 0.381021 0.149071 0.579054
O O11 0.500000 0.000000 0.500000
O O12 0.745939 0.168660 0.200414
O O13 0.882616 0.823102 0.199435
O O14 0.112542 0.339634 0.142832
O O15 0.265692 0.691958 0.466583
#
# Coordination Sequence:
#
# PCOD8029822 Si02
#       7
#     2   2   2   2   2   2   2
#     4  11  21  40  64  90 133 152 207 261 302 375
#     4  11  22  41  67  98 119 162 207 254 314 365
#     4  11  25  39  64  97 118 168 212 242 314 370
#     4  12  25  39  63  93 125 165 212 255 300 365
#     4   9  21  42  60  87 127 159 206 253 301 364
#     4   9  22  43  60  88 123 165 205 252 315 354
#     4   9  21  42  60  91 124 171 193 255 329 347
#
# _framework density 20.361428
#
# number of rings (size 3 to 8) (size 9 to 14) (size 15 to 20)
#    0.857    0.857    1.429    2.143    2.000    7.429 
#    0.000    1.429    0.000    0.000    0.000    0.000 
#    0.000    0.000    0.000    0.000    0.000    0.000 
#
# Total GULP energy -173496.813303 kJ/mol
# GULP energy per Si atom -12392.629522 kJ/mol
# Density = 2.031508 g / cm^3
# Si number density = 20.361428 Si / 1000 Ang^3
#
#
#
# Elastic Constant Matrix: (Units=GPa)
#
#
# Indices 1 2 3 4 5 6 
#
# 1 145.6734 20.2123 10.3514 -3.5543 -13.4203 -11.6578
# 2 20.2123 76.3438 -0.8281 -8.7442 6.7482 -8.3276
# 3 10.3514 -0.8281 84.0523 -15.9949 7.3679 9.7786
# 4 -3.5543 -8.7442 -15.9949 28.0321 -15.6904 2.4104
# 5 -13.4203 6.7482 7.3679 -15.6904 37.0373 0.2981
# 6 -11.6578 -8.3276 9.7786 2.4104 0.2981 34.6987
#
#
#
# Elastic Compliance Matrix: (Units=1/GPa)
#
#
# Indices 1 2 3 4 5 6 
#
# 1 0.007854 -0.002003 -0.001291 0.001785 0.004205 0.002362
# 2 -0.002003 0.014471 0.000957 0.003419 -0.002123 0.002311
# 3 -0.001291 0.000957 0.014293 0.008886 0.000318 -0.004852
# 4 0.001785 0.003419 0.008886 0.054422 0.021352 -0.005048
# 5 0.004205 -0.002123 0.000318 0.021352 0.037901 -0.000995
# 6 0.002362 0.002311 -0.004852 -0.005048 -0.000995 0.031894
#
#
# Mechanical properties :
#
#
# Convention : Reuss Voigt Hill
#
# Bulk Modulus (GPa) = 31.30377 40.61562 35.95970
# Shear Modulus (GPa) = 28.38392 38.37589 33.37991
#
# Velocity S-wave (km/s) = 3.73769 4.34606 4.05331
# Velocity P-wave (km/s) = 5.83391 6.72123 6.29323
#
# Compressibility (1/GPa) = 0.03194504
#
# Stress axis : x y z
#
# Youngs Moduli (GPa) = 127.31970 69.10526 69.96308
#
# Poissons Ratio (x) = 0.13842 0.09030
# Poissons Ratio (y) = 0.25503 -0.06696
# Poissons Ratio (z) = 0.16433 -0.06614
#
# Static dielectric constant tensor:
#      x y z
#    x 3.957340 -0.271550 0.024180 
#    y -0.271550 3.803100 -0.027470 
#    z 0.024180 -0.027470 3.463510 
# 
# 
# High freq. dielectric constant tensor:
#      x y z
#    x 1.805560 -0.013270 0.001180 
#    y -0.013270 1.798220 0.001880 
#    z 0.001180 0.001880 1.782730 
# 
# From -- ./inp_files/587648.got.cif
#   From: 2010.06.25/outbox.cif.g09.slc.cpg/sg2_294_cif.got.tgz:587648.got - 2010.06.27 13:26:56.
