data_PCOD8029145
_publ_section_title
;
Structure prediction by ZEFSAII (Michael W. Deem and Ramdas Pophale) SiO2 
 PCOD8029145
Probable space group: P -1
;
_chemical_formula_sum "Si O2"
_cell_formula_units_Z 12
_cell_length_a 12.195372
_cell_length_b 10.697992
_cell_length_c 11.758052
_cell_angle_alpha 50.734649
_cell_angle_beta 121.039950
_cell_angle_gamma 146.520869
_cell_volume 654.892432
_symmetry_space_group_name_H-M "P -1"
_symmetry_group_IT_number 2
_symmetry_cell_setting 'triclinic'
loop_
_space_group_symop_operation_xyz
x,y,z
-x,-y,-z
loop_
_atom_site_type_symbol
_atom_site_label
_atom_site_fract_x
_atom_site_fract_y
_atom_site_fract_z
Si Si1 0.293020 0.390624 0.962813
Si Si2 0.813707 0.820646 0.421131
Si Si3 0.574973 0.149699 0.283726
Si Si4 0.719428 0.037366 0.581332
Si Si5 0.487509 0.251512 0.577124
Si Si6 0.017925 0.077636 0.781989
O O1 0.320807 0.609761 0.872317
O O2 0.180983 0.256842 0.861809
O O3 0.500000 0.500000 0.000000
O O4 0.169087 0.205897 0.109545
O O5 0.702943 0.541324 0.535646
O O6 0.663583 0.820038 0.370819
O O7 0.883976 0.919621 0.273046
O O8 0.000000 0.000000 0.500000
O O9 0.729041 0.223121 0.418058
O O10 0.390051 0.054247 0.303876
O O11 0.496789 0.927512 0.289203
O O12 0.937481 0.174680 0.640660
O O13 0.596306 0.799859 0.566587
#
# Coordination Sequence:
#
# PCOD8029145 Si02
#       6
#     2   2   2   2   2   2
#     4  11  23  39  58  84 127 153 186 234 298 351
#     4  11  20  36  59  86 115 148 198 239 282 341
#     4   9  18  37  58  85 116 153 187 241 296 329
#     4   9  17  35  59  88 113 140 197 243 287 326
#     4   9  20  35  56  85 114 148 183 246 286 326
#     4  11  23  36  59  93 111 158 193 233 288 352
#
# _framework density 18.323620999999999
#
# number of rings (size 3 to 8) (size 9 to 14) (size 15 to 20)
#    1.000    1.000    3.333    1.000    0.000    0.667 
#    3.000    0.833    0.000    2.000    0.000    0.000 
#    0.000    0.000    0.000    0.000    0.000    0.000 
#
# Total GULP energy -148725.450273 kJ/mol
# GULP energy per Si atom -12393.787523 kJ/mol
# Density = 1.828192 g / cm^3
# Si number density = 18.323621 Si / 1000 Ang^3
#
#
#
# Elastic Constant Matrix: (Units=GPa)
#
#
# Indices 1 2 3 4 5 6 
#
# 1 128.5732 51.6512 52.0177 -17.3391 -12.3262 -2.9924
# 2 51.6512 112.2409 44.2335 -8.6438 2.4288 1.6788
# 3 52.0177 44.2335 76.9962 -17.0426 3.6475 1.1959
# 4 -17.3391 -8.6438 -17.0426 30.5040 -0.9897 5.7590
# 5 -12.3262 2.4288 3.6475 -0.9897 31.8153 -1.8296
# 6 -2.9924 1.6788 1.1959 5.7590 -1.8296 28.9146
#
#
#
# Elastic Compliance Matrix: (Units=1/GPa)
#
#
# Indices 1 2 3 4 5 6 
#
# 1 0.012645 -0.003246 -0.006422 0.002568 0.006057 0.001634
# 2 -0.003246 0.012360 -0.005056 -0.001083 -0.001698 -0.000736
# 3 -0.006422 -0.005056 0.022217 0.007771 -0.004587 -0.003128
# 4 0.002568 -0.001083 0.007771 0.039792 0.000973 -0.007857
# 5 0.006057 -0.001698 -0.004587 0.000973 0.034631 0.002913
# 6 0.001634 -0.000736 -0.003128 -0.007857 0.002913 0.036675
#
#
# Mechanical properties :
#
#
# Convention : Reuss Voigt Hill
#
# Bulk Modulus (GPa) = 56.26068 68.17947 62.22008
# Shear Modulus (GPa) = 25.81428 29.57395 27.69411
#
# Velocity S-wave (km/s) = 3.75747 4.02179 3.89188
# Velocity P-wave (km/s) = 7.04239 7.67175 7.36380
#
# Compressibility (1/GPa) = 0.01777440
#
# Stress axis : x y z
#
# Youngs Moduli (GPa) = 79.08428 80.90740 45.01121
#
# Poissons Ratio (x) = 0.26261 0.28906
# Poissons Ratio (y) = 0.25669 0.22756
# Poissons Ratio (z) = 0.50787 0.40904
#
# Static dielectric constant tensor:
#      x y z
#    x 3.443170 0.000930 0.002810 
#    y 0.000930 3.294420 -0.101360 
#    z 0.002810 -0.101360 3.273160 
# 
# 
# High freq. dielectric constant tensor:
#      x y z
#    x 1.714340 0.005840 0.000250 
#    y 0.005840 1.703710 -0.005860 
#    z 0.000250 -0.005860 1.686960 
# 
# From -- ./inp_files/65153.got.cif
#   From: 2010.06.25/outbox.cif.g09.slc.cpg/sg2_33_cif.got.tgz:65153.got - 2010.06.27 13:26:56.
