data_PCOD8029196
_publ_section_title
;
Structure prediction by ZEFSAII (Michael W. Deem and Ramdas Pophale) SiO2 
 PCOD8029196
Probable space group: P -1
;
_chemical_formula_sum "Si O2"
_cell_formula_units_Z 14
_cell_length_a 11.801417
_cell_length_b 11.718897
_cell_length_c 12.005639
_cell_angle_alpha 127.618003
_cell_angle_beta 139.283084
_cell_angle_gamma 35.990056
_cell_volume 636.459948
_symmetry_space_group_name_H-M "P -1"
_symmetry_group_IT_number 2
_symmetry_cell_setting 'triclinic'
loop_
_space_group_symop_operation_xyz
x,y,z
-x,-y,-z
loop_
_atom_site_type_symbol
_atom_site_label
_atom_site_fract_x
_atom_site_fract_y
_atom_site_fract_z
Si Si1 0.133075 0.106572 0.968690
Si Si2 0.645497 0.517658 0.536693
Si Si3 0.102782 0.328381 0.887854
Si Si4 0.626462 0.764661 0.364756
Si Si5 0.620708 0.359223 0.799210
Si Si6 0.405172 0.321535 0.935391
Si Si7 0.321828 0.197064 0.340567
O O1 0.201707 0.141175 0.922820
O O2 0.866745 0.199012 0.822074
O O3 0.128982 0.227073 0.138258
O O4 0.322334 0.876659 0.996717
O O5 0.500000 0.500000 0.500000
O O6 0.590237 0.489173 0.354881
O O7 0.570079 0.728520 0.603785
O O8 0.917103 0.365676 0.683677
O O9 0.308680 0.291166 0.952266
O O10 0.000000 0.500000 0.000000
O O11 0.418396 0.766741 0.238330
O O12 0.744180 0.639570 0.264049
O O13 0.785943 0.690175 0.551642
O O14 0.536125 0.973500 0.392681
O O15 0.617967 0.494868 0.961659
#
# Coordination Sequence:
#
# PCOD8029196 Si02
#       7
#     2   2   2   2   2   2   2
#     4  11  22  40  67  95 126 169 208 257 315 374
#     4  11  20  37  65  91 123 164 207 259 315 366
#     4  12  21  41  66  90 128 166 209 261 318 371
#     4   9  21  40  62  92 129 166 210 256 308 374
#     4  11  22  41  64  94 131 164 205 259 316 369
#     4  11  23  40  64  95 127 166 212 256 311 378
#     4   9  19  37  62  92 119 165 209 250 308 368
#
# _framework density 21.996670000000002
#
# number of rings (size 3 to 8) (size 9 to 14) (size 15 to 20)
#    0.000    1.429    4.286    0.857    0.000    2.286 
#    0.000   17.143    0.000    0.000    0.000    0.000 
#    0.000    0.000    0.000    0.000    0.000    0.000 
#
# Total GULP energy -173434.535258 kJ/mol
# GULP energy per Si atom -12388.181090 kJ/mol
# Density = 2.194660 g / cm^3
# Si number density = 21.996670 Si / 1000 Ang^3
#
#
#
# Elastic Constant Matrix: (Units=GPa)
#
#
# Indices 1 2 3 4 5 6 
#
# 1 85.9599 29.0519 22.2435 4.1460 -12.3436 21.8009
# 2 29.0519 75.9567 33.4296 3.1077 2.7599 14.0545
# 3 22.2435 33.4296 101.0089 -6.0697 -12.1481 -7.0128
# 4 4.1460 3.1077 -6.0697 31.0430 3.8956 1.1820
# 5 -12.3436 2.7599 -12.1481 3.8956 32.6946 7.1778
# 6 21.8009 14.0545 -7.0128 1.1820 7.1778 36.9468
#
#
#
# Elastic Compliance Matrix: (Units=1/GPa)
#
#
# Indices 1 2 3 4 5 6 
#
# 1 0.017877 -0.003829 -0.002563 -0.003203 0.008965 -0.011218
# 2 -0.003829 0.018553 -0.006246 -0.001872 -0.003978 -0.005151
# 3 -0.002563 -0.006246 0.013467 0.003012 0.002936 0.005777
# 4 -0.003203 -0.001872 0.003012 0.033884 -0.004626 0.002988
# 5 0.008965 -0.003978 0.002936 -0.004626 0.038255 -0.010503
# 6 -0.011218 -0.005151 0.005777 0.002988 -0.010503 0.038686
#
#
# Mechanical properties :
#
#
# Convention : Reuss Voigt Hill
#
# Bulk Modulus (GPa) = 40.61315 48.04171 44.32743
# Shear Modulus (GPa) = 25.74614 32.01691 28.88153
#
# Velocity S-wave (km/s) = 3.42490 3.81929 3.62746
# Velocity P-wave (km/s) = 5.84323 6.42939 6.14331
#
# Compressibility (1/GPa) = 0.02462256
#
# Stress axis : x y z
#
# Youngs Moduli (GPa) = 55.93639 53.90012 74.25708
#
# Poissons Ratio (x) = 0.20637 0.19031
# Poissons Ratio (y) = 0.21417 0.46378
# Poissons Ratio (z) = 0.14335 0.33664
#
# Static dielectric constant tensor:
#      x y z
#    x 4.095580 0.369730 -0.328720 
#    y 0.369730 3.667720 -0.006300 
#    z -0.328720 -0.006300 4.509990 
# 
# 
# High freq. dielectric constant tensor:
#      x y z
#    x 1.864390 0.035780 -0.014510 
#    y 0.035780 1.839490 -0.000810 
#    z -0.014510 -0.000810 1.879870 
# 
# From -- ./inp_files/259295.got.cif
#   From: 2010.06.25/outbox.cif.g09.slc.cpg/sg2_130_cif.got.tgz:259295.got - 2010.06.27 13:26:56.
