data_PCOD8029995
_publ_section_title
;
Structure prediction by ZEFSAII (Michael W. Deem and Ramdas Pophale) SiO2 
 PCOD8029995
Probable space group: P -1
;
_chemical_formula_sum "Si O2"
_cell_formula_units_Z 16
_cell_length_a 8.289369
_cell_length_b 8.494606
_cell_length_c 11.582027
_cell_angle_alpha 95.389564
_cell_angle_beta 63.869922
_cell_angle_gamma 93.724924
_cell_volume 728.704627
_symmetry_space_group_name_H-M "P -1"
_symmetry_group_IT_number 2
_symmetry_cell_setting 'triclinic'
loop_
_space_group_symop_operation_xyz
x,y,z
-x,-y,-z
loop_
_atom_site_type_symbol
_atom_site_label
_atom_site_fract_x
_atom_site_fract_y
_atom_site_fract_z
Si Si1 0.745146 0.132331 0.233147
Si Si2 0.284682 0.434405 0.917543
Si Si3 0.550741 0.664966 0.552063
Si Si4 0.213542 0.223375 0.716884
Si Si5 0.338322 0.404634 0.236904
Si Si6 0.661924 0.104524 0.999954
Si Si7 0.844473 0.359510 0.840059
Si Si8 0.846342 0.812747 0.889307
O O1 0.623162 0.229205 0.366043
O O2 0.940917 0.220787 0.182377
O O3 0.749847 0.945945 0.248029
O O4 0.652020 0.162414 0.139985
O O5 0.259535 0.381661 0.789293
O O6 0.472330 0.534120 0.873141
O O7 0.132032 0.535497 0.041097
O O8 0.269963 0.268046 0.977199
O O9 0.500000 0.500000 0.500000
O O10 0.676379 0.769276 0.435470
O O11 0.659611 0.621808 0.629769
O O12 0.005843 0.244306 0.754020
O O13 0.193425 0.534891 0.253154
O O14 0.263623 0.239095 0.195086
O O15 0.672950 0.247266 0.915670
O O16 0.840382 0.000347 0.926037
O O17 0.500000 0.000000 0.000000
#
# Coordination Sequence:
#
# PCOD8029995 Si02
#       8
#     2   2   2   2   2   2   2   2
#     4  12  26  47  68 104 141 177 232 281 342 414
#     4  11  21  41  69 103 140 175 216 285 342 414
#     4  12  28  48  72  93 131 195 239 279 332 396
#     4  12  25  46  69 100 138 182 232 279 343 401
#     4  11  25  46  66 104 141 180 233 276 337 408
#     4  12  22  39  73 107 142 177 212 282 357 413
#     4  11  24  39  69 107 140 170 224 283 353 402
#     4  11  22  42  72 104 141 171 218 284 354 409
#
# _framework density 21.956771
#
# number of rings (size 3 to 8) (size 9 to 14) (size 15 to 20)
#    0.000    0.500    3.750    6.375    3.500    0.500 
#    0.000    0.625    0.000    0.000    0.000    0.000 
#    0.000    0.000    0.000    0.000    0.000    0.000 
#
# Total GULP energy -198233.970778 kJ/mol
# GULP energy per Si atom -12389.623174 kJ/mol
# Density = 2.190680 g / cm^3
# Si number density = 21.956771 Si / 1000 Ang^3
#
#
#
# Elastic Constant Matrix: (Units=GPa)
#
#
# Indices 1 2 3 4 5 6 
#
# 1 72.2216 13.0220 57.5229 -4.0446 0.3804 11.5555
# 2 13.0220 82.5456 29.1284 4.0019 -4.5950 2.2930
# 3 57.5229 29.1284 118.1767 2.2812 2.8731 4.7314
# 4 -4.0446 4.0019 2.2812 40.1695 -8.0063 -4.2689
# 5 0.3804 -4.5950 2.8731 -8.0063 34.9540 2.6313
# 6 11.5555 2.2930 4.7314 -4.2689 2.6313 40.1358
#
#
#
# Elastic Compliance Matrix: (Units=1/GPa)
#
#
# Indices 1 2 3 4 5 6 
#
# 1 0.024129 0.000449 -0.011738 0.002839 0.001819 -0.005406
# 2 0.000449 0.013457 -0.003540 -0.000784 0.001928 -0.000691
# 3 -0.011738 -0.003540 0.015068 -0.001928 -0.002149 0.001741
# 4 0.002839 -0.000784 -0.001928 0.026769 0.006013 0.001908
# 5 0.001819 0.001928 -0.002149 0.006013 0.030528 -0.001742
# 6 -0.005406 -0.000691 0.001741 0.001908 -0.001742 0.026623
#
#
# Mechanical properties :
#
#
# Convention : Reuss Voigt Hill
#
# Bulk Modulus (GPa) = 43.48447 52.47673 47.98060
# Shear Modulus (GPa) = 28.75280 34.60326 31.67803
#
# Velocity S-wave (km/s) = 3.62265 3.97416 3.80247
# Velocity P-wave (km/s) = 6.11112 6.70899 6.41702
#
# Compressibility (1/GPa) = 0.02299671
#
# Stress axis : x y z
#
# Youngs Moduli (GPa) = 41.44426 74.30960 66.36700
#
# Poissons Ratio (x) = -0.03340 0.77902
# Poissons Ratio (y) = -0.01863 0.23493
# Poissons Ratio (z) = 0.48648 0.26304
#
# Static dielectric constant tensor:
#      x y z
#    x 3.966670 -0.184880 -0.041210 
#    y -0.184880 4.505350 0.182820 
#    z -0.041210 0.182820 4.056470 
# 
# 
# High freq. dielectric constant tensor:
#      x y z
#    x 1.860120 -0.003810 -0.006910 
#    y -0.003810 1.889040 0.000430 
#    z -0.006910 0.000430 1.847690 
# 
# From -- ./inp_files/346179.got.cif
#   From: 2010.06.25/outbox.cif.g09.slc.cpg/sg2_174_cif.got.tgz:346179.got - 2010.06.27 13:26:56.
