data_PCOD8029606
_publ_section_title
;
Structure prediction by ZEFSAII (Michael W. Deem and Ramdas Pophale) SiO2 
 PCOD8029606
Probable space group: P -1
;
_chemical_formula_sum "Si O2"
_cell_formula_units_Z 16
_cell_length_a 27.860432
_cell_length_b 9.450201
_cell_length_c 9.295009
_cell_angle_alpha 135.994984
_cell_angle_beta 43.027877
_cell_angle_gamma 152.166764
_cell_volume 759.027489
_symmetry_space_group_name_H-M "P -1"
_symmetry_group_IT_number 2
_symmetry_cell_setting 'triclinic'
loop_
_space_group_symop_operation_xyz
x,y,z
-x,-y,-z
loop_
_atom_site_type_symbol
_atom_site_label
_atom_site_fract_x
_atom_site_fract_y
_atom_site_fract_z
Si Si1 0.585861 0.358973 0.912483
Si Si2 0.073412 0.203960 0.701497
Si Si3 0.071227 0.772626 0.929255
Si Si4 0.464137 0.334331 0.612123
Si Si5 0.604054 0.275203 0.297340
Si Si6 0.260874 0.462821 0.062755
Si Si7 0.106743 0.447656 0.489161
Si Si8 0.310967 0.662424 0.547260
O O1 0.629349 0.342416 0.948780
O O2 0.676332 0.516769 0.706357
O O3 0.477638 0.022351 0.844811
O O4 0.563283 0.545779 0.128990
O O5 0.099024 0.348226 0.594399
O O6 0.186775 0.408541 0.678862
O O7 0.999551 0.842094 0.581512
O O8 0.006147 0.218308 0.956989
O O9 0.113505 0.709175 0.667849
O O10 0.000000 0.500000 0.000000
O O11 0.170590 0.096515 0.032133
O O12 0.500000 0.500000 0.500000
O O13 0.563945 0.419229 0.514347
O O14 0.357405 0.955275 0.565458
O O15 0.616903 0.193834 0.362619
O O16 0.716491 0.513363 0.139514
O O17 0.215022 0.588719 0.286625
#
# Coordination Sequence:
#
# PCOD8029606 Si02
#       8
#     2   2   2   2   2   2   2   2
#     4  11  23  39  65  88 121 164 212 248 296 364
#     4   9  18  34  57  86 117 155 201 246 304 357
#     4   9  20  32  57  94 121 142 200 264 298 346
#     4  11  24  39  64  93 118 159 213 258 293 354
#     4  11  26  43  57  92 132 163 201 254 309 366
#     4  11  21  36  62  91 117 162 201 252 303 356
#     4   9  18  34  57  91 117 151 203 258 290 355
#     4  11  25  41  63  89 129 166 198 249 318 365
#
# _framework density 21.079606999999999
#
# number of rings (size 3 to 8) (size 9 to 14) (size 15 to 20)
#    0.000    1.750    2.500    2.625    5.250    3.000 
#    0.000    2.500    0.000    1.500    0.000    0.000 
#    0.000    0.000    0.000    0.000    0.000    0.000 
#
# Total GULP energy -198266.212237 kJ/mol
# GULP energy per Si atom -12391.638265 kJ/mol
# Density = 2.103163 g / cm^3
# Si number density = 21.079607 Si / 1000 Ang^3
#
#
#
# Elastic Constant Matrix: (Units=GPa)
#
#
# Indices 1 2 3 4 5 6 
#
# 1 94.3491 45.0369 51.9754 5.2452 -9.5269 15.1264
# 2 45.0369 51.7695 37.3013 9.6706 -5.7483 13.3448
# 3 51.9754 37.3013 179.4621 12.6805 -41.6352 5.0487
# 4 5.2452 9.6706 12.6805 24.7547 0.7348 -1.2407
# 5 -9.5269 -5.7483 -41.6352 0.7348 33.0102 -7.6540
# 6 15.1264 13.3448 5.0487 -1.2407 -7.6540 26.6386
#
#
#
# Elastic Compliance Matrix: (Units=1/GPa)
#
#
# Indices 1 2 3 4 5 6 
#
# 1 0.019497 -0.014538 -0.003150 0.003036 -0.001771 -0.003558
# 2 -0.014538 0.039686 -0.004127 -0.010798 -0.005229 -0.012849
# 3 -0.003150 -0.004127 0.010379 -0.003145 0.012790 0.005417
# 4 0.003036 -0.010798 -0.003145 0.045978 -0.004827 0.005036
# 5 -0.001771 -0.005229 0.012790 -0.004827 0.048573 0.014933
# 6 -0.003558 -0.012849 0.005417 0.005036 0.014933 0.049495
#
#
# Mechanical properties :
#
#
# Convention : Reuss Voigt Hill
#
# Bulk Modulus (GPa) = 38.56255 66.02311 52.29283
# Shear Modulus (GPa) = 18.80524 29.63182 24.21853
#
# Velocity S-wave (km/s) = 2.99005 3.75335 3.39323
# Velocity P-wave (km/s) = 5.50037 7.08324 6.34139
#
# Compressibility (1/GPa) = 0.02593189
#
# Stress axis : x y z
#
# Youngs Moduli (GPa) = 51.29039 25.19778 96.34515
#
# Poissons Ratio (x) = 0.36633 0.30349
# Poissons Ratio (y) = 0.74566 0.39762
# Poissons Ratio (z) = 0.16157 0.10399
#
# Static dielectric constant tensor:
#      x y z
#    x 3.566130 0.170610 -0.490710 
#    y 0.170610 3.729670 -0.056140 
#    z -0.490710 -0.056140 4.492800 
# 
# 
# High freq. dielectric constant tensor:
#      x y z
#    x 1.786980 0.022480 -0.023960 
#    y 0.022480 1.816040 -0.006230 
#    z -0.023960 -0.006230 1.843830 
# 
# From -- ./inp_files/356532.got.cif
#   From: 2010.06.25/outbox.cif.g09.slc.cpg/sg2_179_cif.got.tgz:356532.got - 2010.06.27 13:26:56.
