data_PCOD8029719
_publ_section_title
;
Structure prediction by ZEFSAII (Michael W. Deem and Ramdas Pophale) SiO2 
 PCOD8029719
Probable space group: P -1
;
_chemical_formula_sum "Si O2"
_cell_formula_units_Z 16
_cell_length_a 14.821447
_cell_length_b 13.721772
_cell_length_c 13.686686
_cell_angle_alpha 28.810176
_cell_angle_beta 126.921109
_cell_angle_gamma 143.185075
_cell_volume 753.296344
_symmetry_space_group_name_H-M "P -1"
_symmetry_group_IT_number 2
_symmetry_cell_setting 'triclinic'
loop_
_space_group_symop_operation_xyz
x,y,z
-x,-y,-z
loop_
_atom_site_type_symbol
_atom_site_label
_atom_site_fract_x
_atom_site_fract_y
_atom_site_fract_z
Si Si1 0.569905 0.771590 0.369709
Si Si2 0.258926 0.659208 0.731652
Si Si3 0.190147 0.759117 0.400329
Si Si4 0.971641 0.637418 0.985511
Si Si5 0.845447 0.853844 0.465414
Si Si6 0.222618 0.644219 0.082981
Si Si7 0.356471 0.381601 0.941998
Si Si8 0.432977 0.754948 0.490582
O O1 0.500000 0.500000 0.500000
O O2 0.740155 0.897209 0.410952
O O3 0.453858 0.695131 0.447674
O O4 0.614518 0.016484 0.112704
O O5 0.247697 0.807861 0.506910
O O6 0.261828 0.439384 0.882920
O O7 0.417099 0.912669 0.673941
O O8 0.098822 0.455070 0.871160
O O9 0.273976 0.692403 0.446928
O O10 0.000000 0.500000 0.500000
O O11 0.239419 0.043036 0.144408
O O12 0.826368 0.469426 0.960841
O O13 0.093809 0.983787 0.742906
O O14 0.071178 0.558345 0.110073
O O15 0.741191 0.513091 0.691287
O O16 0.000000 0.000000 0.500000
O O17 0.420749 0.543767 0.737497
O O18 0.500000 0.500000 0.000000
#
# Coordination Sequence:
#
# PCOD8029719 Si02
#       8
#     2   2   2   2   2   2   2   2
#     4  11  24  42  59  91 134 170 211 262 316 375
#     4  11  21  38  70  96 124 166 216 266 322 386
#     4  11  25  47  64  98 132 163 214 274 334 388
#     4   9  18  34  59  93 121 157 205 264 306 359
#     4   9  20  37  60  87 117 163 214 253 304 372
#     4   9  18  37  59  83 128 163 207 257 306 364
#     4  11  21  41  69  98 125 161 221 268 319 399
#     4  11  23  42  69  92 128 173 216 268 323 383
#
# _framework density 21.239981
#
# number of rings (size 3 to 8) (size 9 to 14) (size 15 to 20)
#    0.000    1.750    3.750    1.500    0.000    6.500 
#   11.250    0.000    0.000    0.000    0.000    0.000 
#    0.000    0.000    0.000    0.000    0.000    0.000 
#
# Total GULP energy -198341.748238 kJ/mol
# GULP energy per Si atom -12396.359265 kJ/mol
# Density = 2.119164 g / cm^3
# Si number density = 21.239981 Si / 1000 Ang^3
#
#
#
# Elastic Constant Matrix: (Units=GPa)
#
#
# Indices 1 2 3 4 5 6 
#
# 1 136.7202 33.0222 68.3646 2.0849 -21.2315 -3.7142
# 2 33.0222 41.4104 14.8825 -15.3964 -0.3215 1.1804
# 3 68.3646 14.8825 174.0425 -12.6798 8.7914 -2.4505
# 4 2.0849 -15.3964 -12.6798 30.6494 0.6664 0.5184
# 5 -21.2315 -0.3215 8.7914 0.6664 39.2199 1.0453
# 6 -3.7142 1.1804 -2.4505 0.5184 1.0453 29.4152
#
#
#
# Elastic Compliance Matrix: (Units=1/GPa)
#
#
# Indices 1 2 3 4 5 6 
#
# 1 0.015619 -0.014321 -0.006188 -0.011063 0.009863 0.001876
# 2 -0.014321 0.043290 0.004111 0.024665 -0.008649 -0.003330
# 3 -0.006188 0.004111 0.008539 0.006137 -0.005331 -0.000154
# 4 -0.011063 0.024665 0.006137 0.048522 -0.007921 -0.002449
# 5 0.009863 -0.008649 -0.005331 -0.007921 0.032091 0.000148
# 6 0.001876 -0.003330 -0.000154 -0.002449 0.000148 0.034392
#
#
# Mechanical properties :
#
#
# Convention : Reuss Voigt Hill
#
# Bulk Modulus (GPa) = 28.85985 64.96796 46.91390
# Shear Modulus (GPa) = 22.04582 35.58382 28.81482
#
# Velocity S-wave (km/s) = 3.22520 4.09751 3.68724
# Velocity P-wave (km/s) = 5.24273 7.28286 6.34533
#
# Compressibility (1/GPa) = 0.03465022
#
# Stress axis : x y z
#
# Youngs Moduli (GPa) = 64.02534 23.10025 117.10660
#
# Poissons Ratio (x) = 0.33082 0.72469
# Poissons Ratio (y) = 0.91691 -0.48138
# Poissons Ratio (z) = 0.39621 -0.09496
#
# Static dielectric constant tensor:
#      x y z
#    x 4.078750 0.282930 0.369320 
#    y 0.282930 3.617870 -0.030230 
#    z 0.369320 -0.030230 5.026120 
# 
# 
# High freq. dielectric constant tensor:
#      x y z
#    x 1.827410 0.021050 0.004460 
#    y 0.021050 1.804580 -0.006560 
#    z 0.004460 -0.006560 1.858430 
# 
# From -- ./inp_files/533160.got.cif
#   From: 2010.06.25/outbox.cif.g09.slc.cpg/sg2_267_cif.got.tgz:533160.got - 2010.06.27 13:26:56.
