data_PCOD8029905
_publ_section_title
;
Structure prediction by ZEFSAII (Michael W. Deem and Ramdas Pophale) SiO2 
 PCOD8029905
Probable space group: P -1
;
_chemical_formula_sum "Si O2"
_cell_formula_units_Z 16
_cell_length_a 11.159022
_cell_length_b 11.959049
_cell_length_c 11.805942
_cell_angle_alpha 130.683285
_cell_angle_beta 100.709299
_cell_angle_gamma 117.049204
_cell_volume 744.918387
_symmetry_space_group_name_H-M "P -1"
_symmetry_group_IT_number 2
_symmetry_cell_setting 'triclinic'
loop_
_space_group_symop_operation_xyz
x,y,z
-x,-y,-z
loop_
_atom_site_type_symbol
_atom_site_label
_atom_site_fract_x
_atom_site_fract_y
_atom_site_fract_z
Si Si1 0.259230 0.449785 0.208395
Si Si2 0.124503 0.293389 0.467998
Si Si3 0.199518 0.758877 0.039043
Si Si4 0.423805 0.921234 0.562033
Si Si5 0.915236 0.153634 0.113678
Si Si6 0.946298 0.254721 0.634089
Si Si7 0.535269 0.607263 0.695752
Si Si8 0.958599 0.121914 0.774652
O O1 0.324879 0.672491 0.402584
O O2 0.434428 0.498862 0.280528
O O3 0.081291 0.236262 0.118820
O O4 0.178104 0.365643 0.010709
O O5 0.352214 0.534903 0.650529
O O6 0.002816 0.257191 0.322621
O O7 0.066121 0.315058 0.587885
O O8 0.093602 0.089279 0.331106
O O9 0.179655 0.886266 0.197027
O O10 0.413192 0.899867 0.196041
O O11 0.157996 0.761761 0.901725
O O12 0.047435 0.489819 0.867072
O O13 0.270072 0.906856 0.546247
O O14 0.500000 0.000000 0.500000
O O15 0.727710 0.879763 0.907396
O O16 0.940351 0.116440 0.632548
O O17 0.500000 0.500000 0.500000
#
# Coordination Sequence:
#
# PCOD8029905 Si02
#       8
#     2   2   2   2   2   2   2   2
#     4  11  21  40  71 100 127 169 230 284 317 385
#     4  12  27  43  66 101 142 178 213 278 346 397
#     4  11  24  42  73  99 127 176 231 277 324 397
#     4  12  23  42  71 101 127 175 231 270 328 398
#     4  11  23  42  66  99 136 171 218 280 335 389
#     4  12  26  46  65  99 142 176 217 281 340 393
#     4  12  22  39  68  99 131 175 230 268 326 400
#     4  11  21  45  70  95 134 175 225 278 329 393
#
# _framework density 21.478861999999999
#
# number of rings (size 3 to 8) (size 9 to 14) (size 15 to 20)
#    0.000    0.500    6.250    4.875    0.000    1.500 
#    0.000    1.875    0.000    0.000    0.000    0.000 
#    0.000    0.000    0.000    0.000    0.000    0.000 
#
# Total GULP energy -198393.978235 kJ/mol
# GULP energy per Si atom -12399.623640 kJ/mol
# Density = 2.142998 g / cm^3
# Si number density = 21.478862 Si / 1000 Ang^3
#
#
#
# Elastic Constant Matrix: (Units=GPa)
#
#
# Indices 1 2 3 4 5 6 
#
# 1 89.5840 41.1055 37.3414 -11.5882 26.9108 8.5050
# 2 41.1055 111.4055 32.1132 -16.5108 16.8899 -5.6533
# 3 37.3414 32.1132 87.4027 -8.6567 33.1660 -4.3778
# 4 -11.5882 -16.5108 -8.6567 33.5260 -9.3188 4.5136
# 5 26.9108 16.8899 33.1660 -9.3188 42.5882 -7.0878
# 6 8.5050 -5.6533 -4.3778 4.5136 -7.0878 40.6920
#
#
#
# Elastic Compliance Matrix: (Units=1/GPa)
#
#
# Indices 1 2 3 4 5 6 
#
# 1 0.017617 -0.004497 -0.003148 0.001798 -0.007528 -0.006156
# 2 -0.004497 0.011799 -0.002392 0.003682 0.001184 0.002120
# 3 -0.003148 -0.002392 0.017789 -0.000791 -0.011021 0.000408
# 4 0.001798 0.003682 -0.000791 0.033815 0.004946 -0.002839
# 5 -0.007528 0.001184 -0.011021 0.004946 0.038551 0.006718
# 6 -0.006156 0.002120 0.000408 -0.002839 0.006718 0.027685
#
#
# Mechanical properties :
#
#
# Convention : Reuss Voigt Hill
#
# Bulk Modulus (GPa) = 36.85895 56.61250 46.73573
# Shear Modulus (GPa) = 28.34880 35.21671 31.78276
#
# Velocity S-wave (km/s) = 3.63691 4.05359 3.85089
# Velocity P-wave (km/s) = 5.90203 6.95150 6.44815
#
# Compressibility (1/GPa) = 0.02713045
#
# Stress axis : x y z
#
# Youngs Moduli (GPa) = 56.76388 84.75328 56.21409
#
# Poissons Ratio (x) = 0.38117 0.17695
# Poissons Ratio (y) = 0.25529 0.13447
# Poissons Ratio (z) = 0.17868 0.20273
#
# Static dielectric constant tensor:
#      x y z
#    x 3.973850 -0.425600 0.525150 
#    y -0.425600 4.037020 -0.081030 
#    z 0.525150 -0.081030 4.010360 
# 
# 
# High freq. dielectric constant tensor:
#      x y z
#    x 1.827900 -0.025900 0.029460 
#    y -0.025900 1.846640 0.001300 
#    z 0.029460 0.001300 1.845460 
# 
# From -- ./inp_files/427894.got.cif
#   From: 2010.06.25/outbox.cif.g09.slc.cpg/sg2_214_cif.got.tgz:427894.got - 2010.06.27 13:26:56.
