data_PCOD8029560
_publ_section_title
;
Structure prediction by ZEFSAII (Michael W. Deem and Ramdas Pophale) SiO2 
 PCOD8029560
Probable space group: P -1
;
_chemical_formula_sum "Si O2"
_cell_formula_units_Z 16
_cell_length_a 11.377384
_cell_length_b 9.618007
_cell_length_c 9.486448
_cell_angle_alpha 54.652651
_cell_angle_beta 107.110488
_cell_angle_gamma 120.333869
_cell_volume 730.799183
_symmetry_space_group_name_H-M "P -1"
_symmetry_group_IT_number 2
_symmetry_cell_setting 'triclinic'
loop_
_space_group_symop_operation_xyz
x,y,z
-x,-y,-z
loop_
_atom_site_type_symbol
_atom_site_label
_atom_site_fract_x
_atom_site_fract_y
_atom_site_fract_z
Si Si1 0.638432 0.917119 0.838149
Si Si2 0.644691 0.334636 0.016033
Si Si3 0.780660 0.328463 0.600874
Si Si4 0.560433 0.372266 0.673576
Si Si5 0.944247 0.679785 0.291312
Si Si6 0.175037 0.271811 0.050976
Si Si7 0.038627 0.017078 0.666239
Si Si8 0.309678 0.008021 0.859775
O O1 0.711060 0.804747 0.851438
O O2 0.678219 0.112758 0.651560
O O3 0.477498 0.786847 0.849750
O O4 0.690503 0.964064 0.989468
O O5 0.588761 0.424806 0.818063
O O6 0.760149 0.502934 0.042464
O O7 0.710207 0.203534 0.050820
O O8 0.704448 0.407334 0.636236
O O9 0.825991 0.469204 0.400660
O O10 0.919920 0.332048 0.711808
O O11 0.500000 0.500000 0.500000
O O12 0.453192 0.152143 0.757308
O O13 0.978485 0.807417 0.370061
O O14 0.894064 0.780332 0.096194
O O15 0.061505 0.179121 0.183578
O O16 0.193150 0.047666 0.720443
O O17 0.000000 0.000000 0.500000
#
# Coordination Sequence:
#
# PCOD8029560 Si02
#       8
#     2   2   2   2   2   2   2   2
#     4  11  20  46  70  97 134 187 225 277 336 418
#     4  11  25  42  67 107 136 178 235 278 339 407
#     4  11  22  41  74  95 135 179 233 276 338 412
#     4  11  23  41  71 101 136 183 225 287 341 397
#     4  11  25  45  69 102 135 183 227 277 351 408
#     4  12  26  45  71  98 142 184 219 285 347 404
#     4  12  27  43  72 102 137 177 235 287 334 409
#     4  11  22  43  71  98 140 178 232 276 345 402
#
# _framework density 21.893839
#
# number of rings (size 3 to 8) (size 9 to 14) (size 15 to 20)
#    0.000    0.750    5.000    3.000    5.250    2.500 
#    0.000    0.625    0.000    0.000    0.000    0.000 
#    0.000    0.000    0.000    0.000    0.000    0.000 
#
# Total GULP energy -198433.300299 kJ/mol
# GULP energy per Si atom -12402.081269 kJ/mol
# Density = 2.184401 g / cm^3
# Si number density = 21.893839 Si / 1000 Ang^3
#
#
#
# Elastic Constant Matrix: (Units=GPa)
#
#
# Indices 1 2 3 4 5 6 
#
# 1 124.4115 29.5025 28.8632 -3.8285 -13.2033 5.9903
# 2 29.5025 108.7413 44.6401 -10.2676 -9.3075 0.7286
# 3 28.8632 44.6401 101.0285 -12.3835 -9.2291 6.6581
# 4 -3.8285 -10.2676 -12.3835 36.5027 6.9087 -3.4357
# 5 -13.2033 -9.3075 -9.2291 6.9087 35.3582 -12.5020
# 6 5.9903 0.7286 6.6581 -3.4357 -12.5020 32.1719
#
#
#
# Elastic Compliance Matrix: (Units=1/GPa)
#
#
# Indices 1 2 3 4 5 6 
#
# 1 0.009079 -0.001603 -0.001703 -0.000587 0.002499 -0.000393
# 2 -0.001603 0.011755 -0.004523 0.001457 0.001655 0.001767
# 3 -0.001703 -0.004523 0.012864 0.002673 0.000367 -0.001814
# 4 -0.000587 0.001457 0.002673 0.029606 -0.004606 0.000895
# 5 0.002499 0.001655 0.000367 -0.004606 0.035090 0.012565
# 6 -0.000393 0.001767 -0.001814 0.000895 0.012565 0.036470
#
#
# Mechanical properties :
#
#
# Convention : Reuss Voigt Hill
#
# Bulk Modulus (GPa) = 55.43094 60.02144 57.72619
# Shear Modulus (GPa) = 31.94156 36.21827 34.07991
#
# Velocity S-wave (km/s) = 3.82374 4.07168 3.94966
# Velocity P-wave (km/s) = 6.69833 7.04124 6.87192
#
# Compressibility (1/GPa) = 0.01804047
#
# Stress axis : x y z
#
# Youngs Moduli (GPa) = 110.14141 85.06936 77.73621
#
# Poissons Ratio (x) = 0.13635 0.13241
# Poissons Ratio (y) = 0.17654 0.35158
# Poissons Ratio (z) = 0.18761 0.38475
#
# Static dielectric constant tensor:
#      x y z
#    x 4.027330 0.101180 -0.127360 
#    y 0.101180 3.773080 -0.327930 
#    z -0.127360 -0.327930 3.947490 
# 
# 
# High freq. dielectric constant tensor:
#      x y z
#    x 1.876110 0.002290 -0.009230 
#    y 0.002290 1.846530 -0.028080 
#    z -0.009230 -0.028080 1.854350 
# 
# From -- ./inp_files/242592.got.cif
#   From: 2010.06.25/outbox.cif.g09.slc.cpg/sg2_122_cif.got.tgz:242592.got - 2010.06.27 13:26:56.
