data_PCOD8029081
_publ_section_title
;
Structure prediction by ZEFSAII (Michael W. Deem and Ramdas Pophale) SiO2 
 PCOD8029081
Probable space group: P -1
;
_chemical_formula_sum "Si O2"
_cell_formula_units_Z 10
_cell_length_a 7.423754
_cell_length_b 8.823657
_cell_length_c 11.419047
_cell_angle_alpha 138.927542
_cell_angle_beta 125.935250
_cell_angle_gamma 47.018004
_cell_volume 355.367075
_symmetry_space_group_name_H-M "P -1"
_symmetry_group_IT_number 2
_symmetry_cell_setting 'triclinic'
loop_
_space_group_symop_operation_xyz
x,y,z
-x,-y,-z
loop_
_atom_site_type_symbol
_atom_site_label
_atom_site_fract_x
_atom_site_fract_y
_atom_site_fract_z
Si Si1 0.320242 0.698248 0.267916
Si Si2 0.863329 0.584849 0.346999
Si Si3 0.318990 0.250064 0.869632
Si Si4 0.244759 0.767842 0.545585
Si Si5 0.857288 0.974731 0.820545
O O1 0.585869 0.708055 0.368833
O O2 0.195723 0.800801 0.406142
O O3 0.123996 0.878847 0.202149
O O4 0.344213 0.409772 0.083983
O O5 0.848681 0.546735 0.177578
O O6 0.007742 0.760785 0.516167
O O7 0.030765 0.329784 0.336499
O O8 0.242860 0.027492 0.751180
O O9 0.573396 0.084846 0.806713
O O10 0.500000 0.500000 0.500000
O O11 0.000000 0.000000 0.000000
#
# Coordination Sequence:
#
# PCOD8029081 Si02
#       5
#     2   2   2   2   2
#     4  11  26  47  79 101 141 201 230 291 377 408
#     4  11  23  48  73 105 149 184 237 305 350 426
#     4  11  23  47  73 105 146 183 243 294 350 433
#     4  12  28  49  68 111 149 181 249 298 343 442
#     4  11  19  44  77 108 139 184 248 293 345 444
#
# _framework density 28.13992
#
# number of rings (size 3 to 8) (size 9 to 14) (size 15 to 20)
#    0.000    0.800    6.000    1.800    0.000    5.600 
#    7.200    2.000    0.000    0.000    0.000    0.000 
#    0.000    0.000    0.000    0.000    0.000    0.000 
#
# Total GULP energy -123917.425478 kJ/mol
# GULP energy per Si atom -12391.742548 kJ/mol
# Density = 2.807587 g / cm^3
# Si number density = 28.139920 Si / 1000 Ang^3
#
#
#
# Elastic Constant Matrix: (Units=GPa)
#
#
# Indices 1 2 3 4 5 6 
#
# 1 144.2697 29.8185 77.2093 7.5369 22.8728 21.3554
# 2 29.8185 184.0506 49.6873 6.8976 12.2411 14.4973
# 3 77.2093 49.6873 174.1547 35.0265 2.0399 10.8343
# 4 7.5369 6.8976 35.0265 41.9149 -4.7537 3.9657
# 5 22.8728 12.2411 2.0399 -4.7537 45.8187 1.7764
# 6 21.3554 14.4973 10.8343 3.9657 1.7764 28.4039
#
#
#
# Elastic Compliance Matrix: (Units=1/GPa)
#
#
# Indices 1 2 3 4 5 6 
#
# 1 0.011223 0.000315 -0.005035 0.002205 -0.004975 -0.006675
# 2 0.000315 0.006168 -0.001821 0.000524 -0.001566 -0.002666
# 3 -0.005035 -0.001821 0.009749 -0.006915 0.001777 0.001851
# 4 0.002205 0.000524 -0.006915 0.029753 0.002293 -0.003585
# 5 -0.004975 -0.001566 0.001777 0.002293 0.024809 0.001990
# 6 -0.006675 -0.002666 0.001851 -0.003585 0.001990 0.041255
#
#
# Mechanical properties :
#
#
# Convention : Reuss Voigt Hill
#
# Bulk Modulus (GPa) = 71.13627 90.65614 80.89620
# Shear Modulus (GPa) = 35.53036 46.27816 40.90426
#
# Velocity S-wave (km/s) = 3.55721 4.05973 3.81675
# Velocity P-wave (km/s) = 6.49661 7.36623 6.94505
#
# Compressibility (1/GPa) = 0.01405753
#
# Stress axis : x y z
#
# Youngs Moduli (GPa) = 89.10558 162.11877 102.57780
#
# Poissons Ratio (x) = -0.05109 0.51652
# Poissons Ratio (y) = -0.02808 0.18678
# Poissons Ratio (z) = 0.44868 0.29519
#
# Static dielectric constant tensor:
#      x y z
#    x 5.164800 0.394190 -0.047570 
#    y 0.394190 6.609580 0.504860 
#    z -0.047570 0.504860 6.469930 
# 
# 
# High freq. dielectric constant tensor:
#      x y z
#    x 2.145470 -0.004310 0.001310 
#    y -0.004310 2.163210 0.003190 
#    z 0.001310 0.003190 2.149490 
# 
# From -- ./inp_files/145738.got.cif
#   From: 2010.06.25/outbox.cif.g09.slc.cpg/sg2_73_cif.got.tgz:145738.got - 2010.06.27 13:26:56.
