data_PCOD8029194
_publ_section_title
;
Structure prediction by ZEFSAII (Michael W. Deem and Ramdas Pophale) SiO2 
 PCOD8029194
Probable space group: P -1
;
_chemical_formula_sum "Si O2"
_cell_formula_units_Z 16
_cell_length_a 20.172081
_cell_length_b 8.298671
_cell_length_c 26.198378
_cell_angle_alpha 38.367609
_cell_angle_beta 160.155995
_cell_angle_gamma 149.166124
_cell_volume 755.994134
_symmetry_space_group_name_H-M "P -1"
_symmetry_group_IT_number 2
_symmetry_cell_setting 'triclinic'
loop_
_space_group_symop_operation_xyz
x,y,z
-x,-y,-z
loop_
_atom_site_type_symbol
_atom_site_label
_atom_site_fract_x
_atom_site_fract_y
_atom_site_fract_z
Si Si1 0.273219 0.775051 0.232206
Si Si2 0.207040 0.904630 0.439390
Si Si3 0.253478 0.410087 0.472211
Si Si4 0.767084 0.755718 0.722246
Si Si5 0.555962 0.576848 0.850927
Si Si6 0.927295 0.731489 0.374074
Si Si7 0.954667 0.255708 0.817451
Si Si8 0.229617 0.349100 0.581879
O O1 0.138159 0.448453 0.181596
O O2 0.131619 0.775271 0.178959
O O3 0.516698 0.827597 0.414804
O O4 0.319201 0.049547 0.159750
O O5 0.147549 0.559495 0.493636
O O6 0.023432 0.902202 0.346068
O O7 0.150684 0.957115 0.328742
O O8 0.480191 0.512047 0.576853
O O9 0.130862 0.574019 0.321568
O O10 0.348022 0.518915 0.571433
O O11 0.061347 0.033271 0.433773
O O12 0.867684 0.919959 0.809990
O O13 0.357720 0.449829 0.783507
O O14 0.432051 0.382150 0.757048
O O15 0.757040 0.526665 0.026283
O O16 0.000000 0.500000 0.500000
O O17 0.000000 0.000000 0.500000
#
# Coordination Sequence:
#
# PCOD8029194 Si02
#       8
#     2   2   2   2   2   2   2   2
#     4  11  22  41  67  96 133 172 220 275 324 385
#     4  11  20  37  64  96 124 157 226 283 308 369
#     4  12  22  39  69  98 125 172 225 274 319 392
#     4  12  22  41  68  99 128 172 229 272 323 386
#     4  11  25  43  63  96 141 173 208 277 338 393
#     4  12  21  40  67  94 125 171 227 270 322 389
#     4  12  26  42  65 101 141 170 213 271 347 394
#     4  11  21  40  65  93 124 171 223 265 318 390
#
# _framework density 21.164185
#
# number of rings (size 3 to 8) (size 9 to 14) (size 15 to 20)
#    0.000    0.500    7.500    3.375    0.000    1.000 
#    0.000    3.125    0.000    0.000    0.000    0.000 
#    0.000    0.000    0.000    0.000    0.000    0.000 
#
# Total GULP energy -198284.362711 kJ/mol
# GULP energy per Si atom -12392.772669 kJ/mol
# Density = 2.111601 g / cm^3
# Si number density = 21.164185 Si / 1000 Ang^3
#
#
#
# Elastic Constant Matrix: (Units=GPa)
#
#
# Indices 1 2 3 4 5 6 
#
# 1 134.7777 14.7143 41.0575 10.3796 19.5881 -1.8235
# 2 14.7143 70.1458 12.5320 18.1061 0.2451 -18.1193
# 3 41.0575 12.5320 92.3896 17.3486 14.6230 1.1518
# 4 10.3796 18.1061 17.3486 17.7231 4.5089 -0.7767
# 5 19.5881 0.2451 14.6230 4.5089 29.2995 8.3291
# 6 -1.8235 -18.1193 1.1518 -0.7767 8.3291 41.3553
#
#
#
# Elastic Compliance Matrix: (Units=1/GPa)
#
#
# Indices 1 2 3 4 5 6 
#
# 1 0.009232 -0.001141 -0.003228 0.000198 -0.004860 0.000980
# 2 -0.001141 0.022803 0.001695 -0.024082 0.000794 0.009281
# 3 -0.003228 0.001695 0.015156 -0.013764 -0.003478 0.000620
# 4 0.000198 -0.024082 -0.013764 0.095519 -0.005710 -0.007215
# 5 -0.004860 0.000794 -0.003478 -0.005710 0.042379 -0.008412
# 6 0.000980 0.009281 0.000620 -0.007215 -0.008412 0.029832
#
#
# Mechanical properties :
#
#
# Convention : Reuss Voigt Hill
#
# Bulk Modulus (GPa) = 23.89930 48.21341 36.05636
# Shear Modulus (GPa) = 21.34770 32.94287 27.14528
#
# Velocity S-wave (km/s) = 3.17940 3.94958 3.58523
# Velocity P-wave (km/s) = 4.97946 6.60523 5.84910
#
# Compressibility (1/GPa) = 0.04184223
#
# Stress axis : x y z
#
# Youngs Moduli (GPa) = 108.31982 43.85327 65.98157
#
# Poissons Ratio (x) = 0.05003 0.21299
# Poissons Ratio (y) = 0.12359 -0.11181
# Poissons Ratio (z) = 0.34966 -0.07431
#
# Static dielectric constant tensor:
#      x y z
#    x 4.408630 -0.193160 0.010810 
#    y -0.193160 3.774710 0.111560 
#    z 0.010810 0.111560 3.541640 
# 
# 
# High freq. dielectric constant tensor:
#      x y z
#    x 1.853660 0.000250 0.002010 
#    y 0.000250 1.833090 0.004310 
#    z 0.002010 0.004310 1.788320 
# 
# From -- ./inp_files/559026.got.cif
#   From: 2010.06.25/outbox.cif.g09.slc.cpg/sg2_280_cif.got.tgz:559026.got - 2010.06.27 13:26:56.
