data_PCOD8029679
_publ_section_title
;
Structure prediction by ZEFSAII (Michael W. Deem and Ramdas Pophale) SiO2 
 PCOD8029679
Probable space group: P -1
;
_chemical_formula_sum "Si O2"
_cell_formula_units_Z 16
_cell_length_a 22.201847
_cell_length_b 4.947495
_cell_length_c 18.795416
_cell_angle_alpha 83.317799
_cell_angle_beta 22.272712
_cell_angle_gamma 85.674800
_cell_volume 774.322922
_symmetry_space_group_name_H-M "P -1"
_symmetry_group_IT_number 2
_symmetry_cell_setting 'triclinic'
loop_
_space_group_symop_operation_xyz
x,y,z
-x,-y,-z
loop_
_atom_site_type_symbol
_atom_site_label
_atom_site_fract_x
_atom_site_fract_y
_atom_site_fract_z
Si Si1 0.146120 0.350593 0.278527
Si Si2 0.046679 0.237622 0.995930
Si Si3 0.840541 0.135478 0.361288
Si Si4 0.413898 0.220619 0.628773
Si Si5 0.307102 0.603973 0.970302
Si Si6 0.060767 0.386946 0.662734
Si Si7 0.940014 0.827919 0.480079
Si Si8 0.526052 0.844641 0.271659
O O1 0.188033 0.211213 0.312875
O O2 0.079141 0.642358 0.357377
O O3 0.300119 0.436992 0.058287
O O4 0.017735 0.142128 0.381443
O O5 0.230904 0.229897 0.810447
O O6 0.000000 0.500000 0.000000
O O7 0.954314 0.244588 0.170706
O O8 0.000000 0.000000 0.000000
O O9 0.868760 0.315113 0.397044
O O10 0.660216 0.140774 0.534317
O O11 0.884115 0.827594 0.334365
O O12 0.500000 0.500000 0.500000
O O13 0.429108 0.134454 0.696144
O O14 0.500000 0.000000 0.500000
O O15 0.421785 0.448354 0.799490
O O16 0.381430 0.915996 0.884116
O O17 0.129491 0.612549 0.133246
O O18 0.132375 0.290687 0.511579
#
# Coordination Sequence:
#
# PCOD8029679 Si02
#       8
#     2   2   2   2   2   2   2   2
#     4   9  17  31  55  88 120 151 195 251 301 348
#     4  12  25  44  66  91 120 155 199 247 300 357
#     4  12  25  41  60  87 123 161 198 243 301 359
#     4  12  25  44  66  91 120 155 199 247 300 357
#     4  11  21  38  62  89 118 155 203 251 297 352
#     4  11  21  38  62  89 118 155 203 251 297 352
#     4   9  17  31  55  88 120 151 195 251 301 348
#     4  12  25  41  60  87 123 161 198 243 301 359
#
# _framework density 20.663215000000001
#
# number of rings (size 3 to 8) (size 9 to 14) (size 15 to 20)
#    0.000    1.000    0.000    9.750    0.000    0.000 
#    0.000    0.000    0.000    4.500    0.000    0.000 
#    0.000    0.000    0.000    0.000    0.000    0.000 
#
# Total GULP energy -198294.901423 kJ/mol
# GULP energy per Si atom -12393.431339 kJ/mol
# Density = 2.061618 g / cm^3
# Si number density = 20.663215 Si / 1000 Ang^3
#
#
#
# Elastic Constant Matrix: (Units=GPa)
#
#
# Indices 1 2 3 4 5 6 
#
# 1 93.8447 21.8674 62.6021 -9.6688 10.1974 -3.2505
# 2 21.8674 108.6448 37.5758 -0.1128 -2.4371 4.3212
# 3 62.6021 37.5758 127.7691 2.1247 -15.2400 -10.8415
# 4 -9.6688 -0.1128 2.1247 35.3584 -3.4952 -2.4404
# 5 10.1974 -2.4371 -15.2400 -3.4952 44.8172 1.5881
# 6 -3.2505 4.3212 -10.8415 -2.4404 1.5881 34.2224
#
#
#
# Elastic Compliance Matrix: (Units=1/GPa)
#
#
# Indices 1 2 3 4 5 6 
#
# 1 0.018760 -0.000423 -0.010078 0.004966 -0.007308 -0.000664
# 2 -0.000423 0.010447 -0.003099 -0.000088 -0.000314 -0.002333
# 3 -0.010078 -0.003099 0.014844 -0.002732 0.006831 0.003625
# 4 0.004966 -0.000088 -0.002732 0.029945 0.000210 0.001743
# 5 -0.007308 -0.000314 0.006831 0.000210 0.026287 0.000305
# 6 -0.000664 -0.002333 0.003625 0.001743 0.000305 0.030711
#
#
# Mechanical properties :
#
#
# Convention : Reuss Voigt Hill
#
# Bulk Modulus (GPa) = 59.34414 63.81659 61.58037
# Shear Modulus (GPa) = 30.52335 36.76047 33.64191
#
# Velocity S-wave (km/s) = 3.84758 4.22243 4.03936
# Velocity P-wave (km/s) = 6.96567 7.39751 7.18483
#
# Compressibility (1/GPa) = 0.01685086
#
# Stress axis : x y z
#
# Youngs Moduli (GPa) = 53.30516 95.72217 67.36910
#
# Poissons Ratio (x) = 0.04046 0.67894
# Poissons Ratio (y) = 0.02253 0.20879
# Poissons Ratio (z) = 0.53721 0.29666
#
# Static dielectric constant tensor:
#      x y z
#    x 4.013910 -0.119300 0.389710 
#    y -0.119300 4.131960 -0.123640 
#    z 0.389710 -0.123640 3.919190 
# 
# 
# High freq. dielectric constant tensor:
#      x y z
#    x 1.809150 -0.001670 0.027670 
#    y -0.001670 1.836770 0.002180 
#    z 0.027670 0.002180 1.792610 
# 
# From -- ./inp_files/576782.got.cif
#   From: 2010.06.25/outbox.cif.g09.slc.cpg/sg2_289_cif.got.tgz:576782.got - 2010.06.27 13:26:56.
