data_PCOD8029675
_publ_section_title
;
Structure prediction by ZEFSAII (Michael W. Deem and Ramdas Pophale) SiO2 
 PCOD8029675
Probable space group: P -1
;
_chemical_formula_sum "Si O2"
_cell_formula_units_Z 16
_cell_length_a 11.427868
_cell_length_b 11.067366
_cell_length_c 9.674698
_cell_angle_alpha 119.695966
_cell_angle_beta 88.757035
_cell_angle_gamma 124.419283
_cell_volume 817.867478
_symmetry_space_group_name_H-M "P -1"
_symmetry_group_IT_number 2
_symmetry_cell_setting 'triclinic'
loop_
_space_group_symop_operation_xyz
x,y,z
-x,-y,-z
loop_
_atom_site_type_symbol
_atom_site_label
_atom_site_fract_x
_atom_site_fract_y
_atom_site_fract_z
Si Si1 0.158526 0.741926 0.878796
Si Si2 0.655350 0.725659 0.486109
Si Si3 0.952252 0.834557 0.495902
Si Si4 0.659588 0.539637 0.626338
Si Si5 0.118097 0.675249 0.350983
Si Si6 0.665444 0.241275 0.361979
Si Si7 0.321386 0.942229 0.269253
Si Si8 0.981092 0.850242 0.827212
O O1 0.286709 0.761560 0.796449
O O2 0.007621 0.537074 0.797243
O O3 0.114304 0.844700 0.852321
O O4 0.232108 0.847986 0.078015
O O5 0.769710 0.701580 0.400233
O O6 0.639246 0.667270 0.613951
O O7 0.487795 0.585531 0.339435
O O8 0.711855 0.927967 0.598052
O O9 0.985195 0.888279 0.686549
O O10 0.025335 0.748504 0.395222
O O11 0.000000 0.000000 0.500000
O O12 0.657360 0.401430 0.450894
O O13 0.818637 0.661703 0.772360
O O14 0.200349 0.710697 0.514137
O O15 0.250486 0.780858 0.291288
O O16 0.501918 0.052594 0.304113
O O17 0.000000 0.000000 0.000000
#
# Coordination Sequence:
#
# PCOD8029675 Si02
#       8
#     2   2   2   2   2   2   2   2
#     4  12  22  39  61  94 122 154 205 253 298 353
#     4   9  18  35  58  84 114 151 200 238 292 349
#     4  11  21  38  61  87 116 155 201 242 292 359
#     4   9  18  35  59  86 111 151 199 245 287 351
#     4  12  23  40  62  89 123 163 203 247 301 361
#     4  11  22  41  63  88 118 162 206 249 296 361
#     4  11  24  39  60  90 127 161 194 251 312 355
#     4  11  22  37  62  88 119 153 198 248 299 353
#
# _framework density 19.563071000000001
#
# number of rings (size 3 to 8) (size 9 to 14) (size 15 to 20)
#    0.000    1.250    3.750    4.500    0.000    0.000 
#    0.000    1.250    0.000    0.750    0.000    0.000 
#    0.000    0.000    0.000    0.000    0.000    0.000 
#
# Total GULP energy -198254.834458 kJ/mol
# GULP energy per Si atom -12390.927154 kJ/mol
# Density = 1.951854 g / cm^3
# Si number density = 19.563071 Si / 1000 Ang^3
#
#
#
# Elastic Constant Matrix: (Units=GPa)
#
#
# Indices 1 2 3 4 5 6 
#
# 1 91.1272 28.7456 16.2431 7.7518 -1.1896 7.1755
# 2 28.7456 104.5410 30.3345 6.9485 -3.9830 12.8968
# 3 16.2431 30.3345 60.3721 7.4528 7.5392 9.8685
# 4 7.7518 6.9485 7.4528 26.1505 0.1548 4.4936
# 5 -1.1896 -3.9830 7.5392 0.1548 24.0075 2.9010
# 6 7.1755 12.8968 9.8685 4.4936 2.9010 39.2569
#
#
#
# Elastic Compliance Matrix: (Units=1/GPa)
#
#
# Indices 1 2 3 4 5 6 
#
# 1 0.012377 -0.002629 -0.001695 -0.002361 0.000817 -0.000763
# 2 -0.002629 0.012384 -0.005547 -0.000537 0.003963 -0.002425
# 3 -0.001695 -0.005547 0.021580 -0.003732 -0.007478 -0.002313
# 4 -0.002361 -0.000537 -0.003732 0.040688 0.001089 -0.003192
# 5 0.000817 0.003963 -0.007478 0.001089 0.045058 -0.003026
# 6 -0.000763 -0.002425 -0.002313 -0.003192 -0.003026 0.027580
#
#
# Mechanical properties :
#
#
# Convention : Reuss Voigt Hill
#
# Bulk Modulus (GPa) = 37.59698 45.18738 41.39218
# Shear Modulus (GPa) = 26.55684 29.93079 28.24382
#
# Velocity S-wave (km/s) = 3.68842 3.91572 3.80377
# Velocity P-wave (km/s) = 6.11550 6.60244 6.36363
#
# Compressibility (1/GPa) = 0.02659788
#
# Stress axis : x y z
#
# Youngs Moduli (GPa) = 80.79690 80.74884 46.33977
#
# Poissons Ratio (x) = 0.21232 0.07853
# Poissons Ratio (y) = 0.21244 0.25706
# Poissons Ratio (z) = 0.13692 0.44794
#
# Static dielectric constant tensor:
#      x y z
#    x 3.189130 -0.599490 0.182970 
#    y -0.599490 3.183980 0.353850 
#    z 0.182970 0.353850 3.241480 
# 
# 
# High freq. dielectric constant tensor:
#      x y z
#    x 1.785820 0.008810 0.000530 
#    y 0.008810 1.773910 0.013800 
#    z 0.000530 0.013800 1.723110 
# 
# From -- ./inp_files/208332.got.cif
#   From: 2010.06.25/outbox.cif.g09.slc.cpg/sg2_105_cif.got.tgz:208332.got - 2010.06.27 13:26:56.
