data_PCOD8029474
_publ_section_title
;
Structure prediction by ZEFSAII (Michael W. Deem and Ramdas Pophale) SiO2 
 PCOD8029474
Probable space group: P -1
;
_chemical_formula_sum "Si O2"
_cell_formula_units_Z 16
_cell_length_a 9.364657
_cell_length_b 14.360025
_cell_length_c 11.450929
_cell_angle_alpha 130.592138
_cell_angle_beta 38.000327
_cell_angle_gamma 111.146378
_cell_volume 680.812579
_symmetry_space_group_name_H-M "P -1"
_symmetry_group_IT_number 2
_symmetry_cell_setting 'triclinic'
loop_
_space_group_symop_operation_xyz
x,y,z
-x,-y,-z
loop_
_atom_site_type_symbol
_atom_site_label
_atom_site_fract_x
_atom_site_fract_y
_atom_site_fract_z
Si Si1 0.607496 0.149919 0.223757
Si Si2 0.564543 0.020387 0.652781
Si Si3 0.350691 0.419602 0.192289
Si Si4 0.939116 0.575261 0.844046
Si Si5 0.451590 0.668267 0.369984
Si Si6 0.257313 0.302505 0.386109
Si Si7 0.877748 0.858174 0.123768
Si Si8 0.780066 0.232436 0.634362
O O1 0.550267 0.254669 0.448854
O O2 0.499740 0.217638 0.227416
O O3 0.482761 0.039763 0.243027
O O4 0.902130 0.080395 0.965385
O O5 0.295004 0.101542 0.844949
O O6 0.734971 0.110929 0.630233
O O7 0.702462 0.899326 0.382125
O O8 0.134450 0.448210 0.260311
O O9 0.328979 0.556051 0.379289
O O10 0.330142 0.314879 0.215126
O O11 0.609429 0.364609 0.912437
O O12 0.158103 0.444189 0.627631
O O13 0.726260 0.595464 0.091950
O O14 0.018622 0.703560 0.903377
O O15 0.302959 0.768953 0.448129
O O16 0.059338 0.226958 0.459626
#
# Coordination Sequence:
#
# PCOD8029474 Si02
#       8
#     2   2   2   2   2   2   2   2
#     4  12  28  43  65 105 141 178 217 273 344 404
#     4  11  23  47  70  96 129 181 234 282 316 385
#     4  11  22  41  68 103 133 174 225 280 329 394
#     4  11  20  43  72 102 131 173 227 278 335 396
#     4  11  20  42  72 101 131 173 228 279 333 389
#     4  12  27  42  66 105 144 176 212 270 354 409
#     4  11  23  43  73 101 130 172 232 282 331 387
#     4  11  23  43  73  97 127 178 235 277 324 389
#
# _framework density 23.501328999999998
#
# number of rings (size 3 to 8) (size 9 to 14) (size 15 to 20)
#    0.000    0.750    6.250    3.000    1.750    5.000 
#    0.000    1.250    0.000    0.000    0.000    0.000 
#    0.000    0.000    0.000    0.000    0.000    0.000 
#
# Total GULP energy -198447.876592 kJ/mol
# GULP energy per Si atom -12402.992287 kJ/mol
# Density = 2.344784 g / cm^3
# Si number density = 23.501329 Si / 1000 Ang^3
#
#
#
# Elastic Constant Matrix: (Units=GPa)
#
#
# Indices 1 2 3 4 5 6 
#
# 1 56.9429 30.8680 19.3199 -11.0899 -9.5004 -5.7995
# 2 30.8680 134.6016 5.7226 -13.8078 -10.8692 0.6944
# 3 19.3199 5.7226 42.6933 -10.8636 -14.9576 -7.6724
# 4 -11.0899 -13.8078 -10.8636 35.3291 4.0645 1.9359
# 5 -9.5004 -10.8692 -14.9576 4.0645 19.0226 2.3546
# 6 -5.7995 0.6944 -7.6724 1.9359 2.3546 31.9949
#
#
#
# Elastic Compliance Matrix: (Units=1/GPa)
#
#
# Indices 1 2 3 4 5 6 
#
# 1 0.024085 -0.004748 -0.008579 0.002753 0.001719 0.002118
# 2 -0.004748 0.009033 0.003107 0.002488 0.004802 -0.000816
# 3 -0.008579 0.003107 0.038677 0.007164 0.025713 0.005327
# 4 0.002753 0.002488 0.007164 0.032161 0.001545 0.000103
# 5 0.001719 0.004802 0.025713 0.001545 0.075974 0.000689
# 6 0.002118 -0.000816 0.005327 0.000103 0.000689 0.032877
#
#
# Mechanical properties :
#
#
# Convention : Reuss Voigt Hill
#
# Bulk Modulus (GPa) = 19.47249 38.45099 28.96174
# Shear Modulus (GPa) = 19.97061 29.15780 24.56421
#
# Velocity S-wave (km/s) = 2.91824 3.52616 3.23650
# Velocity P-wave (km/s) = 4.43379 5.74240 5.12999
#
# Compressibility (1/GPa) = 0.05135449
#
# Stress axis : x y z
#
# Youngs Moduli (GPa) = 41.51969 110.70065 25.85487
#
# Poissons Ratio (x) = 0.52565 0.22181
# Poissons Ratio (y) = 0.19715 -0.08033
# Poissons Ratio (z) = 0.35620 -0.34393
#
# Static dielectric constant tensor:
#      x y z
#    x 3.716960 0.119300 0.041200 
#    y 0.119300 4.406440 -0.057960 
#    z 0.041200 -0.057960 4.211280 
# 
# 
# High freq. dielectric constant tensor:
#      x y z
#    x 1.884050 0.013310 0.005490 
#    y 0.013310 1.947910 -0.008550 
#    z 0.005490 -0.008550 1.938200 
# 
# From -- ./inp_files/398271.got.cif
#   From: 2010.06.25/outbox.cif.g09.slc.cpg/sg2_200_cif.got.tgz:398271.got - 2010.06.27 13:26:56.
