data_PCOD8029234
_publ_section_title
;
Structure prediction by ZEFSAII (Michael W. Deem and Ramdas Pophale) SiO2 
 PCOD8029234
Probable space group: P -1
;
_chemical_formula_sum "Si O2"
_cell_formula_units_Z 12
_cell_length_a 14.987405
_cell_length_b 11.796731
_cell_length_c 18.094337
_cell_angle_alpha 29.507874
_cell_angle_beta 155.929734
_cell_angle_gamma 150.176776
_cell_volume 598.789403
_symmetry_space_group_name_H-M "P -1"
_symmetry_group_IT_number 2
_symmetry_cell_setting 'triclinic'
loop_
_space_group_symop_operation_xyz
x,y,z
-x,-y,-z
loop_
_atom_site_type_symbol
_atom_site_label
_atom_site_fract_x
_atom_site_fract_y
_atom_site_fract_z
Si Si1 0.441286 0.813677 0.248952
Si Si2 0.658064 0.498705 0.508821
Si Si3 0.680849 0.433031 0.224063
Si Si4 0.595393 0.958915 0.517561
Si Si5 0.063525 0.791075 0.551196
Si Si6 0.111132 0.097876 0.790034
O O1 0.482635 0.641208 0.314215
O O2 0.304130 0.644660 0.309269
O O3 0.690705 0.003733 0.356481
O O4 0.278559 0.948989 0.016711
O O5 0.552655 0.315736 0.465242
O O6 0.909790 0.693670 0.563302
O O7 0.769780 0.620551 0.252502
O O8 0.893163 0.435502 0.329500
O O9 0.562149 0.156538 0.323104
O O10 0.500000 0.500000 0.000000
O O11 0.500000 0.000000 0.500000
O O12 0.865929 0.981821 0.714250
O O13 0.931301 0.909079 0.326345
#
# Coordination Sequence:
#
# PCOD8029234 Si02
#       6
#     2   2   2   2   2   2
#     4  11  24  44  63  94 129 163 213 254 308 378
#     4  11  23  43  65  92 129 166 206 261 310 368
#     4  11  20  38  64  88 126 160 206 258 306 365
#     4  11  22  40  63  95 126 161 210 258 310 369
#     4  11  22  43  63  92 128 165 208 258 312 366
#     4  11  22  41  65  91 129 167 203 263 311 367
#
# _framework density 20.040434999999999
#
# number of rings (size 3 to 8) (size 9 to 14) (size 15 to 20)
#    0.000    1.000    5.000    4.500    0.000    2.667 
#    3.000    3.333    0.000    0.000    0.000    0.000 
#    0.000    0.000    0.000    0.000    0.000    0.000 
#
# Total GULP energy -148821.922960 kJ/mol
# GULP energy per Si atom -12401.826913 kJ/mol
# Density = 1.999482 g / cm^3
# Si number density = 20.040435 Si / 1000 Ang^3
#
#
#
# Elastic Constant Matrix: (Units=GPa)
#
#
# Indices 1 2 3 4 5 6 
#
# 1 148.5351 50.1815 58.3690 -3.8048 6.5002 12.8865
# 2 50.1815 82.8084 55.0931 -4.7326 -1.3756 2.0124
# 3 58.3690 55.0931 155.5510 -7.0412 -5.2399 -4.7059
# 4 -3.8048 -4.7326 -7.0412 28.0244 -9.3063 7.6277
# 5 6.5002 -1.3756 -5.2399 -9.3063 18.6599 0.5013
# 6 12.8865 2.0124 -4.7059 7.6277 0.5013 39.9854
#
#
#
# Elastic Compliance Matrix: (Units=1/GPa)
#
#
# Indices 1 2 3 4 5 6 
#
# 1 0.009529 -0.004263 -0.002342 -0.000737 -0.004580 -0.002934
# 2 -0.004263 0.017880 -0.004552 0.002344 0.002709 -0.000543
# 3 -0.002342 -0.004552 0.009204 0.002148 0.004093 0.001606
# 4 -0.000737 0.002344 0.002148 0.047190 0.024808 -0.008941
# 5 -0.004580 0.002709 0.004093 0.024808 0.069009 -0.003776
# 6 -0.002934 -0.000543 0.001606 -0.008941 -0.003776 0.027924
#
#
# Mechanical properties :
#
#
# Convention : Reuss Voigt Hill
#
# Bulk Modulus (GPa) = 69.94046 79.35351 74.64698
# Shear Modulus (GPa) = 24.05949 32.21734 28.13841
#
# Velocity S-wave (km/s) = 3.46865 4.01386 3.75117
# Velocity P-wave (km/s) = 7.14265 7.82075 7.48938
#
# Compressibility (1/GPa) = 0.01429788
#
# Stress axis : x y z
#
# Youngs Moduli (GPa) = 104.93980 55.92720 108.65289
#
# Poissons Ratio (x) = 0.23843 0.25449
# Poissons Ratio (y) = 0.44739 0.49461
# Poissons Ratio (z) = 0.24579 0.25459
#
# Static dielectric constant tensor:
#      x y z
#    x 3.946710 -0.115150 0.089910 
#    y -0.115150 3.858410 -0.040580 
#    z 0.089910 -0.040580 3.585040 
# 
# 
# High freq. dielectric constant tensor:
#      x y z
#    x 1.789990 -0.009710 0.004790 
#    y -0.009710 1.789810 -0.003620 
#    z 0.004790 -0.003620 1.775980 
# 
# From -- ./inp_files/200045.got.cif
#   From: 2010.06.25/outbox.cif.g09.slc.cpg/sg2_101_cif.got.tgz:200045.got - 2010.06.27 13:26:56.
