data_PCOD8029005
_publ_section_title
;
Structure prediction by ZEFSAII (Michael W. Deem and Ramdas Pophale) SiO2 
 PCOD8029005
Probable space group: P -1
;
_chemical_formula_sum "Si O2"
_cell_formula_units_Z 16
_cell_length_a 11.860882
_cell_length_b 14.590413
_cell_length_c 8.716360
_cell_angle_alpha 69.229606
_cell_angle_beta 109.697543
_cell_angle_gamma 50.909656
_cell_volume 695.038308
_symmetry_space_group_name_H-M "P -1"
_symmetry_group_IT_number 2
_symmetry_cell_setting 'triclinic'
loop_
_space_group_symop_operation_xyz
x,y,z
-x,-y,-z
loop_
_atom_site_type_symbol
_atom_site_label
_atom_site_fract_x
_atom_site_fract_y
_atom_site_fract_z
Si Si1 0.851860 0.699962 0.306328
Si Si2 0.334017 0.459042 0.986127
Si Si3 0.979522 0.805287 0.409356
Si Si4 0.705141 0.017411 0.636082
Si Si5 0.012668 0.630095 0.994376
Si Si6 0.504158 0.143690 0.145710
Si Si7 0.832012 0.132439 0.489082
Si Si8 0.738232 0.710378 0.567037
O O1 0.737185 0.781970 0.376448
O O2 0.000000 0.500000 0.500000
O O3 0.984875 0.711830 0.344153
O O4 0.658977 0.828483 0.010145
O O5 0.140772 0.665937 0.710591
O O6 0.249294 0.482547 0.099813
O O7 0.359786 0.345590 0.956740
O O8 0.581190 0.337058 0.189101
O O9 0.079205 0.840412 0.376722
O O10 0.721329 0.007030 0.218871
O O11 0.909733 0.802767 0.909408
O O12 0.583167 0.060462 0.401522
O O13 0.814628 0.047265 0.634927
O O14 0.519278 0.149633 0.608274
O O15 0.823170 0.711265 0.752639
O O16 0.085874 0.506220 0.242261
O O17 0.000000 0.000000 0.500000
#
# Coordination Sequence:
#
# PCOD8029005 Si02
#       8
#     2   2   2   2   2   2   2   2
#     4  12  25  43  64  94 134 172 212 261 325 390
#     4  11  19  38  61  96 128 161 212 265 316 378
#     4  12  22  39  61  95 129 170 209 263 325 371
#     4  11  22  40  65  98 126 163 216 265 328 371
#     4  11  20  37  62  93 131 163 204 268 323 373
#     4  11  21  39  62  91 131 164 211 260 319 385
#     4  11  21  37  64  95 134 163 213 268 319 377
#     4  11  23  39  61  94 134 162 211 265 321 386
#
# _framework density 23.020315
#
# number of rings (size 3 to 8) (size 9 to 14) (size 15 to 20)
#    0.000    0.750    8.750    1.125    1.750    0.000 
#    2.250    0.000    0.000    1.500    0.000    0.000 
#    0.000    0.000    0.000    0.000    0.000    0.000 
#
# Total GULP energy -198332.694309 kJ/mol
# GULP energy per Si atom -12395.793394 kJ/mol
# Density = 2.296792 g / cm^3
# Si number density = 23.020315 Si / 1000 Ang^3
#
#
#
# Elastic Constant Matrix: (Units=GPa)
#
#
# Indices 1 2 3 4 5 6 
#
# 1 142.8157 39.9709 41.0079 -5.3646 25.6186 30.9319
# 2 39.9709 56.8308 28.1005 -16.9843 11.3906 24.8825
# 3 41.0079 28.1005 66.9679 -12.9244 8.8901 19.6467
# 4 -5.3646 -16.9843 -12.9244 40.3234 2.6244 5.2877
# 5 25.6186 11.3906 8.8901 2.6244 42.6849 -1.9837
# 6 30.9319 24.8825 19.6467 5.2877 -1.9837 39.7898
#
#
#
# Elastic Compliance Matrix: (Units=1/GPa)
#
#
# Indices 1 2 3 4 5 6 
#
# 1 0.010797 -0.002182 -0.003115 0.000649 -0.005561 -0.005854
# 2 -0.002182 0.039176 -0.002733 0.019264 -0.010901 -0.024556
# 3 -0.003115 -0.002733 0.021886 0.006635 -0.002725 -0.007693
# 4 0.000649 0.019264 0.006635 0.038612 -0.010284 -0.021471
# 5 -0.005561 -0.010901 -0.002725 -0.010284 0.031591 0.015427
# 6 -0.005854 -0.024556 -0.007693 -0.021471 0.015427 0.052461
#
#
# Mechanical properties :
#
#
# Convention : Reuss Voigt Hill
#
# Bulk Modulus (GPa) = 17.92156 53.86368 35.89262
# Shear Modulus (GPa) = 21.81660 35.06196 28.43928
#
# Velocity S-wave (km/s) = 3.08183 3.90691 3.51864
# Velocity P-wave (km/s) = 4.52389 6.61824 5.66863
#
# Compressibility (1/GPa) = 0.05579870
#
# Stress axis : x y z
#
# Youngs Moduli (GPa) = 92.61790 25.52568 45.69051
#
# Poissons Ratio (x) = 0.05570 0.14233
# Poissons Ratio (y) = 0.20209 0.12489
# Poissons Ratio (z) = 0.28852 0.06977
#
# Static dielectric constant tensor:
#      x y z
#    x 4.382510 0.132090 0.047600 
#    y 0.132090 4.232700 -0.240810 
#    z 0.047600 -0.240810 4.084940 
# 
# 
# High freq. dielectric constant tensor:
#      x y z
#    x 1.907560 0.006430 0.001460 
#    y 0.006430 1.896350 -0.041620 
#    z 0.001460 -0.041620 1.899440 
# 
# From -- ./inp_files/272589.got.cif
#   From: 2010.06.25/outbox.cif.g09.slc.cpg/sg2_137_cif.got.tgz:272589.got - 2010.06.27 13:26:56.
