data_PCOD8029881
_publ_section_title
;
Structure prediction by ZEFSAII (Michael W. Deem and Ramdas Pophale) SiO2 
 PCOD8029881
Probable space group: P -1
;
_chemical_formula_sum "Si O2"
_cell_formula_units_Z 14
_cell_length_a 5.467785
_cell_length_b 9.159980
_cell_length_c 11.919264
_cell_angle_alpha 79.615527
_cell_angle_beta 105.673811
_cell_angle_gamma 82.284278
_cell_volume 554.710950
_symmetry_space_group_name_H-M "P -1"
_symmetry_group_IT_number 2
_symmetry_cell_setting 'triclinic'
loop_
_space_group_symop_operation_xyz
x,y,z
-x,-y,-z
loop_
_atom_site_type_symbol
_atom_site_label
_atom_site_fract_x
_atom_site_fract_y
_atom_site_fract_z
Si Si1 0.365768 0.167584 0.493967
Si Si2 0.209015 0.701235 0.194986
Si Si3 0.194323 0.846328 0.745107
Si Si4 0.073920 0.849720 0.377852
Si Si5 0.049192 0.256572 0.070622
Si Si6 0.565093 0.025785 0.877767
Si Si7 0.620135 0.636915 0.727224
O O1 0.136149 0.186458 0.554343
O O2 0.235427 0.276463 0.359739
O O3 0.623415 0.231288 0.556644
O O4 0.500000 0.000000 0.500000
O O5 0.417376 0.801547 0.169873
O O6 0.363115 0.537535 0.277452
O O7 0.015607 0.784617 0.256190
O O8 0.042601 0.669846 0.069973
O O9 0.322891 0.729918 0.680643
O O10 0.176142 0.742689 0.865917
O O11 0.939862 0.963699 0.650752
O O12 0.367723 0.973419 0.773885
O O13 0.260698 0.344982 0.136612
O O14 0.154752 0.077919 0.093545
O O15 0.500000 0.000000 0.000000
#
# Coordination Sequence:
#
# PCOD8029881 Si02
#       7
#     2   2   2   2   2   2   2
#     4  12  26  50  79 107 146 200 265 305 364 457
#     4  12  25  47  71 114 152 185 246 317 381 438
#     4  11  22  44  71 104 140 196 252 293 373 451
#     4  12  26  46  81 109 144 201 254 312 370 440
#     4  11  23  45  71 104 144 198 248 291 376 464
#     4  11  21  40  69 100 144 195 243 299 360 452
#     4  11  28  45  72 108 149 197 244 315 376 436
#
# _framework density 25.238368000000001
#
# number of rings (size 3 to 8) (size 9 to 14) (size 15 to 20)
#    0.000    0.571    4.286    3.857    2.000    1.714 
#    7.714    0.000    0.000    0.000    0.000    0.000 
#    0.000    0.000    0.000    0.000    0.000    0.000 
#
# Total GULP energy -173529.810003 kJ/mol
# GULP energy per Si atom -12394.986429 kJ/mol
# Density = 2.518092 g / cm^3
# Si number density = 25.238368 Si / 1000 Ang^3
#
#
#
# Elastic Constant Matrix: (Units=GPa)
#
#
# Indices 1 2 3 4 5 6 
#
# 1 118.3007 30.2801 33.6489 2.5099 -30.0217 -10.8643
# 2 30.2801 157.5766 28.8043 -25.1475 -26.4134 -12.5441
# 3 33.6489 28.8043 109.2328 -1.6555 -31.8512 -9.0927
# 4 2.5099 -25.1475 -1.6555 33.3821 -3.5463 -4.6703
# 5 -30.0217 -26.4134 -31.8512 -3.5463 50.5906 3.2078
# 6 -10.8643 -12.5441 -9.0927 -4.6703 3.2078 27.8959
#
#
#
# Elastic Compliance Matrix: (Units=1/GPa)
#
#
# Indices 1 2 3 4 5 6 
#
# 1 0.010524 -0.000876 -0.001445 -0.000665 0.004668 0.002586
# 2 -0.000876 0.008864 -0.000382 0.007772 0.004137 0.004346
# 3 -0.001445 -0.000382 0.011775 0.001440 0.006292 0.002621
# 4 -0.000665 0.007772 0.001440 0.037938 0.006640 0.009293
# 5 0.004668 0.004137 0.006292 0.006640 0.028900 0.003517
# 6 0.002586 0.004346 0.002621 0.009293 0.003517 0.040815
#
#
# Mechanical properties :
#
#
# Convention : Reuss Voigt Hill
#
# Bulk Modulus (GPa) = 38.82265 63.39739 51.11002
# Shear Modulus (GPa) = 32.72100 41.86549 37.29324
#
# Velocity S-wave (km/s) = 3.60457 4.07726 3.84818
# Velocity P-wave (km/s) = 5.72186 6.88036 6.32768
#
# Compressibility (1/GPa) = 0.02575816
#
# Stress axis : x y z
#
# Youngs Moduli (GPa) = 95.01742 112.81666 84.92540
#
# Poissons Ratio (x) = 0.09885 0.12269
# Poissons Ratio (y) = 0.08325 0.03241
# Poissons Ratio (z) = 0.13727 0.04306
#
# Static dielectric constant tensor:
#      x y z
#    x 4.764540 -0.215390 0.096600 
#    y -0.215390 4.321640 0.296180 
#    z 0.096600 0.296180 6.037160 
# 
# 
# High freq. dielectric constant tensor:
#      x y z
#    x 2.010190 -0.003680 -0.001480 
#    y -0.003680 1.981640 0.008470 
#    z -0.001480 0.008470 2.021860 
# 
# From -- ./inp_files/131519.got.cif
#   From: 2010.06.25/outbox.cif.g09.slc.cpg/sg2_66_cif.got.tgz:131519.got - 2010.06.27 13:26:56.
