data_PCOD8029769
_publ_section_title
;
Structure prediction by ZEFSAII (Michael W. Deem and Ramdas Pophale) SiO2 
 PCOD8029769
Probable space group: P -1
;
_chemical_formula_sum "Si O2"
_cell_formula_units_Z 16
_cell_length_a 9.478640
_cell_length_b 11.836149
_cell_length_c 9.765970
_cell_angle_alpha 64.313673
_cell_angle_beta 66.593778
_cell_angle_gamma 103.084995
_cell_volume 793.950586
_symmetry_space_group_name_H-M "P -1"
_symmetry_group_IT_number 2
_symmetry_cell_setting 'triclinic'
loop_
_space_group_symop_operation_xyz
x,y,z
-x,-y,-z
loop_
_atom_site_type_symbol
_atom_site_label
_atom_site_fract_x
_atom_site_fract_y
_atom_site_fract_z
Si Si1 0.806314 0.406461 0.458954
Si Si2 0.410286 0.393593 0.885386
Si Si3 0.503295 0.244907 0.168676
Si Si4 0.580353 0.779156 0.264673
Si Si5 0.369436 0.927793 0.965966
Si Si6 0.314294 0.287794 0.454896
Si Si7 0.988079 0.298344 0.637549
Si Si8 0.801771 0.451588 0.125287
O O1 0.624217 0.301693 0.658347
O O2 0.941633 0.354046 0.486716
O O3 0.761383 0.386754 0.326829
O O4 0.883371 0.571456 0.383049
O O5 0.337173 0.269655 0.863808
O O6 0.583737 0.542287 0.704386
O O7 0.244685 0.421373 0.950559
O O8 0.458231 0.338688 0.032925
O O9 0.519679 0.117899 0.154880
O O10 0.354692 0.198263 0.369801
O O11 0.692292 0.331069 0.120540
O O12 0.609207 0.725218 0.424786
O O13 0.663196 0.950151 0.154554
O O14 0.182003 0.802561 0.154108
O O15 0.500000 0.000000 0.000000
O O16 0.103899 0.225106 0.581057
O O17 0.000000 0.500000 0.000000
#
# Coordination Sequence:
#
# PCOD8029769 Si02
#       8
#     2   2   2   2   2   2   2   2
#     4  11  21  39  66  99 127 169 219 271 316 388
#     4  11  21  39  67  96 130 172 213 270 326 388
#     4  11  24  42  65  97 134 176 211 272 334 388
#     4  12  22  43  71  92 131 178 220 261 326 397
#     4  12  25  45  66  93 134 182 220 258 330 404
#     4  11  23  40  66 103 129 163 222 281 325 377
#     4  11  24  39  68  97 131 170 224 268 320 390
#     4  11  23  36  61 101 137 161 212 276 334 376
#
# _framework density 20.152387999999998
#
# number of rings (size 3 to 8) (size 9 to 14) (size 15 to 20)
#    0.000    0.750    6.250    3.375    5.250    1.000 
#    0.000    0.625    0.000    0.000    0.000    0.000 
#    0.000    0.000    0.000    0.000    0.000    0.000 
#
# Total GULP energy -198309.524593 kJ/mol
# GULP energy per Si atom -12394.345287 kJ/mol
# Density = 2.010652 g / cm^3
# Si number density = 20.152388 Si / 1000 Ang^3
#
#
#
# Elastic Constant Matrix: (Units=GPa)
#
#
# Indices 1 2 3 4 5 6 
#
# 1 112.1456 42.1653 42.4930 12.3559 -11.3678 3.0061
# 2 42.1653 118.9401 34.3941 17.2036 -3.1630 -7.3638
# 3 42.4930 34.3941 65.5234 8.1442 -9.0466 9.8076
# 4 12.3559 17.2036 8.1442 35.0298 1.1414 3.2158
# 5 -11.3678 -3.1630 -9.0466 1.1414 42.0443 15.5818
# 6 3.0061 -7.3638 9.8076 3.2158 15.5818 24.5348
#
#
#
# Elastic Compliance Matrix: (Units=1/GPa)
#
#
# Indices 1 2 3 4 5 6 
#
# 1 0.012653 -0.002423 -0.006234 -0.001805 0.002327 -0.001027
# 2 -0.002423 0.012305 -0.006530 -0.004453 -0.004808 0.010238
# 3 -0.006234 -0.006530 0.026925 0.000521 0.010541 -0.018722
# 4 -0.001805 -0.004453 0.000521 0.031769 0.000602 -0.005870
# 5 0.002327 -0.004808 0.010541 0.000602 0.037318 -0.029721
# 6 -0.001027 0.010238 -0.018722 -0.005870 -0.029721 0.071086
#
#
# Mechanical properties :
#
#
# Convention : Reuss Voigt Hill
#
# Bulk Modulus (GPa) = 46.49479 59.41265 52.95372
# Shear Modulus (GPa) = 21.77688 32.15888 26.96788
#
# Velocity S-wave (km/s) = 3.29083 3.99906 3.66211
# Velocity P-wave (km/s) = 6.12871 7.13225 6.64944
#
# Compressibility (1/GPa) = 0.02150779
#
# Stress axis : x y z
#
# Youngs Moduli (GPa) = 79.03567 81.26664 37.13968
#
# Poissons Ratio (x) = 0.19694 0.23153
# Poissons Ratio (y) = 0.19153 0.24253
# Poissons Ratio (z) = 0.49271 0.53069
#
# Static dielectric constant tensor:
#      x y z
#    x 3.865840 -0.136040 0.102220 
#    y -0.136040 3.838020 -0.111390 
#    z 0.102220 -0.111390 3.570690 
# 
# 
# High freq. dielectric constant tensor:
#      x y z
#    x 1.806740 -0.002910 0.008050 
#    y -0.002910 1.773170 0.021110 
#    z 0.008050 0.021110 1.778740 
# 
# From -- ./inp_files/185789.got.cif
#   From: 2010.06.25/outbox.cif.g09.slc.cpg/sg2_93_cif.got.tgz:185789.got - 2010.06.27 13:26:56.
