data_PCOD8029968
_publ_section_title
;
Structure prediction by ZEFSAII (Michael W. Deem and Ramdas Pophale) SiO2 
 PCOD8029968
Probable space group: P -1
;
_chemical_formula_sum "Si O2"
_cell_formula_units_Z 14
_cell_length_a 12.115912
_cell_length_b 11.742191
_cell_length_c 12.337741
_cell_angle_alpha 144.761446
_cell_angle_beta 38.257492
_cell_angle_gamma 131.090817
_cell_volume 626.470812
_symmetry_space_group_name_H-M "P -1"
_symmetry_group_IT_number 2
_symmetry_cell_setting 'triclinic'
loop_
_space_group_symop_operation_xyz
x,y,z
-x,-y,-z
loop_
_atom_site_type_symbol
_atom_site_label
_atom_site_fract_x
_atom_site_fract_y
_atom_site_fract_z
Si Si1 0.800054 0.528594 0.199436
Si Si2 0.110012 0.611320 0.371361
Si Si3 0.744506 0.797665 0.768376
Si Si4 0.631368 0.325290 0.976140
Si Si5 0.717581 0.202280 0.185718
Si Si6 0.926229 0.215051 0.244373
Si Si7 0.662687 0.900063 0.676262
O O1 0.739254 0.392345 0.240675
O O2 0.804668 0.758505 0.406018
O O3 0.677468 0.492815 0.160166
O O4 0.000000 0.500000 0.000000
O O5 0.273209 0.625278 0.172812
O O6 0.159178 0.755382 0.547399
O O7 0.915505 0.666735 0.516552
O O8 0.090346 0.379832 0.239975
O O9 0.635088 0.843117 0.778810
O O10 0.585467 0.696169 0.887185
O O11 0.823518 0.008351 0.917878
O O12 0.723761 0.128334 0.795273
O O13 0.776667 0.261688 0.307334
O O14 0.512139 0.135095 0.288870
O O15 0.000000 0.000000 0.000000
#
# Coordination Sequence:
#
# PCOD8029968 Si02
#       7
#     2   2   2   2   2   2   2
#     4  12  24  36  65 102 131 170 214 265 328 398
#     4  11  26  44  71  94 128 181 213 275 333 369
#     4  11  21  43  70  95 138 174 208 270 332 390
#     4  11  24  42  63 104 134 162 224 265 322 400
#     4  11  21  41  67  93 130 175 216 267 327 387
#     4  11  24  46  70  92 129 174 228 270 320 388
#     4  11  23  40  66  97 137 176 203 266 340 384
#
# _framework density 22.347408999999999
#
# number of rings (size 3 to 8) (size 9 to 14) (size 15 to 20)
#    0.000    0.857    4.286    3.857    4.000    2.286 
#    0.000    5.714    3.143    0.000    0.000    0.000 
#    0.000    0.000    0.000    0.000    0.000    0.000 
#
# Total GULP energy -173540.402455 kJ/mol
# GULP energy per Si atom -12395.743033 kJ/mol
# Density = 2.229654 g / cm^3
# Si number density = 22.347409 Si / 1000 Ang^3
#
#
#
# Elastic Constant Matrix: (Units=GPa)
#
#
# Indices 1 2 3 4 5 6 
#
# 1 109.8850 -1.8374 18.2195 -14.6167 34.8913 2.4107
# 2 -1.8374 57.9200 31.3573 -3.9983 12.1940 -6.2849
# 3 18.2195 31.3573 72.6636 2.5376 9.6054 -3.2704
# 4 -14.6167 -3.9983 2.5376 44.1604 -0.2833 6.5117
# 5 34.8913 12.1940 9.6054 -0.2833 35.5621 -2.9447
# 6 2.4107 -6.2849 -3.2704 6.5117 -2.9447 26.0303
#
#
#
# Elastic Compliance Matrix: (Units=1/GPa)
#
#
# Indices 1 2 3 4 5 6 
#
# 1 0.016803 0.007240 -0.005422 0.007044 -0.017801 -0.004265
# 2 0.007240 0.027254 -0.011962 0.005228 -0.013041 0.001624
# 3 -0.005422 -0.011962 0.019960 -0.004242 0.004133 0.001650
# 4 0.007044 0.005228 -0.004242 0.026750 -0.007967 -0.007516
# 5 -0.017801 -0.013041 0.004133 -0.007967 0.049424 0.006603
# 6 -0.004265 0.001624 0.001650 -0.007516 0.006603 0.042038
#
#
# Mechanical properties :
#
#
# Convention : Reuss Voigt Hill
#
# Bulk Modulus (GPa) = 22.86869 37.32750 30.09810
# Shear Modulus (GPa) = 23.03145 33.99917 28.51531
#
# Velocity S-wave (km/s) = 3.21379 3.90473 3.57599
# Velocity P-wave (km/s) = 4.90171 6.08842 5.52701
#
# Compressibility (1/GPa) = 0.04372790
#
# Stress axis : x y z
#
# Youngs Moduli (GPa) = 59.51157 36.69240 50.10096
#
# Poissons Ratio (x) = -0.26565 0.27166
# Poissons Ratio (y) = -0.43085 0.59930
# Poissons Ratio (z) = 0.32269 0.43891
#
# Static dielectric constant tensor:
#      x y z
#    x 4.132020 0.145870 0.321760 
#    y 0.145870 4.405260 0.654180 
#    z 0.321760 0.654180 4.351980 
# 
# 
# High freq. dielectric constant tensor:
#      x y z
#    x 1.878860 0.003600 0.010980 
#    y 0.003600 1.867630 0.022650 
#    z 0.010980 0.022650 1.888360 
# 
# From -- ./inp_files/273134.got.cif
#   From: 2010.06.25/outbox.cif.g09.slc.cpg/sg2_137_cif.got.tgz:273134.got - 2010.06.27 13:26:56.
