data_PCOD8029739
_publ_section_title
;
Structure prediction by ZEFSAII (Michael W. Deem and Ramdas Pophale) SiO2 
 PCOD8029739
Probable space group: P -1
;
_chemical_formula_sum "Si O2"
_cell_formula_units_Z 16
_cell_length_a 5.346327
_cell_length_b 12.606452
_cell_length_c 22.643101
_cell_angle_alpha 32.806561
_cell_angle_beta 116.311656
_cell_angle_gamma 103.752183
_cell_volume 712.049505
_symmetry_space_group_name_H-M "P -1"
_symmetry_group_IT_number 2
_symmetry_cell_setting 'triclinic'
loop_
_space_group_symop_operation_xyz
x,y,z
-x,-y,-z
loop_
_atom_site_type_symbol
_atom_site_label
_atom_site_fract_x
_atom_site_fract_y
_atom_site_fract_z
Si Si1 0.978023 0.267066 0.682381
Si Si2 0.839227 0.234151 0.885737
Si Si3 0.762724 0.530819 0.132984
Si Si4 0.812128 0.637996 0.964758
Si Si5 0.326775 0.851038 0.733326
Si Si6 0.778728 0.143387 0.051366
Si Si7 0.514894 0.551089 0.360472
Si Si8 0.246039 0.893872 0.383025
O O1 0.697917 0.386043 0.635120
O O2 0.875989 0.164820 0.663445
O O3 0.171206 0.411108 0.612229
O O4 0.192820 0.095505 0.826968
O O5 0.608127 0.323645 0.769575
O O6 0.044305 0.387380 0.838101
O O7 0.692611 0.229040 0.936210
O O8 0.000000 0.000000 0.000000
O O9 0.714995 0.310370 0.246633
O O10 0.887277 0.491299 0.098214
O O11 0.475698 0.714369 0.003254
O O12 0.482437 0.724046 0.866816
O O13 0.916277 0.835419 0.901825
O O14 0.000000 0.500000 0.000000
O O15 0.535012 0.970968 0.669538
O O16 0.017268 0.995419 0.653311
O O17 0.570572 0.310387 0.468814
#
# Coordination Sequence:
#
# PCOD8029739 Si02
#       8
#     2   2   2   2   2   2   2   2
#     4  12  24  43  71 103 137 173 229 284 352 410
#     4  11  25  46  68  99 137 179 231 283 348 403
#     4  11  25  39  67 104 139 180 225 284 343 411
#     4  11  21  39  63 105 143 178 212 281 350 410
#     4  12  24  43  69 102 141 180 228 275 344 416
#     4  11  23  38  70 101 138 173 222 278 353 413
#     4  12  27  47  69  98 138 184 234 286 333 409
#     4  12  26  45  71 100 138 185 228 280 346 405
#
# _framework density 22.470344999999998
#
# number of rings (size 3 to 8) (size 9 to 14) (size 15 to 20)
#    0.000    0.500    3.750    4.875    5.250    1.000 
#    0.000    1.250    0.000    0.000    0.000    0.000 
#    0.000    0.000    0.000    0.000    0.000    0.000 
#
# Total GULP energy -198309.381448 kJ/mol
# GULP energy per Si atom -12394.336340 kJ/mol
# Density = 2.241920 g / cm^3
# Si number density = 22.470345 Si / 1000 Ang^3
#
#
#
# Elastic Constant Matrix: (Units=GPa)
#
#
# Indices 1 2 3 4 5 6 
#
# 1 132.6501 39.0044 27.0655 -22.6318 5.5336 8.6172
# 2 39.0044 95.1603 31.3364 -16.2280 -7.7104 17.4916
# 3 27.0655 31.3364 114.1657 -13.8558 7.4968 6.2798
# 4 -22.6318 -16.2280 -13.8558 38.3257 2.1370 -5.8102
# 5 5.5336 -7.7104 7.4968 2.1370 29.8928 -15.1057
# 6 8.6172 17.4916 6.2798 -5.8102 -15.1057 32.3413
#
#
#
# Elastic Compliance Matrix: (Units=1/GPa)
#
#
# Indices 1 2 3 4 5 6 
#
# 1 0.009487 -0.002962 -0.000617 0.004060 -0.003527 -0.001724
# 2 -0.002962 0.014107 -0.002768 0.002367 0.002280 -0.004813
# 3 -0.000617 -0.002768 0.010319 0.002135 -0.004345 -0.001988
# 4 0.004060 0.002367 0.002135 0.030649 -0.001948 0.001820
# 5 -0.003527 0.002280 -0.004345 -0.001948 0.047153 0.022225
# 6 -0.001724 -0.004813 -0.001988 0.001820 0.022225 0.045076
#
#
# Mechanical properties :
#
#
# Convention : Reuss Voigt Hill
#
# Bulk Modulus (GPa) = 47.12472 59.64320 53.38396
# Shear Modulus (GPa) = 28.31931 36.41662 32.36796
#
# Velocity S-wave (km/s) = 3.55392 4.03010 3.79948
# Velocity P-wave (km/s) = 6.15288 6.94668 6.56179
#
# Compressibility (1/GPa) = 0.02122029
#
# Stress axis : x y z
#
# Youngs Moduli (GPa) = 105.40368 70.88641 96.90916
#
# Poissons Ratio (x) = 0.20996 0.05979
# Poissons Ratio (y) = 0.31220 0.26821
# Poissons Ratio (z) = 0.06503 0.19619
#
# Static dielectric constant tensor:
#      x y z
#    x 4.226370 0.056200 -0.214330 
#    y 0.056200 4.270860 -0.245270 
#    z -0.214330 -0.245270 4.587180 
# 
# 
# High freq. dielectric constant tensor:
#      x y z
#    x 1.895950 0.005950 -0.004110 
#    y 0.005950 1.883730 -0.023070 
#    z -0.004110 -0.023070 1.878810 
# 
# From -- ./inp_files/69774.got.cif
#   From: 2010.06.25/outbox.cif.g09.slc.cpg/sg2_35_cif.got.tgz:69774.got - 2010.06.27 13:26:56.
