data_PCOD8029694
_publ_section_title
;
Structure prediction by ZEFSAII (Michael W. Deem and Ramdas Pophale) SiO2 
 PCOD8029694
Probable space group: P -1
;
_chemical_formula_sum "Si O2"
_cell_formula_units_Z 16
_cell_length_a 12.746067
_cell_length_b 9.893597
_cell_length_c 14.784922
_cell_angle_alpha 64.243727
_cell_angle_beta 151.781377
_cell_angle_gamma 98.184598
_cell_volume 655.214790
_symmetry_space_group_name_H-M "P -1"
_symmetry_group_IT_number 2
_symmetry_cell_setting 'triclinic'
loop_
_space_group_symop_operation_xyz
x,y,z
-x,-y,-z
loop_
_atom_site_type_symbol
_atom_site_label
_atom_site_fract_x
_atom_site_fract_y
_atom_site_fract_z
Si Si1 0.667979 0.473710 0.724484
Si Si2 0.271654 0.210675 0.954112
Si Si3 0.943481 0.749890 0.534483
Si Si4 0.815796 0.978148 0.199055
Si Si5 0.710531 0.514845 0.424769
Si Si6 0.730142 0.796039 0.699108
Si Si7 0.508088 0.352161 0.962331
Si Si8 0.741785 0.979934 0.486802
O O1 0.500000 0.500000 0.500000
O O2 0.555284 0.422014 0.738501
O O3 0.627813 0.664813 0.661679
O O4 0.983191 0.307058 0.000033
O O5 0.325732 0.345579 0.902655
O O6 0.356745 0.034665 0.007959
O O7 0.955129 0.317053 0.702373
O O8 0.427789 0.144858 0.187928
O O9 0.881534 0.823096 0.365000
O O10 0.802234 0.648180 0.478156
O O11 0.842353 0.913354 0.480402
O O12 0.271861 0.621849 0.831354
O O13 0.088357 0.942636 0.372101
O O14 0.642142 0.175465 0.051925
O O15 0.671870 0.493106 0.294476
O O16 0.782835 0.820829 0.627779
O O17 0.500000 0.000000 0.500000
#
# Coordination Sequence:
#
# PCOD8029694 Si02
#       8
#     2   2   2   2   2   2   2   2
#     4  11  27  54  77 108 149 187 246 317 374 435
#     4  12  24  38  62 101 141 181 227 284 342 427
#     4  11  21  40  66  93 137 187 226 277 350 426
#     4  11  21  38  65  95 135 179 234 285 334 422
#     4  12  27  40  64 100 140 183 226 290 362 419
#     4  11  28  52  82 109 140 191 253 311 371 441
#     4  11  21  41  62  94 139 185 230 276 346 416
#     4  11  23  43  68 100 132 182 236 288 355 422
#
# _framework density 24.419471999999999
#
# number of rings (size 3 to 8) (size 9 to 14) (size 15 to 20)
#    0.000    0.750    3.750    4.500    3.500    4.000 
#    0.000    0.000    0.000    0.000    0.000    0.000 
#    0.000    0.000    0.000    0.000    0.000    0.000 
#
# Total GULP energy -198389.253903 kJ/mol
# GULP energy per Si atom -12399.328369 kJ/mol
# Density = 2.436389 g / cm^3
# Si number density = 24.419472 Si / 1000 Ang^3
#
#
#
# Elastic Constant Matrix: (Units=GPa)
#
#
# Indices 1 2 3 4 5 6 
#
# 1 61.7134 21.8476 22.0314 7.3884 -3.3463 26.9881
# 2 21.8476 102.6120 27.3880 10.5089 9.1802 23.7798
# 3 22.0314 27.3880 145.1198 8.7848 -4.9481 10.6671
# 4 7.3884 10.5089 8.7848 43.2112 -1.6370 6.6908
# 5 -3.3463 9.1802 -4.9481 -1.6370 39.5618 2.6019
# 6 26.9881 23.7798 10.6671 6.6908 2.6019 31.8486
#
#
#
# Elastic Compliance Matrix: (Units=1/GPa)
#
#
# Indices 1 2 3 4 5 6 
#
# 1 0.027041 -0.000284 -0.002274 -0.000535 0.003501 -0.022114
# 2 -0.000284 0.012513 -0.001732 -0.001508 -0.002681 -0.007987
# 3 -0.002274 -0.001732 0.007593 -0.000810 0.001076 0.000759
# 4 -0.000535 -0.001508 -0.000810 0.024343 0.001433 -0.003380
# 5 0.003501 -0.002681 0.001076 0.001433 0.026639 -0.003802
# 6 -0.022114 -0.007987 0.000759 -0.003380 -0.003802 0.056867
#
#
# Mechanical properties :
#
#
# Convention : Reuss Voigt Hill
#
# Bulk Modulus (GPa) = 25.92870 50.21993 38.07432
# Shear Modulus (GPa) = 28.33954 38.80286 33.57120
#
# Velocity S-wave (km/s) = 3.41035 3.99057 3.71181
# Velocity P-wave (km/s) = 5.11355 6.46862 5.83058
#
# Compressibility (1/GPa) = 0.03856730
#
# Stress axis : x y z
#
# Youngs Moduli (GPa) = 36.98076 79.91541 131.70291
#
# Poissons Ratio (x) = 0.02269 0.29954
# Poissons Ratio (y) = 0.01050 0.22805
# Poissons Ratio (z) = 0.08411 0.13838
#
# Static dielectric constant tensor:
#      x y z
#    x 4.216130 0.088560 -0.008970 
#    y 0.088560 4.332310 0.255110 
#    z -0.008970 0.255110 5.158370 
# 
# 
# High freq. dielectric constant tensor:
#      x y z
#    x 1.942740 0.005700 0.005090 
#    y 0.005700 1.976210 0.009180 
#    z 0.005090 0.009180 2.001310 
# 
# From -- ./inp_files/519648.got.cif
#   From: 2010.06.25/outbox.cif.g09.slc.cpg/sg2_260_cif.got.tgz:519648.got - 2010.06.27 13:26:56.
