data_PCOD8029754
_publ_section_title
;
Structure prediction by ZEFSAII (Michael W. Deem and Ramdas Pophale) SiO2 
 PCOD8029754
Probable space group: P -1
;
_chemical_formula_sum "Si O2"
_cell_formula_units_Z 16
_cell_length_a 12.104238
_cell_length_b 15.973864
_cell_length_c 9.490184
_cell_angle_alpha 46.000594
_cell_angle_beta 138.475720
_cell_angle_gamma 137.085339
_cell_volume 783.553541
_symmetry_space_group_name_H-M "P -1"
_symmetry_group_IT_number 2
_symmetry_cell_setting 'triclinic'
loop_
_space_group_symop_operation_xyz
x,y,z
-x,-y,-z
loop_
_atom_site_type_symbol
_atom_site_label
_atom_site_fract_x
_atom_site_fract_y
_atom_site_fract_z
Si Si1 0.162651 0.564028 0.694624
Si Si2 0.204168 0.896840 0.157379
Si Si3 0.789321 0.841742 0.167821
Si Si4 0.836395 0.688439 0.937458
Si Si5 0.803442 0.871721 0.463585
Si Si6 0.143027 0.801335 0.508321
Si Si7 0.404197 0.039319 0.631168
Si Si8 0.432710 0.255242 0.198736
O O1 0.120303 0.654802 0.658763
O O2 0.350628 0.648995 0.687008
O O3 0.000000 0.500000 0.500000
O O4 0.191432 0.457923 0.941769
O O5 0.255592 0.872980 0.391566
O O6 0.385954 0.943025 0.177804
O O7 0.045481 0.763690 0.105018
O O8 0.124126 0.002909 0.953364
O O9 0.734217 0.811896 0.313378
O O10 0.939701 0.793628 0.323233
O O11 0.610668 0.770345 0.979922
O O12 0.813327 0.754352 0.695894
O O13 0.689683 0.680619 0.925555
O O14 0.649129 0.910337 0.335525
O O15 0.000000 0.000000 0.500000
O O16 0.264316 0.886425 0.655592
O O17 0.378716 0.118403 0.383075
#
# Coordination Sequence:
#
# PCOD8029754 Si02
#       8
#     2   2   2   2   2   2   2   2
#     4  12  23  39  62  95 125 157 206 258 308 364
#     4  12  20  36  63  95 123 152 204 263 308 357
#     4  12  22  38  64  92 123 165 204 251 311 362
#     4  11  23  40  62  90 124 165 208 249 304 366
#     4  11  23  42  62  89 128 166 205 250 303 370
#     4  12  21  36  61  95 127 154 200 261 310 361
#     4  11  22  37  64  97 124 155 203 262 313 353
#     4  11  21  39  65  92 122 160 204 260 309 360
#
# _framework density 20.419792000000001
#
# number of rings (size 3 to 8) (size 9 to 14) (size 15 to 20)
#    0.000    0.500    7.500    2.625    0.000    0.500 
#    0.000    1.250    0.000    0.000    0.000    0.000 
#    0.000    0.000    0.000    0.000    0.000    0.000 
#
# Total GULP energy -198440.781594 kJ/mol
# GULP energy per Si atom -12402.548850 kJ/mol
# Density = 2.037332 g / cm^3
# Si number density = 20.419792 Si / 1000 Ang^3
#
#
#
# Elastic Constant Matrix: (Units=GPa)
#
#
# Indices 1 2 3 4 5 6 
#
# 1 108.0860 46.8706 48.7090 4.6168 7.7505 -10.9992
# 2 46.8706 114.1396 46.3414 -16.2336 12.5068 -8.8456
# 3 48.7090 46.3414 68.3008 -9.8526 1.0217 -14.4805
# 4 4.6168 -16.2336 -9.8526 46.1895 -0.2765 15.2188
# 5 7.7505 12.5068 1.0217 -0.2765 43.0877 0.9119
# 6 -10.9992 -8.8456 -14.4805 15.2188 0.9119 25.5189
#
#
#
# Elastic Compliance Matrix: (Units=1/GPa)
#
#
# Indices 1 2 3 4 5 6 
#
# 1 0.015342 -0.003031 -0.008831 -0.005844 -0.001795 0.004100
# 2 -0.003031 0.013621 -0.007051 0.004634 -0.003143 -0.003237
# 3 -0.008831 -0.007051 0.027694 0.001548 0.002810 0.008441
# 4 -0.005844 0.004634 0.001548 0.030129 0.000244 -0.018011
# 5 -0.001795 -0.003143 0.002810 0.000244 0.024406 -0.001286
# 6 0.004100 -0.003237 0.008441 -0.018011 -0.001286 0.055409
#
#
# Mechanical properties :
#
#
# Convention : Reuss Voigt Hill
#
# Bulk Modulus (GPa) = 53.10692 63.81870 58.46281
# Shear Modulus (GPa) = 23.72992 32.86625 28.29809
#
# Velocity S-wave (km/s) = 3.41266 4.01625 3.72669
# Velocity P-wave (km/s) = 6.44922 7.26830 6.87097
#
# Compressibility (1/GPa) = 0.01882994
#
# Stress axis : x y z
#
# Youngs Moduli (GPa) = 65.18152 73.41433 36.10879
#
# Poissons Ratio (x) = 0.22253 0.31889
# Poissons Ratio (y) = 0.19758 0.25461
# Poissons Ratio (z) = 0.57564 0.51765
#
# Static dielectric constant tensor:
#      x y z
#    x 3.756020 -0.103120 0.153540 
#    y -0.103120 3.642770 -0.151550 
#    z 0.153540 -0.151550 3.683690 
# 
# 
# High freq. dielectric constant tensor:
#      x y z
#    x 1.792500 -0.006260 0.023780 
#    y -0.006260 1.787280 -0.004960 
#    z 0.023780 -0.004960 1.796150 
# 
# From -- ./inp_files/208418.got.cif
#   From: 2010.06.25/outbox.cif.g09.slc.cpg/sg2_105_cif.got.tgz:208418.got - 2010.06.27 13:26:56.
