data_PCOD8029270
_publ_section_title
;
Structure prediction by ZEFSAII (Michael W. Deem and Ramdas Pophale) SiO2 
 PCOD8029270
Probable space group: P -1
;
_chemical_formula_sum "Si O2"
_cell_formula_units_Z 16
_cell_length_a 8.756190
_cell_length_b 14.206403
_cell_length_c 14.037617
_cell_angle_alpha 114.609319
_cell_angle_beta 151.387667
_cell_angle_gamma 73.456683
_cell_volume 747.045865
_symmetry_space_group_name_H-M "P -1"
_symmetry_group_IT_number 2
_symmetry_cell_setting 'triclinic'
loop_
_space_group_symop_operation_xyz
x,y,z
-x,-y,-z
loop_
_atom_site_type_symbol
_atom_site_label
_atom_site_fract_x
_atom_site_fract_y
_atom_site_fract_z
Si Si1 0.809890 0.065709 0.489811
Si Si2 0.638622 0.597097 0.550731
Si Si3 0.599524 0.773828 0.742067
Si Si4 0.571069 0.560132 0.283827
Si Si5 0.220635 0.915918 0.102850
Si Si6 0.296781 0.662367 0.712923
Si Si7 0.453017 0.197609 0.923184
Si Si8 0.640740 0.398800 0.005848
O O1 0.613202 0.136012 0.347234
O O2 0.092743 0.138648 0.736393
O O3 0.541117 0.978372 0.362509
O O4 0.000000 0.000000 0.500000
O O5 0.500000 0.500000 0.500000
O O6 0.560211 0.704928 0.594890
O O7 0.483989 0.583411 0.354660
O O8 0.023288 0.601484 0.755509
O O9 0.479727 0.697866 0.730906
O O10 0.988399 0.820106 0.989890
O O11 0.557149 0.435729 0.207789
O O12 0.320960 0.598024 0.087681
O O13 0.918224 0.626126 0.470176
O O14 0.342797 0.877709 0.052208
O O15 0.000000 0.000000 0.000000
O O16 0.352237 0.759081 0.857650
O O17 0.402018 0.292159 0.863595
O O18 0.500000 0.500000 0.000000
#
# Coordination Sequence:
#
# PCOD8029270 Si02
#       8
#     2   2   2   2   2   2   2   2
#     4   9  21  39  65  91 115 163 221 267 321 380
#     4  12  25  41  61  96 137 172 208 261 320 374
#     4  11  21  40  64  91 129 170 207 268 331 371
#     4  11  22  40  60  91 137 176 216 250 304 385
#     4   9  19  40  63  84 121 164 212 275 331 366
#     4  11  21  37  62  93 128 172 214 258 314 387
#     4  11  20  39  64  94 124 167 221 257 318 388
#     4  12  23  39  66  93 131 178 215 256 306 385
#
# _framework density 21.417694999999998
#
# number of rings (size 3 to 8) (size 9 to 14) (size 15 to 20)
#    0.000    1.250    5.000    1.500    1.750    0.500 
#    2.250    6.250    0.000    6.000    0.000    0.000 
#    0.000    0.000    0.000    0.000    0.000    0.000 
#
# Total GULP energy -198262.509770 kJ/mol
# GULP energy per Si atom -12391.406861 kJ/mol
# Density = 2.136895 g / cm^3
# Si number density = 21.417695 Si / 1000 Ang^3
#
#
#
# Elastic Constant Matrix: (Units=GPa)
#
#
# Indices 1 2 3 4 5 6 
#
# 1 94.2204 24.5405 35.1043 11.7256 -0.0972 -4.8344
# 2 24.5405 81.3043 28.9769 13.8925 -1.4540 -27.2704
# 3 35.1043 28.9769 88.6999 23.0131 10.0038 -3.1253
# 4 11.7256 13.8925 23.0131 35.9442 9.6586 3.7084
# 5 -0.0972 -1.4540 10.0038 9.6586 43.6432 2.1847
# 6 -4.8344 -27.2704 -3.1253 3.7084 2.1847 30.3650
#
#
#
# Elastic Compliance Matrix: (Units=1/GPa)
#
#
# Indices 1 2 3 4 5 6 
#
# 1 0.012898 -0.002389 -0.004260 -0.000808 0.001130 -0.000513
# 2 -0.002389 0.022732 -0.003885 -0.008290 0.002452 0.020471
# 3 -0.004260 -0.003885 0.016169 -0.006689 -0.002289 -0.001522
# 4 -0.000808 -0.008290 -0.006689 0.038654 -0.006673 -0.012503
# 5 0.001130 0.002452 -0.002289 -0.006673 0.024940 0.001167
# 6 -0.000513 0.020471 -0.001522 -0.012503 0.001167 0.052522
#
#
# Mechanical properties :
#
#
# Convention : Reuss Voigt Hill
#
# Bulk Modulus (GPa) = 32.54058 49.05200 40.79629
# Shear Modulus (GPa) = 25.09694 33.69734 29.39714
#
# Velocity S-wave (km/s) = 3.42685 3.97084 3.70883
# Velocity P-wave (km/s) = 5.55734 6.63142 6.11799
#
# Compressibility (1/GPa) = 0.03073086
#
# Stress axis : x y z
#
# Youngs Moduli (GPa) = 77.53023 43.99142 61.84584
#
# Poissons Ratio (x) = 0.10507 0.26349
# Poissons Ratio (y) = 0.18518 0.24029
# Poissons Ratio (z) = 0.33031 0.17092
#
# Static dielectric constant tensor:
#      x y z
#    x 3.672750 -0.136410 0.747760 
#    y -0.136410 3.836080 0.820310 
#    z 0.747760 0.820310 4.519270 
# 
# 
# High freq. dielectric constant tensor:
#      x y z
#    x 1.826640 -0.010540 0.020150 
#    y -0.010540 1.842220 0.029740 
#    z 0.020150 0.029740 1.843330 
# 
# From -- ./inp_files/218403.got.cif
#   From: 2010.06.25/outbox.cif.g09.slc.cpg/sg2_110_cif.got.tgz:218403.got - 2010.06.27 13:26:56.
