data_PCOD8029368
_publ_section_title
;
Structure prediction by ZEFSAII (Michael W. Deem and Ramdas Pophale) SiO2 
 PCOD8029368
Probable space group: P -1
;
_chemical_formula_sum "Si O2"
_cell_formula_units_Z 16
_cell_length_a 5.539647
_cell_length_b 14.325165
_cell_length_c 9.227375
_cell_angle_alpha 75.086923
_cell_angle_beta 100.864008
_cell_angle_gamma 104.721705
_cell_volume 678.397452
_symmetry_space_group_name_H-M "P -1"
_symmetry_group_IT_number 2
_symmetry_cell_setting 'triclinic'
loop_
_space_group_symop_operation_xyz
x,y,z
-x,-y,-z
loop_
_atom_site_type_symbol
_atom_site_label
_atom_site_fract_x
_atom_site_fract_y
_atom_site_fract_z
Si Si1 0.602530 0.058953 0.844178
Si Si2 0.634343 0.707264 0.657361
Si Si3 0.897855 0.795969 0.081437
Si Si4 0.628339 0.482418 0.170434
Si Si5 0.210664 0.582165 0.167137
Si Si6 0.549480 0.744115 0.304604
Si Si7 0.553623 0.861835 0.794916
Si Si8 0.094105 0.702774 0.872483
O O1 0.449153 0.139341 0.742139
O O2 0.888179 0.112494 0.882167
O O3 0.580054 0.980014 0.739809
O O4 0.500000 0.000000 0.000000
O O5 0.399479 0.634213 0.741232
O O6 0.595754 0.707026 0.483433
O O7 0.669805 0.817926 0.684944
O O8 0.883900 0.666087 0.741015
O O9 0.779701 0.730737 0.232894
O O10 0.681117 0.843398 0.967855
O O11 0.964160 0.720207 0.003349
O O12 0.438898 0.524704 0.243966
O O13 0.927401 0.527313 0.201047
O O14 0.500000 0.500000 0.000000
O O15 0.285001 0.681431 0.236110
O O16 0.220067 0.612619 0.979997
O O17 0.264476 0.805243 0.797867
#
# Coordination Sequence:
#
# PCOD8029368 Si02
#       8
#     2   2   2   2   2   2   2   2
#     4  12  22  40  73 107 130 185 246 293 353 430
#     4  11  29  45  65 105 150 184 229 306 369 423
#     4  11  20  40  71 101 137 183 235 299 348 430
#     4  12  26  45  79 108 139 192 250 301 361 432
#     4  12  24  46  77 106 139 190 252 294 353 439
#     4  12  27  44  68 107 147 185 232 299 371 421
#     4  11  23  42  71  99 138 183 241 291 353 433
#     4  11  21  43  72 102 135 188 238 294 355 430
#
# _framework density 23.584994999999999
#
# number of rings (size 3 to 8) (size 9 to 14) (size 15 to 20)
#    0.000    0.500    6.250    2.250    1.750    2.500 
#    0.000    1.250    0.000    0.000    0.000    0.000 
#    0.000    0.000    0.000    0.000    0.000    0.000 
#
# Total GULP energy -198334.509647 kJ/mol
# GULP energy per Si atom -12395.906853 kJ/mol
# Density = 2.353131 g / cm^3
# Si number density = 23.584995 Si / 1000 Ang^3
#
#
#
# Elastic Constant Matrix: (Units=GPa)
#
#
# Indices 1 2 3 4 5 6 
#
# 1 118.3423 35.2013 32.5878 1.3432 4.7359 29.2354
# 2 35.2013 114.5970 17.2768 -0.6711 9.1537 15.0588
# 3 32.5878 17.2768 134.4604 -2.4822 10.1643 17.2285
# 4 1.3432 -0.6711 -2.4822 20.5387 2.0299 1.7206
# 5 4.7359 9.1537 10.1643 2.0299 25.1735 1.2874
# 6 29.2354 15.0588 17.2285 1.7206 1.2874 51.4475
#
#
#
# Elastic Compliance Matrix: (Units=1/GPa)
#
#
# Indices 1 2 3 4 5 6 
#
# 1 0.010854 -0.002428 -0.001692 -0.000568 -0.000181 -0.004867
# 2 -0.002428 0.009944 -0.000264 0.000870 -0.003051 -0.001395
# 3 -0.001692 -0.000264 0.008359 0.001554 -0.002997 -0.001738
# 4 -0.000568 0.000870 0.001554 0.049577 -0.004733 -0.001992
# 5 -0.000181 -0.003051 -0.002997 -0.004733 0.042404 0.001097
# 6 -0.004867 -0.001395 -0.001738 -0.001992 0.001097 0.023233
#
#
# Mechanical properties :
#
#
# Convention : Reuss Voigt Hill
#
# Bulk Modulus (GPa) = 49.04439 59.72572 54.38505
# Shear Modulus (GPa) = 31.26277 38.25419 34.75848
#
# Velocity S-wave (km/s) = 3.64474 4.03174 3.84312
# Velocity P-wave (km/s) = 6.20903 6.85943 6.54232
#
# Compressibility (1/GPa) = 0.02038969
#
# Stress axis : x y z
#
# Youngs Moduli (GPa) = 92.12886 100.56211 119.63223
#
# Poissons Ratio (x) = 0.24421 0.20239
# Poissons Ratio (y) = 0.22373 0.03154
# Poissons Ratio (z) = 0.15586 0.02652
#
# Static dielectric constant tensor:
#      x y z
#    x 4.710740 -0.425620 0.042060 
#    y -0.425620 5.052470 0.060760 
#    z 0.042060 0.060760 3.755000 
# 
# 
# High freq. dielectric constant tensor:
#      x y z
#    x 1.952660 -0.006050 -0.002190 
#    y -0.006050 1.954530 0.009540 
#    z -0.002190 0.009540 1.886700 
# 
# From -- ./inp_files/39422.got.cif
#   From: 2010.06.25/outbox.cif.g09.slc.cpg/sg2_20_cif.got.tgz:39422.got - 2010.06.27 13:26:56.
