data_PCOD8029454
_publ_section_title
;
Structure prediction by ZEFSAII (Michael W. Deem and Ramdas Pophale) SiO2 
 PCOD8029454
Probable space group: P -1
;
_chemical_formula_sum "Si O2"
_cell_formula_units_Z 16
_cell_length_a 19.513887
_cell_length_b 8.140229
_cell_length_c 6.984385
_cell_angle_alpha 56.079780
_cell_angle_beta 109.659272
_cell_angle_gamma 77.997702
_cell_volume 747.615047
_symmetry_space_group_name_H-M "P -1"
_symmetry_group_IT_number 2
_symmetry_cell_setting 'triclinic'
loop_
_space_group_symop_operation_xyz
x,y,z
-x,-y,-z
loop_
_atom_site_type_symbol
_atom_site_label
_atom_site_fract_x
_atom_site_fract_y
_atom_site_fract_z
Si Si1 0.826358 0.637032 0.311664
Si Si2 0.338060 0.963633 0.254358
Si Si3 0.493287 0.817967 0.245437
Si Si4 0.195437 0.683324 0.754288
Si Si5 0.429705 0.495958 0.812116
Si Si6 0.374082 0.317434 0.209205
Si Si7 0.937242 0.437215 0.218660
Si Si8 0.114345 0.210457 0.387463
O O1 0.797384 0.446481 0.362429
O O2 0.915648 0.542396 0.345588
O O3 0.837821 0.683752 0.513176
O O4 0.758246 0.884300 0.000744
O O5 0.398080 0.901695 0.164687
O O6 0.349665 0.746579 0.527714
O O7 0.360189 0.103064 0.337212
O O8 0.527633 0.594646 0.293608
O O9 0.551256 0.742543 0.536557
O O10 0.500000 0.000000 0.000000
O O11 0.123709 0.666410 0.821010
O O12 0.172721 0.946069 0.551155
O O13 0.286364 0.546979 0.034411
O O14 0.500000 0.500000 0.000000
O O15 0.399000 0.345353 0.996652
O O16 0.034615 0.239370 0.416564
O O17 0.917598 0.648730 0.927262
#
# Coordination Sequence:
#
# PCOD8029454 Si02
#       8
#     2   2   2   2   2   2   2   2
#     4   9  23  41  60  95 125 158 209 257 305 372
#     4  11  23  44  59  90 127 157 208 261 303 367
#     4  12  24  40  64  88 120 166 205 248 312 364
#     4   9  23  40  62  94 126 160 209 256 306 373
#     4  12  25  40  65  87 121 167 211 254 306 370
#     4  11  24  44  59  91 126 161 207 260 306 362
#     4   9  22  42  60  99 121 161 214 246 311 386
#     4  11  20  42  68  85 132 164 197 263 313 365
#
# _framework density 21.401388000000001
#
# number of rings (size 3 to 8) (size 9 to 14) (size 15 to 20)
#    0.750    0.750    2.500    2.250    3.500    1.000 
#    2.250    1.250    0.000    0.000    0.000    0.000 
#    0.000    0.000    0.000    0.000    0.000    0.000 
#
# Total GULP energy -198238.911729 kJ/mol
# GULP energy per Si atom -12389.931983 kJ/mol
# Density = 2.135268 g / cm^3
# Si number density = 21.401388 Si / 1000 Ang^3
#
#
#
# Elastic Constant Matrix: (Units=GPa)
#
#
# Indices 1 2 3 4 5 6 
#
# 1 37.2843 -5.7068 -5.5619 1.1042 6.8894 -6.5303
# 2 -5.7068 107.6989 32.0570 -8.1003 4.8305 -3.5811
# 3 -5.5619 32.0570 62.8954 -7.4693 -3.5610 -3.1828
# 4 1.1042 -8.1003 -7.4693 32.7658 -2.4329 2.3791
# 5 6.8894 4.8305 -3.5610 -2.4329 28.2231 -6.5851
# 6 -6.5303 -3.5811 -3.1828 2.3791 -6.5851 23.3394
#
#
#
# Elastic Compliance Matrix: (Units=1/GPa)
#
#
# Indices 1 2 3 4 5 6 
#
# 1 0.029668 0.001445 0.001795 -0.001183 -0.005664 0.007290
# 2 0.001445 0.011260 -0.005600 0.001219 -0.002774 0.000462
# 3 0.001795 -0.005600 0.019667 0.003108 0.004002 0.003137
# 4 -0.001183 0.001219 0.003108 0.031931 0.002709 -0.002211
# 5 -0.005664 -0.002774 0.004002 0.002709 0.040273 0.009622
# 6 0.007290 0.000462 0.003137 -0.002211 0.009622 0.048324
#
#
# Mechanical properties :
#
#
# Convention : Reuss Voigt Hill
#
# Bulk Modulus (GPa) = 17.89718 27.71727 22.80722
# Shear Modulus (GPa) = 24.45357 29.33835 26.89596
#
# Velocity S-wave (km/s) = 3.38393 3.70653 3.54890
# Velocity P-wave (km/s) = 4.86300 5.59438 5.24146
#
# Compressibility (1/GPa) = 0.05587473
#
# Stress axis : x y z
#
# Youngs Moduli (GPa) = 33.70590 88.80904 50.84683
#
# Poissons Ratio (x) = -0.12836 -0.09125
# Poissons Ratio (y) = -0.04872 0.28476
# Poissons Ratio (z) = -0.06049 0.49736
#
# Static dielectric constant tensor:
#      x y z
#    x 3.970890 -0.337320 -0.083350 
#    y -0.337320 4.443150 0.192200 
#    z -0.083350 0.192200 3.907640 
# 
# 
# High freq. dielectric constant tensor:
#      x y z
#    x 1.835650 -0.009080 0.008260 
#    y -0.009080 1.844720 -0.014130 
#    z 0.008260 -0.014130 1.824390 
# 
# From -- ./inp_files/116661.got.cif
#   From: 2010.06.25/outbox.cif.g09.slc.cpg/sg2_59_cif.got.tgz:116661.got - 2010.06.27 13:26:56.
