data_PCOD8029895
_publ_section_title
;
Structure prediction by ZEFSAII (Michael W. Deem and Ramdas Pophale) SiO2 
 PCOD8029895
Probable space group: P -1
;
_chemical_formula_sum "Si O2"
_cell_formula_units_Z 14
_cell_length_a 9.912365
_cell_length_b 10.524235
_cell_length_c 15.040848
_cell_angle_alpha 154.903302
_cell_angle_beta 73.103711
_cell_angle_gamma 105.400780
_cell_volume 636.773926
_symmetry_space_group_name_H-M "P -1"
_symmetry_group_IT_number 2
_symmetry_cell_setting 'triclinic'
loop_
_space_group_symop_operation_xyz
x,y,z
-x,-y,-z
loop_
_atom_site_type_symbol
_atom_site_label
_atom_site_fract_x
_atom_site_fract_y
_atom_site_fract_z
Si Si1 0.814689 0.431680 0.863746
Si Si2 0.792797 0.745236 0.435819
Si Si3 0.250235 0.277768 0.766572
Si Si4 0.717095 0.376704 0.600979
Si Si5 0.542407 0.595288 0.925370
Si Si6 0.503756 0.249790 0.414175
Si Si7 0.972184 0.653314 0.800562
O O1 0.900947 0.595897 0.873705
O O2 0.853461 0.082911 0.645388
O O3 0.847866 0.594491 0.054662
O O4 0.647881 0.466914 0.898462
O O5 0.810394 0.619808 0.252289
O O6 0.628887 0.723684 0.478411
O O7 0.882532 0.532596 0.349152
O O8 0.252337 0.919342 0.535099
O O9 0.408943 0.381428 0.817129
O O10 0.651340 0.292409 0.465306
O O11 0.868034 0.546610 0.672969
O O12 0.611246 0.588385 0.809937
O O13 0.498554 0.933549 0.166263
O O14 0.500000 0.500000 0.500000
O O15 0.000000 0.000000 0.000000
#
# Coordination Sequence:
#
# PCOD8029895 Si02
#       7
#     2   2   2   2   2   2   2
#     4  11  23  42  74 102 139 180 239 284 338 417
#     4  12  25  46  72 106 140 181 236 291 339 411
#     4  12  21  39  74 111 132 176 234 290 346 402
#     4  11  24  44  74  98 140 188 227 286 353 408
#     4  11  21  40  70 108 138 176 228 287 353 402
#     4  12  27  43  72 107 144 180 233 288 347 423
#     4  11  28  50  70  96 149 191 225 287 355 415
#
# _framework density 21.985825999999999
#
# number of rings (size 3 to 8) (size 9 to 14) (size 15 to 20)
#    0.000    0.571    7.143    2.143    4.000    2.286 
#    0.000    1.429    0.000    0.000    0.000    0.000 
#    0.000    0.000    0.000    0.000    0.000    0.000 
#
# Total GULP energy -173657.666944 kJ/mol
# GULP energy per Si atom -12404.119067 kJ/mol
# Density = 2.193579 g / cm^3
# Si number density = 21.985826 Si / 1000 Ang^3
#
#
#
# Elastic Constant Matrix: (Units=GPa)
#
#
# Indices 1 2 3 4 5 6 
#
# 1 92.8245 16.9468 46.5391 17.5439 5.1603 6.7336
# 2 16.9468 74.3480 40.8242 11.6586 6.5232 -6.0460
# 3 46.5391 40.8242 133.4316 19.2764 3.8646 5.7364
# 4 17.5439 11.6586 19.2764 49.1046 -2.3359 3.1996
# 5 5.1603 6.5232 3.8646 -2.3359 35.8592 5.6041
# 6 6.7336 -6.0460 5.7364 3.1996 5.6041 19.8401
#
#
#
# Elastic Compliance Matrix: (Units=1/GPa)
#
#
# Indices 1 2 3 4 5 6 
#
# 1 0.013745 -0.000571 -0.004019 -0.003069 -0.001196 -0.002844
# 2 -0.000571 0.017919 -0.005134 -0.002805 -0.004178 0.008771
# 3 -0.004019 -0.005134 0.010778 -0.001322 0.000784 -0.003325
# 4 -0.003069 -0.002805 -0.001322 0.023065 0.003232 -0.004063
# 5 -0.001196 -0.004178 0.000784 0.003232 0.030546 -0.010243
# 6 -0.002844 0.008771 -0.003325 -0.004063 -0.010243 0.058551
#
#
# Mechanical properties :
#
#
# Convention : Reuss Voigt Hill
#
# Bulk Modulus (GPa) = 43.48960 56.58048 50.03504
# Shear Modulus (GPa) = 27.51511 34.04704 30.78108
#
# Velocity S-wave (km/s) = 3.54148 3.93948 3.74577
# Velocity P-wave (km/s) = 6.04537 6.81788 6.44321
#
# Compressibility (1/GPa) = 0.02299400
#
# Stress axis : x y z
#
# Youngs Moduli (GPa) = 72.75258 55.80568 92.77864
#
# Poissons Ratio (x) = 0.03188 0.37288
# Poissons Ratio (y) = 0.04156 0.47634
# Poissons Ratio (z) = 0.29240 0.28651
#
# Static dielectric constant tensor:
#      x y z
#    x 4.142870 0.049010 0.027590 
#    y 0.049010 3.862660 -0.291920 
#    z 0.027590 -0.291920 4.397870 
# 
# 
# High freq. dielectric constant tensor:
#      x y z
#    x 1.870950 0.001580 0.005930 
#    y 0.001580 1.849460 -0.007880 
#    z 0.005930 -0.007880 1.873330 
# 
# From -- ./inp_files/226751.got.cif
#   From: 2010.06.25/outbox.cif.g09.slc.cpg/sg2_114_cif.got.tgz:226751.got - 2010.06.27 13:26:56.
