data_PCOD8029406
_publ_section_title
;
Structure prediction by ZEFSAII (Michael W. Deem and Ramdas Pophale) SiO2 
 PCOD8029406
Probable space group: P -1
;
_chemical_formula_sum "Si O2"
_cell_formula_units_Z 16
_cell_length_a 11.184768
_cell_length_b 13.494582
_cell_length_c 12.036188
_cell_angle_alpha 46.368887
_cell_angle_beta 116.059499
_cell_angle_gamma 147.592249
_cell_volume 654.902234
_symmetry_space_group_name_H-M "P -1"
_symmetry_group_IT_number 2
_symmetry_cell_setting 'triclinic'
loop_
_space_group_symop_operation_xyz
x,y,z
-x,-y,-z
loop_
_atom_site_type_symbol
_atom_site_label
_atom_site_fract_x
_atom_site_fract_y
_atom_site_fract_z
Si Si1 0.051582 0.699023 0.398090
Si Si2 0.667441 0.003679 0.257302
Si Si3 0.894200 0.556973 0.054934
Si Si4 0.924088 0.279867 0.360426
Si Si5 0.787339 0.726358 0.254353
Si Si6 0.552873 0.901768 0.914385
Si Si7 0.547249 0.360878 0.715188
Si Si8 0.239957 0.292980 0.997696
O O1 0.000000 0.500000 0.500000
O O2 0.173983 0.811057 0.483382
O O3 0.807966 0.580355 0.395391
O O4 0.206155 0.907899 0.205965
O O5 0.489107 0.974328 0.176576
O O6 0.715774 0.040169 0.381633
O O7 0.538905 0.758146 0.350278
O O8 0.921611 0.240651 0.120017
O O9 0.649188 0.337130 0.058689
O O10 0.863785 0.643081 0.072685
O O11 0.978949 0.485622 0.196311
O O12 0.164866 0.396242 0.349720
O O13 0.562717 0.583336 0.348931
O O14 0.721640 0.703982 0.118465
O O15 0.037463 0.012752 0.175441
O O16 0.578006 0.847742 0.084060
O O17 0.500000 0.500000 0.000000
#
# Coordination Sequence:
#
# PCOD8029406 Si02
#       8
#     2   2   2   2   2   2   2   2
#     4  12  27  46  66  94 139 181 219 271 338 397
#     4  11  22  38  69 105 127 169 222 273 329 385
#     4  11  20  41  69 103 131 167 226 278 330 386
#     4  11  25  43  65  99 138 178 220 269 324 400
#     4  11  25  41  63 100 131 175 226 266 328 407
#     4  11  22  41  70 103 130 171 222 277 330 390
#     4  12  22  41  73  96 133 170 224 279 330 380
#     4  11  22  40  68 102 137 167 215 285 337 375
#
# _framework density 24.431127
#
# number of rings (size 3 to 8) (size 9 to 14) (size 15 to 20)
#    0.000    0.750    3.750    5.625    1.750    2.500 
#    0.000    5.625    0.000    0.000    0.000    0.000 
#    0.000    0.000    0.000    0.000    0.000    0.000 
#
# Total GULP energy -198432.056370 kJ/mol
# GULP energy per Si atom -12402.003523 kJ/mol
# Density = 2.437552 g / cm^3
# Si number density = 24.431127 Si / 1000 Ang^3
#
#
#
# Elastic Constant Matrix: (Units=GPa)
#
#
# Indices 1 2 3 4 5 6 
#
# 1 172.1386 42.3136 10.4678 2.7397 11.9112 -6.2247
# 2 42.3136 102.2954 25.9462 22.9001 -0.1994 -2.9191
# 3 10.4678 25.9462 47.5203 6.5260 -14.7607 -6.2831
# 4 2.7397 22.9001 6.5260 17.9706 -2.1774 -11.9728
# 5 11.9112 -0.1994 -14.7607 -2.1774 43.8155 7.3513
# 6 -6.2247 -2.9191 -6.2831 -11.9728 7.3513 33.9486
#
#
#
# Elastic Compliance Matrix: (Units=1/GPa)
#
#
# Indices 1 2 3 4 5 6 
#
# 1 0.007056 -0.004184 -0.000422 0.006581 -0.002372 0.003690
# 2 -0.004184 0.019471 -0.007468 -0.028439 -0.000976 -0.010293
# 3 -0.000422 -0.007468 0.028121 0.002807 0.009106 0.003503
# 4 0.006581 -0.028439 0.002807 0.116899 -0.002034 0.040949
# 5 -0.002372 -0.000976 0.009106 -0.002034 0.027348 -0.005473
# 6 0.003690 -0.010293 0.003503 0.040949 -0.005473 0.045523
#
#
# Mechanical properties :
#
#
# Convention : Reuss Voigt Hill
#
# Bulk Modulus (GPa) = 32.78851 53.26773 43.02812
# Shear Modulus (GPa) = 17.93825 35.36205 26.65015
#
# Velocity S-wave (km/s) = 2.71262 3.80862 3.30635
# Velocity P-wave (km/s) = 4.82297 6.41805 5.67681
#
# Compressibility (1/GPa) = 0.03049849
#
# Stress axis : x y z
#
# Youngs Moduli (GPa) = 141.71763 51.35740 35.56105
#
# Poissons Ratio (x) = 0.21489 0.01502
# Poissons Ratio (y) = 0.59297 0.26559
# Poissons Ratio (z) = 0.05985 0.38356
#
# Static dielectric constant tensor:
#      x y z
#    x 4.847210 -0.052220 -0.167610 
#    y -0.052220 4.397790 0.080280 
#    z -0.167610 0.080280 4.301030 
# 
# 
# High freq. dielectric constant tensor:
#      x y z
#    x 1.997430 0.000500 -0.010930 
#    y 0.000500 1.966550 0.011260 
#    z -0.010930 0.011260 1.956160 
# 
# From -- ./inp_files/432625.got.cif
#   From: 2010.06.25/outbox.cif.g09.slc.cpg/sg2_217_cif.got.tgz:432625.got - 2010.06.27 13:26:56.
