data_PCOD8029016
_publ_section_title
;
Structure prediction by ZEFSAII (Michael W. Deem and Ramdas Pophale) SiO2 
 PCOD8029016
Probable space group: P -1
;
_chemical_formula_sum "Si O2"
_cell_formula_units_Z 16
_cell_length_a 13.329898
_cell_length_b 12.890322
_cell_length_c 11.364818
_cell_angle_alpha 104.590431
_cell_angle_beta 146.410439
_cell_angle_gamma 52.102180
_cell_volume 685.154732
_symmetry_space_group_name_H-M "P -1"
_symmetry_group_IT_number 2
_symmetry_cell_setting 'triclinic'
loop_
_space_group_symop_operation_xyz
x,y,z
-x,-y,-z
loop_
_atom_site_type_symbol
_atom_site_label
_atom_site_fract_x
_atom_site_fract_y
_atom_site_fract_z
Si Si1 0.466870 0.833068 0.519655
Si Si2 0.084203 0.998388 0.390278
Si Si3 0.211564 0.827023 0.071838
Si Si4 0.922599 0.734264 0.789071
Si Si5 0.880542 0.517699 0.264328
Si Si6 0.186330 0.551689 0.445125
Si Si7 0.252995 0.750949 0.666649
Si Si8 0.721121 0.493674 0.723539
O O1 0.338462 0.937673 0.545991
O O2 0.636059 0.844627 0.612072
O O3 0.639281 0.653125 0.674983
O O4 0.207519 0.908660 0.205743
O O5 0.184708 0.842594 0.504018
O O6 0.841034 0.088794 0.080505
O O7 0.980382 0.121989 0.427267
O O8 0.984332 0.832358 0.864995
O O9 0.524621 0.642708 0.325610
O O10 0.947331 0.663161 0.666952
O O11 0.152457 0.571580 0.043792
O O12 0.000000 0.500000 0.500000
O O13 0.932118 0.596708 0.255923
O O14 0.552242 0.644357 0.982733
O O15 0.235836 0.633425 0.594558
O O16 0.086840 0.620437 0.233842
O O17 0.500000 0.500000 0.500000
#
# Coordination Sequence:
#
# PCOD8029016 Si02
#       8
#     2   2   2   2   2   2   2   2
#     4  11  23  41  66  98 138 176 221 272 338 400
#     4  11  26  46  67  94 143 187 214 270 337 415
#     4  11  23  43  69 102 132 174 224 281 341 386
#     4  12  23  39  69 107 130 170 223 287 340 382
#     4  12  25  42  71 106 133 169 230 287 330 391
#     4  11  23  42  74 103 126 176 230 283 332 382
#     4  11  26  48  68  97 138 183 225 270 336 398
#     4  11  19  38  69 103 131 164 224 286 333 383
#
# _framework density 23.352391000000001
#
# number of rings (size 3 to 8) (size 9 to 14) (size 15 to 20)
#    0.000    0.750    6.250    3.000    3.500    1.500 
#    0.000    5.000    0.000    0.000    0.000    0.000 
#    0.000    0.000    0.000    0.000    0.000    0.000 
#
# Total GULP energy -198259.151999 kJ/mol
# GULP energy per Si atom -12391.197000 kJ/mol
# Density = 2.329924 g / cm^3
# Si number density = 23.352391 Si / 1000 Ang^3
#
#
#
# Elastic Constant Matrix: (Units=GPa)
#
#
# Indices 1 2 3 4 5 6 
#
# 1 105.1645 59.6011 24.8584 12.7066 3.6176 -18.3075
# 2 59.6011 113.9251 40.0419 18.3706 4.1743 -5.2026
# 3 24.8584 40.0419 64.8976 13.2698 3.5688 3.3126
# 4 12.7066 18.3706 13.2698 31.2495 -0.8097 -0.2379
# 5 3.6176 4.1743 3.5688 -0.8097 52.5837 0.3807
# 6 -18.3075 -5.2026 3.3126 -0.2379 0.3807 42.5818
#
#
#
# Elastic Compliance Matrix: (Units=1/GPa)
#
#
# Indices 1 2 3 4 5 6 
#
# 1 0.014860 -0.006741 -0.001511 -0.001407 -0.000447 0.005679
# 2 -0.006741 0.014916 -0.005839 -0.003562 -0.000374 -0.000638
# 3 -0.001511 -0.005839 0.020779 -0.004822 -0.000895 -0.002998
# 4 -0.001407 -0.003562 -0.004822 0.036744 0.001276 -0.000471
# 5 -0.000447 -0.000374 -0.000895 0.001276 0.019161 -0.000333
# 6 0.005679 -0.000638 -0.002998 -0.000471 -0.000333 0.026081
#
#
# Mechanical properties :
#
#
# Convention : Reuss Voigt Hill
#
# Bulk Modulus (GPa) = 44.69675 59.22110 51.95893
# Shear Modulus (GPa) = 29.73002 35.91540 32.82271
#
# Velocity S-wave (km/s) = 3.57193 3.92596 3.75312
# Velocity P-wave (km/s) = 6.01608 6.77980 6.40933
#
# Compressibility (1/GPa) = 0.02237299
#
# Stress axis : x y z
#
# Youngs Moduli (GPa) = 67.29352 67.04371 48.12598
#
# Poissons Ratio (x) = 0.45193 0.07270
# Poissons Ratio (y) = 0.45361 0.28103
# Poissons Ratio (z) = 0.10166 0.39150
#
# Static dielectric constant tensor:
#      x y z
#    x 4.649490 -0.139420 -0.100170 
#    y -0.139420 4.246950 -0.006380 
#    z -0.100170 -0.006380 4.294910 
# 
# 
# High freq. dielectric constant tensor:
#      x y z
#    x 1.938820 -0.009380 -0.007960 
#    y -0.009380 1.929700 -0.004180 
#    z -0.007960 -0.004180 1.925030 
# 
# From -- ./inp_files/454890.got.cif
#   From: 2010.06.25/outbox.cif.g09.slc.cpg/sg2_228_cif.got.tgz:454890.got - 2010.06.27 13:26:56.
