data_PCOD8029761
_publ_section_title
;
Structure prediction by ZEFSAII (Michael W. Deem and Ramdas Pophale) SiO2 
 PCOD8029761
Probable space group: P -1
;
_chemical_formula_sum "Si O2"
_cell_formula_units_Z 14
_cell_length_a 12.482740
_cell_length_b 5.254880
_cell_length_c 13.092616
_cell_angle_alpha 94.963106
_cell_angle_beta 68.786399
_cell_angle_gamma 126.822551
_cell_volume 631.038650
_symmetry_space_group_name_H-M "P -1"
_symmetry_group_IT_number 2
_symmetry_cell_setting 'triclinic'
loop_
_space_group_symop_operation_xyz
x,y,z
-x,-y,-z
loop_
_atom_site_type_symbol
_atom_site_label
_atom_site_fract_x
_atom_site_fract_y
_atom_site_fract_z
Si Si1 0.359061 0.039744 0.281276
Si Si2 0.820821 0.961169 0.838004
Si Si3 0.689852 0.530368 0.198139
Si Si4 0.428180 0.718232 0.096787
Si Si5 0.869686 0.733708 0.339612
Si Si6 0.724600 0.026293 0.067884
Si Si7 0.141638 0.751625 0.524503
O O1 0.257633 0.063000 0.240267
O O2 0.519578 0.372295 0.252566
O O3 0.373777 0.778909 0.221068
O O4 0.284462 0.920948 0.412668
O O5 0.714599 0.604397 0.912938
O O6 0.826611 0.177784 0.935508
O O7 0.978351 0.066060 0.765805
O O8 0.740127 0.587443 0.299481
O O9 0.777084 0.880745 0.124604
O O10 0.724454 0.307616 0.125342
O O11 0.500000 0.000000 0.000000
O O12 0.560539 0.711438 0.081349
O O13 0.846172 0.435191 0.395353
O O14 0.870311 0.975514 0.422599
O O15 0.000000 0.500000 0.500000
#
# Coordination Sequence:
#
# PCOD8029761 Si02
#       7
#     2   2   2   2   2   2   2
#     4  11  24  40  72  97 138 176 234 273 348 383
#     4  12  23  40  70 102 133 184 223 286 330 403
#     4  11  26  46  64 103 137 185 215 284 334 421
#     4  11  21  39  66 107 134 171 222 288 326 401
#     4  12  29  46  70  97 144 175 235 274 344 396
#     4  11  23  40  70  97 141 172 230 268 345 398
#     4  12  26  47  72 103 129 180 231 294 325 400
#
# _framework density 22.185646999999999
#
# number of rings (size 3 to 8) (size 9 to 14) (size 15 to 20)
#    0.000    0.571    4.286    4.286    2.000    2.286 
#    0.000    0.000    0.000    0.000    0.000    0.000 
#    0.000    0.000    0.000    0.000    0.000    0.000 
#
# Total GULP energy -173564.765788 kJ/mol
# GULP energy per Si atom -12397.483271 kJ/mol
# Density = 2.213515 g / cm^3
# Si number density = 22.185647 Si / 1000 Ang^3
#
#
#
# Elastic Constant Matrix: (Units=GPa)
#
#
# Indices 1 2 3 4 5 6 
#
# 1 100.7150 18.7495 30.8212 -3.3898 12.8564 -4.0846
# 2 18.7495 58.2156 36.5044 -1.5449 -0.7759 -8.4789
# 3 30.8212 36.5044 150.6026 0.0955 -21.4876 -7.5664
# 4 -3.3898 -1.5449 0.0955 29.4900 -3.7660 9.9496
# 5 12.8564 -0.7759 -21.4876 -3.7660 41.3772 2.5273
# 6 -4.0846 -8.4789 -7.5664 9.9496 2.5273 37.8544
#
#
#
# Elastic Compliance Matrix: (Units=1/GPa)
#
#
# Indices 1 2 3 4 5 6 
#
# 1 0.011801 -0.002163 -0.002585 0.000442 -0.005040 0.000492
# 2 -0.002163 0.021407 -0.004795 -0.000641 -0.001712 0.003886
# 3 -0.002585 -0.004795 0.009113 0.000091 0.005449 0.000081
# 4 0.000442 -0.000641 0.000091 0.037913 0.003978 -0.010308
# 5 -0.005040 -0.001712 0.005449 0.003978 0.029066 -0.002824
# 6 0.000492 0.003886 0.000081 -0.010308 -0.002824 0.030255
#
#
# Mechanical properties :
#
#
# Convention : Reuss Voigt Hill
#
# Bulk Modulus (GPa) = 43.04042 53.52037 48.28039
# Shear Modulus (GPa) = 30.05068 36.64155 33.34611
#
# Velocity S-wave (km/s) = 3.68436 4.06838 3.88112
# Velocity P-wave (km/s) = 6.12712 6.80038 6.47251
#
# Compressibility (1/GPa) = 0.02323397
#
# Stress axis : x y z
#
# Youngs Moduli (GPa) = 84.73790 46.71378 109.73647
#
# Poissons Ratio (x) = 0.10106 0.28371
# Poissons Ratio (y) = 0.18332 0.52615
# Poissons Ratio (z) = 0.21908 0.22398
#
# Static dielectric constant tensor:
#      x y z
#    x 4.384290 0.040200 0.112870 
#    y 0.040200 4.101470 0.079530 
#    z 0.112870 0.079530 4.207960 
# 
# 
# High freq. dielectric constant tensor:
#      x y z
#    x 1.877320 -0.009140 -0.000980 
#    y -0.009140 1.865840 0.006020 
#    z -0.000980 0.006020 1.885810 
# 
# From -- ./inp_files/510430.got.cif
#   From: 2010.06.25/outbox.cif.g09.slc.cpg/sg2_256_cif.got.tgz:510430.got - 2010.06.27 13:26:56.
