data_PCOD8029858
_publ_section_title
;
Structure prediction by ZEFSAII (Michael W. Deem and Ramdas Pophale) SiO2 
 PCOD8029858
Probable space group: P -1
;
_chemical_formula_sum "Si O2"
_cell_formula_units_Z 16
_cell_length_a 22.217691
_cell_length_b 9.324243
_cell_length_c 12.211113
_cell_angle_alpha 36.219074
_cell_angle_beta 29.609649
_cell_angle_gamma 48.303939
_cell_volume 732.819539
_symmetry_space_group_name_H-M "P -1"
_symmetry_group_IT_number 2
_symmetry_cell_setting 'triclinic'
loop_
_space_group_symop_operation_xyz
x,y,z
-x,-y,-z
loop_
_atom_site_type_symbol
_atom_site_label
_atom_site_fract_x
_atom_site_fract_y
_atom_site_fract_z
Si Si1 0.581142 0.936227 0.715418
Si Si2 0.124400 0.573771 0.636008
Si Si3 0.621286 0.458137 0.664929
Si Si4 0.518017 0.644954 0.269724
Si Si5 0.848130 0.313797 0.729188
Si Si6 0.230925 0.230025 0.325679
Si Si7 0.983191 0.094717 0.239851
Si Si8 0.620232 0.995109 0.380144
O O1 0.708804 0.854875 0.605491
O O2 0.604756 0.089295 0.471154
O O3 0.524004 0.089955 0.805810
O O4 0.480274 0.700657 0.002381
O O5 0.246742 0.639382 0.476308
O O6 0.151993 0.623383 0.436102
O O7 0.033564 0.762280 0.707800
O O8 0.063972 0.290753 0.914335
O O9 0.571870 0.481730 0.604426
O O10 0.651937 0.721816 0.509514
O O11 0.500000 0.500000 0.500000
O O12 0.660109 0.669909 0.992599
O O13 0.856105 0.560954 0.636804
O O14 0.954691 0.150372 0.688281
O O15 0.719045 0.164783 0.052238
O O16 0.147350 0.995998 0.553138
O O17 0.500000 0.000000 0.500000
#
# Coordination Sequence:
#
# PCOD8029858 Si02
#       8
#     2   2   2   2   2   2   2   2
#     4  11  22  41  66  96 134 174 220 268 334 395
#     4  11  24  46  70  98 130 176 223 277 331 388
#     4  11  21  40  67  94 133 169 218 274 333 390
#     4  11  23  42  65 102 133 175 219 272 333 392
#     4  12  25  45  66 100 135 171 229 270 333 394
#     4  11  24  44  68  96 135 178 220 272 329 397
#     4  11  25  47  68  96 133 175 229 271 328 394
#     4  12  23  39  64 101 134 171 215 276 333 392
#
# _framework density 21.833480000000002
#
# number of rings (size 3 to 8) (size 9 to 14) (size 15 to 20)
#    0.000    0.750    1.250    8.625    0.000    1.500 
#    9.000    0.000    0.000    0.000    0.000    0.000 
#    0.000    0.000    0.000    0.000    0.000    0.000 
#
# Total GULP energy -198408.721006 kJ/mol
# GULP energy per Si atom -12400.545063 kJ/mol
# Density = 2.178379 g / cm^3
# Si number density = 21.833480 Si / 1000 Ang^3
#
#
#
# Elastic Constant Matrix: (Units=GPa)
#
#
# Indices 1 2 3 4 5 6 
#
# 1 112.6951 29.5563 84.7551 9.0417 10.6151 -2.2765
# 2 29.5563 117.9589 20.5836 5.1850 1.8676 2.3051
# 3 84.7551 20.5836 143.5215 1.5962 10.2981 6.8969
# 4 9.0417 5.1850 1.5962 30.7877 7.5417 -1.4176
# 5 10.6151 1.8676 10.2981 7.5417 40.5707 0.9886
# 6 -2.2765 2.3051 6.8969 -1.4176 0.9886 32.3600
#
#
#
# Elastic Compliance Matrix: (Units=1/GPa)
#
#
# Indices 1 2 3 4 5 6 
#
# 1 0.017595 -0.002536 -0.010056 -0.003736 -0.001324 0.003438
# 2 -0.002536 0.009129 0.000216 -0.000941 0.000386 -0.000928
# 3 -0.010056 0.000216 0.013087 0.002341 -0.001054 -0.003377
# 4 -0.003736 -0.000941 0.002341 0.035165 -0.006135 0.001033
# 5 -0.001324 0.000386 -0.001054 -0.006135 0.026409 -0.000972
# 6 0.003438 -0.000928 -0.003377 0.001033 -0.000972 0.032005
#
#
# Mechanical properties :
#
#
# Convention : Reuss Voigt Hill
#
# Bulk Modulus (GPa) = 66.40635 71.55172 68.97904
# Shear Modulus (GPa) = 30.64464 36.69572 33.67018
#
# Velocity S-wave (km/s) = 3.75048 4.10409 3.93126
# Velocity P-wave (km/s) = 7.01682 7.43645 7.22968
#
# Compressibility (1/GPa) = 0.01505880
#
# Stress axis : x y z
#
# Youngs Moduli (GPa) = 56.83410 109.54456 76.41332
#
# Poissons Ratio (x) = 0.27781 0.76838
# Poissons Ratio (y) = 0.14413 -0.01649
# Poissons Ratio (z) = 0.57150 -0.02363
#
# Static dielectric constant tensor:
#      x y z
#    x 3.679150 -0.050620 0.035240 
#    y -0.050620 4.224680 0.142970 
#    z 0.035240 0.142970 3.925170 
# 
# 
# High freq. dielectric constant tensor:
#      x y z
#    x 1.852960 0.000000 0.003360 
#    y 0.000000 1.879360 0.000190 
#    z 0.003360 0.000190 1.860850 
# 
# From -- ./inp_files/261667.got.cif
#   From: 2010.06.25/outbox.cif.g09.slc.cpg/sg2_131_cif.got.tgz:261667.got - 2010.06.27 13:26:56.
