data_PCOD8029566
_publ_section_title
;
Structure prediction by ZEFSAII (Michael W. Deem and Ramdas Pophale) SiO2 
 PCOD8029566
Probable space group: P -1
;
_chemical_formula_sum "Si O2"
_cell_formula_units_Z 16
_cell_length_a 26.324618
_cell_length_b 20.438906
_cell_length_c 8.862368
_cell_angle_alpha 150.135126
_cell_angle_beta 147.313685
_cell_angle_gamma 20.499647
_cell_volume 819.666649
_symmetry_space_group_name_H-M "P -1"
_symmetry_group_IT_number 2
_symmetry_cell_setting 'triclinic'
loop_
_space_group_symop_operation_xyz
x,y,z
-x,-y,-z
loop_
_atom_site_type_symbol
_atom_site_label
_atom_site_fract_x
_atom_site_fract_y
_atom_site_fract_z
Si Si1 0.850144 0.613727 0.424818
Si Si2 0.309636 0.447734 0.596613
Si Si3 0.325328 0.691630 0.612700
Si Si4 0.377305 0.918369 0.207290
Si Si5 0.674671 0.308351 0.719510
Si Si6 0.149855 0.386282 0.219210
Si Si7 0.309632 0.447730 0.242488
Si Si8 0.377306 0.918377 0.852721
O O1 0.869233 0.584793 0.592667
O O2 0.000000 0.500000 0.500000
O O3 0.721685 0.852679 0.535637
O O4 0.810379 0.514463 0.061804
O O5 0.471840 0.233827 0.628417
O O6 0.189617 0.485556 0.452094
O O7 0.298249 0.441060 0.377745
O O8 0.267990 0.643309 0.924595
O O9 0.499999 0.499957 0.657109
O O10 0.258607 0.734048 0.364607
O O11 0.267963 0.643324 0.488544
O O12 0.286552 0.882126 0.949217
O O13 0.417365 0.875628 0.044665
O O14 0.713465 0.117837 0.487930
O O15 0.000000 0.500000 0.000000
O O16 0.278322 0.147331 0.016533
O O17 0.471838 0.233822 0.166082
#
# Coordination Sequence:
#
# PCOD8029566 Si02
#       8
#     2   2   2   2   2   2   2   2
#     4  11  23  39  56  76 106 142 180 221 266 314
#     4  11  21  33  54  84 112 139 175 216 260 314
#     4   8  15  31  54  79 106 136 172 216 265 311
#     4   9  19  36  58  81 106 139 177 218 265 314
#     4   8  15  31  54  79 106 136 172 216 265 311
#     4  11  23  39  56  76 106 142 180 221 266 314
#     4  11  21  33  54  84 112 139 175 216 260 314
#     4   9  19  36  58  81 106 139 177 218 265 314
#
# _framework density 19.520130000000002
#
# number of rings (size 3 to 8) (size 9 to 14) (size 15 to 20)
#    0.000    2.250    0.000    5.250    0.000    9.500 
#    0.000    1.250    0.000    0.000    0.000    0.000 
#    0.000    0.000    0.000    0.000    0.000    0.000 
#
# Total GULP energy -198375.292547 kJ/mol
# GULP energy per Si atom -12398.455784 kJ/mol
# Density = 1.947570 g / cm^3
# Si number density = 19.520130 Si / 1000 Ang^3
#
#
#
# Elastic Constant Matrix: (Units=GPa)
#
#
# Indices 1 2 3 4 5 6 
#
# 1 116.1624 28.8389 53.1888 -6.2064 9.1114 -3.5005
# 2 28.8389 24.3077 29.4716 -15.8123 0.5726 1.2817
# 3 53.1888 29.4716 127.9148 -13.1683 12.3208 4.0819
# 4 -6.2064 -15.8123 -13.1683 23.6697 3.0829 1.2532
# 5 9.1114 0.5726 12.3208 3.0829 33.1958 -2.4235
# 6 -3.5005 1.2817 4.0819 1.2532 -2.4235 21.0657
#
#
#
# Elastic Compliance Matrix: (Units=1/GPa)
#
#
# Indices 1 2 3 4 5 6 
#
# 1 0.015231 -0.024762 -0.002085 -0.013806 -0.001324 0.005111
# 2 -0.024762 0.139140 -0.013153 0.079816 0.000793 -0.014689
# 3 -0.002085 -0.013153 0.011909 -0.002128 -0.003579 -0.002139
# 4 -0.013806 0.079816 -0.002128 0.092272 -0.006312 -0.012954
# 5 -0.001324 0.000793 -0.003579 -0.006312 0.032722 0.004565
# 6 0.005111 -0.014689 -0.002139 -0.012954 0.004565 0.050924
#
#
# Mechanical properties :
#
#
# Convention : Reuss Voigt Hill
#
# Bulk Modulus (GPa) = 11.58993 54.59819 33.09406
# Shear Modulus (GPa) = 11.08751 26.04526 18.56638
#
# Velocity S-wave (km/s) = 2.38587 3.65674 3.08740
# Velocity P-wave (km/s) = 3.67969 6.77199 5.44977
#
# Compressibility (1/GPa) = 0.08628179
#
# Stress axis : x y z
#
# Youngs Moduli (GPa) = 65.65582 7.18699 83.97019
#
# Poissons Ratio (x) = 0.17796 0.17508
# Poissons Ratio (y) = 1.62574 1.10444
# Poissons Ratio (z) = 0.13689 0.09453
#
# Static dielectric constant tensor:
#      x y z
#    x 3.581010 0.190770 0.231770 
#    y 0.190770 3.360240 0.280680 
#    z 0.231770 0.280680 3.990390 
# 
# 
# High freq. dielectric constant tensor:
#      x y z
#    x 1.758670 0.013280 0.010050 
#    y 0.013280 1.723650 0.010920 
#    z 0.010050 0.010920 1.777050 
# 
# From -- ./inp_files/214371.got.cif
#   From: 2010.06.25/outbox.cif.g09.slc.cpg/sg2_108_cif.got.tgz:214371.got - 2010.06.27 13:26:56.
