data_PCOD8029642
_publ_section_title
;
Structure prediction by ZEFSAII (Michael W. Deem and Ramdas Pophale) SiO2 
 PCOD8029642
Probable space group: P -1
;
_chemical_formula_sum "Si O2"
_cell_formula_units_Z 16
_cell_length_a 9.997525
_cell_length_b 8.876321
_cell_length_c 15.734490
_cell_angle_alpha 36.275256
_cell_angle_beta 110.187407
_cell_angle_gamma 103.110344
_cell_volume 772.064024
_symmetry_space_group_name_H-M "P -1"
_symmetry_group_IT_number 2
_symmetry_cell_setting 'triclinic'
loop_
_space_group_symop_operation_xyz
x,y,z
-x,-y,-z
loop_
_atom_site_type_symbol
_atom_site_label
_atom_site_fract_x
_atom_site_fract_y
_atom_site_fract_z
Si Si1 0.643256 0.760049 0.791425
Si Si2 0.704491 0.477796 0.441407
Si Si3 0.420632 0.397334 0.339344
Si Si4 0.312637 0.968281 0.093697
Si Si5 0.132267 0.962662 0.221890
Si Si6 0.194770 0.074757 0.844601
Si Si7 0.408262 0.764300 0.919048
Si Si8 0.404409 0.143111 0.615120
O O1 0.614759 0.718371 0.705805
O O2 0.810244 0.784348 0.836274
O O3 0.569882 0.040121 0.677517
O O4 0.579893 0.545546 0.936199
O O5 0.592336 0.352440 0.412114
O O6 0.824147 0.281867 0.598458
O O7 0.794754 0.666571 0.322471
O O8 0.603959 0.627699 0.422959
O O9 0.375596 0.696479 0.194956
O O10 0.337281 0.246374 0.463475
O O11 0.195479 0.926662 0.157874
O O12 0.438509 0.127725 0.083072
O O13 0.234057 0.125161 0.927946
O O14 0.963051 0.013151 0.156856
O O15 0.303155 0.844178 0.937557
O O16 0.338218 0.895826 0.756412
#
# Coordination Sequence:
#
# PCOD8029642 Si02
#       8
#     2   2   2   2   2   2   2   2
#     4  12  24  37  61  94 128 159 200 251 309 365
#     4  11  21  41  66  88 122 158 208 256 298 354
#     4  12  20  38  66  94 119 155 209 258 300 345
#     4  12  21  43  67  90 118 159 213 258 293 350
#     4  12  25  41  62  90 129 164 200 241 315 370
#     4  11  24  40  64  92 121 163 204 252 299 363
#     4  11  22  40  64  92 124 156 206 254 306 347
#     4  11  21  37  63  94 120 154 203 262 301 345
#
# _framework density 20.723669000000001
#
# number of rings (size 3 to 8) (size 9 to 14) (size 15 to 20)
#    0.000    0.500    7.500    3.000    0.000    0.500 
#    0.000    0.000    0.000    3.000    0.000    0.000 
#    0.000    0.000    0.000    0.000    0.000    0.000 
#
# Total GULP energy -198323.172027 kJ/mol
# GULP energy per Si atom -12395.198252 kJ/mol
# Density = 2.067650 g / cm^3
# Si number density = 20.723669 Si / 1000 Ang^3
#
#
#
# Elastic Constant Matrix: (Units=GPa)
#
#
# Indices 1 2 3 4 5 6 
#
# 1 76.7227 22.8782 16.8653 12.8339 -12.7170 23.1700
# 2 22.8782 83.6931 28.5777 10.4058 -6.1360 12.3689
# 3 16.8653 28.5777 116.0295 11.8018 -22.8772 13.2438
# 4 12.8339 10.4058 11.8018 32.4301 -6.4630 -3.2691
# 5 -12.7170 -6.1360 -22.8772 -6.4630 26.5314 -1.9219
# 6 23.1700 12.3689 13.2438 -3.2691 -1.9219 17.9158
#
#
#
# Elastic Compliance Matrix: (Units=1/GPa)
#
#
# Indices 1 2 3 4 5 6 
#
# 1 0.029447 -0.000582 0.004437 -0.015172 0.011028 -0.042547
# 2 -0.000582 0.014673 -0.002166 -0.004669 -0.000519 -0.008684
# 3 0.004437 -0.002166 0.012557 -0.004923 0.010289 -0.013320
# 4 -0.015172 -0.004669 -0.004923 0.043720 0.000554 0.034521
# 5 0.011028 -0.000519 0.010289 0.000554 0.050707 -0.015969
# 6 -0.042547 -0.008684 -0.013320 0.034521 -0.015969 0.131269
#
#
# Mechanical properties :
#
#
# Convention : Reuss Voigt Hill
#
# Bulk Modulus (GPa) = 16.65122 45.89865 31.27494
# Shear Modulus (GPa) = 16.72182 29.25040 22.98611
#
# Velocity S-wave (km/s) = 2.84367 3.76100 3.33404
# Velocity P-wave (km/s) = 4.33985 6.40751 5.47222
#
# Compressibility (1/GPa) = 0.06005566
#
# Stress axis : x y z
#
# Youngs Moduli (GPa) = 33.95945 68.15366 79.63909
#
# Poissons Ratio (x) = 0.03965 -0.35336
# Poissons Ratio (y) = 0.01976 0.17246
# Poissons Ratio (z) = -0.15068 0.14759
#
# Static dielectric constant tensor:
#      x y z
#    x 3.515270 -0.146870 -0.233170 
#    y -0.146870 3.678120 0.091340 
#    z -0.233170 0.091340 4.225110 
# 
# 
# High freq. dielectric constant tensor:
#      x y z
#    x 1.783050 -0.016630 -0.021930 
#    y -0.016630 1.798780 0.002160 
#    z -0.021930 0.002160 1.844020 
# 
# From -- ./inp_files/207024.got.cif
#   From: 2010.06.25/outbox.cif.g09.slc.cpg/sg2_104_cif.got.tgz:207024.got - 2010.06.27 13:26:56.
