data_PCOD8029931
_publ_section_title
;
Structure prediction by ZEFSAII (Michael W. Deem and Ramdas Pophale) SiO2 
 PCOD8029931
Probable space group: P -1
;
_chemical_formula_sum "Si O2"
_cell_formula_units_Z 16
_cell_length_a 20.786402
_cell_length_b 9.990133
_cell_length_c 8.684354
_cell_angle_alpha 29.710543
_cell_angle_beta 120.873254
_cell_angle_gamma 119.968433
_cell_volume 760.975158
_symmetry_space_group_name_H-M "P -1"
_symmetry_group_IT_number 2
_symmetry_cell_setting 'triclinic'
loop_
_space_group_symop_operation_xyz
x,y,z
-x,-y,-z
loop_
_atom_site_type_symbol
_atom_site_label
_atom_site_fract_x
_atom_site_fract_y
_atom_site_fract_z
Si Si1 0.962441 0.555237 0.737645
Si Si2 0.021492 0.084813 0.112779
Si Si3 0.594226 0.483432 0.976870
Si Si4 0.340475 0.982867 0.635650
Si Si5 0.420417 0.357240 0.859855
Si Si6 0.819400 0.934481 0.547450
Si Si7 0.187657 0.579436 0.157115
Si Si8 0.353093 0.818084 0.161828
O O1 0.871923 0.495892 0.703976
O O2 0.982612 0.868772 0.403393
O O3 0.000000 0.500000 0.000000
O O4 0.991232 0.370350 0.824242
O O5 0.112111 0.123786 0.200940
O O6 0.000000 0.000000 0.000000
O O7 0.509297 0.339680 0.992721
O O8 0.605820 0.754285 0.618262
O O9 0.651174 0.274169 0.205324
O O10 0.611089 0.554659 0.103800
O O11 0.253228 0.033858 0.468709
O O12 0.365772 0.918865 0.902585
O O13 0.402239 0.571850 0.493951
O O14 0.379082 0.059415 0.070105
O O15 0.796847 0.689700 0.645797
O O16 0.845151 0.211993 0.208789
O O17 0.265493 0.716015 0.190584
#
# Coordination Sequence:
#
# PCOD8029931 Si02
#       8
#     2   2   2   2   2   2   2   2
#     4  12  22  42  70  92 120 174 216 250 302 384
#     4  12  25  42  63  97 133 161 208 267 314 358
#     4  11  24  43  64  92 126 171 204 246 318 390
#     4  11  23  40  66  93 124 166 214 247 314 379
#     4  11  24  43  65  90 132 162 202 264 313 361
#     4  11  21  41  64  90 130 167 199 264 315 367
#     4  11  22  39  68  93 123 163 217 257 307 365
#     4  11  23  41  64  96 126 160 208 270 304 355
#
# _framework density 21.025653999999999
#
# number of rings (size 3 to 8) (size 9 to 14) (size 15 to 20)
#    0.000    0.750    2.500    6.750    0.000    5.000 
#    6.750    0.000    0.000    0.000    0.000    0.000 
#    0.000    0.000    0.000    0.000    0.000    0.000 
#
# Total GULP energy -198528.613584 kJ/mol
# GULP energy per Si atom -12408.038349 kJ/mol
# Density = 2.097780 g / cm^3
# Si number density = 21.025654 Si / 1000 Ang^3
#
#
#
# Elastic Constant Matrix: (Units=GPa)
#
#
# Indices 1 2 3 4 5 6 
#
# 1 82.9616 28.2900 20.2729 8.9829 -3.6678 -0.6738
# 2 28.2900 75.1947 5.6127 -1.6221 -4.0268 4.7041
# 3 20.2729 5.6127 78.3421 -13.2929 0.6696 1.7948
# 4 8.9829 -1.6221 -13.2929 29.9761 -0.3516 1.7449
# 5 -3.6678 -4.0268 0.6696 -0.3516 34.5612 -7.8400
# 6 -0.6738 4.7041 1.7948 1.7449 -7.8400 24.6786
#
#
#
# Elastic Compliance Matrix: (Units=1/GPa)
#
#
# Indices 1 2 3 4 5 6 
#
# 1 0.016298 -0.006009 -0.005172 -0.007661 0.001747 0.003063
# 2 -0.006009 0.015786 0.001061 0.003325 0.000457 -0.003340
# 3 -0.005172 0.001061 0.015559 0.008636 -0.001198 -0.002466
# 4 -0.007661 0.003325 0.008636 0.039924 -0.001251 -0.004691
# 5 0.001747 0.000457 -0.001198 -0.001251 0.031483 0.010138
# 6 0.003063 -0.003340 -0.002466 -0.004691 0.010138 0.044973
#
#
# Mechanical properties :
#
#
# Convention : Reuss Voigt Hill
#
# Bulk Modulus (GPa) = 36.49303 38.31664 37.40484
# Shear Modulus (GPa) = 25.85354 29.99803 27.92579
#
# Velocity S-wave (km/s) = 3.51040 3.78131 3.64837
# Velocity P-wave (km/s) = 5.81589 6.10964 5.96458
#
# Compressibility (1/GPa) = 0.02740249
#
# Stress axis : x y z
#
# Youngs Moduli (GPa) = 61.35610 63.34912 64.27119
#
# Poissons Ratio (x) = 0.38067 0.33241
# Poissons Ratio (y) = 0.36869 -0.06818
# Poissons Ratio (z) = 0.31733 -0.06721
#
# Static dielectric constant tensor:
#      x y z
#    x 3.518500 0.134740 -0.210090 
#    y 0.134740 3.668330 -0.108180 
#    z -0.210090 -0.108180 3.901940 
# 
# 
# High freq. dielectric constant tensor:
#      x y z
#    x 1.830390 0.005960 0.003280 
#    y 0.005960 1.819110 -0.016750 
#    z 0.003280 -0.016750 1.837340 
# 
# From -- ./inp_files/223732.got.cif
#   From: 2010.06.25/outbox.cif.g09.slc.cpg/sg2_112_cif.got.tgz:223732.got - 2010.06.27 13:26:56.
