data_PCOD8029714
_publ_section_title
;
Structure prediction by ZEFSAII (Michael W. Deem and Ramdas Pophale) SiO2 
 PCOD8029714
Probable space group: P -1
;
_chemical_formula_sum "Si O2"
_cell_formula_units_Z 14
_cell_length_a 13.645532
_cell_length_b 5.292549
_cell_length_c 24.019988
_cell_angle_alpha 116.192045
_cell_angle_beta 22.540727
_cell_angle_gamma 117.944963
_cell_volume 587.259587
_symmetry_space_group_name_H-M "P -1"
_symmetry_group_IT_number 2
_symmetry_cell_setting 'triclinic'
loop_
_space_group_symop_operation_xyz
x,y,z
-x,-y,-z
loop_
_atom_site_type_symbol
_atom_site_label
_atom_site_fract_x
_atom_site_fract_y
_atom_site_fract_z
Si Si1 0.982231 0.584348 0.676874
Si Si2 0.872395 0.990414 0.458929
Si Si3 0.739700 0.632710 0.650376
Si Si4 0.101091 0.602260 0.809627
Si Si5 0.459187 0.340902 0.870745
Si Si6 0.434105 0.868789 0.754736
Si Si7 0.765652 0.025955 0.329046
O O1 0.688178 0.424957 0.803880
O O2 0.164856 0.345543 0.569915
O O3 0.997984 0.776386 0.742793
O O4 0.097567 0.797718 0.588230
O O5 0.623286 0.068884 0.631321
O O6 0.134629 0.042488 0.364487
O O7 0.524178 0.512850 0.796653
O O8 0.605601 0.628737 0.659820
O O9 0.000000 0.500000 0.500000
O O10 0.172648 0.730559 0.846678
O O11 0.259414 0.817148 0.701805
O O12 0.794786 0.580879 0.959262
O O13 0.169612 0.288451 0.741647
O O14 0.388085 0.014137 0.852643
O O15 0.500000 0.000000 0.500000
#
# Coordination Sequence:
#
# PCOD8029714 Si02
#       7
#     2   2   2   2   2   2   2
#     4  11  24  43  73  98 139 178 242 299 340 397
#     4  11  21  38  68 107 131 179 228 293 349 399
#     4  11  22  39  68 103 148 182 230 280 342 419
#     4  12  30  45  74 102 144 190 231 285 360 421
#     4  11  26  43  67 108 144 188 229 284 356 425
#     4  12  23  42  67 102 153 181 230 282 353 430
#     4  12  27  53  73 101 133 186 249 296 347 412
#
# _framework density 23.839544
#
# number of rings (size 3 to 8) (size 9 to 14) (size 15 to 20)
#    0.000    0.571    2.857    5.571    4.000    1.714 
#    0.000    0.000    0.000    0.000    0.000    0.000 
#    0.000    0.000    0.000    0.000    0.000    0.000 
#
# Total GULP energy -173492.015058 kJ/mol
# GULP energy per Si atom -12392.286790 kJ/mol
# Density = 2.378528 g / cm^3
# Si number density = 23.839544 Si / 1000 Ang^3
#
#
#
# Elastic Constant Matrix: (Units=GPa)
#
#
# Indices 1 2 3 4 5 6 
#
# 1 109.6153 45.9715 14.0807 6.7281 -14.1585 14.6453
# 2 45.9715 131.7152 36.3357 14.9740 -4.0065 -3.6468
# 3 14.0807 36.3357 93.5786 1.4719 -0.3257 -0.7717
# 4 6.7281 14.9740 1.4719 28.6328 -0.1753 -2.0684
# 5 -14.1585 -4.0065 -0.3257 -0.1753 25.5367 -2.9884
# 6 14.6453 -3.6468 -0.7717 -2.0684 -2.9884 45.6099
#
#
#
# Elastic Compliance Matrix: (Units=1/GPa)
#
#
# Indices 1 2 3 4 5 6 
#
# 1 0.012139 -0.003983 -0.000277 -0.001002 0.005639 -0.003897
# 2 -0.003983 0.010429 -0.003370 -0.004215 -0.000429 0.001836
# 3 -0.000277 -0.003370 0.012016 0.001210 -0.000516 0.000044
# 4 -0.001002 -0.004215 0.001210 0.037417 -0.000751 0.001653
# 5 0.005639 -0.000429 -0.000516 -0.000751 0.042310 0.000884
# 6 -0.003897 0.001836 0.000044 0.001653 0.000884 0.023457
#
#
# Mechanical properties :
#
#
# Convention : Reuss Voigt Hill
#
# Bulk Modulus (GPa) = 51.74805 58.63165 55.18985
# Shear Modulus (GPa) = 31.35381 35.85729 33.60555
#
# Velocity S-wave (km/s) = 3.63051 3.88249 3.75861
# Velocity P-wave (km/s) = 6.27121 6.68925 6.48360
#
# Compressibility (1/GPa) = 0.01932440
#
# Stress axis : x y z
#
# Youngs Moduli (GPa) = 82.37667 95.88690 83.22228
#
# Poissons Ratio (x) = 0.38191 0.02304
# Poissons Ratio (y) = 0.32810 0.28048
# Poissons Ratio (z) = 0.02280 0.32316
#
# Static dielectric constant tensor:
#      x y z
#    x 5.012300 0.531240 -0.065790 
#    y 0.531240 4.817170 -0.001340 
#    z -0.065790 -0.001340 3.994470 
# 
# 
# High freq. dielectric constant tensor:
#      x y z
#    x 1.948760 0.002730 -0.009750 
#    y 0.002730 1.966050 -0.000160 
#    z -0.009750 -0.000160 1.922230 
# 
# From -- ./inp_files/619038.got.cif
#   From: 2010.06.25/outbox.cif.g09.slc.cpg/sg2_310_cif.got.tgz:619038.got - 2010.06.27 13:26:56.
