data_PCOD8029821
_publ_section_title
;
Structure prediction by ZEFSAII (Michael W. Deem and Ramdas Pophale) SiO2 
 PCOD8029821
Probable space group: P -1
;
_chemical_formula_sum "Si O2"
_cell_formula_units_Z 16
_cell_length_a 18.981660
_cell_length_b 6.774411
_cell_length_c 17.457097
_cell_angle_alpha 65.670095
_cell_angle_beta 157.982613
_cell_angle_gamma 113.100530
_cell_volume 766.453728
_symmetry_space_group_name_H-M "P -1"
_symmetry_group_IT_number 2
_symmetry_cell_setting 'triclinic'
loop_
_space_group_symop_operation_xyz
x,y,z
-x,-y,-z
loop_
_atom_site_type_symbol
_atom_site_label
_atom_site_fract_x
_atom_site_fract_y
_atom_site_fract_z
Si Si1 0.375862 0.146361 0.046771
Si Si2 0.589786 0.170681 0.003997
Si Si3 0.091184 0.491911 0.010429
Si Si4 0.819730 0.025198 0.983895
Si Si5 0.705772 0.922930 0.717598
Si Si6 0.139606 0.772500 0.300383
Si Si7 0.689850 0.448954 0.360132
Si Si8 0.917385 0.492673 0.333604
O O1 0.202959 0.296612 0.830939
O O2 0.354820 0.063573 0.126771
O O3 0.577817 0.273293 0.221147
O O4 0.357980 0.947900 0.002484
O O5 0.432516 0.339116 0.796112
O O6 0.780426 0.282790 0.212670
O O7 0.500000 0.000000 0.000000
O O8 0.271902 0.336964 0.220462
O O9 0.151064 0.726649 0.002030
O O10 0.000000 0.500000 0.000000
O O11 0.944154 0.403550 0.814300
O O12 0.994748 0.869199 0.201448
O O13 0.799013 0.019049 0.872561
O O14 0.500000 0.000000 0.500000
O O15 0.793980 0.018762 0.714187
O O16 0.302115 0.654024 0.530050
O O17 0.901764 0.508550 0.539028
O O18 0.000000 0.500000 0.500000
#
# Coordination Sequence:
#
# PCOD8029821 Si02
#       8
#     2   2   2   2   2   2   2   2
#     4  11  25  43  68  98 134 172 222 276 327 396
#     4  11  26  46  69 104 137 167 219 278 331 400
#     4  11  21  40  64  89 124 178 225 266 326 389
#     4  11  22  41  64  92 129 174 221 273 326 384
#     4  11  23  39  62  90 133 172 218 274 325 383
#     4  11  22  41  65  92 131 174 223 272 326 389
#     4  11  25  44  68  99 134 174 222 272 334 396
#     4  11  24  45  72  96 132 177 214 265 339 405
#
# _framework density 20.875364000000001
#
# number of rings (size 3 to 8) (size 9 to 14) (size 15 to 20)
#    0.000    1.000    3.750    3.000    1.750    8.500 
#    2.250    0.000    0.000    0.000    0.000    0.000 
#    0.000    0.000    0.000    0.000    0.000    0.000 
#
# Total GULP energy -198331.847302 kJ/mol
# GULP energy per Si atom -12395.740456 kJ/mol
# Density = 2.082785 g / cm^3
# Si number density = 20.875364 Si / 1000 Ang^3
#
#
#
# Elastic Constant Matrix: (Units=GPa)
#
#
# Indices 1 2 3 4 5 6 
#
# 1 103.8369 46.6636 47.4515 2.9761 -2.7714 -0.0592
# 2 46.6636 150.8889 70.0497 1.7705 0.3522 -10.4669
# 3 47.4515 70.0497 138.1848 -6.2673 6.5890 -0.7650
# 4 2.9761 1.7705 -6.2673 27.4735 8.3561 0.5703
# 5 -2.7714 0.3522 6.5890 8.3561 36.5829 -3.4697
# 6 -0.0592 -10.4669 -0.7650 0.5703 -3.4697 35.1221
#
#
#
# Elastic Compliance Matrix: (Units=1/GPa)
#
#
# Indices 1 2 3 4 5 6 
#
# 1 0.012284 -0.002286 -0.003277 -0.002553 0.002080 -0.000485
# 2 -0.002286 0.009469 -0.004131 -0.001712 0.001143 0.002869
# 3 -0.003277 -0.004131 0.010787 0.004089 -0.003217 -0.001386
# 4 -0.002553 -0.001712 0.004089 0.040946 -0.010468 -0.002124
# 5 0.002080 0.001143 -0.003217 -0.010468 0.030783 0.003485
# 6 -0.000485 0.002869 -0.001386 -0.002124 0.003485 0.029675
#
#
# Mechanical properties :
#
#
# Convention : Reuss Voigt Hill
#
# Bulk Modulus (GPa) = 76.03761 80.13782 78.08771
# Shear Modulus (GPa) = 31.70256 35.08541 33.39399
#
# Velocity S-wave (km/s) = 3.90123 4.10409 4.00394
# Velocity P-wave (km/s) = 7.53634 7.80578 7.67224
#
# Compressibility (1/GPa) = 0.01315139
#
# Stress axis : x y z
#
# Youngs Moduli (GPa) = 81.40825 105.61127 92.70110
#
# Poissons Ratio (x) = 0.24144 0.30378
# Poissons Ratio (y) = 0.18611 0.38297
# Poissons Ratio (z) = 0.26677 0.43630
#
# Static dielectric constant tensor:
#      x y z
#    x 3.515720 -0.328400 -0.027520 
#    y -0.328400 3.170020 -0.157840 
#    z -0.027520 -0.157840 3.717580 
# 
# 
# High freq. dielectric constant tensor:
#      x y z
#    x 1.824230 0.003530 -0.002610 
#    y 0.003530 1.826880 -0.010280 
#    z -0.002610 -0.010280 1.821740 
# 
# From -- ./inp_files/576771.got.cif
#   From: 2010.06.25/outbox.cif.g09.slc.cpg/sg2_289_cif.got.tgz:576771.got - 2010.06.27 13:26:56.
