data_PCOD8029972
_publ_section_title
;
Structure prediction by ZEFSAII (Michael W. Deem and Ramdas Pophale) SiO2 
 PCOD8029972
Probable space group: P -1
;
_chemical_formula_sum "Si O2"
_cell_formula_units_Z 16
_cell_length_a 20.321889
_cell_length_b 8.930845
_cell_length_c 12.184545
_cell_angle_alpha 143.115045
_cell_angle_beta 135.553206
_cell_angle_gamma 33.798619
_cell_volume 730.273580
_symmetry_space_group_name_H-M "P -1"
_symmetry_group_IT_number 2
_symmetry_cell_setting 'triclinic'
loop_
_space_group_symop_operation_xyz
x,y,z
-x,-y,-z
loop_
_atom_site_type_symbol
_atom_site_label
_atom_site_fract_x
_atom_site_fract_y
_atom_site_fract_z
Si Si1 0.722206 0.175217 0.963749
Si Si2 0.144760 0.732264 0.358899
Si Si3 0.548811 0.163429 0.593920
Si Si4 0.322884 0.864841 0.698455
Si Si5 0.315620 0.208234 0.675879
Si Si6 0.780361 0.778055 0.003351
Si Si7 0.046890 0.423515 0.177564
Si Si8 0.950300 0.420818 0.491364
O O1 0.655264 0.106512 0.757793
O O2 0.862725 0.951251 0.964692
O O3 0.664548 0.544888 0.110036
O O4 0.711762 0.084731 0.022052
O O5 0.221424 0.820778 0.559410
O O6 0.117406 0.562371 0.314394
O O7 0.223656 0.493839 0.212050
O O8 0.018490 0.045980 0.352004
O O9 0.449911 0.539021 0.684867
O O10 0.500000 0.000000 0.500000
O O11 0.587175 0.021150 0.433933
O O12 0.325283 0.998587 0.663858
O O13 0.286244 0.120781 0.900221
O O14 0.188600 0.403981 0.580947
O O15 0.921990 0.610066 0.074231
O O16 0.020465 0.466255 0.299856
O O17 0.000000 0.500000 0.500000
#
# Coordination Sequence:
#
# PCOD8029972 Si02
#       8
#     2   2   2   2   2   2   2   2
#     4  11  25  43  71 100 133 174 224 281 332 392
#     4  11  23  40  67  98 135 176 220 276 333 393
#     4  12  27  48  73  98 128 177 235 280 326 389
#     4  12  27  44  66  98 134 180 221 273 336 396
#     4  12  26  46  68  99 140 176 219 277 337 400
#     4  11  23  41  67 101 134 170 227 276 333 395
#     4  11  21  41  67  98 135 175 219 279 332 395
#     4  12  22  40  68 101 138 177 215 267 341 404
#
# _framework density 21.909597000000002
#
# number of rings (size 3 to 8) (size 9 to 14) (size 15 to 20)
#    0.000    0.500    3.750    6.000    1.750    5.500 
#    0.000    2.500    0.000    0.000    0.000    0.000 
#    0.000    0.000    0.000    0.000    0.000    0.000 
#
# Total GULP energy -198460.294934 kJ/mol
# GULP energy per Si atom -12403.768433 kJ/mol
# Density = 2.185973 g / cm^3
# Si number density = 21.909597 Si / 1000 Ang^3
#
#
#
# Elastic Constant Matrix: (Units=GPa)
#
#
# Indices 1 2 3 4 5 6 
#
# 1 78.9190 18.0003 22.5391 2.4341 -28.1460 0.8860
# 2 18.0003 115.8678 19.1239 8.8846 -9.6399 -1.0149
# 3 22.5391 19.1239 91.2992 8.8138 -22.1431 1.1450
# 4 2.4341 8.8846 8.8138 31.4251 -9.0190 -11.1542
# 5 -28.1460 -9.6399 -22.1431 -9.0190 37.2846 -1.4125
# 6 0.8860 -1.0149 1.1450 -11.1542 -1.4125 26.2369
#
#
#
# Elastic Compliance Matrix: (Units=1/GPa)
#
#
# Indices 1 2 3 4 5 6 
#
# 1 0.018098 -0.001773 -0.001226 0.003949 0.013498 0.001779
# 2 -0.001773 0.009280 -0.001350 -0.002407 -0.000345 -0.000564
# 3 -0.001226 -0.001350 0.013205 -0.001854 0.006080 -0.001048
# 4 0.003949 -0.002407 -0.001854 0.042922 0.012351 0.018767
# 5 0.013498 -0.000345 0.006080 0.012351 0.043780 0.006874
# 6 0.001779 -0.000564 -0.001048 0.018767 0.006874 0.046427
#
#
# Mechanical properties :
#
#
# Convention : Reuss Voigt Hill
#
# Bulk Modulus (GPa) = 31.36425 45.04585 38.20505
# Shear Modulus (GPa) = 25.90139 34.08417 29.99278
#
# Velocity S-wave (km/s) = 3.44203 3.94848 3.70392
# Velocity P-wave (km/s) = 5.49028 6.43365 5.98059
#
# Compressibility (1/GPa) = 0.03188343
#
# Stress axis : x y z
#
# Youngs Moduli (GPa) = 55.25416 107.76105 75.72797
#
# Poissons Ratio (x) = 0.19111 0.09286
# Poissons Ratio (y) = 0.09799 0.10225
# Poissons Ratio (z) = 0.06775 0.14550
#
# Static dielectric constant tensor:
#      x y z
#    x 3.739320 -0.001310 -0.124750 
#    y -0.001310 4.108750 0.159560 
#    z -0.124750 0.159560 4.243630 
# 
# 
# High freq. dielectric constant tensor:
#      x y z
#    x 1.848270 -0.000700 -0.016680 
#    y -0.000700 1.876280 0.003530 
#    z -0.016680 0.003530 1.873090 
# 
# From -- ./inp_files/452368.got.cif
#   From: 2010.06.25/outbox.cif.g09.slc.cpg/sg2_227_cif.got.tgz:452368.got - 2010.06.27 13:26:56.
