data_PCOD8029874
_publ_section_title
;
Structure prediction by ZEFSAII (Michael W. Deem and Ramdas Pophale) SiO2 
 PCOD8029874
Probable space group: P -1
;
_chemical_formula_sum "Si O2"
_cell_formula_units_Z 12
_cell_length_a 11.883539
_cell_length_b 9.007253
_cell_length_c 15.756658
_cell_angle_alpha 107.273063
_cell_angle_beta 27.917954
_cell_angle_gamma 124.562876
_cell_volume 551.434233
_symmetry_space_group_name_H-M "P -1"
_symmetry_group_IT_number 2
_symmetry_cell_setting 'triclinic'
loop_
_space_group_symop_operation_xyz
x,y,z
-x,-y,-z
loop_
_atom_site_type_symbol
_atom_site_label
_atom_site_fract_x
_atom_site_fract_y
_atom_site_fract_z
Si Si1 0.660779 0.718875 0.885358
Si Si2 0.328699 0.743810 0.820465
Si Si3 0.296489 0.334263 0.347063
Si Si4 0.625184 0.788528 0.197798
Si Si5 0.384161 0.966643 0.476718
Si Si6 0.562237 0.133770 0.823713
O O1 0.638490 0.700889 0.796154
O O2 0.033696 0.892025 0.696952
O O3 0.500000 0.500000 0.000000
O O4 0.497748 0.814466 0.035572
O O5 0.639066 0.774791 0.647246
O O6 0.374252 0.822968 0.707138
O O7 0.317051 0.884886 0.917796
O O8 0.000000 0.500000 0.000000
O O9 0.563403 0.585307 0.233103
O O10 0.932185 0.238177 0.584619
O O11 0.374082 0.788582 0.415968
O O12 0.520054 0.757179 0.164543
O O13 0.000000 0.000000 0.000000
O O14 0.500000 0.000000 0.500000
#
# Coordination Sequence:
#
# PCOD8029874 Si02
#       6
#     2   2   2   2   2   2
#     4  12  24  40  74 106 132 178 236 283 339 410
#     4  11  26  47  70  97 144 187 222 292 358 398
#     4  12  23  45  69  99 143 176 232 290 342 409
#     4  11  21  40  68  97 138 185 224 279 347 407
#     4  11  25  45  68 101 139 178 237 283 337 423
#     4  11  23  43  68 100 138 183 230 277 348 413
#
# _framework density 21.761434999999999
#
# number of rings (size 3 to 8) (size 9 to 14) (size 15 to 20)
#    0.000    0.667    5.000    5.000    2.333    0.667 
#    0.000    1.667    0.000    0.000    0.000    0.000 
#    0.000    0.000    0.000    0.000    0.000    0.000 
#
# Total GULP energy -148790.282428 kJ/mol
# GULP energy per Si atom -12399.190202 kJ/mol
# Density = 2.171191 g / cm^3
# Si number density = 21.761435 Si / 1000 Ang^3
#
#
#
# Elastic Constant Matrix: (Units=GPa)
#
#
# Indices 1 2 3 4 5 6 
#
# 1 127.6225 41.7458 35.3576 6.1590 11.6875 -2.1359
# 2 41.7458 149.1447 67.7894 3.9325 15.5572 2.6496
# 3 35.3576 67.7894 115.2345 10.4245 8.3266 14.9434
# 4 6.1590 3.9325 10.4245 43.9439 0.9599 -1.5519
# 5 11.6875 15.5572 8.3266 0.9599 28.4163 0.2631
# 6 -2.1359 2.6496 14.9434 -1.5519 0.2631 33.6026
#
#
#
# Elastic Compliance Matrix: (Units=1/GPa)
#
#
# Indices 1 2 3 4 5 6 
#
# 1 0.009112 -0.001439 -0.001923 -0.000585 -0.002391 0.001540
# 2 -0.001439 0.009850 -0.005389 0.000726 -0.003261 0.001587
# 3 -0.001923 -0.005389 0.013432 -0.002638 -0.000052 -0.005792
# 4 -0.000585 0.000726 -0.002638 0.023480 -0.000197 0.002165
# 5 -0.002391 -0.003261 -0.000052 -0.000197 0.037983 -0.000178
# 6 0.001540 0.001587 -0.005792 0.002165 -0.000178 0.032409
#
#
# Mechanical properties :
#
#
# Convention : Reuss Voigt Hill
#
# Bulk Modulus (GPa) = 67.15208 75.75414 71.45311
# Shear Modulus (GPa) = 33.61758 37.66648 35.64203
#
# Velocity S-wave (km/s) = 3.93469 4.16490 4.05143
# Velocity P-wave (km/s) = 7.18106 7.61678 7.40213
#
# Compressibility (1/GPa) = 0.01489157
#
# Stress axis : x y z
#
# Youngs Moduli (GPa) = 109.74419 101.52576 74.45103
#
# Poissons Ratio (x) = 0.14607 0.14320
# Poissons Ratio (y) = 0.15790 0.40120
# Poissons Ratio (z) = 0.21109 0.54710
#
# Static dielectric constant tensor:
#      x y z
#    x 4.115810 -0.026910 0.089340 
#    y -0.026910 4.246190 0.240480 
#    z 0.089340 0.240480 4.074990 
# 
# 
# High freq. dielectric constant tensor:
#      x y z
#    x 1.857080 -0.003000 -0.010560 
#    y -0.003000 1.868550 0.004120 
#    z -0.010560 0.004120 1.851590 
# 
# From -- ./inp_files/156456.got.cif
#   From: 2010.06.25/outbox.cif.g09.slc.cpg/sg2_79_cif.got.tgz:156456.got - 2010.06.27 13:26:56.
