data_PCOD8029627
_publ_section_title
;
Structure prediction by ZEFSAII (Michael W. Deem and Ramdas Pophale) SiO2 
 PCOD8029627
Probable space group: P -1
;
_chemical_formula_sum "Si O2"
_cell_formula_units_Z 16
_cell_length_a 12.713879
_cell_length_b 18.150057
_cell_length_c 10.008510
_cell_angle_alpha 49.151720
_cell_angle_beta 102.850445
_cell_angle_gamma 141.761868
_cell_volume 846.476307
_symmetry_space_group_name_H-M "P -1"
_symmetry_group_IT_number 2
_symmetry_cell_setting 'triclinic'
loop_
_space_group_symop_operation_xyz
x,y,z
-x,-y,-z
loop_
_atom_site_type_symbol
_atom_site_label
_atom_site_fract_x
_atom_site_fract_y
_atom_site_fract_z
Si Si1 0.492140 0.380871 0.927533
Si Si2 0.748632 0.545014 0.068623
Si Si3 0.957927 0.914975 0.728399
Si Si4 0.608982 0.378816 0.697586
Si Si5 0.931927 0.315634 0.585404
Si Si6 0.516378 0.089505 0.017085
Si Si7 0.973602 0.398070 0.801861
Si Si8 0.415918 0.329149 0.456106
O O1 0.639783 0.457058 0.998039
O O2 0.503791 0.314041 0.888988
O O3 0.591631 0.561192 0.694761
O O4 0.242783 0.192404 0.125222
O O5 0.903694 0.759573 0.874883
O O6 0.557419 0.392177 0.304358
O O7 0.893769 0.562325 0.102693
O O8 0.000000 0.000000 0.500000
O O9 0.173790 0.094768 0.665179
O O10 0.870615 0.590581 0.534000
O O11 0.522192 0.390507 0.556018
O O12 0.548370 0.223801 0.810328
O O13 0.909751 0.407525 0.416011
O O14 0.704749 0.086840 0.750190
O O15 0.962806 0.335205 0.730985
O O16 0.500000 0.000000 0.000000
O O17 0.732084 0.228105 0.996104
#
# Coordination Sequence:
#
# PCOD8029627 Si02
#       8
#     2   2   2   2   2   2   2   2
#     4  11  24  40  55  87 125 153 192 241 289 350
#     4  11  21  37  62  86 112 156 200 235 285 350
#     4  11  21  39  60  84 117 155 201 242 279 339
#     4  11  23  37  60  89 120 155 188 238 304 340
#     4   9  18  36  54  84 117 144 184 248 285 334
#     4   9  20  35  57  89 118 145 195 244 281 345
#     4   9  18  33  58  85 108 144 199 236 282 336
#     4  11  22  38  61  85 116 158 198 236 280 349
#
# _framework density 18.901886999999999
#
# number of rings (size 3 to 8) (size 9 to 14) (size 15 to 20)
#    0.000    1.750    3.750    1.875    3.500    1.500 
#    0.000    2.500    0.000    1.500    0.000    0.000 
#    0.000    0.000    0.000    0.000    0.000    0.000 
#
# Total GULP energy -198389.018924 kJ/mol
# GULP energy per Si atom -12399.313683 kJ/mol
# Density = 1.885887 g / cm^3
# Si number density = 18.901887 Si / 1000 Ang^3
#
#
#
# Elastic Constant Matrix: (Units=GPa)
#
#
# Indices 1 2 3 4 5 6 
#
# 1 71.5590 54.5169 43.7678 10.0949 -0.3347 29.3696
# 2 54.5169 87.9281 59.8778 0.7995 2.6748 20.9755
# 3 43.7678 59.8778 108.3328 -11.7615 -8.7367 17.2751
# 4 10.0949 0.7995 -11.7615 39.0470 3.6704 -3.7298
# 5 -0.3347 2.6748 -8.7367 3.6704 24.6311 5.8794
# 6 29.3696 20.9755 17.2751 -3.7298 5.8794 31.9310
#
#
#
# Elastic Compliance Matrix: (Units=1/GPa)
#
#
# Indices 1 2 3 4 5 6 
#
# 1 0.046164 -0.018084 -0.004460 -0.017043 0.011242 -0.032230
# 2 -0.018084 0.027952 -0.009347 0.002549 -0.008203 0.005137
# 3 -0.004460 -0.009347 0.017264 0.006021 0.006064 0.000489
# 4 -0.017043 0.002549 0.006021 0.033995 -0.007270 0.016054
# 5 0.011242 -0.008203 0.006064 -0.007270 0.049208 -0.018142
# 6 -0.032230 0.005137 0.000489 0.016054 -0.018142 0.062539
#
#
# Mechanical properties :
#
#
# Convention : Reuss Voigt Hill
#
# Bulk Modulus (GPa) = 36.23508 64.90496 50.57002
# Shear Modulus (GPa) = 16.12375 26.43231 21.27803
#
# Velocity S-wave (km/s) = 2.92382 3.74357 3.35880
# Velocity P-wave (km/s) = 5.53263 7.28685 6.46947
#
# Compressibility (1/GPa) = 0.02759757
#
# Stress axis : x y z
#
# Youngs Moduli (GPa) = 21.66176 35.77622 57.92495
#
# Poissons Ratio (x) = 0.64698 0.25833
# Poissons Ratio (y) = 0.39173 0.54143
# Poissons Ratio (z) = 0.09661 0.33440
#
# Static dielectric constant tensor:
#      x y z
#    x 3.486480 0.292110 -0.124970 
#    y 0.292110 3.433760 -0.361950 
#    z -0.124970 -0.361950 3.707060 
# 
# 
# High freq. dielectric constant tensor:
#      x y z
#    x 1.733390 0.021830 0.001800 
#    y 0.021830 1.716190 -0.021800 
#    z 0.001800 -0.021800 1.736300 
# 
# From -- ./inp_files/279074.got.cif
#   From: 2010.06.25/outbox.cif.g09.slc.cpg/sg2_140_cif.got.tgz:279074.got - 2010.06.27 13:26:56.
