data_PCOD8029313
_publ_section_title
;
Structure prediction by ZEFSAII (Michael W. Deem and Ramdas Pophale) SiO2 
 PCOD8029313
Probable space group: P -1
;
_chemical_formula_sum "Si O2"
_cell_formula_units_Z 16
_cell_length_a 17.258173
_cell_length_b 9.393061
_cell_length_c 11.540983
_cell_angle_alpha 108.666582
_cell_angle_beta 30.259178
_cell_angle_gamma 105.403873
_cell_volume 892.935298
_symmetry_space_group_name_H-M "P -1"
_symmetry_group_IT_number 2
_symmetry_cell_setting 'triclinic'
loop_
_space_group_symop_operation_xyz
x,y,z
-x,-y,-z
loop_
_atom_site_type_symbol
_atom_site_label
_atom_site_fract_x
_atom_site_fract_y
_atom_site_fract_z
Si Si1 0.455405 0.672664 0.090729
Si Si2 0.455397 0.295980 0.273187
Si Si3 0.299798 0.608573 0.596922
Si Si4 0.547253 0.818295 0.236208
Si Si5 0.804702 0.739097 0.042272
Si Si6 0.342202 0.559723 0.775736
Si Si7 0.847509 0.235340 0.377254
Si Si8 0.312361 0.060284 0.549281
O O1 0.553367 0.768226 0.080958
O O2 0.274141 0.692674 0.356653
O O3 0.500000 0.500000 0.000000
O O4 0.490841 0.734010 0.934422
O O5 0.333947 0.435073 0.475005
O O6 0.609184 0.319621 0.158931
O O7 0.370356 0.146871 0.384005
O O8 0.457767 0.695265 0.394621
O O9 0.248550 0.628644 0.803657
O O10 0.165563 0.677549 0.706718
O O11 0.717505 0.824382 0.071165
O O12 0.458472 0.978943 0.402651
O O13 0.757652 0.566234 0.066405
O O14 0.767212 0.820695 0.231891
O O15 0.984280 0.746430 0.783302
O O16 0.500000 0.500000 0.500000
O O17 0.812973 0.059952 0.358062
#
# Coordination Sequence:
#
# PCOD8029313 Si02
#       8
#     2   2   2   2   2   2   2   2
#     4  10  18  37  59  78 108 145 190 221 256 329
#     4  11  17  34  64  78 105 139 191 228 257 311
#     4   9  16  35  53  80 106 135 183 221 263 321
#     4  10  20  33  56  81 104 147 187 221 260 325
#     4  12  19  36  56  81 118 139 176 235 276 320
#     4  10  17  30  56  85 102 139 181 227 266 311
#     4  10  24  34  54  84 112 148 176 220 284 324
#     4  10  21  35  56  82 105 146 183 222 275 326
#
# _framework density 17.918430000000001
#
# number of rings (size 3 to 8) (size 9 to 14) (size 15 to 20)
#    0.000    2.000    7.500    0.750    0.000    3.500 
#    0.000    2.500    0.000    1.500    0.000    0.000 
#    0.000    0.000    0.000    0.000    0.000    0.000 
#
# Total GULP energy -198358.512033 kJ/mol
# GULP energy per Si atom -12397.407002 kJ/mol
# Density = 1.787765 g / cm^3
# Si number density = 17.918430 Si / 1000 Ang^3
#
#
#
# Elastic Constant Matrix: (Units=GPa)
#
#
# Indices 1 2 3 4 5 6 
#
# 1 83.8620 21.3144 49.0149 -19.7291 -2.8011 -7.3083
# 2 21.3144 88.4377 19.6581 -11.9608 -6.7415 -8.7330
# 3 49.0149 19.6581 72.5664 -10.1042 -5.7569 -1.1451
# 4 -19.7291 -11.9608 -10.1042 19.9136 1.1734 2.8980
# 5 -2.8011 -6.7415 -5.7569 1.1734 40.2465 -4.9922
# 6 -7.3083 -8.7330 -1.1451 2.8980 -4.9922 25.0235
#
#
#
# Elastic Compliance Matrix: (Units=1/GPa)
#
#
# Indices 1 2 3 4 5 6 
#
# 1 0.024461 -0.000111 -0.014166 0.016338 -0.000259 0.004513
# 2 -0.000111 0.013262 -0.002459 0.005859 0.002218 0.004247
# 3 -0.014166 -0.002459 0.023661 -0.003138 0.001679 -0.003214
# 4 0.016338 0.005859 -0.003138 0.068559 -0.000499 -0.001367
# 5 -0.000259 0.002218 0.001679 -0.000499 0.026207 0.006061
# 6 0.004513 0.004247 -0.003214 -0.001367 0.006061 0.043983
#
#
# Mechanical properties :
#
#
# Convention : Reuss Voigt Hill
#
# Bulk Modulus (GPa) = 35.82816 47.20456 41.51636
# Shear Modulus (GPa) = 20.58396 27.36196 23.97296
#
# Velocity S-wave (km/s) = 3.39301 3.91196 3.66169
# Velocity P-wave (km/s) = 5.94883 6.84148 6.41071
#
# Compressibility (1/GPa) = 0.02791101
#
# Stress axis : x y z
#
# Youngs Moduli (GPa) = 40.88219 75.40587 42.26398
#
# Poissons Ratio (x) = 0.00836 0.59872
# Poissons Ratio (y) = 0.00453 0.10392
# Poissons Ratio (z) = 0.57915 0.18541
#
# Static dielectric constant tensor:
#      x y z
#    x 3.621090 -0.157310 0.140230 
#    y -0.157310 3.363840 0.017170 
#    z 0.140230 0.017170 3.081730 
# 
# 
# High freq. dielectric constant tensor:
#      x y z
#    x 1.694210 -0.008770 0.007640 
#    y -0.008770 1.696610 0.003010 
#    z 0.007640 0.003010 1.655970 
# 
# From -- ./inp_files/189302.got.cif
#   From: 2010.06.25/outbox.cif.g09.slc.cpg/sg2_95_cif.got.tgz:189302.got - 2010.06.27 13:26:56.
