data_PCOD8029287
_publ_section_title
;
Structure prediction by ZEFSAII (Michael W. Deem and Ramdas Pophale) SiO2 
 PCOD8029287
Probable space group: P -1
;
_chemical_formula_sum "Si O2"
_cell_formula_units_Z 14
_cell_length_a 11.377640
_cell_length_b 9.933569
_cell_length_c 13.683377
_cell_angle_alpha 28.351147
_cell_angle_beta 44.287274
_cell_angle_gamma 51.393433
_cell_volume 512.710935
_symmetry_space_group_name_H-M "P -1"
_symmetry_group_IT_number 2
_symmetry_cell_setting 'triclinic'
loop_
_space_group_symop_operation_xyz
x,y,z
-x,-y,-z
loop_
_atom_site_type_symbol
_atom_site_label
_atom_site_fract_x
_atom_site_fract_y
_atom_site_fract_z
Si Si1 0.469492 0.167150 0.754398
Si Si2 0.052171 0.314939 0.800706
Si Si3 0.547466 0.143138 0.237718
Si Si4 0.350006 0.429083 0.423036
Si Si5 0.329270 0.197692 0.009837
Si Si6 0.196780 0.296076 0.410649
Si Si7 0.162181 0.689003 0.900208
O O1 0.500000 0.500000 0.500000
O O2 0.308610 0.129764 0.949696
O O3 0.425610 0.949351 0.831732
O O4 0.650705 0.064457 0.759655
O O5 0.949980 0.563522 0.650555
O O6 0.249719 0.371155 0.622517
O O7 0.019555 0.345965 0.916559
O O8 0.000000 0.000000 0.000000
O O9 0.381567 0.335683 0.223372
O O10 0.708567 0.299148 0.091635
O O11 0.529115 0.840752 0.499996
O O12 0.474266 0.692493 0.181460
O O13 0.207467 0.447741 0.412926
O O14 0.192294 0.416651 0.988416
O O15 0.157824 0.961559 0.658676
#
# Coordination Sequence:
#
# PCOD8029287 Si02
#       7
#     2   2   2   2   2   2   2
#     4  11  23  39  62  98 128 161 212 270 313 368
#     4  12  25  36  56  98 138 167 203 257 326 377
#     4  11  20  39  68  96 126 160 214 265 307 372
#     4  11  21  39  61  94 129 164 207 259 313 378
#     4  11  23  41  67  93 126 168 214 262 314 374
#     4  11  21  37  61  90 134 165 202 261 315 372
#     4  11  22  41  65  97 127 163 213 263 315 375
#
# _framework density 27.305835999999999
#
# number of rings (size 3 to 8) (size 9 to 14) (size 15 to 20)
#    0.000    0.857    7.143    2.143    2.000    1.143 
#    0.000    0.000    0.000    8.571    0.000    0.000 
#    0.000    0.000    0.000    0.000    0.000    0.000 
#
# Total GULP energy -173458.698633 kJ/mol
# GULP energy per Si atom -12389.907045 kJ/mol
# Density = 2.724369 g / cm^3
# Si number density = 27.305836 Si / 1000 Ang^3
#
#
#
# Elastic Constant Matrix: (Units=GPa)
#
#
# Indices 1 2 3 4 5 6 
#
# 1 29.6853 12.5929 -0.0739 -1.2294 6.6210 -3.4062
# 2 12.5929 175.6686 46.1005 4.1616 8.6599 4.1903
# 3 -0.0739 46.1005 91.1671 -1.0199 12.8122 -10.4943
# 4 -1.2294 4.1616 -1.0199 50.8496 -4.2113 12.1178
# 5 6.6210 8.6599 12.8122 -4.2113 33.2191 -0.2399
# 6 -3.4062 4.1903 -10.4943 12.1178 -0.2399 52.5355
#
#
#
# Elastic Compliance Matrix: (Units=1/GPa)
#
#
# Indices 1 2 3 4 5 6 
#
# 1 0.037141 -0.003166 0.003101 -0.000209 -0.007776 0.003293
# 2 -0.003166 0.006922 -0.003697 -0.000365 0.000196 -0.001411
# 3 0.003101 -0.003697 0.013938 -0.000571 -0.005078 0.003389
# 4 -0.000209 -0.000365 -0.000571 0.021108 0.002997 -0.004954
# 5 -0.007776 0.000196 -0.005078 0.002997 0.033925 -0.002071
# 6 0.003293 -0.001411 0.003389 -0.004954 -0.002071 0.021171
#
#
# Mechanical properties :
#
#
# Convention : Reuss Voigt Hill
#
# Bulk Modulus (GPa) = 19.81125 45.97331 32.89228
# Shear Modulus (GPa) = 31.53445 43.18095 37.35770
#
# Velocity S-wave (km/s) = 3.40201 3.98097 3.70283
# Velocity P-wave (km/s) = 4.76473 6.16473 5.50938
#
# Compressibility (1/GPa) = 0.05047636
#
# Stress axis : x y z
#
# Youngs Moduli (GPa) = 26.92426 144.45907 71.74536
#
# Poissons Ratio (x) = 0.45743 -0.22247
# Poissons Ratio (y) = 0.08526 0.26525
# Poissons Ratio (z) = -0.08349 0.53407
#
# Static dielectric constant tensor:
#      x y z
#    x 4.760710 0.107690 0.441850 
#    y 0.107690 5.284990 0.083760 
#    z 0.441850 0.083760 5.126610 
# 
# 
# High freq. dielectric constant tensor:
#      x y z
#    x 2.072830 0.002500 0.032370 
#    y 0.002500 2.122940 -0.011860 
#    z 0.032370 -0.011860 2.106100 
# 
# From -- ./inp_files/531465.got.cif
#   From: 2010.06.25/outbox.cif.g09.slc.cpg/sg2_266_cif.got.tgz:531465.got - 2010.06.27 13:26:56.
