data_PCOD8029165
_publ_section_title
;
Structure prediction by ZEFSAII (Michael W. Deem and Ramdas Pophale) SiO2 
 PCOD8029165
Probable space group: P -1
;
_chemical_formula_sum "Si O2"
_cell_formula_units_Z 14
_cell_length_a 9.549122
_cell_length_b 17.266765
_cell_length_c 8.575601
_cell_angle_alpha 123.188141
_cell_angle_beta 77.784067
_cell_angle_gamma 55.197286
_cell_volume 628.566177
_symmetry_space_group_name_H-M "P -1"
_symmetry_group_IT_number 2
_symmetry_cell_setting 'triclinic'
loop_
_space_group_symop_operation_xyz
x,y,z
-x,-y,-z
loop_
_atom_site_type_symbol
_atom_site_label
_atom_site_fract_x
_atom_site_fract_y
_atom_site_fract_z
Si Si1 0.518086 0.209114 0.183192
Si Si2 0.902509 0.867983 0.859534
Si Si3 0.484578 0.585882 0.470527
Si Si4 0.595753 0.025541 0.388939
Si Si5 0.771046 0.382456 0.882397
Si Si6 0.178999 0.255978 0.471143
Si Si7 0.170842 0.996823 0.423260
O O1 0.485905 0.334510 0.358126
O O2 0.237275 0.309994 0.399350
O O3 0.744079 0.049154 0.069915
O O4 0.606541 0.143212 0.912688
O O5 0.772309 0.865096 0.769112
O O6 0.207985 0.722709 0.595122
O O7 0.853915 0.859930 0.040727
O O8 0.500000 0.500000 0.500000
O O9 0.720624 0.447672 0.139519
O O10 0.363596 0.170531 0.482722
O O11 0.500000 0.000000 0.500000
O O12 0.673704 0.070280 0.526345
O O13 0.884025 0.406539 0.777010
O O14 0.985373 0.183226 0.619803
O O15 0.500000 0.500000 0.000000
O O16 0.000000 0.000000 0.500000
#
# Coordination Sequence:
#
# PCOD8029165 Si02
#       7
#     2   2   2   2   2   2   2
#     4  11  23  44  69  99 129 174 233 274 327 396
#     4  11  21  42  70  97 131 176 224 272 331 400
#     4  12  26  43  65  98 140 178 215 274 343 400
#     4  11  20  36  67 101 130 162 221 286 324 374
#     4  12  24  44  68  95 138 179 217 268 344 412
#     4  11  23  42  71  99 133 177 225 281 337 389
#     4  12  24  43  70 103 130 172 230 282 325 388
#
# _framework density 22.272914
#
# number of rings (size 3 to 8) (size 9 to 14) (size 15 to 20)
#    0.000    0.571    4.286    5.571    0.000    4.000 
#    0.000    0.714    0.000    0.000    0.000    0.000 
#    0.000    0.000    0.000    0.000    0.000    0.000 
#
# Total GULP energy -173517.023711 kJ/mol
# GULP energy per Si atom -12394.073122 kJ/mol
# Density = 2.222222 g / cm^3
# Si number density = 22.272914 Si / 1000 Ang^3
#
#
#
# Elastic Constant Matrix: (Units=GPa)
#
#
# Indices 1 2 3 4 5 6 
#
# 1 176.4633 54.6627 78.0381 -19.9263 -3.4928 1.0161
# 2 54.6627 77.8025 52.2449 -30.4288 7.0765 4.8697
# 3 78.0381 52.2449 158.7851 -42.2538 -2.2912 13.7015
# 4 -19.9263 -30.4288 -42.2538 46.5855 7.6510 -0.4546
# 5 -3.4928 7.0765 -2.2912 7.6510 48.8611 -10.5055
# 6 1.0161 4.8697 13.7015 -0.4546 -10.5055 43.2854
#
#
#
# Elastic Compliance Matrix: (Units=1/GPa)
#
#
# Indices 1 2 3 4 5 6 
#
# 1 0.008475 -0.005225 -0.003449 -0.003247 0.002131 0.001964
# 2 -0.005225 0.023310 -0.001533 0.012642 -0.006547 -0.003471
# 3 -0.003449 -0.001533 0.010764 0.007488 -0.001428 -0.003422
# 4 -0.003247 0.012642 0.007488 0.036485 -0.008590 -0.005418
# 5 0.002131 -0.006547 -0.001428 -0.008590 0.024340 0.006956
# 6 0.001964 -0.003471 -0.003422 -0.005418 0.006956 0.026161
#
#
# Mechanical properties :
#
#
# Convention : Reuss Voigt Hill
#
# Bulk Modulus (GPa) = 45.17309 86.99357 66.08333
# Shear Modulus (GPa) = 31.78075 42.95341 37.36708
#
# Velocity S-wave (km/s) = 3.78150 4.39624 4.10041
# Velocity P-wave (km/s) = 6.27631 8.05680 7.22163
#
# Compressibility (1/GPa) = 0.02213707
#
# Stress axis : x y z
#
# Youngs Moduli (GPa) = 117.99678 42.89913 92.89916
#
# Poissons Ratio (x) = 0.22415 0.32037
# Poissons Ratio (y) = 0.61655 0.14238
# Poissons Ratio (z) = 0.40692 0.06575
#
# Static dielectric constant tensor:
#      x y z
#    x 6.129960 -3.689920 1.236210 
#    y -3.689920 12.497840 -4.182020 
#    z 1.236210 -4.182020 6.044920 
# 
# 
# High freq. dielectric constant tensor:
#      x y z
#    x 1.891140 -0.003260 -0.015760 
#    y -0.003260 1.863820 -0.040090 
#    z -0.015760 -0.040090 1.883980 
# 
# From -- ./inp_files/189824.got.cif
#   From: 2010.06.25/outbox.cif.g09.slc.cpg/sg2_95_cif.got.tgz:189824.got - 2010.06.27 13:26:56.
