data_PCOD8029185
_publ_section_title
;
Structure prediction by ZEFSAII (Michael W. Deem and Ramdas Pophale) SiO2 
 PCOD8029185
Probable space group: P -1
;
_chemical_formula_sum "Si O2"
_cell_formula_units_Z 16
_cell_length_a 10.403958
_cell_length_b 15.452670
_cell_length_c 9.873489
_cell_angle_alpha 36.166501
_cell_angle_beta 100.211013
_cell_angle_gamma 116.033471
_cell_volume 793.399746
_symmetry_space_group_name_H-M "P -1"
_symmetry_group_IT_number 2
_symmetry_cell_setting 'triclinic'
loop_
_space_group_symop_operation_xyz
x,y,z
-x,-y,-z
loop_
_atom_site_type_symbol
_atom_site_label
_atom_site_fract_x
_atom_site_fract_y
_atom_site_fract_z
Si Si1 0.340740 0.403486 0.727843
Si Si2 0.346282 0.932385 0.470458
Si Si3 0.621913 0.373163 0.778108
Si Si4 0.523843 0.010652 0.149191
Si Si5 0.861908 0.917151 0.747672
Si Si6 0.145708 0.232237 0.346874
Si Si7 0.286300 0.588825 0.947845
Si Si8 0.524231 0.685640 0.634602
O O1 0.450532 0.337581 0.776619
O O2 0.283401 0.477098 0.502787
O O3 0.420110 0.549262 0.673644
O O4 0.189931 0.232907 0.963975
O O5 0.240344 0.732216 0.737173
O O6 0.500000 0.000000 0.500000
O O7 0.375268 0.954389 0.286075
O O8 0.267612 0.037297 0.367021
O O9 0.638123 0.209299 0.954128
O O10 0.675312 0.428001 0.869791
O O11 0.581279 0.881591 0.359361
O O12 0.500000 0.000000 0.000000
O O13 0.893048 0.848074 0.705185
O O14 0.018315 0.089430 0.604208
O O15 0.318400 0.308937 0.329524
O O16 0.138348 0.405735 0.116911
O O17 0.432795 0.634392 0.823543
#
# Coordination Sequence:
#
# PCOD8029185 Si02
#       8
#     2   2   2   2   2   2   2   2
#     4  11  20  37  61  86 120 150 195 246 286 351
#     4  11  21  37  63  89 116 152 194 252 289 344
#     4  11  21  34  59  90 115 150 194 249 292 336
#     4  11  21  34  56  92 120 147 195 250 296 340
#     4  11  23  40  58  90 125 154 193 244 305 346
#     4  11  23  37  60  90 121 158 194 244 296 353
#     4  11  21  36  61  90 115 151 204 242 288 348
#     4  11  21  35  64  90 116 153 200 245 285 352
#
# _framework density 20.166378000000002
#
# number of rings (size 3 to 8) (size 9 to 14) (size 15 to 20)
#    0.000    1.000    6.250    2.625    0.000    0.500 
#    0.000    0.625    0.000    0.750    0.000    0.000 
#    0.000    0.000    0.000    0.000    0.000    0.000 
#
# Total GULP energy -198245.086392 kJ/mol
# GULP energy per Si atom -12390.317899 kJ/mol
# Density = 2.012048 g / cm^3
# Si number density = 20.166378 Si / 1000 Ang^3
#
#
#
# Elastic Constant Matrix: (Units=GPa)
#
#
# Indices 1 2 3 4 5 6 
#
# 1 19.9893 19.3136 34.0363 -8.5776 -4.3604 -0.2245
# 2 19.3136 97.4032 67.7607 -2.0142 -2.9490 -13.3252
# 3 34.0363 67.7607 208.0083 -19.6941 -7.9014 -1.2147
# 4 -8.5776 -2.0142 -19.6941 48.2716 -6.6819 3.5374
# 5 -4.3604 -2.9490 -7.9014 -6.6819 26.5276 -7.1654
# 6 -0.2245 -13.3252 -1.2147 3.5374 -7.1654 20.2484
#
#
#
# Elastic Compliance Matrix: (Units=1/GPa)
#
#
# Indices 1 2 3 4 5 6 
#
# 1 0.082584 -0.010479 -0.008467 0.012759 0.011883 -0.004512
# 2 -0.010479 0.016622 -0.003912 -0.003446 0.001233 0.011626
# 3 -0.008467 -0.003912 0.007616 0.001645 0.000201 -0.002428
# 4 0.012759 -0.003446 0.001645 0.024815 0.007448 -0.003727
# 5 0.011883 0.001233 0.000201 0.007448 0.046029 0.015942
# 6 -0.004512 0.011626 -0.002428 -0.003727 0.015942 0.063135
#
#
# Mechanical properties :
#
#
# Convention : Reuss Voigt Hill
#
# Bulk Modulus (GPa) = 16.36441 63.06910 39.71676
# Shear Modulus (GPa) = 16.29274 32.62885 24.46080
#
# Velocity S-wave (km/s) = 2.84547 4.02678 3.48652
# Velocity P-wave (km/s) = 4.35062 7.27751 5.99542
#
# Compressibility (1/GPa) = 0.06110821
#
# Stress axis : x y z
#
# Youngs Moduli (GPa) = 12.10890 60.16013 131.29577
#
# Poissons Ratio (x) = 0.63041 1.11162
# Poissons Ratio (y) = 0.12689 0.51359
# Poissons Ratio (z) = 0.10252 0.23533
#
# Static dielectric constant tensor:
#      x y z
#    x 3.436540 -0.370710 0.018270 
#    y -0.370710 3.809160 -0.320870 
#    z 0.018270 -0.320870 4.767150 
# 
# 
# High freq. dielectric constant tensor:
#      x y z
#    x 1.738310 -0.038670 0.009100 
#    y -0.038670 1.782960 -0.015680 
#    z 0.009100 -0.015680 1.820190 
# 
# From -- ./inp_files/269483.got.cif
#   From: 2010.06.25/outbox.cif.g09.slc.cpg/sg2_135_cif.got.tgz:269483.got - 2010.06.27 13:26:56.
