data_PCOD8029291
_publ_section_title
;
Structure prediction by ZEFSAII (Michael W. Deem and Ramdas Pophale) SiO2 
 PCOD8029291
Probable space group: P -1
;
_chemical_formula_sum "Si O2"
_cell_formula_units_Z 16
_cell_length_a 10.118128
_cell_length_b 11.340757
_cell_length_c 14.642413
_cell_angle_alpha 60.090385
_cell_angle_beta 116.917585
_cell_angle_gamma 66.310174
_cell_volume 758.119690
_symmetry_space_group_name_H-M "P -1"
_symmetry_group_IT_number 2
_symmetry_cell_setting 'triclinic'
loop_
_space_group_symop_operation_xyz
x,y,z
-x,-y,-z
loop_
_atom_site_type_symbol
_atom_site_label
_atom_site_fract_x
_atom_site_fract_y
_atom_site_fract_z
Si Si1 0.765402 0.364447 0.606589
Si Si2 0.107457 0.893005 0.976214
Si Si3 0.985019 0.327849 0.317977
Si Si4 0.757630 0.606157 0.973177
Si Si5 0.611630 0.191993 0.379880
Si Si6 0.147495 0.180021 0.136740
Si Si7 0.351102 0.307817 0.436519
Si Si8 0.313723 0.554754 0.657445
O O1 0.500000 0.500000 0.500000
O O2 0.813491 0.454798 0.654671
O O3 0.766948 0.411873 0.484572
O O4 0.979123 0.089853 0.787849
O O5 0.062253 0.767077 0.989211
O O6 0.402053 0.708423 0.136881
O O7 0.000000 0.000000 0.000000
O O8 0.875342 0.392002 0.360167
O O9 0.193089 0.289594 0.395928
O O10 0.747375 0.543031 0.094078
O O11 0.130348 0.085539 0.422479
O O12 0.519152 0.739408 0.785516
O O13 0.767241 0.763691 0.928501
O O14 0.027550 0.351240 0.117534
O O15 0.407840 0.309300 0.349752
O O16 0.706962 0.273841 0.386026
O O17 0.385296 0.911607 0.343657
#
# Coordination Sequence:
#
# PCOD8029291 Si02
#       8
#     2   2   2   2   2   2   2   2
#     4  12  24  43  73 100 123 174 232 277 324 384
#     4  12  23  42  71  99 125 171 229 279 321 381
#     4  12  28  43  64 102 143 175 211 272 345 394
#     4  11  24  37  65 100 131 175 217 264 330 389
#     4  12  22  44  71  99 133 178 223 267 327 401
#     4  11  20  39  68  98 131 168 227 274 314 388
#     4  12  22  44  73  99 133 174 225 279 320 395
#     4  12  27  46  67 100 138 173 219 277 337 394
#
# _framework density 21.104848
#
# number of rings (size 3 to 8) (size 9 to 14) (size 15 to 20)
#    0.000    0.250    7.500    2.250    1.750    2.000 
#    0.000    0.625    0.000    0.000    0.000    0.000 
#    0.000    0.000    0.000    0.000    0.000    0.000 
#
# Total GULP energy -198459.296752 kJ/mol
# GULP energy per Si atom -12403.706047 kJ/mol
# Density = 2.105681 g / cm^3
# Si number density = 21.104848 Si / 1000 Ang^3
#
#
#
# Elastic Constant Matrix: (Units=GPa)
#
#
# Indices 1 2 3 4 5 6 
#
# 1 63.5779 20.1808 19.9591 10.3187 -15.1662 -22.0797
# 2 20.1808 82.2729 23.3377 2.4573 -12.4723 -6.8804
# 3 19.9591 23.3377 107.0777 3.7305 -18.0810 -7.5855
# 4 10.3187 2.4573 3.7305 35.6868 0.2079 -12.6126
# 5 -15.1662 -12.4723 -18.0810 0.2079 28.4641 6.5509
# 6 -22.0797 -6.8804 -7.5855 -12.6126 6.5509 28.2829
#
#
#
# Elastic Compliance Matrix: (Units=1/GPa)
#
#
# Indices 1 2 3 4 5 6 
#
# 1 0.024608 -0.003162 -0.001533 -0.001173 0.007111 0.015861
# 2 -0.003162 0.013944 -0.001920 0.000013 0.003285 -0.000346
# 3 -0.001533 -0.001920 0.010954 -0.000701 0.005371 -0.000282
# 4 -0.001173 0.000013 -0.000701 0.033789 -0.004781 0.015075
# 5 0.007111 0.003285 0.005371 -0.004781 0.044898 -0.004740
# 6 0.015861 -0.000346 -0.000282 0.015075 -0.004740 0.055400
#
#
# Mechanical properties :
#
#
# Convention : Reuss Voigt Hill
#
# Bulk Modulus (GPa) = 27.56535 42.20930 34.88732
# Shear Modulus (GPa) = 23.93329 31.11680 27.52505
#
# Velocity S-wave (km/s) = 3.37117 3.84395 3.61530
# Velocity P-wave (km/s) = 5.31437 6.30432 5.83040
#
# Compressibility (1/GPa) = 0.03627743
#
# Stress axis : x y z
#
# Youngs Moduli (GPa) = 40.63639 71.71788 91.28712
#
# Poissons Ratio (x) = 0.22677 0.13990
# Poissons Ratio (y) = 0.12849 0.17526
# Poissons Ratio (z) = 0.06228 0.13769
#
# Static dielectric constant tensor:
#      x y z
#    x 3.654960 0.141350 -0.356740 
#    y 0.141350 4.121240 -0.286810 
#    z -0.356740 -0.286810 4.215160 
# 
# 
# High freq. dielectric constant tensor:
#      x y z
#    x 1.808240 0.014820 -0.016220 
#    y 0.014820 1.823350 -0.001950 
#    z -0.016220 -0.001950 1.844740 
# 
# From -- ./inp_files/399723.got.cif
#   From: 2010.06.25/outbox.cif.g09.slc.cpg/sg2_200_cif.got.tgz:399723.got - 2010.06.27 13:26:56.
