data_PCOD8029809
_publ_section_title
;
Structure prediction by ZEFSAII (Michael W. Deem and Ramdas Pophale) SiO2 
 PCOD8029809
Probable space group: P -1
;
_chemical_formula_sum "Si O2"
_cell_formula_units_Z 16
_cell_length_a 9.513835
_cell_length_b 8.195437
_cell_length_c 11.621828
_cell_angle_alpha 104.557018
_cell_angle_beta 108.552573
_cell_angle_gamma 111.338109
_cell_volume 727.744686
_symmetry_space_group_name_H-M "P -1"
_symmetry_group_IT_number 2
_symmetry_cell_setting 'triclinic'
loop_
_space_group_symop_operation_xyz
x,y,z
-x,-y,-z
loop_
_atom_site_type_symbol
_atom_site_label
_atom_site_fract_x
_atom_site_fract_y
_atom_site_fract_z
Si Si1 0.219487 0.011225 0.981585
Si Si2 0.806494 0.335877 0.207519
Si Si3 0.479992 0.564804 0.880636
Si Si4 0.911588 0.023059 0.809966
Si Si5 0.316644 0.828699 0.615898
Si Si6 0.422530 0.276450 0.423884
Si Si7 0.144780 0.689837 0.304310
Si Si8 0.488691 0.751288 0.311730
O O1 0.087917 0.019755 0.857515
O O2 0.275639 0.859269 0.923477
O O3 0.380488 0.219014 0.072986
O O4 0.130500 0.932215 0.066489
O O5 0.702943 0.450417 0.180590
O O6 0.808158 0.282484 0.332002
O O7 0.998576 0.470697 0.240938
O O8 0.496562 0.426313 0.767108
O O9 0.500000 0.500000 0.000000
O O10 0.929661 0.187756 0.756459
O O11 0.766358 0.815063 0.691219
O O12 0.461908 0.766097 0.640798
O O13 0.209783 0.776853 0.462374
O O14 0.413098 0.058576 0.707332
O O15 0.500000 0.500000 0.500000
O O16 0.419730 0.182836 0.529356
O O17 0.291459 0.690205 0.263559
#
# Coordination Sequence:
#
# PCOD8029809 Si02
#       8
#     2   2   2   2   2   2   2   2
#     4  11  27  43  68  99 139 184 229 284 341 412
#     4  12  27  45  69 101 143 182 226 288 358 405
#     4  12  27  47  69 101 140 186 233 278 352 422
#     4  11  23  44  67 103 137 174 237 287 334 402
#     4  11  22  45  68 106 141 181 226 286 354 412
#     4  11  21  39  72 103 135 179 234 286 339 405
#     4  11  24  43  71 105 138 179 230 290 341 410
#     4  11  23  43  75 102 133 184 236 280 341 412
#
# _framework density 21.985735999999999
#
# number of rings (size 3 to 8) (size 9 to 14) (size 15 to 20)
#    0.000    0.750    2.500    5.250    8.750    0.500 
#    2.250    1.250    0.000    0.000    0.000    0.000 
#    0.000    0.000    0.000    0.000    0.000    0.000 
#
# Total GULP energy -198499.019325 kJ/mol
# GULP energy per Si atom -12406.188708 kJ/mol
# Density = 2.193570 g / cm^3
# Si number density = 21.985736 Si / 1000 Ang^3
#
#
#
# Elastic Constant Matrix: (Units=GPa)
#
#
# Indices 1 2 3 4 5 6 
#
# 1 83.2457 38.2044 33.8756 7.0712 3.9106 -7.8239
# 2 38.2044 127.0517 33.1926 11.0029 -1.5393 -2.6482
# 3 33.8756 33.1926 82.6915 7.1953 4.0895 -5.2734
# 4 7.0712 11.0029 7.1953 48.7717 -3.7109 -6.4430
# 5 3.9106 -1.5393 4.0895 -3.7109 38.1278 3.8633
# 6 -7.8239 -2.6482 -5.2734 -6.4430 3.8633 34.2776
#
#
#
# Elastic Compliance Matrix: (Units=1/GPa)
#
#
# Indices 1 2 3 4 5 6 
#
# 1 0.015942 -0.003439 -0.004849 -0.000584 -0.001584 0.002696
# 2 -0.003439 0.009656 -0.002446 -0.001349 0.000952 -0.000776
# 3 -0.004849 -0.002446 0.015283 -0.000973 -0.001440 0.001035
# 4 -0.000584 -0.001349 -0.000973 0.021636 0.001864 0.003470
# 5 -0.001584 0.000952 -0.001440 0.001864 0.027090 -0.003212
# 6 0.002696 -0.000776 0.001035 0.003470 -0.003212 0.030902
#
#
# Mechanical properties :
#
#
# Convention : Reuss Voigt Hill
#
# Bulk Modulus (GPa) = 51.51429 55.94823 53.73126
# Shear Modulus (GPa) = 33.68137 36.74985 35.21561
#
# Velocity S-wave (km/s) = 3.91828 4.09287 4.00653
# Velocity P-wave (km/s) = 6.62964 6.91652 6.77460
#
# Compressibility (1/GPa) = 0.01941209
#
# Stress axis : x y z
#
# Youngs Moduli (GPa) = 62.72871 103.55946 65.43011
#
# Poissons Ratio (x) = 0.35616 0.31728
# Poissons Ratio (y) = 0.21574 0.16007
# Poissons Ratio (z) = 0.30418 0.25334
#
# Static dielectric constant tensor:
#      x y z
#    x 3.947480 -0.027490 0.070060 
#    y -0.027490 4.145390 -0.172720 
#    z 0.070060 -0.172720 4.069190 
# 
# 
# High freq. dielectric constant tensor:
#      x y z
#    x 1.857950 -0.000580 0.002030 
#    y -0.000580 1.882390 -0.003920 
#    z 0.002030 -0.003920 1.871270 
# 
# From -- ./inp_files/382996.got.cif
#   From: 2010.06.25/outbox.cif.g09.slc.cpg/sg2_192_cif.got.tgz:382996.got - 2010.06.27 13:26:56.
