data_PCOD8029988
_publ_section_title
;
Structure prediction by ZEFSAII (Michael W. Deem and Ramdas Pophale) SiO2 
 PCOD8029988
Probable space group: P -1
;
_chemical_formula_sum "Si O2"
_cell_formula_units_Z 16
_cell_length_a 15.314018
_cell_length_b 15.948321
_cell_length_c 12.205571
_cell_angle_alpha 60.421485
_cell_angle_beta 41.974778
_cell_angle_gamma 27.121357
_cell_volume 758.306985
_symmetry_space_group_name_H-M "P -1"
_symmetry_group_IT_number 2
_symmetry_cell_setting 'triclinic'
loop_
_space_group_symop_operation_xyz
x,y,z
-x,-y,-z
loop_
_atom_site_type_symbol
_atom_site_label
_atom_site_fract_x
_atom_site_fract_y
_atom_site_fract_z
Si Si1 0.127778 0.856981 0.824244
Si Si2 0.083584 0.536590 0.471216
Si Si3 0.884478 0.559595 0.258148
Si Si4 0.908337 0.860497 0.868810
Si Si5 0.412493 0.400702 0.625539
Si Si6 0.538362 0.168918 0.826756
Si Si7 0.398654 0.663690 0.925080
Si Si8 0.516367 0.029546 0.750961
O O1 0.333912 0.750155 0.601007
O O2 0.335193 0.684439 0.842694
O O3 0.921291 0.905590 0.944795
O O4 0.917710 0.088058 0.894943
O O5 0.191316 0.427423 0.558801
O O6 0.350135 0.420529 0.241887
O O7 0.000000 0.500000 0.500000
O O8 0.806902 0.792500 0.576138
O O9 0.834674 0.509235 0.248223
O O10 0.661631 0.795613 0.289747
O O11 0.223773 0.366951 0.054502
O O12 0.243561 0.609595 0.683238
O O13 0.790143 0.008512 0.787972
O O14 0.688201 0.917488 0.043763
O O15 0.556177 0.258971 0.691068
O O16 0.608751 0.035837 0.762143
O O17 0.500000 0.500000 0.000000
#
# Coordination Sequence:
#
# PCOD8029988 Si02
#       8
#     2   2   2   2   2   2   2   2
#     4  11  27  45  65  92 134 178 220 272 316 392
#     4  12  26  43  70 100 126 170 230 279 322 381
#     4  11  21  41  68  96 134 167 209 271 337 395
#     4  12  22  38  65 101 135 168 213 267 328 395
#     4  11  22  41  64  96 134 171 214 260 334 398
#     4  11  22  37  68 100 132 170 210 268 335 399
#     4  11  28  49  69  91 131 183 228 266 328 387
#     4  11  22  38  68  97 133 168 211 273 335 385
#
# _framework density 21.099632
#
# number of rings (size 3 to 8) (size 9 to 14) (size 15 to 20)
#    0.000    0.750    5.000    3.000    3.500    3.000 
#    0.000    0.000    0.000    0.000    0.000    0.000 
#    0.000    0.000    0.000    0.000    0.000    0.000 
#
# Total GULP energy -198456.392085 kJ/mol
# GULP energy per Si atom -12403.524505 kJ/mol
# Density = 2.105161 g / cm^3
# Si number density = 21.099632 Si / 1000 Ang^3
#
#
#
# Elastic Constant Matrix: (Units=GPa)
#
#
# Indices 1 2 3 4 5 6 
#
# 1 93.9820 51.3236 9.5841 -3.8656 -1.4346 -14.4329
# 2 51.3236 152.2860 39.7879 -9.3419 7.0470 -22.8183
# 3 9.5841 39.7879 95.5090 -5.6590 1.8001 -3.7225
# 4 -3.8656 -9.3419 -5.6590 36.2772 -3.6975 12.8266
# 5 -1.4346 7.0470 1.8001 -3.6975 20.1209 2.3088
# 6 -14.4329 -22.8183 -3.7225 12.8266 2.3088 11.4329
#
#
#
# Elastic Compliance Matrix: (Units=1/GPa)
#
#
# Indices 1 2 3 4 5 6 
#
# 1 0.015058 -0.001535 -0.000306 -0.008164 -0.002796 0.025571
# 2 -0.001535 0.014615 -0.004819 -0.013870 -0.012363 0.043720
# 3 -0.000306 -0.004819 0.012278 0.005455 0.003032 -0.012740
# 4 -0.008164 -0.013870 0.005455 0.069702 0.030430 -0.120557
# 5 -0.002796 -0.012363 0.003032 0.030430 0.067761 -0.075039
# 6 0.025571 0.043720 -0.012740 -0.120557 -0.075039 0.353265
#
#
# Mechanical properties :
#
#
# Convention : Reuss Voigt Hill
#
# Bulk Modulus (GPa) = 34.92726 60.35204 47.63965
# Shear Modulus (GPa) = 9.00018 29.63830 19.31924
#
# Velocity S-wave (km/s) = 2.06756 3.75198 3.02920
# Velocity P-wave (km/s) = 4.72114 6.88732 5.90442
#
# Compressibility (1/GPa) = 0.02863093
#
# Stress axis : x y z
#
# Youngs Moduli (GPa) = 66.40891 68.42163 81.44540
#
# Poissons Ratio (x) = 0.10502 0.02493
# Poissons Ratio (y) = 0.10193 0.39251
# Poissons Ratio (z) = 0.02032 0.32975
#
# Static dielectric constant tensor:
#      x y z
#    x 4.010880 -0.068880 -0.009240 
#    y -0.068880 4.273110 -0.030090 
#    z -0.009240 -0.030090 3.729210 
# 
# 
# High freq. dielectric constant tensor:
#      x y z
#    x 1.823030 -0.006320 0.000340 
#    y -0.006320 1.840300 0.002980 
#    z 0.000340 0.002980 1.830020 
# 
# From -- ./inp_files/271984.got.cif
#   From: 2010.06.25/outbox.cif.g09.slc.cpg/sg2_136_cif.got.tgz:271984.got - 2010.06.27 13:26:56.
