data_PCOD8029951
_publ_section_title
;
Structure prediction by ZEFSAII (Michael W. Deem and Ramdas Pophale) SiO2 
 PCOD8029951
Probable space group: P -1
;
_chemical_formula_sum "Si O2"
_cell_formula_units_Z 16
_cell_length_a 8.885665
_cell_length_b 12.939368
_cell_length_c 9.202125
_cell_angle_alpha 108.955454
_cell_angle_beta 68.547554
_cell_angle_gamma 68.215366
_cell_volume 773.738635
_symmetry_space_group_name_H-M "P -1"
_symmetry_group_IT_number 2
_symmetry_cell_setting 'triclinic'
loop_
_space_group_symop_operation_xyz
x,y,z
-x,-y,-z
loop_
_atom_site_type_symbol
_atom_site_label
_atom_site_fract_x
_atom_site_fract_y
_atom_site_fract_z
Si Si1 0.080256 0.068712 0.411791
Si Si2 0.630168 0.372252 0.988717
Si Si3 0.939529 0.754889 0.276293
Si Si4 0.437063 0.217479 0.500758
Si Si5 0.557107 0.178595 0.755022
Si Si6 0.005621 0.883612 0.864447
Si Si7 0.305333 0.080579 0.813673
Si Si8 0.422732 0.637570 0.666165
O O1 0.013860 0.207270 0.568246
O O2 0.996303 0.093421 0.293311
O O3 0.310628 0.970896 0.301637
O O4 0.000000 0.000000 0.500000
O O5 0.617245 0.259833 0.864709
O O6 0.844438 0.349139 0.911997
O O7 0.500000 0.500000 0.000000
O O8 0.540382 0.389573 0.187882
O O9 0.792989 0.708360 0.341014
O O10 0.835749 0.878158 0.257990
O O11 0.563981 0.204912 0.592346
O O12 0.458703 0.302981 0.410904
O O13 0.518726 0.071592 0.342812
O O14 0.353877 0.192122 0.858529
O O15 0.193324 0.741226 0.771152
O O16 0.809289 0.896496 0.986504
O O17 0.000000 0.000000 0.000000
O O18 0.500000 0.500000 0.500000
#
# Coordination Sequence:
#
# PCOD8029951 Si02
#       8
#     2   2   2   2   2   2   2   2
#     4  12  21  33  64  97 129 167 214 266 330 384
#     4  12  27  46  68  91 129 180 232 270 322 402
#     4  11  22  42  67 100 133 169 214 274 331 394
#     4  11  22  42  70 101 139 171 213 273 341 395
#     4  11  22  39  66 100 134 168 213 274 325 391
#     4  12  24  39  66  97 135 175 222 278 331 393
#     4  11  21  41  66 105 136 169 213 275 344 391
#     4  12  27  47  66  94 135 182 222 272 338 399
#
# _framework density 20.678819000000001
#
# number of rings (size 3 to 8) (size 9 to 14) (size 15 to 20)
#    0.000    0.500    6.250    3.750    1.750    1.500 
#    2.250    2.500    0.000    0.000    0.000    0.000 
#    0.000    0.000    0.000    0.000    0.000    0.000 
#
# Total GULP energy -198246.321406 kJ/mol
# GULP energy per Si atom -12390.395088 kJ/mol
# Density = 2.063175 g / cm^3
# Si number density = 20.678819 Si / 1000 Ang^3
#
#
#
# Elastic Constant Matrix: (Units=GPa)
#
#
# Indices 1 2 3 4 5 6 
#
# 1 90.3718 40.2891 42.4728 -8.3207 -7.8927 5.7359
# 2 40.2891 118.3062 49.9049 -18.1348 -7.2320 -4.9392
# 3 42.4728 49.9049 102.2871 -14.3319 0.4226 3.2862
# 4 -8.3207 -18.1348 -14.3319 43.0100 -3.4348 -1.2861
# 5 -7.8927 -7.2320 0.4226 -3.4348 38.8936 -10.2473
# 6 5.7359 -4.9392 3.2862 -1.2861 -10.2473 30.2449
#
#
#
# Elastic Compliance Matrix: (Units=1/GPa)
#
#
# Indices 1 2 3 4 5 6 
#
# 1 0.014930 -0.003090 -0.004611 0.000140 0.001946 -0.002170
# 2 -0.003090 0.012246 -0.004352 0.003493 0.003130 0.004268
# 3 -0.004611 -0.004352 0.014134 0.001738 -0.002292 -0.002075
# 4 0.000140 0.003493 0.001738 0.025700 0.003634 0.002679
# 5 0.001946 0.003130 -0.002292 0.003634 0.029842 0.010656
# 6 -0.002170 0.004268 -0.002075 0.002679 0.010656 0.038122
#
#
# Mechanical properties :
#
#
# Convention : Reuss Voigt Hill
#
# Bulk Modulus (GPa) = 58.12474 64.03318 61.07896
# Shear Modulus (GPa) = 30.33733 34.31626 32.32679
#
# Velocity S-wave (km/s) = 3.83439 4.07810 3.95812
# Velocity P-wave (km/s) = 6.91179 7.29434 7.10564
#
# Compressibility (1/GPa) = 0.01720438
#
# Stress axis : x y z
#
# Youngs Moduli (GPa) = 66.97744 81.66152 70.75152
#
# Poissons Ratio (x) = 0.25231 0.32623
# Poissons Ratio (y) = 0.20694 0.30793
# Poissons Ratio (z) = 0.30882 0.35541
#
# Static dielectric constant tensor:
#      x y z
#    x 4.226510 -0.643580 -1.114540 
#    y -0.643580 6.073220 2.922100 
#    z -1.114540 2.922100 7.820820 
# 
# 
# High freq. dielectric constant tensor:
#      x y z
#    x 1.819750 0.000900 -0.006520 
#    y 0.000900 1.795720 -0.019790 
#    z -0.006520 -0.019790 1.808260 
# 
# From -- ./inp_files/189151.got.cif
#   From: 2010.06.25/outbox.cif.g09.slc.cpg/sg2_95_cif.got.tgz:189151.got - 2010.06.27 13:26:56.
