data_PCOD8029375
_publ_section_title
;
Structure prediction by ZEFSAII (Michael W. Deem and Ramdas Pophale) SiO2 
 PCOD8029375
Probable space group: P -1
;
_chemical_formula_sum "Si O2"
_cell_formula_units_Z 16
_cell_length_a 9.113513
_cell_length_b 8.861895
_cell_length_c 17.692766
_cell_angle_alpha 120.943854
_cell_angle_beta 141.331059
_cell_angle_gamma 78.295456
_cell_volume 711.215253
_symmetry_space_group_name_H-M "P -1"
_symmetry_group_IT_number 2
_symmetry_cell_setting 'triclinic'
loop_
_space_group_symop_operation_xyz
x,y,z
-x,-y,-z
loop_
_atom_site_type_symbol
_atom_site_label
_atom_site_fract_x
_atom_site_fract_y
_atom_site_fract_z
Si Si1 0.803957 0.405304 0.765910
Si Si2 0.462472 0.976865 0.704155
Si Si3 0.205354 0.414462 0.739024
Si Si4 0.324575 0.620016 0.457993
Si Si5 0.293079 0.208241 0.589691
Si Si6 0.750225 0.727261 0.037801
Si Si7 0.171409 0.055610 0.733251
Si Si8 0.980731 0.820070 0.995789
O O1 0.682911 0.309815 0.612980
O O2 0.582247 0.319501 0.714363
O O3 0.887616 0.633256 0.857921
O O4 0.043948 0.358858 0.875430
O O5 0.451585 0.779705 0.613568
O O6 0.269928 0.036888 0.592708
O O7 0.365997 0.970397 0.750458
O O8 0.739850 0.137566 0.849338
O O9 0.188714 0.347205 0.628359
O O10 0.179150 0.248348 0.745576
O O11 0.974572 0.490542 0.673066
O O12 0.471931 0.578399 0.902823
O O13 0.500000 0.500000 0.500000
O O14 0.107749 0.109870 0.421128
O O15 0.768707 0.904937 0.143934
O O16 0.793136 0.792239 0.984538
O O17 0.000000 0.000000 0.000000
#
# Coordination Sequence:
#
# PCOD8029375 Si02
#       8
#     2   2   2   2   2   2   2   2
#     4  12  24  44  71 108 136 185 241 291 343 414
#     4  11  22  43  68  99 138 178 227 285 351 408
#     4  11  21  42  68 104 144 181 231 287 352 408
#     4  12  26  44  68 100 146 191 226 278 354 425
#     4  11  20  40  72 105 139 173 232 298 344 397
#     4  12  24  42  74 108 136 181 244 294 340 415
#     4  11  22  39  71 110 138 173 229 305 346 396
#     4  12  27  46  66  98 148 187 225 286 358 421
#
# _framework density 22.496704000000001
#
# number of rings (size 3 to 8) (size 9 to 14) (size 15 to 20)
#    0.000    0.500    6.250    3.750    3.500    1.000 
#    0.000    2.500    0.000    0.000    0.000    0.000 
#    0.000    0.000    0.000    0.000    0.000    0.000 
#
# Total GULP energy -198309.680644 kJ/mol
# GULP energy per Si atom -12394.355040 kJ/mol
# Density = 2.244550 g / cm^3
# Si number density = 22.496704 Si / 1000 Ang^3
#
#
#
# Elastic Constant Matrix: (Units=GPa)
#
#
# Indices 1 2 3 4 5 6 
#
# 1 144.9292 44.8937 46.6786 1.3342 -1.9582 -22.8606
# 2 44.8937 71.9671 25.8191 0.5533 -3.1225 -12.3261
# 3 46.6786 25.8191 115.6070 14.5416 5.8422 -9.3490
# 4 1.3342 0.5533 14.5416 28.9943 -6.7800 -2.1303
# 5 -1.9582 -3.1225 5.8422 -6.7800 53.1628 0.1479
# 6 -22.8606 -12.3261 -9.3490 -2.1303 0.1479 32.1798
#
#
#
# Elastic Compliance Matrix: (Units=1/GPa)
#
#
# Indices 1 2 3 4 5 6 
#
# 1 0.009894 -0.004330 -0.002879 0.001555 0.000612 0.004633
# 2 -0.004330 0.018017 -0.002274 0.001548 0.001337 0.003261
# 3 -0.002879 -0.002274 0.011178 -0.005955 -0.002227 -0.000053
# 4 0.001555 0.001548 -0.005955 0.038906 0.005757 0.002517
# 5 0.000612 0.001337 -0.002227 0.005757 0.019889 0.000589
# 6 0.004633 0.003261 -0.000053 0.002517 0.000589 0.035764
#
#
# Mechanical properties :
#
#
# Convention : Reuss Voigt Hill
#
# Bulk Modulus (GPa) = 49.70023 63.03180 56.36601
# Shear Modulus (GPa) = 31.38304 37.20818 34.29561
#
# Velocity S-wave (km/s) = 3.73903 4.07128 3.90869
# Velocity P-wave (km/s) = 6.38597 7.08375 6.74389
#
# Compressibility (1/GPa) = 0.02012063
#
# Stress axis : x y z
#
# Youngs Moduli (GPa) = 101.07629 55.50321 89.46357
#
# Poissons Ratio (x) = 0.24036 0.25760
# Poissons Ratio (y) = 0.43771 0.20343
# Poissons Ratio (z) = 0.29104 0.12621
#
# Static dielectric constant tensor:
#      x y z
#    x 4.498760 -0.147360 -0.119990 
#    y -0.147360 3.568790 0.077510 
#    z -0.119990 0.077510 4.385480 
# 
# 
# High freq. dielectric constant tensor:
#      x y z
#    x 1.908390 -0.013680 0.001320 
#    y -0.013680 1.836780 0.006880 
#    z 0.001320 0.006880 1.907490 
# 
# From -- ./inp_files/399632.got.cif
#   From: 2010.06.25/outbox.cif.g09.slc.cpg/sg2_200_cif.got.tgz:399632.got - 2010.06.27 13:26:56.
