data_PCOD8029621
_publ_section_title
;
Structure prediction by ZEFSAII (Michael W. Deem and Ramdas Pophale) SiO2 
 PCOD8029621
Probable space group: P -1
;
_chemical_formula_sum "Si O2"
_cell_formula_units_Z 16
_cell_length_a 9.365757
_cell_length_b 13.858312
_cell_length_c 10.665317
_cell_angle_alpha 130.502953
_cell_angle_beta 51.832361
_cell_angle_gamma 125.290272
_cell_volume 790.711361
_symmetry_space_group_name_H-M "P -1"
_symmetry_group_IT_number 2
_symmetry_cell_setting 'triclinic'
loop_
_space_group_symop_operation_xyz
x,y,z
-x,-y,-z
loop_
_atom_site_type_symbol
_atom_site_label
_atom_site_fract_x
_atom_site_fract_y
_atom_site_fract_z
Si Si1 0.483038 0.631737 0.685047
Si Si2 0.037160 0.210744 0.011118
Si Si3 0.721529 0.791589 0.890923
Si Si4 0.916082 0.055984 0.326449
Si Si5 0.671012 0.058336 0.230670
Si Si6 0.911152 0.372270 0.022357
Si Si7 0.315959 0.134048 0.407272
Si Si8 0.071337 0.861257 0.328981
O O1 0.500000 0.500000 0.500000
O O2 0.571241 0.660963 0.801921
O O3 0.584549 0.764478 0.667039
O O4 0.260646 0.607850 0.788922
O O5 0.050514 0.335941 0.018414
O O6 0.072549 0.094324 0.808524
O O7 0.199832 0.257162 0.066638
O O8 0.829618 0.159049 0.143905
O O9 0.891401 0.843206 0.744119
O O10 0.628353 0.909243 0.072077
O O11 0.742909 0.063858 0.338276
O O12 0.873078 0.103105 0.526392
O O13 0.478354 0.102166 0.376754
O O14 0.840919 0.252167 0.859970
O O15 0.000000 0.500000 0.000000
O O16 0.159132 0.187394 0.611344
O O17 0.177061 0.995792 0.305802
#
# Coordination Sequence:
#
# PCOD8029621 Si02
#       8
#     2   2   2   2   2   2   2   2
#     4  12  25  42  62  88 122 163 214 251 295 366
#     4   9  18  38  62  91 121 158 201 253 305 357
#     4   9  19  36  64  90 122 156 203 255 300 359
#     4   9  18  35  61  94 129 154 195 250 310 361
#     4   9  18  34  62  96 120 158 202 251 301 357
#     4  12  26  42  61  88 126 162 206 251 306 362
#     4  11  21  37  61  91 122 158 205 250 299 357
#     4  11  23  37  59  93 128 163 193 254 311 353
#
# _framework density 20.234943999999999
#
# number of rings (size 3 to 8) (size 9 to 14) (size 15 to 20)
#    0.000    1.750    2.500    4.500    1.750    1.500 
#    0.000    3.750    0.000    0.000    0.000    0.000 
#    0.000    0.000    0.000    0.000    0.000    0.000 
#
# Total GULP energy -198275.442436 kJ/mol
# GULP energy per Si atom -12392.215152 kJ/mol
# Density = 2.018889 g / cm^3
# Si number density = 20.234944 Si / 1000 Ang^3
#
#
#
# Elastic Constant Matrix: (Units=GPa)
#
#
# Indices 1 2 3 4 5 6 
#
# 1 128.4992 42.6051 45.0425 6.5102 -4.2569 -9.3615
# 2 42.6051 104.6700 30.3331 -2.7871 2.1086 -23.8609
# 3 45.0425 30.3331 105.6147 11.2864 3.8125 -7.6724
# 4 6.5102 -2.7871 11.2864 30.1674 8.0242 0.9806
# 5 -4.2569 2.1086 3.8125 8.0242 33.0661 -1.6712
# 6 -9.3615 -23.8609 -7.6724 0.9806 -1.6712 31.2117
#
#
#
# Elastic Compliance Matrix: (Units=1/GPa)
#
#
# Indices 1 2 3 4 5 6 
#
# 1 0.010203 -0.003322 -0.003286 -0.001904 0.002361 -0.000101
# 2 -0.003322 0.013610 -0.002113 0.002826 -0.001296 0.008731
# 3 -0.003286 -0.002113 0.011936 -0.003771 -0.000729 0.000412
# 4 -0.001904 0.002826 -0.003771 0.037709 -0.009193 -0.001015
# 5 0.002361 -0.001296 -0.000729 -0.009193 0.033025 0.001595
# 6 -0.000101 0.008731 0.000412 -0.001015 0.001595 0.038902
#
#
# Mechanical properties :
#
#
# Convention : Reuss Voigt Hill
#
# Bulk Modulus (GPa) = 54.62602 63.86059 59.24331
# Shear Modulus (GPa) = 29.59807 33.60924 31.60365
#
# Velocity S-wave (km/s) = 3.82870 4.07990 3.95629
# Velocity P-wave (km/s) = 6.82640 7.33636 7.08597
#
# Compressibility (1/GPa) = 0.01830630
#
# Stress axis : x y z
#
# Youngs Moduli (GPa) = 98.01202 73.47542 83.77949
#
# Poissons Ratio (x) = 0.24408 0.27533
# Poissons Ratio (y) = 0.32558 0.17703
# Poissons Ratio (z) = 0.32210 0.15526
#
# Static dielectric constant tensor:
#      x y z
#    x 4.015240 0.116540 -0.144220 
#    y 0.116540 3.599840 -0.187040 
#    z -0.144220 -0.187040 3.763890 
# 
# 
# High freq. dielectric constant tensor:
#      x y z
#    x 1.800870 -0.005770 -0.000470 
#    y -0.005770 1.765200 -0.015140 
#    z -0.000470 -0.015140 1.786690 
# 
# From -- ./inp_files/399551.got.cif
#   From: 2010.06.25/outbox.cif.g09.slc.cpg/sg2_200_cif.got.tgz:399551.got - 2010.06.27 13:26:56.
