data_PCOD8029882
_publ_section_title
;
Structure prediction by ZEFSAII (Michael W. Deem and Ramdas Pophale) SiO2 
 PCOD8029882
Probable space group: P -1
;
_chemical_formula_sum "Si O2"
_cell_formula_units_Z 12
_cell_length_a 10.097809
_cell_length_b 11.531590
_cell_length_c 9.276266
_cell_angle_alpha 126.062524
_cell_angle_beta 134.213979
_cell_angle_gamma 45.799650
_cell_volume 543.870960
_symmetry_space_group_name_H-M "P -1"
_symmetry_group_IT_number 2
_symmetry_cell_setting 'triclinic'
loop_
_space_group_symop_operation_xyz
x,y,z
-x,-y,-z
loop_
_atom_site_type_symbol
_atom_site_label
_atom_site_fract_x
_atom_site_fract_y
_atom_site_fract_z
Si Si1 0.185165 0.861867 0.446181
Si Si2 0.031467 0.427281 0.631409
Si Si3 0.295362 0.088344 0.508194
Si Si4 0.340903 0.653830 0.675474
Si Si5 0.792637 0.384708 0.931494
Si Si6 0.888784 0.177223 0.113387
O O1 0.356585 0.728938 0.589485
O O2 0.093540 0.770978 0.206028
O O3 0.294530 0.944452 0.496295
O O4 0.000000 0.000000 0.500000
O O5 0.257152 0.248989 0.688934
O O6 0.000000 0.500000 0.500000
O O7 0.824485 0.414956 0.510472
O O8 0.055423 0.541179 0.856096
O O9 0.089874 0.192919 0.327256
O O10 0.500000 0.000000 0.500000
O O11 0.572689 0.511219 0.785012
O O12 0.257811 0.798361 0.840550
O O13 0.742898 0.317751 0.992210
O O14 0.000000 0.000000 0.000000
#
# Coordination Sequence:
#
# PCOD8029882 Si02
#       6
#     2   2   2   2   2   2
#     4  12  24  50  70  99 148 190 228 296 358 420
#     4  11  24  43  68 111 139 174 239 298 337 419
#     4  11  25  43  72 100 142 178 237 293 345 415
#     4  11  25  45  70 100 150 183 234 291 357 412
#     4  12  25  41  75 103 138 192 235 285 359 423
#     4  11  21  40  69 102 130 187 235 281 343 418
#
# _framework density 22.064056000000001
#
# number of rings (size 3 to 8) (size 9 to 14) (size 15 to 20)
#    0.000    0.667    8.333    1.000    4.667    0.667 
#    0.000    2.500    0.000    0.000    0.000    0.000 
#    0.000    0.000    0.000    0.000    0.000    0.000 
#
# Total GULP energy -148659.496050 kJ/mol
# GULP energy per Si atom -12388.291337 kJ/mol
# Density = 2.201384 g / cm^3
# Si number density = 22.064056 Si / 1000 Ang^3
#
#
#
# Elastic Constant Matrix: (Units=GPa)
#
#
# Indices 1 2 3 4 5 6 
#
# 1 114.7401 57.5997 49.6975 -1.9628 -7.2841 10.8706
# 2 57.5997 130.3569 68.9539 1.5311 -5.6575 19.0791
# 3 49.6975 68.9539 114.2689 10.6047 -22.2633 8.0653
# 4 -1.9628 1.5311 10.6047 57.3808 -2.5406 -11.3296
# 5 -7.2841 -5.6575 -22.2633 -2.5406 29.2647 -3.9254
# 6 10.8706 19.0791 8.0653 -11.3296 -3.9254 44.2657
#
#
#
# Elastic Compliance Matrix: (Units=1/GPa)
#
#
# Indices 1 2 3 4 5 6 
#
# 1 0.011907 -0.003551 -0.003097 0.000954 -0.000076 -0.000592
# 2 -0.003551 0.013378 -0.007051 -0.000156 -0.004215 -0.004023
# 3 -0.003097 -0.007051 0.016508 -0.002287 0.010377 0.001127
# 4 0.000954 -0.000156 -0.002287 0.018943 0.000806 0.005169
# 5 -0.000076 -0.004215 0.010377 0.000806 0.041819 0.003859
# 6 -0.000592 -0.004023 0.001127 0.005169 0.003859 0.025930
#
#
# Mechanical properties :
#
#
# Convention : Reuss Voigt Hill
#
# Bulk Modulus (GPa) = 69.47369 79.09643 74.28506
# Shear Modulus (GPa) = 31.11757 38.38991 34.75374
#
# Velocity S-wave (km/s) = 3.75951 4.17577 3.97310
# Velocity P-wave (km/s) = 7.09935 7.69258 7.40191
#
# Compressibility (1/GPa) = 0.01439394
#
# Stress axis : x y z
#
# Youngs Moduli (GPa) = 83.98432 74.75203 60.57785
#
# Poissons Ratio (x) = 0.26542 0.18764
# Poissons Ratio (y) = 0.29820 0.42713
# Poissons Ratio (z) = 0.26014 0.52708
#
# Static dielectric constant tensor:
#      x y z
#    x 4.299350 0.868500 -0.176030 
#    y 0.868500 5.008040 -0.038160 
#    z -0.176030 -0.038160 3.828310 
# 
# 
# High freq. dielectric constant tensor:
#      x y z
#    x 1.843770 0.005840 -0.026770 
#    y 0.005840 1.896290 0.012730 
#    z -0.026770 0.012730 1.868590 
# 
# From -- ./inp_files/182897.got.cif
#   From: 2010.06.25/outbox.cif.g09.slc.cpg/sg2_92_cif.got.tgz:182897.got - 2010.06.27 13:26:56.
