data_PCOD8029439
_publ_section_title
;
Structure prediction by ZEFSAII (Michael W. Deem and Ramdas Pophale) SiO2 
 PCOD8029439
Probable space group: P -1
;
_chemical_formula_sum "Si O2"
_cell_formula_units_Z 16
_cell_length_a 11.430388
_cell_length_b 8.707356
_cell_length_c 17.680348
_cell_angle_alpha 127.654741
_cell_angle_beta 140.942118
_cell_angle_gamma 79.665437
_cell_volume 707.934461
_symmetry_space_group_name_H-M "P -1"
_symmetry_group_IT_number 2
_symmetry_cell_setting 'triclinic'
loop_
_space_group_symop_operation_xyz
x,y,z
-x,-y,-z
loop_
_atom_site_type_symbol
_atom_site_label
_atom_site_fract_x
_atom_site_fract_y
_atom_site_fract_z
Si Si1 0.044077 0.512238 0.850031
Si Si2 0.173048 0.315385 0.989569
Si Si3 0.143624 0.944095 0.106898
Si Si4 0.481168 0.791739 0.515561
Si Si5 0.410299 0.194883 0.589985
Si Si6 0.784173 0.595480 0.240565
Si Si7 0.036681 0.921402 0.593449
Si Si8 0.633937 0.895515 0.061643
O O1 0.125644 0.496002 0.804277
O O2 0.785033 0.434232 0.686489
O O3 0.056124 0.345486 0.866874
O O4 0.201939 0.790028 0.039644
O O5 0.414965 0.556815 0.205507
O O6 0.222257 0.119108 0.937263
O O7 0.000656 0.224191 0.945068
O O8 0.377560 0.187491 0.331394
O O9 0.000000 0.000000 0.000000
O O10 0.603223 0.772740 0.497321
O O11 0.502126 0.036136 0.599979
O O12 0.163779 0.072099 0.467953
O O13 0.945244 0.690857 0.425066
O O14 0.791586 0.824962 0.288030
O O15 0.526463 0.373748 0.065340
O O16 0.187742 0.910983 0.729588
O O17 0.500000 0.000000 0.000000
#
# Coordination Sequence:
#
# PCOD8029439 Si02
#       8
#     2   2   2   2   2   2   2   2
#     4  12  24  44  73 101 131 176 231 282 324 403
#     4  12  23  47  71 101 130 180 234 273 334 404
#     4  12  28  45  66 102 143 175 216 279 343 408
#     4  11  22  40  70 101 130 173 220 275 341 388
#     4  11  20  41  74 100 127 172 231 287 325 395
#     4  11  25  42  69 102 130 176 232 284 330 390
#     4  11  23  44  70 101 132 173 235 288 331 391
#     4  12  27  45  68  98 144 185 220 276 346 408
#
# _framework density 22.600960000000001
#
# number of rings (size 3 to 8) (size 9 to 14) (size 15 to 20)
#    0.000    0.500    6.250    3.000    1.750    2.000 
#    0.000    0.000    0.000    0.000    0.000    0.000 
#    0.000    0.000    0.000    0.000    0.000    0.000 
#
# Total GULP energy -198409.574796 kJ/mol
# GULP energy per Si atom -12400.598425 kJ/mol
# Density = 2.254952 g / cm^3
# Si number density = 22.600960 Si / 1000 Ang^3
#
#
#
# Elastic Constant Matrix: (Units=GPa)
#
#
# Indices 1 2 3 4 5 6 
#
# 1 111.0332 23.9746 33.6383 -8.8737 -29.0102 -2.3325
# 2 23.9746 51.7745 26.0406 -28.1324 -6.0228 -10.7544
# 3 33.6383 26.0406 136.7204 -31.9536 -23.7715 4.6775
# 4 -8.8737 -28.1324 -31.9536 38.3165 4.5234 0.9673
# 5 -29.0102 -6.0228 -23.7715 4.5234 44.1670 2.6902
# 6 -2.3325 -10.7544 4.6775 0.9673 2.6902 23.3101
#
#
#
# Elastic Compliance Matrix: (Units=1/GPa)
#
#
# Indices 1 2 3 4 5 6 
#
# 1 0.012382 -0.006976 -0.001400 -0.004189 0.006999 -0.002332
# 2 -0.006976 0.041593 -0.000805 0.028192 -0.003319 0.017866
# 3 -0.001400 -0.000805 0.010328 0.007312 0.003984 -0.003347
# 4 -0.004189 0.028192 0.007312 0.051794 -0.000829 0.009067
# 5 0.006999 -0.003319 0.003984 -0.000829 0.029318 -0.004980
# 6 -0.002332 0.017866 -0.003347 0.009067 -0.004980 0.051779
#
#
# Mechanical properties :
#
#
# Convention : Reuss Voigt Hill
#
# Bulk Modulus (GPa) = 21.76708 51.87057 36.81882
# Shear Modulus (GPa) = 21.65721 35.55038 28.60380
#
# Velocity S-wave (km/s) = 3.09891 3.97036 3.56139
# Velocity P-wave (km/s) = 4.73880 6.63466 5.76520
#
# Compressibility (1/GPa) = 0.04594093
#
# Stress axis : x y z
#
# Youngs Moduli (GPa) = 80.76546 24.04238 96.82242
#
# Poissons Ratio (x) = 0.16771 0.13556
# Poissons Ratio (y) = 0.56340 0.07796
# Poissons Ratio (z) = 0.11308 0.01936
#
# Static dielectric constant tensor:
#      x y z
#    x 4.172420 0.109720 -0.285540 
#    y 0.109720 3.592700 -0.148890 
#    z -0.285540 -0.148890 4.567470 
# 
# 
# High freq. dielectric constant tensor:
#      x y z
#    x 1.898290 -0.001150 -0.018130 
#    y -0.001150 1.847380 -0.010010 
#    z -0.018130 -0.010010 1.919940 
# 
# From -- ./inp_files/566964.got.cif
#   From: 2010.06.25/outbox.cif.g09.slc.cpg/sg2_284_cif.got.tgz:566964.got - 2010.06.27 13:26:56.
