data_PCOD8029110
_publ_section_title
;
Structure prediction by ZEFSAII (Michael W. Deem and Ramdas Pophale) SiO2 
 PCOD8029110
Probable space group: P -1
;
_chemical_formula_sum "Si O2"
_cell_formula_units_Z 12
_cell_length_a 10.154504
_cell_length_b 21.834361
_cell_length_c 4.801583
_cell_angle_alpha 121.574442
_cell_angle_beta 58.871151
_cell_angle_gamma 147.100203
_cell_volume 485.724011
_symmetry_space_group_name_H-M "P -1"
_symmetry_group_IT_number 2
_symmetry_cell_setting 'triclinic'
loop_
_space_group_symop_operation_xyz
x,y,z
-x,-y,-z
loop_
_atom_site_type_symbol
_atom_site_label
_atom_site_fract_x
_atom_site_fract_y
_atom_site_fract_z
Si Si1 0.260361 0.988067 0.922252
Si Si2 0.435087 0.306225 0.731360
Si Si3 0.006603 0.247470 0.209032
Si Si4 0.737365 0.379554 0.103530
Si Si5 0.996106 0.941324 0.611898
Si Si6 0.203667 0.758777 0.075895
O O1 0.548015 0.104139 0.853191
O O2 0.143504 0.009980 0.311747
O O3 0.152187 0.938636 0.610200
O O4 0.181335 0.888198 0.939753
O O5 0.542804 0.309862 0.900150
O O6 0.270852 0.186920 0.469766
O O7 0.282795 0.322227 0.013963
O O8 0.650412 0.402059 0.500442
O O9 0.912101 0.277980 0.190796
O O10 0.001787 0.279510 0.595985
O O11 0.745903 0.304143 0.048625
O O12 0.000000 0.500000 0.000000
O O13 0.000000 0.000000 0.000000
#
# Coordination Sequence:
#
# PCOD8029110 Si02
#       6
#     2   2   2   2   2   2
#     4  11  21  35  59  94 132 168 201 245 305 380
#     4  11  23  44  65  91 128 164 206 266 318 374
#     4  11  23  40  65  97 131 168 203 252 320 383
#     4  12  26  46  68  91 121 167 219 270 318 365
#     4  11  20  34  58  93 128 168 205 246 309 378
#     4  12  23  41  64  96 131 169 212 257 304 374
#
# _framework density 24.705385
#
# number of rings (size 3 to 8) (size 9 to 14) (size 15 to 20)
#    0.000    0.667    0.000   11.000    0.000    0.000 
#    0.000    5.000    0.000    0.000    0.000    0.000 
#    0.000    0.000    0.000    0.000    0.000    0.000 
#
# Total GULP energy -148759.561597 kJ/mol
# GULP energy per Si atom -12396.630133 kJ/mol
# Density = 2.464915 g / cm^3
# Si number density = 24.705385 Si / 1000 Ang^3
#
#
#
# Elastic Constant Matrix: (Units=GPa)
#
#
# Indices 1 2 3 4 5 6 
#
# 1 155.3488 42.7598 40.6441 -11.3096 24.6618 6.3576
# 2 42.7598 55.5831 19.0423 -29.2482 -3.0927 4.3893
# 3 40.6441 19.0423 152.2181 -37.9952 9.6090 5.4630
# 4 -11.3096 -29.2482 -37.9952 42.5247 5.3992 3.3573
# 5 24.6618 -3.0927 9.6090 5.3992 47.6576 -10.0636
# 6 6.3576 4.3893 5.4630 3.3573 -10.0636 17.2804
#
#
#
# Elastic Compliance Matrix: (Units=1/GPa)
#
#
# Indices 1 2 3 4 5 6 
#
# 1 0.010476 -0.010235 -0.002459 -0.005545 -0.005512 -0.002610
# 2 -0.010235 0.042548 0.006365 0.033520 -0.000354 -0.015773
# 3 -0.002459 0.006365 0.010627 0.014462 -0.004046 -0.009238
# 4 -0.005545 0.033520 0.014462 0.061756 -0.011099 -0.029508
# 5 -0.005512 -0.000354 -0.004046 -0.011099 0.030853 0.023521
# 6 -0.002610 -0.015773 -0.009238 -0.029508 0.023521 0.085187
#
#
# Mechanical properties :
#
#
# Convention : Reuss Voigt Hill
#
# Bulk Modulus (GPa) = 19.61020 63.11584 41.36302
# Shear Modulus (GPa) = 18.44328 38.87279 28.65803
#
# Velocity S-wave (km/s) = 2.73523 3.97098 3.40956
# Velocity P-wave (km/s) = 4.23440 6.82845 5.68146
#
# Compressibility (1/GPa) = 0.05099386
#
# Stress axis : x y z
#
# Youngs Moduli (GPa) = 95.45711 23.50272 94.10372
#
# Poissons Ratio (x) = 0.24054 0.23142
# Poissons Ratio (y) = 0.97698 -0.59902
# Poissons Ratio (z) = 0.23474 -0.14961
#
# Static dielectric constant tensor:
#      x y z
#    x 6.627230 -0.269340 0.544870 
#    y -0.269340 4.037010 -0.383970 
#    z 0.544870 -0.383970 5.151100 
# 
# 
# High freq. dielectric constant tensor:
#      x y z
#    x 2.014610 -0.001360 0.007320 
#    y -0.001360 1.935240 -0.020670 
#    z 0.007320 -0.020670 2.017030 
# 
# From -- ./inp_files/53411.got.cif
#   From: 2010.06.25/outbox.cif.g09.slc.cpg/sg2_27_cif.got.tgz:53411.got - 2010.06.27 13:26:56.
