data_PCOD8029547
_publ_section_title
;
Structure prediction by ZEFSAII (Michael W. Deem and Ramdas Pophale) SiO2 
 PCOD8029547
Probable space group: P -1
;
_chemical_formula_sum "Si O2"
_cell_formula_units_Z 16
_cell_length_a 15.005662
_cell_length_b 21.445879
_cell_length_c 8.182568
_cell_angle_alpha 125.915495
_cell_angle_beta 128.856009
_cell_angle_gamma 20.558642
_cell_volume 720.083977
_symmetry_space_group_name_H-M "P -1"
_symmetry_group_IT_number 2
_symmetry_cell_setting 'triclinic'
loop_
_space_group_symop_operation_xyz
x,y,z
-x,-y,-z
loop_
_atom_site_type_symbol
_atom_site_label
_atom_site_fract_x
_atom_site_fract_y
_atom_site_fract_z
Si Si1 0.412024 0.830563 0.620451
Si Si2 0.123573 0.630071 0.917059
Si Si3 0.254576 0.003041 0.021141
Si Si4 0.892639 0.984112 0.789235
Si Si5 0.349925 0.108511 0.655731
Si Si6 0.591786 0.422398 0.307691
Si Si7 0.370299 0.146880 0.175752
Si Si8 0.754195 0.480637 0.457787
O O1 0.225918 0.962295 0.768156
O O2 0.621896 0.772619 0.761245
O O3 0.574763 0.656975 0.594248
O O4 0.275426 0.901150 0.394668
O O5 0.201404 0.531101 0.699958
O O6 0.933210 0.691608 0.898635
O O7 0.383624 0.487954 0.100287
O O8 0.992660 0.788926 0.949410
O O9 0.523418 0.889233 0.124362
O O10 0.257542 0.960510 0.138124
O O11 0.123399 0.788588 0.693676
O O12 0.000000 0.000000 0.000000
O O13 0.036616 0.307078 0.605827
O O14 0.500000 0.000000 0.500000
O O15 0.433772 0.976964 0.634727
O O16 0.500000 0.500000 0.500000
O O17 0.596377 0.496985 0.321159
O O18 0.500000 0.000000 0.000000
#
# Coordination Sequence:
#
# PCOD8029547 Si02
#       8
#     2   2   2   2   2   2   2   2
#     4  12  27  46  72 112 141 182 240 300 355 417
#     4  11  23  45  72  98 137 192 236 284 360 424
#     4  11  24  46  74  99 142 189 234 291 355 426
#     4  12  28  49  73 103 144 192 239 293 356 429
#     4  11  20  44  73  99 131 189 236 281 357 423
#     4  12  27  45  71 103 138 190 240 294 349 428
#     4  11  22  43  73 102 138 183 235 288 349 422
#     4  12  26  44  71 103 144 181 234 300 352 420
#
# _framework density 22.219631
#
# number of rings (size 3 to 8) (size 9 to 14) (size 15 to 20)
#    0.000    0.500    6.250    3.375    5.250    1.500 
#    2.250    0.000    0.000    0.000    0.000    0.000 
#    0.000    0.000    0.000    0.000    0.000    0.000 
#
# Total GULP energy -198224.419482 kJ/mol
# GULP energy per Si atom -12389.026218 kJ/mol
# Density = 2.216906 g / cm^3
# Si number density = 22.219631 Si / 1000 Ang^3
#
#
#
# Elastic Constant Matrix: (Units=GPa)
#
#
# Indices 1 2 3 4 5 6 
#
# 1 78.0591 24.4748 14.6829 5.9856 3.0156 -9.9252
# 2 24.4748 96.1140 26.8912 1.1432 8.5421 -0.8547
# 3 14.6829 26.8912 88.3036 9.9945 -4.8021 -9.1361
# 4 5.9856 1.1432 9.9945 46.9537 -1.9878 4.8308
# 5 3.0156 8.5421 -4.8021 -1.9878 42.8009 3.8401
# 6 -9.9252 -0.8547 -9.1361 4.8308 3.8401 30.4178
#
#
#
# Elastic Compliance Matrix: (Units=1/GPa)
#
#
# Indices 1 2 3 4 5 6 
#
# 1 0.014866 -0.003427 -0.000712 -0.002219 -0.000997 0.005019
# 2 -0.003427 0.012492 -0.003657 0.000983 -0.002463 -0.001711
# 3 -0.000712 -0.003657 0.013401 -0.003002 0.001791 0.003941
# 4 -0.002219 0.000983 -0.003002 0.022797 0.001163 -0.005365
# 5 -0.000997 -0.002463 0.001791 0.001163 0.024461 -0.003130
# 6 0.005019 -0.001711 0.003941 -0.005365 -0.003130 0.036896
#
#
# Mechanical properties :
#
#
# Convention : Reuss Voigt Hill
#
# Bulk Modulus (GPa) = 39.73216 43.84160 41.78688
# Shear Modulus (GPa) = 33.58099 37.12966 35.35532
#
# Velocity S-wave (km/s) = 3.89179 4.09226 3.99328
# Velocity P-wave (km/s) = 6.17374 6.48865 6.33315
#
# Compressibility (1/GPa) = 0.02516853
#
# Stress axis : x y z
#
# Youngs Moduli (GPa) = 67.26792 80.05183 74.61881
#
# Poissons Ratio (x) = 0.27431 0.05314
# Poissons Ratio (y) = 0.23050 0.27285
# Poissons Ratio (z) = 0.04791 0.29271
#
# Static dielectric constant tensor:
#      x y z
#    x 4.010700 0.191030 -0.461770 
#    y 0.191030 3.770030 -0.137690 
#    z -0.461770 -0.137690 4.615280 
# 
# 
# High freq. dielectric constant tensor:
#      x y z
#    x 1.884360 -0.006360 -0.010100 
#    y -0.006360 1.859410 0.002880 
#    z -0.010100 0.002880 1.894770 
# 
# From -- ./inp_files/319490.got.cif
#   From: 2010.06.25/outbox.cif.g09.slc.cpg/sg2_160_cif.got.tgz:319490.got - 2010.06.27 13:26:56.
