data_PCOD8029491
_publ_section_title
;
Structure prediction by ZEFSAII (Michael W. Deem and Ramdas Pophale) SiO2 
 PCOD8029491
Probable space group: P -1
;
_chemical_formula_sum "Si O2"
_cell_formula_units_Z 16
_cell_length_a 11.504132
_cell_length_b 15.728312
_cell_length_c 8.902708
_cell_angle_alpha 144.836570
_cell_angle_beta 60.279116
_cell_angle_gamma 99.845179
_cell_volume 711.785735
_symmetry_space_group_name_H-M "P -1"
_symmetry_group_IT_number 2
_symmetry_cell_setting 'triclinic'
loop_
_space_group_symop_operation_xyz
x,y,z
-x,-y,-z
loop_
_atom_site_type_symbol
_atom_site_label
_atom_site_fract_x
_atom_site_fract_y
_atom_site_fract_z
Si Si1 0.307766 0.526830 0.476903
Si Si2 0.295521 0.452831 0.038642
Si Si3 0.936834 0.189584 0.769211
Si Si4 0.432248 0.760470 0.651999
Si Si5 0.629502 0.772105 0.775921
Si Si6 0.877313 0.644026 0.190007
Si Si7 0.147799 0.795319 0.473601
Si Si8 0.799459 0.974067 0.018417
O O1 0.294380 0.457532 0.224362
O O2 0.425955 0.600036 0.496173
O O3 0.365881 0.368417 0.319384
O O4 0.147858 0.677786 0.852900
O O5 0.264262 0.631084 0.249181
O O6 0.451491 0.305675 0.659190
O O7 0.153270 0.422310 0.043388
O O8 0.821566 0.229691 0.760398
O O9 0.083384 0.207489 0.652295
O O10 0.000000 0.000000 0.500000
O O11 0.469218 0.852732 0.903115
O O12 0.269049 0.892183 0.880169
O O13 0.730064 0.696065 0.456616
O O14 0.684219 0.894174 0.000185
O O15 0.000000 0.500000 0.000000
O O16 0.186524 0.940832 0.713574
O O17 0.971405 0.838183 0.672892
#
# Coordination Sequence:
#
# PCOD8029491 Si02
#       8
#     2   2   2   2   2   2   2   2
#     4  12  25  42  67 105 132 180 235 279 334 405
#     4  11  24  43  75  96 135 188 230 276 336 414
#     4  12  25  41  66 102 139 170 226 288 339 398
#     4  11  24  46  70  97 137 186 229 276 341 407
#     4  11  23  42  71  97 139 178 226 283 336 408
#     4  11  20  43  65  95 135 182 221 274 347 402
#     4  11  23  43  72  96 139 179 220 283 345 404
#     4  11  23  42  72 101 130 181 231 270 347 401
#
# _framework density 22.478677000000001
#
# number of rings (size 3 to 8) (size 9 to 14) (size 15 to 20)
#    0.000    0.750    5.000    2.625    1.750    1.500 
#    0.000    0.625    0.000    0.000    0.000    0.000 
#    0.000    0.000    0.000    0.000    0.000    0.000 
#
# Total GULP energy -198269.118635 kJ/mol
# GULP energy per Si atom -12391.819915 kJ/mol
# Density = 2.242751 g / cm^3
# Si number density = 22.478677 Si / 1000 Ang^3
#
#
#
# Elastic Constant Matrix: (Units=GPa)
#
#
# Indices 1 2 3 4 5 6 
#
# 1 123.2234 33.8963 15.7688 -5.0460 27.6750 2.8703
# 2 33.8963 117.9098 18.9846 4.5063 14.5245 -3.3648
# 3 15.7688 18.9846 58.3003 -1.0205 13.0133 -10.3731
# 4 -5.0460 4.5063 -1.0205 33.9079 -3.8342 8.1671
# 5 27.6750 14.5245 13.0133 -3.8342 41.2211 10.6526
# 6 2.8703 -3.3648 -10.3731 8.1671 10.6526 27.6046
#
#
#
# Elastic Compliance Matrix: (Units=1/GPa)
#
#
# Indices 1 2 3 4 5 6 
#
# 1 0.010128 -0.002111 -0.000653 0.001007 -0.005861 0.000408
# 2 -0.002111 0.009821 -0.001710 -0.002525 -0.002367 0.002435
# 3 -0.000653 -0.001710 0.022294 -0.003419 -0.009669 0.012980
# 4 0.001007 -0.002525 -0.003419 0.034473 0.008413 -0.015143
# 5 -0.005861 -0.002367 -0.009669 0.008413 0.038170 -0.020531
# 6 0.000408 0.002435 0.012980 -0.015143 -0.020531 0.053761
#
#
# Mechanical properties :
#
#
# Convention : Reuss Voigt Hill
#
# Bulk Modulus (GPa) = 30.03501 48.52588 39.28045
# Shear Modulus (GPa) = 26.49820 35.93230 31.21525
#
# Velocity S-wave (km/s) = 3.43711 4.00247 3.73052
# Velocity P-wave (km/s) = 5.39835 6.55699 6.00568
#
# Compressibility (1/GPa) = 0.03329448
#
# Stress axis : x y z
#
# Youngs Moduli (GPa) = 98.73808 101.82437 44.85529
#
# Poissons Ratio (x) = 0.21497 0.02931
# Poissons Ratio (y) = 0.20845 0.07668
# Poissons Ratio (z) = 0.06451 0.17407
#
# Static dielectric constant tensor:
#      x y z
#    x 5.612060 2.150040 -1.039260 
#    y 2.150040 7.446250 -2.186070 
#    z -1.039260 -2.186070 5.358310 
# 
# 
# High freq. dielectric constant tensor:
#      x y z
#    x 1.907390 -0.003550 0.015460 
#    y -0.003550 1.871930 0.007930 
#    z 0.015460 0.007930 1.880120 
# 
# From -- ./inp_files/271178.got.cif
#   From: 2010.06.25/outbox.cif.g09.slc.cpg/sg2_136_cif.got.tgz:271178.got - 2010.06.27 13:26:56.
