data_PCOD8029102
_publ_section_title
;
Structure prediction by ZEFSAII (Michael W. Deem and Ramdas Pophale) SiO2 
 PCOD8029102
Probable space group: P -1
;
_chemical_formula_sum "Si O2"
_cell_formula_units_Z 16
_cell_length_a 19.338909
_cell_length_b 8.724948
_cell_length_c 10.044253
_cell_angle_alpha 112.618253
_cell_angle_beta 112.936825
_cell_angle_gamma 30.005091
_cell_volume 776.416661
_symmetry_space_group_name_H-M "P -1"
_symmetry_group_IT_number 2
_symmetry_cell_setting 'triclinic'
loop_
_space_group_symop_operation_xyz
x,y,z
-x,-y,-z
loop_
_atom_site_type_symbol
_atom_site_label
_atom_site_fract_x
_atom_site_fract_y
_atom_site_fract_z
Si Si1 0.675114 0.250665 0.602679
Si Si2 0.490738 0.347647 0.626237
Si Si3 0.848021 0.672926 0.360621
Si Si4 0.008832 0.659514 0.384548
Si Si5 0.838495 0.249471 0.810782
Si Si6 0.757811 0.329823 0.325390
Si Si7 0.732068 0.661035 0.628101
Si Si8 0.168560 0.635969 0.864033
O O1 0.584442 0.340090 0.685669
O O2 0.574458 0.554667 0.538591
O O3 0.796551 0.135871 0.717549
O O4 0.737636 0.988020 0.467452
O O5 0.358502 0.597259 0.711524
O O6 0.581122 0.025343 0.637754
O O7 0.960065 0.381286 0.448138
O O8 0.777079 0.652553 0.222283
O O9 0.931400 0.626604 0.297145
O O10 0.152240 0.408379 0.326097
O O11 0.908799 0.992733 0.375943
O O12 0.761057 0.511809 0.736005
O O13 0.783978 0.405511 0.966717
O O14 0.003250 0.958590 0.828369
O O15 0.728635 0.549108 0.460560
O O16 0.758917 0.369421 0.183547
#
# Coordination Sequence:
#
# PCOD8029102 Si02
#       8
#     2   2   2   2   2   2   2   2
#     4  11  22  40  64  93 129 164 209 259 313 365
#     4  11  24  37  63  94 125 165 215 259 303 366
#     4  11  20  36  63  96 124 157 208 258 313 364
#     4  11  20  33  63  95 118 161 214 265 301 358
#     4  11  24  42  63  96 130 163 203 265 323 364
#     4  12  21  38  62  96 124 162 215 260 302 373
#     4  12  21  38  64  95 124 164 215 259 307 369
#     4  11  24  40  65  95 131 162 203 263 323 371
#
# _framework density 20.607492000000001
#
# number of rings (size 3 to 8) (size 9 to 14) (size 15 to 20)
#    0.000    0.750    6.250    3.000    0.000    0.000 
#    0.000    3.125    0.000    0.000    0.000    0.000 
#    0.000    0.000    0.000    0.000    0.000    0.000 
#
# Total GULP energy -198325.861974 kJ/mol
# GULP energy per Si atom -12395.366373 kJ/mol
# Density = 2.056059 g / cm^3
# Si number density = 20.607492 Si / 1000 Ang^3
#
#
#
# Elastic Constant Matrix: (Units=GPa)
#
#
# Indices 1 2 3 4 5 6 
#
# 1 135.9659 17.7530 51.2709 4.7427 -25.7044 -7.8771
# 2 17.7530 84.8304 35.8876 -6.4916 0.3448 1.4103
# 3 51.2709 35.8876 105.8474 4.0444 -16.1985 8.2144
# 4 4.7427 -6.4916 4.0444 17.1365 4.7822 -3.1700
# 5 -25.7044 0.3448 -16.1985 4.7822 29.2989 2.8646
# 6 -7.8771 1.4103 8.2144 -3.1700 2.8646 28.2322
#
#
#
# Elastic Compliance Matrix: (Units=1/GPa)
#
#
# Indices 1 2 3 4 5 6 
#
# 1 0.010648 -0.001064 -0.003682 -0.004105 0.007710 0.002852
# 2 -0.001064 0.015400 -0.006263 0.009867 -0.006434 0.002517
# 3 -0.003682 -0.006263 0.015326 -0.008285 0.007339 -0.006848
# 4 -0.004105 0.009867 -0.008285 0.073203 -0.021337 0.011157
# 5 0.007710 -0.006434 0.007339 -0.021337 0.049200 -0.007051
# 6 0.002852 0.002517 -0.006848 0.011157 -0.007051 0.040051
#
#
# Mechanical properties :
#
#
# Convention : Reuss Voigt Hill
#
# Bulk Modulus (GPa) = 51.66220 59.60742 55.63481
# Shear Modulus (GPa) = 21.52424 29.71566 25.61995
#
# Velocity S-wave (km/s) = 3.23536 3.80147 3.52978
# Velocity P-wave (km/s) = 6.25146 6.94666 6.60821
#
# Compressibility (1/GPa) = 0.01935651
#
# Stress axis : x y z
#
# Youngs Moduli (GPa) = 93.91493 64.93592 65.25051
#
# Poissons Ratio (x) = 0.06907 0.24023
# Poissons Ratio (y) = 0.09990 0.40867
# Poissons Ratio (z) = 0.34576 0.40669
#
# Static dielectric constant tensor:
#      x y z
#    x 4.166380 -0.039470 -0.179490 
#    y -0.039470 3.780190 -0.101150 
#    z -0.179490 -0.101150 3.411370 
# 
# 
# High freq. dielectric constant tensor:
#      x y z
#    x 1.827720 -0.000230 -0.022880 
#    y -0.000230 1.810260 -0.013900 
#    z -0.022880 -0.013900 1.750450 
# 
# From -- ./inp_files/343662.got.cif
#   From: 2010.06.25/outbox.cif.g09.slc.cpg/sg2_172_cif.got.tgz:343662.got - 2010.06.27 13:26:56.
