data_PCOD8029752
_publ_section_title
;
Structure prediction by ZEFSAII (Michael W. Deem and Ramdas Pophale) SiO2 
 PCOD8029752
Probable space group: P -1
;
_chemical_formula_sum "Si O2"
_cell_formula_units_Z 16
_cell_length_a 25.640750
_cell_length_b 13.240110
_cell_length_c 10.444167
_cell_angle_alpha 147.182107
_cell_angle_beta 33.794715
_cell_angle_gamma 156.519854
_cell_volume 735.261066
_symmetry_space_group_name_H-M "P -1"
_symmetry_group_IT_number 2
_symmetry_cell_setting 'triclinic'
loop_
_space_group_symop_operation_xyz
x,y,z
-x,-y,-z
loop_
_atom_site_type_symbol
_atom_site_label
_atom_site_fract_x
_atom_site_fract_y
_atom_site_fract_z
Si Si1 0.103950 0.133960 0.749327
Si Si2 0.712624 0.616037 0.695559
Si Si3 0.184473 0.399905 0.130254
Si Si4 0.217497 0.839839 0.654116
Si Si5 0.686748 0.831720 0.743621
Si Si6 0.610318 0.575836 0.129577
Si Si7 0.224588 0.703313 0.776129
Si Si8 0.014768 0.806682 0.152848
O O1 0.193725 0.076422 0.493034
O O2 0.102348 0.241537 0.732064
O O3 0.167064 0.355147 0.966179
O O4 0.947607 0.861466 0.804455
O O5 0.654686 0.639338 0.716637
O O6 0.691513 0.365664 0.453667
O O7 0.871384 0.899387 0.699878
O O8 0.620287 0.535917 0.918449
O O9 0.202152 0.641842 0.382953
O O10 0.312632 0.463207 0.981443
O O11 0.257250 0.840737 0.718838
O O12 0.330332 0.130039 0.663382
O O13 0.080001 0.763955 0.867199
O O14 0.549064 0.655045 0.752792
O O15 0.731760 0.095523 0.986335
O O16 0.062727 0.422945 0.823506
#
# Coordination Sequence:
#
# PCOD8029752 Si02
#       8
#     2   2   2   2   2   2   2   2
#     4  11  24  45  66  94 127 167 214 273 304 366
#     4  11  22  38  63  93 135 165 204 258 317 386
#     4  11  24  46  69  89 125 170 221 260 313 366
#     4  11  22  39  67  94 123 172 208 254 321 381
#     4  12  26  41  64  96 135 165 210 258 321 379
#     4  11  24  45  63  94 132 171 206 262 314 378
#     4  12  22  35  66  99 128 168 203 258 328 382
#     4  11  21  39  64  98 133 160 206 269 322 368
#
# _framework density 21.760978000000001
#
# number of rings (size 3 to 8) (size 9 to 14) (size 15 to 20)
#    0.000    0.750    7.500    1.875    1.750    2.500 
#    2.250    0.625    0.000    0.000    0.000    0.000 
#    0.000    0.000    0.000    0.000    0.000    0.000 
#
# Total GULP energy -198439.336472 kJ/mol
# GULP energy per Si atom -12402.458530 kJ/mol
# Density = 2.171145 g / cm^3
# Si number density = 21.760978 Si / 1000 Ang^3
#
#
#
# Elastic Constant Matrix: (Units=GPa)
#
#
# Indices 1 2 3 4 5 6 
#
# 1 67.2464 16.7750 39.2494 -1.2212 -9.6068 17.8117
# 2 16.7750 46.6264 34.6179 6.5901 -14.4067 18.6077
# 3 39.2494 34.6179 138.8214 37.0556 -10.2540 16.8939
# 4 -1.2212 6.5901 37.0556 37.5310 2.8492 -7.5248
# 5 -9.6068 -14.4067 -10.2540 2.8492 35.0682 -3.0628
# 6 17.8117 18.6077 16.8939 -7.5248 -3.0628 28.9913
#
#
#
# Elastic Compliance Matrix: (Units=1/GPa)
#
#
# Indices 1 2 3 4 5 6 
#
# 1 0.020987 0.000487 -0.006128 0.004798 0.003063 -0.008067
# 2 0.000487 0.039169 -0.003366 -0.009500 0.013875 -0.024478
# 3 -0.006128 -0.003366 0.014991 -0.015912 0.002027 -0.006727
# 4 0.004798 -0.009500 -0.015912 0.049761 -0.009156 0.024371
# 5 0.003063 0.013875 0.002027 -0.009156 0.035466 -0.010598
# 6 -0.008067 -0.024478 -0.006727 0.024371 -0.010598 0.064286
#
#
# Mechanical properties :
#
#
# Convention : Reuss Voigt Hill
#
# Bulk Modulus (GPa) = 17.50274 48.21985 32.86129
# Shear Modulus (GPa) = 19.10447 31.12157 25.11302
#
# Velocity S-wave (km/s) = 2.96619 3.78584 3.40080
# Velocity P-wave (km/s) = 4.44879 6.42784 5.52760
#
# Compressibility (1/GPa) = 0.05713392
#
# Stress axis : x y z
#
# Youngs Moduli (GPa) = 47.64784 25.53015 66.70611
#
# Poissons Ratio (x) = -0.01242 0.40877
# Poissons Ratio (y) = -0.02319 0.22451
# Poissons Ratio (z) = 0.29198 0.08593
#
# Static dielectric constant tensor:
#      x y z
#    x 3.711310 -0.021500 -0.159300 
#    y -0.021500 3.779470 0.023180 
#    z -0.159300 0.023180 4.158220 
# 
# 
# High freq. dielectric constant tensor:
#      x y z
#    x 1.838030 0.000220 -0.014270 
#    y 0.000220 1.838840 0.002960 
#    z -0.014270 0.002960 1.872260 
# 
# From -- ./inp_files/477688.got.cif
#   From: 2010.06.25/outbox.cif.g09.slc.cpg/sg2_239_cif.got.tgz:477688.got - 2010.06.27 13:26:56.
