data_PCOD8029729
_publ_section_title
;
Structure prediction by ZEFSAII (Michael W. Deem and Ramdas Pophale) SiO2 
 PCOD8029729
Probable space group: P -1
;
_chemical_formula_sum "Si O2"
_cell_formula_units_Z 14
_cell_length_a 18.155790
_cell_length_b 23.011500
_cell_length_c 6.811975
_cell_angle_alpha 48.387613
_cell_angle_beta 128.505104
_cell_angle_gamma 161.561379
_cell_volume 672.673314
_symmetry_space_group_name_H-M "P -1"
_symmetry_group_IT_number 2
_symmetry_cell_setting 'triclinic'
loop_
_space_group_symop_operation_xyz
x,y,z
-x,-y,-z
loop_
_atom_site_type_symbol
_atom_site_label
_atom_site_fract_x
_atom_site_fract_y
_atom_site_fract_z
Si Si1 0.296244 0.643191 0.798008
Si Si2 0.462712 0.936988 0.369612
Si Si3 0.957539 0.128393 0.401520
Si Si4 0.655307 0.834801 0.242256
Si Si5 0.483765 0.287692 0.297545
Si Si6 0.859672 0.225317 0.094359
Si Si7 0.226751 0.195421 0.818967
O O1 0.303741 0.740042 0.550721
O O2 0.306332 0.601895 0.702078
O O3 0.049910 0.437325 0.951975
O O4 0.508519 0.781791 0.982479
O O5 0.329574 0.901714 0.103211
O O6 0.500000 0.000000 0.500000
O O7 0.719047 0.112588 0.316472
O O8 0.878489 0.048910 0.223882
O O9 0.746479 0.939732 0.615249
O O10 0.196698 0.263630 0.555495
O O11 0.998436 0.250552 0.222848
O O12 0.487954 0.678410 0.496994
O O13 0.750395 0.833835 0.281370
O O14 0.447194 0.342568 0.997436
O O15 0.000000 0.000000 0.000000
#
# Coordination Sequence:
#
# PCOD8029729 Si02
#       7
#     2   2   2   2   2   2   2
#     4  11  21  39  61  84 119 149 184 237 290 334
#     4  11  24  42  61  86 113 146 192 235 287 347
#     4   9  17  35  56  80 117 150 192 234 277 330
#     4   9  18  32  56  86 116 151 192 233 274 337
#     4   8  18  33  57  80 118 150 188 232 280 325
#     4  11  24  40  60  87 113 150 189 237 287 342
#     4   9  16  28  55  88 110 156 195 228 279 329
#
# _framework density 20.812480999999998
#
# number of rings (size 3 to 8) (size 9 to 14) (size 15 to 20)
#    0.857    1.429    1.429    1.714    0.000    1.714 
#    0.000    2.857    0.000    1.714    0.000    0.000 
#    0.000    0.000    0.000    0.000    0.000    0.000 
#
# Total GULP energy -173486.293587 kJ/mol
# GULP energy per Si atom -12391.878113 kJ/mol
# Density = 2.076511 g / cm^3
# Si number density = 20.812481 Si / 1000 Ang^3
#
#
#
# Elastic Constant Matrix: (Units=GPa)
#
#
# Indices 1 2 3 4 5 6 
#
# 1 136.2871 19.1558 61.2403 -0.1873 -5.0149 -1.0169
# 2 19.1558 35.7627 12.5372 -16.3563 1.6452 4.3437
# 3 61.2403 12.5372 95.0935 0.0184 7.6223 2.6544
# 4 -0.1873 -16.3563 0.0184 31.4054 -0.2910 -2.9289
# 5 -5.0149 1.6452 7.6223 -0.2910 35.4898 8.2357
# 6 -1.0169 4.3437 2.6544 -2.9289 8.2357 7.1456
#
#
#
# Elastic Compliance Matrix: (Units=1/GPa)
#
#
# Indices 1 2 3 4 5 6 
#
# 1 0.011271 -0.005225 -0.006866 -0.002296 0.002468 0.003545
# 2 -0.005225 0.043298 -0.001979 0.020583 0.002731 -0.021039
# 3 -0.006866 -0.001979 0.015553 -0.001269 -0.003850 -0.001634
# 4 -0.002296 0.020583 -0.001269 0.043305 -0.002594 0.008372
# 5 0.002468 0.002731 -0.003850 -0.002594 0.040166 -0.047236
# 6 0.003545 -0.021039 -0.001634 0.008372 -0.047236 0.211721
#
#
# Mechanical properties :
#
#
# Convention : Reuss Voigt Hill
#
# Bulk Modulus (GPa) = 23.81960 50.33445 37.07702
# Shear Modulus (GPa) = 12.27146 26.42215 19.34680
#
# Velocity S-wave (km/s) = 2.43084 3.56692 3.05220
# Velocity P-wave (km/s) = 4.39868 6.41881 5.50225
#
# Compressibility (1/GPa) = 0.04198223
#
# Stress axis : x y z
#
# Youngs Moduli (GPa) = 88.72161 23.09568 64.29517
#
# Poissons Ratio (x) = 0.12066 0.44146
# Poissons Ratio (y) = 0.46353 0.12727
# Poissons Ratio (z) = 0.60918 0.04572
#
# Static dielectric constant tensor:
#      x y z
#    x 3.737320 0.313380 -0.119360 
#    y 0.313380 3.446140 -0.027380 
#    z -0.119360 -0.027380 4.266470 
# 
# 
# High freq. dielectric constant tensor:
#      x y z
#    x 1.812340 0.020900 -0.003780 
#    y 0.020900 1.773370 0.015130 
#    z -0.003780 0.015130 1.824240 
# 
# From -- ./inp_files/338594.got.cif
#   From: 2010.06.25/outbox.cif.g09.slc.cpg/sg2_170_cif.got.tgz:338594.got - 2010.06.27 13:26:56.
