data_PCOD8029351
_publ_section_title
;
Structure prediction by ZEFSAII (Michael W. Deem and Ramdas Pophale) SiO2 
 PCOD8029351
Probable space group: P -1
;
_chemical_formula_sum "Si O2"
_cell_formula_units_Z 16
_cell_length_a 22.573875
_cell_length_b 11.811743
_cell_length_c 11.782862
_cell_angle_alpha 36.260911
_cell_angle_beta 142.946511
_cell_angle_gamma 156.025410
_cell_volume 730.075560
_symmetry_space_group_name_H-M "P -1"
_symmetry_group_IT_number 2
_symmetry_cell_setting 'triclinic'
loop_
_space_group_symop_operation_xyz
x,y,z
-x,-y,-z
loop_
_atom_site_type_symbol
_atom_site_label
_atom_site_fract_x
_atom_site_fract_y
_atom_site_fract_z
Si Si1 0.773500 0.309198 0.432293
Si Si2 0.338092 0.677137 0.979400
Si Si3 0.970293 0.773867 0.001100
Si Si4 0.759382 0.873790 0.715042
Si Si5 0.090567 0.916764 0.446383
Si Si6 0.126590 0.787086 0.032785
Si Si7 0.157966 0.133172 0.617049
Si Si8 0.675144 0.265167 0.552922
O O1 0.703292 0.306083 0.219562
O O2 0.729294 0.373280 0.419540
O O3 0.955715 0.566064 0.502446
O O4 0.707243 0.994215 0.596873
O O5 0.202128 0.530902 0.977856
O O6 0.356795 0.472804 0.165047
O O7 0.500000 0.000000 0.000000
O O8 0.077184 0.959294 0.124837
O O9 0.049553 0.729474 0.080936
O O10 0.970312 0.961049 0.771391
O O11 0.776483 0.943649 0.550182
O O12 0.155068 0.001401 0.604556
O O13 0.196562 0.062938 0.843036
O O14 0.260835 0.836958 0.217110
O O15 0.000000 0.500000 0.000000
O O16 0.278234 0.481344 0.506928
O O17 0.000000 0.000000 0.500000
O O18 0.500000 0.000000 0.500000
#
# Coordination Sequence:
#
# PCOD8029351 Si02
#       8
#     2   2   2   2   2   2   2   2
#     4  12  22  41  71  94 131 175 224 278 339 405
#     4  11  26  43  62 101 141 174 213 279 350 401
#     4  11  20  41  71  96 130 174 229 276 325 405
#     4  11  23  40  71  98 126 172 231 274 326 402
#     4  11  20  40  69 105 132 170 231 284 324 395
#     4  12  23  42  72 102 133 180 237 283 332 403
#     4  12  23  42  71 100 137 183 232 281 333 412
#     4  12  28  46  67 102 142 182 227 289 352 399
#
# _framework density 21.91554
#
# number of rings (size 3 to 8) (size 9 to 14) (size 15 to 20)
#    0.000    0.500    7.500    1.125    0.000    4.000 
#    0.000    1.250    0.000    0.000    0.000    0.000 
#    0.000    0.000    0.000    0.000    0.000    0.000 
#
# Total GULP energy -198392.776372 kJ/mol
# GULP energy per Si atom -12399.548523 kJ/mol
# Density = 2.186566 g / cm^3
# Si number density = 21.915540 Si / 1000 Ang^3
#
#
#
# Elastic Constant Matrix: (Units=GPa)
#
#
# Indices 1 2 3 4 5 6 
#
# 1 52.4490 26.1422 31.6925 8.4402 -9.3770 -13.1834
# 2 26.1422 149.2681 41.8592 -6.4248 0.9506 -6.0895
# 3 31.6925 41.8592 114.2183 -5.5729 -13.3061 0.3076
# 4 8.4402 -6.4248 -5.5729 33.0887 -8.0926 4.0769
# 5 -9.3770 0.9506 -13.3061 -8.0926 33.9580 2.4022
# 6 -13.1834 -6.0895 0.3076 4.0769 2.4022 31.2694
#
#
#
# Elastic Compliance Matrix: (Units=1/GPa)
#
#
# Indices 1 2 3 4 5 6 
#
# 1 0.030930 -0.003164 -0.007767 -0.011026 0.001983 0.013786
# 2 -0.003164 0.007937 -0.002136 0.001588 -0.001565 0.000146
# 3 -0.007767 -0.002136 0.012482 0.005348 0.004424 -0.004851
# 4 -0.011026 0.001588 0.005348 0.037591 0.008669 -0.009959
# 5 0.001983 -0.001565 0.004424 0.008669 0.034070 -0.003260
# 6 0.013786 0.000146 -0.004851 -0.009959 -0.003260 0.039417
#
#
# Mechanical properties :
#
#
# Convention : Reuss Voigt Hill
#
# Bulk Modulus (GPa) = 39.65717 57.25814 48.45766
# Shear Modulus (GPa) = 25.38513 34.07931 29.73222
#
# Velocity S-wave (km/s) = 3.40710 3.94766 3.68730
# Velocity P-wave (km/s) = 5.79763 6.85290 6.34723
#
# Compressibility (1/GPa) = 0.02521612
#
# Stress axis : x y z
#
# Youngs Moduli (GPa) = 32.33085 125.99684 80.11237
#
# Poissons Ratio (x) = 0.39862 0.62222
# Poissons Ratio (y) = 0.10229 0.17112
# Poissons Ratio (z) = 0.25111 0.26914
#
# Static dielectric constant tensor:
#      x y z
#    x 4.119750 -0.316110 -0.364370 
#    y -0.316110 3.930280 -0.010080 
#    z -0.364370 -0.010080 4.330560 
# 
# 
# High freq. dielectric constant tensor:
#      x y z
#    x 1.856940 -0.025850 -0.010840 
#    y -0.025850 1.845100 -0.013410 
#    z -0.010840 -0.013410 1.874620 
# 
# From -- ./inp_files/307939.got.cif
#   From: 2010.06.25/outbox.cif.g09.slc.cpg/sg2_154_cif.got.tgz:307939.got - 2010.06.27 13:26:56.
