data_PCOD8029876
_publ_section_title
;
Structure prediction by ZEFSAII (Michael W. Deem and Ramdas Pophale) SiO2 
 PCOD8029876
Probable space group: P -1
;
_chemical_formula_sum "Si O2"
_cell_formula_units_Z 16
_cell_length_a 20.601695
_cell_length_b 17.369529
_cell_length_c 9.348114
_cell_angle_alpha 148.283617
_cell_angle_beta 29.257651
_cell_angle_gamma 150.353544
_cell_volume 747.247351
_symmetry_space_group_name_H-M "P -1"
_symmetry_group_IT_number 2
_symmetry_cell_setting 'triclinic'
loop_
_space_group_symop_operation_xyz
x,y,z
-x,-y,-z
loop_
_atom_site_type_symbol
_atom_site_label
_atom_site_fract_x
_atom_site_fract_y
_atom_site_fract_z
Si Si1 0.152304 0.279498 0.638319
Si Si2 0.568520 0.396658 0.773936
Si Si3 0.513239 0.614468 0.790443
Si Si4 0.252963 0.621986 0.860280
Si Si5 0.238383 0.936692 0.323877
Si Si6 0.537139 0.158309 0.954892
Si Si7 0.015879 0.019561 0.716299
Si Si8 0.305570 0.039438 0.661667
O O1 0.324198 0.320813 0.341592
O O2 0.140490 0.446018 0.881685
O O3 0.024820 0.124779 0.549980
O O4 0.114580 0.211030 0.766780
O O5 0.705709 0.415868 0.438353
O O6 0.435756 0.205520 0.746381
O O7 0.500000 0.500000 0.000000
O O8 0.612580 0.464642 0.962639
O O9 0.500000 0.500000 0.500000
O O10 0.495318 0.764712 0.999530
O O11 0.172737 0.737853 0.174600
O O12 0.402226 0.718553 0.828011
O O13 0.109118 0.980253 0.593380
O O14 0.321300 0.056402 0.487883
O O15 0.375704 0.990861 0.032782
O O16 0.665158 0.112012 0.586426
O O17 0.864273 0.005809 0.048163
#
# Coordination Sequence:
#
# PCOD8029876 Si02
#       8
#     2   2   2   2   2   2   2   2
#     4  11  23  41  64  84 135 172 213 260 324 379
#     4  12  21  36  64  96 129 160 208 274 320 366
#     4  12  23  39  66  98 125 169 217 267 321 381
#     4  11  21  43  66  97 127 165 216 276 323 369
#     4  11  22  39  70  94 128 172 215 263 325 382
#     4  11  21  40  68  98 127 167 213 275 322 371
#     4  11  24  42  61  93 129 183 212 254 318 397
#     4  11  22  41  63  97 131 162 217 268 318 381
#
# _framework density 21.411919999999999
#
# number of rings (size 3 to 8) (size 9 to 14) (size 15 to 20)
#    0.000    0.750    7.500    1.125    0.000    1.000 
#    4.500    2.500    0.000    0.000    0.000    0.000 
#    0.000    0.000    0.000    0.000    0.000    0.000 
#
# Total GULP energy -198222.911521 kJ/mol
# GULP energy per Si atom -12388.931970 kJ/mol
# Density = 2.136319 g / cm^3
# Si number density = 21.411920 Si / 1000 Ang^3
#
#
#
# Elastic Constant Matrix: (Units=GPa)
#
#
# Indices 1 2 3 4 5 6 
#
# 1 89.9042 26.4662 25.7494 12.9072 -7.2347 -28.1471
# 2 26.4662 97.4629 27.8089 13.6695 -11.0029 -30.1858
# 3 25.7494 27.8089 84.4092 6.6541 -7.2537 -16.9656
# 4 12.9072 13.6695 6.6541 24.9107 2.8999 -5.0524
# 5 -7.2347 -11.0029 -7.2537 2.8999 39.4161 4.2721
# 6 -28.1471 -30.1858 -16.9656 -5.0524 4.2721 39.2519
#
#
#
# Elastic Compliance Matrix: (Units=1/GPa)
#
#
# Indices 1 2 3 4 5 6 
#
# 1 0.015694 0.000452 -0.002364 -0.006034 0.001976 0.009588
# 2 0.000452 0.015077 -0.002374 -0.006280 0.003262 0.009729
# 3 -0.002364 -0.002374 0.013989 -0.000900 0.001298 0.002268
# 4 -0.006034 -0.006280 -0.000900 0.047107 -0.006187 -0.002808
# 5 0.001976 0.003262 0.001298 -0.006187 0.027259 0.000724
# 6 0.009588 0.009729 0.002268 -0.002808 0.000724 0.040374
#
#
# Mechanical properties :
#
#
# Convention : Reuss Voigt Hill
#
# Bulk Modulus (GPa) = 27.63383 47.98059 37.80721
# Shear Modulus (GPa) = 27.75684 33.49918 30.62801
#
# Velocity S-wave (km/s) = 3.60436 3.95968 3.78619
# Velocity P-wave (km/s) = 5.50052 6.58502 6.06705
#
# Compressibility (1/GPa) = 0.03618753
#
# Stress axis : x y z
#
# Youngs Moduli (GPa) = 63.71850 66.32407 71.48619
#
# Poissons Ratio (x) = -0.02995 0.16897
# Poissons Ratio (y) = -0.02877 0.16972
# Poissons Ratio (z) = 0.15061 0.15746
#
# Static dielectric constant tensor:
#      x y z
#    x 4.089150 -0.321170 0.156780 
#    y -0.321170 3.742960 0.078320 
#    z 0.156780 0.078320 4.003660 
# 
# 
# High freq. dielectric constant tensor:
#      x y z
#    x 1.845230 -0.022990 0.000430 
#    y -0.022990 1.822850 0.014770 
#    z 0.000430 0.014770 1.834040 
# 
# From -- ./inp_files/348982.got.cif
#   From: 2010.06.25/outbox.cif.g09.slc.cpg/sg2_175_cif.got.tgz:348982.got - 2010.06.27 13:26:56.
