data_PCOD8029607
_publ_section_title
;
Structure prediction by ZEFSAII (Michael W. Deem and Ramdas Pophale) SiO2 
 PCOD8029607
Probable space group: P -1
;
_chemical_formula_sum "Si O2"
_cell_formula_units_Z 12
_cell_length_a 9.249494
_cell_length_b 13.837107
_cell_length_c 9.205410
_cell_angle_alpha 151.376112
_cell_angle_beta 100.344133
_cell_angle_gamma 80.027266
_cell_volume 554.933353
_symmetry_space_group_name_H-M "P -1"
_symmetry_group_IT_number 2
_symmetry_cell_setting 'triclinic'
loop_
_space_group_symop_operation_xyz
x,y,z
-x,-y,-z
loop_
_atom_site_type_symbol
_atom_site_label
_atom_site_fract_x
_atom_site_fract_y
_atom_site_fract_z
Si Si1 0.565109 0.816900 0.676348
Si Si2 0.950437 0.236438 0.401388
Si Si3 0.161083 0.036332 0.632494
Si Si4 0.750573 0.785674 0.404863
Si Si5 0.715163 0.364605 0.722696
Si Si6 0.147442 0.199403 0.145850
O O1 0.631325 0.890638 0.630685
O O2 0.441064 0.655545 0.411383
O O3 0.699440 0.710965 0.651871
O O4 0.500000 0.000000 0.000000
O O5 0.839678 0.403877 0.673511
O O6 0.085459 0.192193 0.476842
O O7 0.009096 0.312808 0.354628
O O8 0.859316 0.032071 0.101617
O O9 0.262842 0.114008 0.623783
O O10 0.241931 0.836980 0.446200
O O11 0.142444 0.206848 0.980704
O O12 0.000000 0.000000 0.500000
O O13 0.710568 0.550796 0.077357
#
# Coordination Sequence:
#
# PCOD8029607 Si02
#       6
#     2   2   2   2   2   2
#     4  11  21  40  64  84 119 168 193 235 302 360
#     4   9  17  33  62  82 115 157 192 237 294 343
#     4  11  21  36  62  91 120 151 198 248 294 345
#     4  11  23  38  63  91 118 154 200 247 295 346
#     4  11  22  39  63  89 121 155 199 242 296 350
#     4   9  18  35  58  87 116 154 200 237 289 354
#
# _framework density 21.624217999999999
#
# number of rings (size 3 to 8) (size 9 to 14) (size 15 to 20)
#    0.000    1.667    6.667    1.000    0.000    0.667 
#    0.000    1.667    7.333    0.000    0.000    0.000 
#    0.000    0.000    0.000    0.000    0.000    0.000 
#
# Total GULP energy -148725.776148 kJ/mol
# GULP energy per Si atom -12393.814679 kJ/mol
# Density = 2.157500 g / cm^3
# Si number density = 21.624218 Si / 1000 Ang^3
#
#
#
# Elastic Constant Matrix: (Units=GPa)
#
#
# Indices 1 2 3 4 5 6 
#
# 1 139.4758 41.3936 51.0727 -26.4949 -10.0380 8.5815
# 2 41.3936 87.1400 42.9499 -36.6085 -8.2112 22.6053
# 3 51.0727 42.9499 97.5252 -31.5955 -5.9128 10.0665
# 4 -26.4949 -36.6085 -31.5955 36.4228 10.2010 -7.9548
# 5 -10.0380 -8.2112 -5.9128 10.2010 43.2432 -24.2812
# 6 8.5815 22.6053 10.0665 -7.9548 -24.2812 31.0796
#
#
#
# Elastic Compliance Matrix: (Units=1/GPa)
#
#
# Indices 1 2 3 4 5 6 
#
# 1 0.009506 -0.002943 -0.003579 0.000756 0.002615 0.002911
# 2 -0.002943 0.029246 -0.001664 0.024550 -0.015687 -0.025893
# 3 -0.003579 -0.001664 0.016199 0.009972 -0.002784 -0.002671
# 4 0.000756 0.024550 0.009972 0.062413 -0.020505 -0.021339
# 5 0.002615 -0.015687 -0.002784 -0.020505 0.051255 0.046385
# 6 0.002911 -0.025893 -0.002671 -0.021339 0.046385 0.081846
#
#
# Mechanical properties :
#
#
# Convention : Reuss Voigt Hill
#
# Bulk Modulus (GPa) = 25.92095 66.10817 46.01456
# Shear Modulus (GPa) = 17.87650 34.73077 26.30364
#
# Velocity S-wave (km/s) = 2.87834 4.01197 3.49147
# Velocity P-wave (km/s) = 4.80203 7.21796 6.13019
#
# Compressibility (1/GPa) = 0.03857883
#
# Stress axis : x y z
#
# Youngs Moduli (GPa) = 105.19191 34.19258 61.73381
#
# Poissons Ratio (x) = 0.10062 0.22098
# Poissons Ratio (y) = 0.30956 0.10272
# Poissons Ratio (z) = 0.37653 0.05689
#
# Static dielectric constant tensor:
#      x y z
#    x 4.341010 0.221970 -0.174180 
#    y 0.221970 3.642510 -0.587260 
#    z -0.174180 -0.587260 4.083800 
# 
# 
# High freq. dielectric constant tensor:
#      x y z
#    x 1.863960 0.014560 -0.002430 
#    y 0.014560 1.802870 -0.044010 
#    z -0.002430 -0.044010 1.855340 
# 
# From -- ./inp_files/151055.got.cif
#   From: 2010.06.25/outbox.cif.g09.slc.cpg/sg2_76_cif.got.tgz:151055.got - 2010.06.27 13:26:56.
