data_PCOD8029779
_publ_section_title
;
Structure prediction by ZEFSAII (Michael W. Deem and Ramdas Pophale) SiO2 
 PCOD8029779
Probable space group: P -1
;
_chemical_formula_sum "Si O2"
_cell_formula_units_Z 16
_cell_length_a 9.763066
_cell_length_b 11.522420
_cell_length_c 10.326982
_cell_angle_alpha 77.156109
_cell_angle_beta 41.976065
_cell_angle_gamma 75.812498
_cell_volume 751.845319
_symmetry_space_group_name_H-M "P -1"
_symmetry_group_IT_number 2
_symmetry_cell_setting 'triclinic'
loop_
_space_group_symop_operation_xyz
x,y,z
-x,-y,-z
loop_
_atom_site_type_symbol
_atom_site_label
_atom_site_fract_x
_atom_site_fract_y
_atom_site_fract_z
Si Si1 0.650850 0.547812 0.486296
Si Si2 0.966231 0.577289 0.875940
Si Si3 0.599105 0.465400 0.075545
Si Si4 0.592565 0.814784 0.477198
Si Si5 0.557293 0.006189 0.105826
Si Si6 0.253732 0.796904 0.930397
Si Si7 0.048357 0.156028 0.093732
Si Si8 0.738971 0.011014 0.469866
O O1 0.500000 0.500000 0.500000
O O2 0.571654 0.537759 0.691136
O O3 0.684471 0.685030 0.389528
O O4 0.871059 0.468877 0.338548
O O5 0.998810 0.711863 0.850559
O O6 0.737751 0.569751 0.986100
O O7 0.000000 0.500000 0.000000
O O8 0.748948 0.339360 0.985073
O O9 0.500000 0.500000 0.000000
O O10 0.441279 0.788686 0.703143
O O11 0.464732 0.898976 0.443530
O O12 0.769627 0.889473 0.391541
O O13 0.329418 0.020477 0.329176
O O14 0.692664 0.115644 0.013054
O O15 0.707697 0.886664 0.073596
O O16 0.500000 0.000000 0.000000
O O17 0.045451 0.848202 0.985183
O O18 0.944665 0.072932 0.291505
#
# Coordination Sequence:
#
# PCOD8029779 Si02
#       8
#     2   2   2   2   2   2   2   2
#     4  11  21  39  67  98 130 170 222 270 322 384
#     4  12  24  41  66 101 127 171 226 264 320 396
#     4  11  25  43  67  95 139 173 209 277 335 383
#     4   8  17  34  63  91 119 160 208 264 308 367
#     4  11  25  39  63  94 126 167 206 259 333 380
#     4   9  19  42  62  93 124 162 217 257 314 389
#     4  11  23  41  66  92 123 163 220 267 306 386
#     4   9  19  38  60  89 124 160 206 260 316 370
#
# _framework density 21.280972999999999
#
# number of rings (size 3 to 8) (size 9 to 14) (size 15 to 20)
#    0.000    1.750    2.500    2.625    3.500    3.000 
#    0.000    0.000    0.000    0.000    0.000    0.000 
#    0.000    0.000    0.000    0.000    0.000    0.000 
#
# Total GULP energy -198308.542513 kJ/mol
# GULP energy per Si atom -12394.283907 kJ/mol
# Density = 2.123254 g / cm^3
# Si number density = 21.280973 Si / 1000 Ang^3
#
#
#
# Elastic Constant Matrix: (Units=GPa)
#
#
# Indices 1 2 3 4 5 6 
#
# 1 116.0001 32.2595 31.5789 -2.2535 14.4343 12.7862
# 2 32.2595 130.4146 28.2351 4.4683 3.1100 22.7581
# 3 31.5789 28.2351 85.3195 3.6508 3.4779 9.9883
# 4 -2.2535 4.4683 3.6508 31.5344 1.4946 -3.0530
# 5 14.4343 3.1100 3.4779 1.4946 24.9175 6.3901
# 6 12.7862 22.7581 9.9883 -3.0530 6.3901 29.0223
#
#
#
# Elastic Compliance Matrix: (Units=1/GPa)
#
#
# Indices 1 2 3 4 5 6 
#
# 1 0.010771 -0.001744 -0.003145 0.001548 -0.005436 -0.000936
# 2 -0.001744 0.009703 -0.001751 -0.002054 0.001931 -0.006879
# 3 -0.003145 -0.001751 0.013786 -0.001841 0.000832 -0.002363
# 4 0.001548 -0.002054 -0.001841 0.033081 -0.003880 0.005897
# 5 -0.005436 0.001931 0.000832 -0.003880 0.045689 -0.009874
# 6 -0.000936 -0.006879 -0.002363 0.005897 -0.009874 0.043870
#
#
# Mechanical properties :
#
#
# Convention : Reuss Voigt Hill
#
# Bulk Modulus (GPa) = 47.66249 57.32014 52.49131
# Shear Modulus (GPa) = 28.22096 33.07222 30.64659
#
# Velocity S-wave (km/s) = 3.64553 3.94645 3.79897
# Velocity P-wave (km/s) = 6.33761 6.91082 6.63041
#
# Compressibility (1/GPa) = 0.02098086
#
# Stress axis : x y z
#
# Youngs Moduli (GPa) = 92.83883 103.06014 72.53965
#
# Poissons Ratio (x) = 0.17970 0.22812
# Poissons Ratio (y) = 0.16187 0.12703
# Poissons Ratio (z) = 0.29196 0.18048
#
# Static dielectric constant tensor:
#      x y z
#    x 3.335230 0.023810 -0.045280 
#    y 0.023810 4.309810 -0.073630 
#    z -0.045280 -0.073630 4.153360 
# 
# 
# High freq. dielectric constant tensor:
#      x y z
#    x 1.803980 0.018310 -0.007320 
#    y 0.018310 1.846910 0.001760 
#    z -0.007320 0.001760 1.837740 
# 
# From -- ./inp_files/186385.got.cif
#   From: 2010.06.25/outbox.cif.g09.slc.cpg/sg2_94_cif.got.tgz:186385.got - 2010.06.27 13:26:56.
