data_PCOD8029730
_publ_section_title
;
Structure prediction by ZEFSAII (Michael W. Deem and Ramdas Pophale) SiO2 
 PCOD8029730
Probable space group: P -1
;
_chemical_formula_sum "Si O2"
_cell_formula_units_Z 14
_cell_length_a 9.870903
_cell_length_b 19.974453
_cell_length_c 9.095527
_cell_angle_alpha 134.315205
_cell_angle_beta 140.518662
_cell_angle_gamma 37.531435
_cell_volume 677.080298
_symmetry_space_group_name_H-M "P -1"
_symmetry_group_IT_number 2
_symmetry_cell_setting 'triclinic'
loop_
_space_group_symop_operation_xyz
x,y,z
-x,-y,-z
loop_
_atom_site_type_symbol
_atom_site_label
_atom_site_fract_x
_atom_site_fract_y
_atom_site_fract_z
Si Si1 0.779182 0.269410 0.869286
Si Si2 0.778013 0.493865 0.874751
Si Si3 0.861833 0.147418 0.479405
Si Si4 0.741088 0.312618 0.392983
Si Si5 0.324632 0.906647 0.493550
Si Si6 0.215653 0.438549 0.708052
Si Si7 0.127497 0.251568 0.379202
O O1 0.909332 0.223581 0.747508
O O2 0.755196 0.171222 0.773674
O O3 0.494977 0.382899 0.783100
O O4 0.946456 0.295767 0.151367
O O5 0.778104 0.390265 0.652349
O O6 0.509272 0.612288 0.800696
O O7 0.818850 0.477993 0.061155
O O8 0.000000 0.500000 0.000000
O O9 0.718127 0.222731 0.330791
O O10 0.690458 0.111362 0.368530
O O11 0.133552 0.036680 0.489049
O O12 0.987451 0.239463 0.381887
O O13 0.610085 0.867742 0.624335
O O14 0.188615 0.343138 0.611904
O O15 0.000000 0.500000 0.500000
#
# Coordination Sequence:
#
# PCOD8029730 Si02
#       7
#     2   2   2   2   2   2   2
#     4   9  20  39  60  85 122 154 201 252 294 359
#     4  11  24  41  58  87 130 161 197 250 301 361
#     4   9  20  42  62  88 122 155 206 254 298 362
#     4  11  24  40  62  91 124 162 200 249 306 357
#     4   8  20  41  63  86 123 154 205 256 296 359
#     4  11  24  37  61  89 120 161 203 246 302 357
#     4  11  21  39  61  88 122 159 199 254 302 359
#
# _framework density 20.677015999999998
#
# number of rings (size 3 to 8) (size 9 to 14) (size 15 to 20)
#    0.857    1.143    2.857    0.000    4.000    1.714 
#    0.000    0.714    0.000    0.000    0.000    0.000 
#    0.000    0.000    0.000    0.000    0.000    0.000 
#
# Total GULP energy -173504.872564 kJ/mol
# GULP energy per Si atom -12393.205183 kJ/mol
# Density = 2.062995 g / cm^3
# Si number density = 20.677016 Si / 1000 Ang^3
#
#
#
# Elastic Constant Matrix: (Units=GPa)
#
#
# Indices 1 2 3 4 5 6 
#
# 1 86.1076 50.8887 16.8432 -12.9409 -7.0264 -15.2803
# 2 50.8887 111.8688 29.6214 -19.2955 -6.3606 -24.6373
# 3 16.8432 29.6214 83.5869 -14.8828 -12.5713 -15.6287
# 4 -12.9409 -19.2955 -14.8828 19.6880 -0.5975 -0.9230
# 5 -7.0264 -6.3606 -12.5713 -0.5975 32.2787 -4.9259
# 6 -15.2803 -24.6373 -15.6287 -0.9230 -4.9259 40.4663
#
#
#
# Elastic Compliance Matrix: (Units=1/GPa)
#
#
# Indices 1 2 3 4 5 6 
#
# 1 0.016743 -0.005728 0.001080 0.006499 0.003643 0.003844
# 2 -0.005728 0.015544 -0.000355 0.011661 0.003085 0.007806
# 3 0.001080 -0.000355 0.017131 0.013947 0.008338 0.008141
# 4 0.006499 0.011661 0.013947 0.078303 0.013395 0.018357
# 5 0.003643 0.003085 0.008338 0.013395 0.037610 0.011358
# 6 0.003844 0.007806 0.008141 0.018357 0.011358 0.035861
#
#
# Mechanical properties :
#
#
# Convention : Reuss Voigt Hill
#
# Bulk Modulus (GPa) = 25.37211 52.91890 39.14551
# Shear Modulus (GPa) = 22.28809 30.76727 26.52768
#
# Velocity S-wave (km/s) = 3.28672 3.86164 3.58572
# Velocity P-wave (km/s) = 5.16728 6.74771 6.00968
#
# Compressibility (1/GPa) = 0.03941335
#
# Stress axis : x y z
#
# Youngs Moduli (GPa) = 59.72527 64.33237 58.37331
#
# Poissons Ratio (x) = 0.36848 -0.06303
# Poissons Ratio (y) = 0.34209 0.02070
# Poissons Ratio (z) = -0.06449 0.02282
#
# Static dielectric constant tensor:
#      x y z
#    x 3.605860 -0.250520 -0.019090 
#    y -0.250520 3.681140 0.066290 
#    z -0.019090 0.066290 3.642570 
# 
# 
# High freq. dielectric constant tensor:
#      x y z
#    x 1.798770 -0.019810 -0.003400 
#    y -0.019810 1.805770 0.004300 
#    z -0.003400 0.004300 1.790340 
# 
# From -- ./inp_files/222507.got.cif
#   From: 2010.06.25/outbox.cif.g09.slc.cpg/sg2_112_cif.got.tgz:222507.got - 2010.06.27 13:26:56.
