data_PCOD8029846
_publ_section_title
;
Structure prediction by ZEFSAII (Michael W. Deem and Ramdas Pophale) SiO2 
 PCOD8029846
Probable space group: P -1
;
_chemical_formula_sum "Si O2"
_cell_formula_units_Z 16
_cell_length_a 14.408011
_cell_length_b 14.809961
_cell_length_c 14.044113
_cell_angle_alpha 30.891091
_cell_angle_beta 29.028218
_cell_angle_gamma 50.533661
_cell_volume 662.704968
_symmetry_space_group_name_H-M "P -1"
_symmetry_group_IT_number 2
_symmetry_cell_setting 'triclinic'
loop_
_space_group_symop_operation_xyz
x,y,z
-x,-y,-z
loop_
_atom_site_type_symbol
_atom_site_label
_atom_site_fract_x
_atom_site_fract_y
_atom_site_fract_z
Si Si1 0.114106 0.629116 0.581816
Si Si2 0.959139 0.973747 0.236082
Si Si3 0.634944 0.953497 0.098232
Si Si4 0.760039 0.001703 0.580802
Si Si5 0.533417 0.708511 0.221230
Si Si6 0.970721 0.339368 0.807796
Si Si7 0.746131 0.550953 0.718694
Si Si8 0.097892 0.358139 0.065047
O O1 0.276160 0.600025 0.537835
O O2 0.004763 0.427409 0.803684
O O3 0.942967 0.673532 0.755540
O O4 0.234748 0.808794 0.239753
O O5 0.905144 0.764580 0.426413
O O6 0.819842 0.922784 0.503480
O O7 0.217995 0.099409 0.913683
O O8 0.897944 0.105848 0.098986
O O9 0.394490 0.897543 0.401979
O O10 0.611438 0.863415 0.096339
O O11 0.978832 0.157542 0.293733
O O12 0.635043 0.827642 0.925039
O O13 0.642400 0.556349 0.266258
O O14 0.191134 0.440237 0.456823
O O15 0.785120 0.377154 0.889790
O O16 0.500000 0.500000 0.000000
O O17 0.000000 0.500000 0.000000
#
# Coordination Sequence:
#
# PCOD8029846 Si02
#       8
#     2   2   2   2   2   2   2   2
#     4  11  22  40  63  93 135 177 225 274 323 394
#     4  12  25  44  73 102 139 175 221 287 340 398
#     4  11  21  40  66  95 137 185 225 272 327 388
#     4  11  22  38  62  95 130 180 232 266 325 393
#     4  11  22  38  63  90 136 191 227 262 322 386
#     4  11  27  48  71 105 135 171 227 282 345 409
#     4  11  28  50  77 100 130 172 223 285 354 415
#     4  12  23  34  54  90 135 176 225 274 315 385
#
# _framework density 24.143474000000001
#
# number of rings (size 3 to 8) (size 9 to 14) (size 15 to 20)
#    0.000    0.750    5.000    3.000    3.500    3.000 
#    0.000    0.000    0.000    0.000    0.000    0.000 
#    0.000    0.000    0.000    0.000    0.000    0.000 
#
# Total GULP energy -198383.235204 kJ/mol
# GULP energy per Si atom -12398.952200 kJ/mol
# Density = 2.408852 g / cm^3
# Si number density = 24.143474 Si / 1000 Ang^3
#
#
#
# Elastic Constant Matrix: (Units=GPa)
#
#
# Indices 1 2 3 4 5 6 
#
# 1 94.9339 33.2816 16.8661 4.7353 -2.9604 -10.4638
# 2 33.2816 110.9899 18.2084 25.0225 -8.2575 -8.4600
# 3 16.8661 18.2084 38.2158 18.7513 -9.0464 -4.1416
# 4 4.7353 25.0225 18.7513 49.9240 -15.5355 0.1791
# 5 -2.9604 -8.2575 -9.0464 -15.5355 30.4445 -3.7603
# 6 -10.4638 -8.4600 -4.1416 0.1791 -3.7603 44.5087
#
#
#
# Elastic Compliance Matrix: (Units=1/GPa)
#
#
# Indices 1 2 3 4 5 6 
#
# 1 0.012687 -0.003378 -0.004894 0.002426 0.000336 0.001904
# 2 -0.003378 0.011457 -0.001429 -0.004884 0.000019 0.001272
# 3 -0.004894 -0.001429 0.035627 -0.010811 0.004492 0.002316
# 4 0.002426 -0.004884 -0.010811 0.029660 0.010763 -0.000574
# 5 0.000336 0.000019 0.004492 0.010763 0.040188 0.003853
# 6 0.001904 0.001272 0.002316 -0.000574 0.003853 0.023700
#
#
# Mechanical properties :
#
#
# Convention : Reuss Voigt Hill
#
# Bulk Modulus (GPa) = 24.77205 42.31685 33.54445
# Shear Modulus (GPa) = 26.85619 36.69434 31.77527
#
# Velocity S-wave (km/s) = 3.33882 3.90275 3.63175
# Velocity P-wave (km/s) = 5.01461 6.15418 5.61338
#
# Compressibility (1/GPa) = 0.04036807
#
# Stress axis : x y z
#
# Youngs Moduli (GPa) = 78.82247 87.28567 28.06847
#
# Poissons Ratio (x) = 0.29487 0.13736
# Poissons Ratio (y) = 0.26628 0.04011
# Poissons Ratio (z) = 0.38575 0.12474
#
# Static dielectric constant tensor:
#      x y z
#    x 4.462420 -0.442480 0.043040 
#    y -0.442480 4.822410 0.491370 
#    z 0.043040 0.491370 4.406370 
# 
# 
# High freq. dielectric constant tensor:
#      x y z
#    x 1.954820 -0.013370 0.013770 
#    y -0.013370 1.985040 0.012520 
#    z 0.013770 0.012520 1.945590 
# 
# From -- ./inp_files/313536.got.cif
#   From: 2010.06.25/outbox.cif.g09.slc.cpg/sg2_157_cif.got.tgz:313536.got - 2010.06.27 13:26:56.
