data_PCOD8029451
_publ_section_title
;
Structure prediction by ZEFSAII (Michael W. Deem and Ramdas Pophale) SiO2 
 PCOD8029451
Probable space group: P -1
;
_chemical_formula_sum "Si O2"
_cell_formula_units_Z 14
_cell_length_a 8.869371
_cell_length_b 13.948159
_cell_length_c 13.855294
_cell_angle_alpha 32.481512
_cell_angle_beta 119.425730
_cell_angle_gamma 97.739253
_cell_volume 642.517959
_symmetry_space_group_name_H-M "P -1"
_symmetry_group_IT_number 2
_symmetry_cell_setting 'triclinic'
loop_
_space_group_symop_operation_xyz
x,y,z
-x,-y,-z
loop_
_atom_site_type_symbol
_atom_site_label
_atom_site_fract_x
_atom_site_fract_y
_atom_site_fract_z
Si Si1 0.694886 0.013084 0.061707
Si Si2 0.655641 0.944303 0.460176
Si Si3 0.404439 0.729885 0.992663
Si Si4 0.217174 0.060742 0.283648
Si Si5 0.216629 0.495694 0.196667
Si Si6 0.168742 0.704176 0.480783
Si Si7 0.400978 0.688902 0.386493
O O1 0.636362 0.187611 0.979729
O O2 0.726828 0.083880 0.907258
O O3 0.926401 0.774832 0.356642
O O4 0.500000 0.000000 0.000000
O O5 0.721073 0.995143 0.537355
O O6 0.809375 0.677025 0.720090
O O7 0.407776 0.033753 0.305771
O O8 0.692844 0.066716 0.284037
O O9 0.286178 0.610377 0.046239
O O10 0.659844 0.541805 0.211457
O O11 0.173397 0.889849 0.378804
O O12 0.008301 0.313165 0.986577
O O13 0.402866 0.346952 0.460494
O O14 0.231222 0.693412 0.397708
O O15 0.500000 0.500000 0.500000
#
# Coordination Sequence:
#
# PCOD8029451 Si02
#       7
#     2   2   2   2   2   2   2
#     4  12  25  41  65  99 132 173 227 273 327 400
#     4  11  25  43  68 102 130 177 225 271 328 400
#     4  11  24  44  66  98 137 169 225 277 328 397
#     4  11  23  45  69  96 134 174 224 272 336 392
#     4  11  22  45  67  95 138 171 220 276 325 398
#     4  11  23  45  67  95 137 178 218 275 334 395
#     4  11  20  42  67  90 129 178 216 263 335 391
#
# _framework density 21.789273999999999
#
# number of rings (size 3 to 8) (size 9 to 14) (size 15 to 20)
#    0.000    0.857    7.143    1.714    0.000    4.000 
#    0.000    0.000    0.000    0.000    0.000    0.000 
#    0.000    0.000    0.000    0.000    0.000    0.000 
#
# Total GULP energy -173590.837151 kJ/mol
# GULP energy per Si atom -12399.345511 kJ/mol
# Density = 2.173968 g / cm^3
# Si number density = 21.789274 Si / 1000 Ang^3
#
#
#
# Elastic Constant Matrix: (Units=GPa)
#
#
# Indices 1 2 3 4 5 6 
#
# 1 71.0374 41.2436 40.3053 -6.9267 3.0509 -1.4307
# 2 41.2436 87.0354 24.7474 -13.1514 -5.1271 -11.0688
# 3 40.3053 24.7474 107.0509 -18.8386 6.4049 -6.3870
# 4 -6.9267 -13.1514 -18.8386 31.8180 -7.2824 1.8144
# 5 3.0509 -5.1271 6.4049 -7.2824 57.4025 -1.7030
# 6 -1.4307 -11.0688 -6.3870 1.8144 -1.7030 23.6036
#
#
#
# Elastic Compliance Matrix: (Units=1/GPa)
#
#
# Indices 1 2 3 4 5 6 
#
# 1 0.024140 -0.010690 -0.007479 -0.003749 -0.002040 -0.005433
# 2 -0.010690 0.018366 0.001165 0.006206 0.003104 0.008027
# 3 -0.007479 0.001165 0.013222 0.006488 -0.000057 0.003168
# 4 -0.003749 0.006206 0.006488 0.038037 0.004911 0.001869
# 5 -0.002040 0.003104 -0.000057 0.004911 0.018503 0.002274
# 6 -0.005433 0.008027 0.003168 0.001869 0.002274 0.046679
#
#
# Mechanical properties :
#
#
# Convention : Reuss Voigt Hill
#
# Bulk Modulus (GPa) = 46.04470 53.07961 49.56215
# Shear Modulus (GPa) = 24.97555 33.15333 29.06444
#
# Velocity S-wave (km/s) = 3.38928 3.90493 3.65620
# Velocity P-wave (km/s) = 6.04102 6.68914 6.37333
#
# Compressibility (1/GPa) = 0.02171803
#
# Stress axis : x y z
#
# Youngs Moduli (GPa) = 41.42503 54.44948 75.62981
#
# Poissons Ratio (x) = 0.58207 0.56566
# Poissons Ratio (y) = 0.44284 -0.08808
# Poissons Ratio (z) = 0.30983 -0.06341
#
# Static dielectric constant tensor:
#      x y z
#    x 4.459730 -0.938090 -0.698330 
#    y -0.938090 5.535990 1.530180 
#    z -0.698330 1.530180 5.753370 
# 
# 
# High freq. dielectric constant tensor:
#      x y z
#    x 1.844930 -0.006410 0.015860 
#    y -0.006410 1.859600 -0.005570 
#    z 0.015860 -0.005570 1.861610 
# 
# From -- ./inp_files/212081.got.cif
#   From: 2010.06.25/outbox.cif.g09.slc.cpg/sg2_107_cif.got.tgz:212081.got - 2010.06.27 13:26:56.
