data_PCOD8029117
_publ_section_title
;
Structure prediction by ZEFSAII (Michael W. Deem and Ramdas Pophale) SiO2 
 PCOD8029117
Probable space group: P -1
;
_chemical_formula_sum "Si O2"
_cell_formula_units_Z 12
_cell_length_a 13.896918
_cell_length_b 19.860489
_cell_length_c 8.775933
_cell_angle_alpha 34.784983
_cell_angle_beta 146.943299
_cell_angle_gamma 149.796589
_cell_volume 621.799209
_symmetry_space_group_name_H-M "P -1"
_symmetry_group_IT_number 2
_symmetry_cell_setting 'triclinic'
loop_
_space_group_symop_operation_xyz
x,y,z
-x,-y,-z
loop_
_atom_site_type_symbol
_atom_site_label
_atom_site_fract_x
_atom_site_fract_y
_atom_site_fract_z
Si Si1 0.071737 0.665080 0.185898
Si Si2 0.356407 0.630401 0.823705
Si Si3 0.844050 0.481939 0.694085
Si Si4 0.898836 0.834514 0.664759
Si Si5 0.301649 0.350841 0.957927
Si Si6 0.490565 0.364375 0.673529
O O1 0.237106 0.701632 0.473534
O O2 0.151325 0.619530 0.234160
O O3 0.819955 0.541538 0.119908
O O4 0.083190 0.809750 0.909891
O O5 0.588915 0.693764 0.940120
O O6 0.397274 0.671898 0.979623
O O7 0.876508 0.625319 0.395470
O O8 0.609449 0.400288 0.604459
O O9 0.000000 0.500000 0.000000
O O10 0.742300 0.770008 0.430513
O O11 0.802465 0.766535 0.829116
O O12 0.000000 0.000000 0.500000
O O13 0.500000 0.500000 0.000000
O O14 0.500000 0.500000 0.500000
#
# Coordination Sequence:
#
# PCOD8029117 Si02
#       6
#     2   2   2   2   2   2
#     4  11  20  36  59  94 124 157 203 261 304 360
#     4  11  20  34  65  94 118 155 213 260 297 356
#     4  12  21  32  65 102 121 151 217 264 297 354
#     4  12  26  43  61  90 131 169 202 254 321 371
#     4  12  19  39  63  89 123 164 205 253 309 361
#     4  12  20  39  64  94 124 162 208 252 302 370
#
# _framework density 19.298833999999999
#
# number of rings (size 3 to 8) (size 9 to 14) (size 15 to 20)
#    0.000    0.333   10.000    1.000    0.000    0.000 
#    0.000    5.000    0.000    0.000    0.000    0.000 
#    0.000    0.000    0.000    0.000    0.000    0.000 
#
# Total GULP energy -148669.736305 kJ/mol
# GULP energy per Si atom -12389.144692 kJ/mol
# Density = 1.925491 g / cm^3
# Si number density = 19.298834 Si / 1000 Ang^3
#
#
#
# Elastic Constant Matrix: (Units=GPa)
#
#
# Indices 1 2 3 4 5 6 
#
# 1 126.6441 34.4626 48.5706 -10.6360 7.0560 2.0959
# 2 34.4626 92.8001 74.2466 -6.4266 -0.6845 -13.5428
# 3 48.5706 74.2466 172.2473 11.0206 -5.8566 -13.3879
# 4 -10.6360 -6.4266 11.0206 32.3072 -7.7156 -3.9053
# 5 7.0560 -0.6845 -5.8566 -7.7156 40.2601 1.8619
# 6 2.0959 -13.5428 -13.3879 -3.9053 1.8619 18.6818
#
#
#
# Elastic Compliance Matrix: (Units=1/GPa)
#
#
# Indices 1 2 3 4 5 6 
#
# 1 0.009736 -0.002054 -0.002364 0.002846 -0.001376 -0.003544
# 2 -0.002054 0.019545 -0.007471 0.007145 0.000490 0.010490
# 3 -0.002364 -0.007471 0.010135 -0.005451 0.000675 0.000906
# 4 0.002846 0.007145 -0.005451 0.037512 0.005638 0.008234
# 5 -0.001376 0.000490 0.000675 0.005638 0.026287 -0.000448
# 6 -0.003544 0.010490 0.000906 0.008234 -0.000448 0.063945
#
#
# Mechanical properties :
#
#
# Convention : Reuss Voigt Hill
#
# Bulk Modulus (GPa) = 63.94924 78.47233 71.21078
# Shear Modulus (GPa) = 25.49044 33.87726 29.68385
#
# Velocity S-wave (km/s) = 3.63826 4.19430 3.92614
# Velocity P-wave (km/s) = 7.13145 8.01288 7.58498
#
# Compressibility (1/GPa) = 0.01563740
#
# Stress axis : x y z
#
# Youngs Moduli (GPa) = 102.70901 51.16350 98.67177
#
# Poissons Ratio (x) = 0.10511 0.23329
# Poissons Ratio (y) = 0.21100 0.73715
# Poissons Ratio (z) = 0.24283 0.38223
#
# Static dielectric constant tensor:
#      x y z
#    x 4.230830 -0.013050 -0.244070 
#    y -0.013050 3.013750 0.440580 
#    z -0.244070 0.440580 4.655330 
# 
# 
# High freq. dielectric constant tensor:
#      x y z
#    x 1.772560 -0.002650 0.000380 
#    y -0.002650 1.676180 0.033630 
#    z 0.000380 0.033630 1.775730 
# 
# From -- ./inp_files/155640.got.cif
#   From: 2010.06.25/outbox.cif.g09.slc.cpg/sg2_78_cif.got.tgz:155640.got - 2010.06.27 13:26:56.
