data_PCOD8029246
_publ_section_title
;
Structure prediction by ZEFSAII (Michael W. Deem and Ramdas Pophale) SiO2 
 PCOD8029246
Probable space group: P -1
;
_chemical_formula_sum "Si O2"
_cell_formula_units_Z 16
_cell_length_a 12.115555
_cell_length_b 9.734011
_cell_length_c 16.193802
_cell_angle_alpha 102.529240
_cell_angle_beta 26.114849
_cell_angle_gamma 93.394837
_cell_volume 778.695957
_symmetry_space_group_name_H-M "P -1"
_symmetry_group_IT_number 2
_symmetry_cell_setting 'triclinic'
loop_
_space_group_symop_operation_xyz
x,y,z
-x,-y,-z
loop_
_atom_site_type_symbol
_atom_site_label
_atom_site_fract_x
_atom_site_fract_y
_atom_site_fract_z
Si Si1 0.481126 0.835744 0.400328
Si Si2 0.374155 0.205657 0.888255
Si Si3 0.819409 0.671775 0.442836
Si Si4 0.880169 0.851777 0.273254
Si Si5 0.656111 0.334927 0.846279
Si Si6 0.375661 0.173058 0.119062
Si Si7 0.440868 0.869864 0.839813
Si Si8 0.086401 0.669213 0.672909
O O1 0.603213 0.780779 0.222338
O O2 0.720397 0.834879 0.297896
O O3 0.341552 0.721854 0.514771
O O4 0.267265 0.998035 0.558621
O O5 0.567163 0.286315 0.811782
O O6 0.439328 0.037344 0.851812
O O7 0.075219 0.292045 0.128080
O O8 0.896441 0.715690 0.306075
O O9 0.536934 0.779986 0.678592
O O10 0.808200 0.506398 0.430312
O O11 0.034606 0.686613 0.366797
O O12 0.158024 0.859238 0.054640
O O13 0.500000 0.500000 0.000000
O O14 0.603625 0.233212 0.940050
O O15 0.347555 0.204419 0.239925
O O16 0.098225 0.249159 0.269248
O O17 0.500000 0.000000 0.000000
#
# Coordination Sequence:
#
# PCOD8029246 Si02
#       8
#     2   2   2   2   2   2   2   2
#     4  11  25  45  73  96 128 181 234 274 329 393
#     4  11  23  42  69 101 130 176 221 273 328 400
#     4  12  26  42  67 103 138 176 216 276 348 390
#     4  11  25  46  69  99 134 173 231 286 318 396
#     4  11  22  41  67  98 140 174 211 275 334 397
#     4  11  20  38  66  95 133 172 214 274 322 393
#     4  12  24  40  69 102 133 176 225 272 333 400
#     4  11  25  44  65 101 141 172 214 281 338 391
#
# _framework density 20.547173000000001
#
# number of rings (size 3 to 8) (size 9 to 14) (size 15 to 20)
#    0.000    0.750    8.750    0.000    1.750    5.000 
#    0.000    1.250    0.000    0.000    0.000    0.000 
#    0.000    0.000    0.000    0.000    0.000    0.000 
#
# Total GULP energy -198384.205995 kJ/mol
# GULP energy per Si atom -12399.012875 kJ/mol
# Density = 2.050041 g / cm^3
# Si number density = 20.547173 Si / 1000 Ang^3
#
#
#
# Elastic Constant Matrix: (Units=GPa)
#
#
# Indices 1 2 3 4 5 6 
#
# 1 80.7482 37.9653 50.7768 -1.2007 14.0996 7.9873
# 2 37.9653 137.5390 32.1951 10.9478 0.9200 16.2690
# 3 50.7768 32.1951 108.3392 1.4457 12.9256 9.3651
# 4 -1.2007 10.9478 1.4457 31.8513 0.2128 0.4315
# 5 14.0996 0.9200 12.9256 0.2128 29.5107 1.0413
# 6 7.9873 16.2690 9.3651 0.4315 1.0413 23.2893
#
#
#
# Elastic Compliance Matrix: (Units=1/GPa)
#
#
# Indices 1 2 3 4 5 6 
#
# 1 0.020118 -0.003838 -0.007499 0.002473 -0.006192 -0.000972
# 2 -0.003838 0.009336 -0.000752 -0.003267 0.002070 -0.004935
# 3 -0.007499 -0.000752 0.013427 -0.000589 -0.002193 -0.002193
# 4 0.002473 -0.003267 -0.000589 0.032631 -0.001096 0.001115
# 5 -0.006192 0.002070 -0.002193 -0.001096 0.037752 -0.000108
# 6 -0.000972 -0.004935 -0.002193 0.001115 -0.000108 0.047585
#
#
# Mechanical properties :
#
#
# Convention : Reuss Voigt Hill
#
# Bulk Modulus (GPa) = 53.46671 63.16675 58.31673
# Shear Modulus (GPa) = 26.14199 30.64288 28.39243
#
# Velocity S-wave (km/s) = 3.57079 3.86598 3.72131
# Velocity P-wave (km/s) = 6.56343 7.12298 6.84892
#
# Compressibility (1/GPa) = 0.01870323
#
# Stress axis : x y z
#
# Youngs Moduli (GPa) = 49.70580 107.11006 74.47425
#
# Poissons Ratio (x) = 0.41114 0.55846
# Poissons Ratio (y) = 0.19079 0.05602
# Poissons Ratio (z) = 0.37273 0.08057
#
# Static dielectric constant tensor:
#      x y z
#    x 3.817890 0.031030 0.120560 
#    y 0.031030 3.833690 -0.081830 
#    z 0.120560 -0.081830 3.818350 
# 
# 
# High freq. dielectric constant tensor:
#      x y z
#    x 1.796150 0.007240 0.005750 
#    y 0.007240 1.817600 -0.006610 
#    z 0.005750 -0.006610 1.802410 
# 
# From -- ./inp_files/515735.got.cif
#   From: 2010.06.25/outbox.cif.g09.slc.cpg/sg2_258_cif.got.tgz:515735.got - 2010.06.27 13:26:56.
