data_PCOD8029433
_publ_section_title
;
Structure prediction by ZEFSAII (Michael W. Deem and Ramdas Pophale) SiO2 
 PCOD8029433
Probable space group: P -1
;
_chemical_formula_sum "Si O2"
_cell_formula_units_Z 16
_cell_length_a 11.718084
_cell_length_b 9.358862
_cell_length_c 15.351290
_cell_angle_alpha 88.798700
_cell_angle_beta 27.203347
_cell_angle_gamma 100.166515
_cell_volume 695.791578
_symmetry_space_group_name_H-M "P -1"
_symmetry_group_IT_number 2
_symmetry_cell_setting 'triclinic'
loop_
_space_group_symop_operation_xyz
x,y,z
-x,-y,-z
loop_
_atom_site_type_symbol
_atom_site_label
_atom_site_fract_x
_atom_site_fract_y
_atom_site_fract_z
Si Si1 0.646101 0.282269 0.078885
Si Si2 0.844857 0.195708 0.345478
Si Si3 0.424044 0.456913 0.775294
Si Si4 0.442757 0.938649 0.291161
Si Si5 0.409733 0.316218 0.063200
Si Si6 0.242486 0.491168 0.617555
Si Si7 0.067730 0.125090 0.029331
Si Si8 0.263196 0.661390 0.312610
O O1 0.661040 0.406010 0.141704
O O2 0.504354 0.114790 0.224326
O O3 0.433446 0.264018 0.145926
O O4 0.962454 0.335571 0.831986
O O5 0.588495 0.084770 0.582137
O O6 0.818912 0.355018 0.333092
O O7 0.106961 0.226174 0.228708
O O8 0.843386 0.102218 0.258296
O O9 0.680118 0.523155 0.534417
O O10 0.161918 0.300195 0.918574
O O11 0.496826 0.382998 0.811759
O O12 0.687359 0.899102 0.088422
O O13 0.196620 0.795374 0.407496
O O14 0.637914 0.282177 0.853504
O O15 0.500000 0.500000 0.000000
O O16 0.500000 0.500000 0.500000
O O17 0.000000 0.000000 0.000000
O O18 0.000000 0.500000 0.500000
#
# Coordination Sequence:
#
# PCOD8029433 Si02
#       8
#     2   2   2   2   2   2   2   2
#     4  12  27  46  70 112 151 186 241 309 357 427
#     4  12  23  49  72 105 146 190 244 291 367 442
#     4  11  23  46  69 106 139 190 245 287 369 432
#     4  11  27  44  69 111 148 185 245 298 364 423
#     4  12  20  41  77 101 141 196 235 289 362 438
#     4  12  26  45  76 105 141 190 249 299 362 435
#     4  11  24  46  77  99 141 196 248 296 358 434
#     4  11  20  41  72 101 142 195 238 287 355 443
#
# _framework density 22.995393
#
# number of rings (size 3 to 8) (size 9 to 14) (size 15 to 20)
#    0.000    0.500    8.750    1.500    1.750    4.000 
#    0.000    0.000    0.000    0.000    0.000    0.000 
#    0.000    0.000    0.000    0.000    0.000    0.000 
#
# Total GULP energy -198217.305496 kJ/mol
# GULP energy per Si atom -12388.581594 kJ/mol
# Density = 2.294305 g / cm^3
# Si number density = 22.995393 Si / 1000 Ang^3
#
#
#
# Elastic Constant Matrix: (Units=GPa)
#
#
# Indices 1 2 3 4 5 6 
#
# 1 80.2821 50.2126 27.3758 1.6073 2.8721 5.0299
# 2 50.2126 177.4996 58.9163 -10.2612 20.7037 16.1846
# 3 27.3758 58.9163 105.4496 11.7941 26.4198 6.5623
# 4 1.6073 -10.2612 11.7941 42.0955 3.4892 11.1188
# 5 2.8721 20.7037 26.4198 3.4892 39.2855 9.1575
# 6 5.0299 16.1846 6.5623 11.1188 9.1575 37.2450
#
#
#
# Elastic Compliance Matrix: (Units=1/GPa)
#
#
# Indices 1 2 3 4 5 6 
#
# 1 0.015719 -0.004003 -0.002393 -0.001047 0.002738 -0.000322
# 2 -0.004003 0.008762 -0.003793 0.004410 -0.001329 -0.003588
# 3 -0.002393 -0.003793 0.014573 -0.005013 -0.007840 0.002828
# 4 -0.001047 0.004410 -0.005013 0.028764 0.000826 -0.009681
# 5 0.002738 -0.001329 -0.007840 0.000826 0.032717 -0.006701
# 6 -0.000322 -0.003588 0.002828 -0.009681 -0.006701 0.032492
#
#
# Mechanical properties :
#
#
# Convention : Reuss Voigt Hill
#
# Bulk Modulus (GPa) = 53.54555 70.69343 62.11949
# Shear Modulus (GPa) = 31.32243 38.84031 35.08137
#
# Velocity S-wave (km/s) = 3.69469 4.11426 3.91011
# Velocity P-wave (km/s) = 6.44491 7.30607 6.88896
#
# Compressibility (1/GPa) = 0.01867569
#
# Stress axis : x y z
#
# Youngs Moduli (GPa) = 63.61757 114.12340 68.62034
#
# Poissons Ratio (x) = 0.45682 0.16421
# Poissons Ratio (y) = 0.25465 0.26030
# Poissons Ratio (z) = 0.15224 0.43291
#
# Static dielectric constant tensor:
#      x y z
#    x 5.414870 0.703190 -0.641260 
#    y 0.703190 4.350670 -0.245780 
#    z -0.641260 -0.245780 4.921550 
# 
# 
# High freq. dielectric constant tensor:
#      x y z
#    x 1.897210 0.019800 0.008080 
#    y 0.019800 1.902250 0.005770 
#    z 0.008080 0.005770 1.923240 
# 
# From -- ./inp_files/515610.got.cif
#   From: 2010.06.25/outbox.cif.g09.slc.cpg/sg2_258_cif.got.tgz:515610.got - 2010.06.27 13:26:56.
