data_PCOD8029945
_publ_section_title
;
Structure prediction by ZEFSAII (Michael W. Deem and Ramdas Pophale) SiO2 
 PCOD8029945
Probable space group: P -1
;
_chemical_formula_sum "Si O2"
_cell_formula_units_Z 12
_cell_length_a 15.150899
_cell_length_b 11.450960
_cell_length_c 9.121287
_cell_angle_alpha 89.335466
_cell_angle_beta 70.192642
_cell_angle_gamma 28.465247
_cell_volume 546.176134
_symmetry_space_group_name_H-M "P -1"
_symmetry_group_IT_number 2
_symmetry_cell_setting 'triclinic'
loop_
_space_group_symop_operation_xyz
x,y,z
-x,-y,-z
loop_
_atom_site_type_symbol
_atom_site_label
_atom_site_fract_x
_atom_site_fract_y
_atom_site_fract_z
Si Si1 0.397340 0.735884 0.976699
Si Si2 0.820899 0.301273 0.525442
Si Si3 0.199771 0.300812 0.764901
Si Si4 0.904225 0.774864 0.667351
Si Si5 0.563137 0.083353 0.613653
Si Si6 0.881500 0.233280 0.169713
O O1 0.555137 0.602653 0.755270
O O2 0.500000 0.500000 0.000000
O O3 0.367682 0.868825 0.115291
O O4 0.109108 0.059819 0.073306
O O5 0.789279 0.290747 0.377575
O O6 0.932702 0.302023 0.477329
O O7 0.000000 0.000000 0.500000
O O8 0.413960 0.134021 0.722283
O O9 0.068462 0.513180 0.695321
O O10 0.342862 0.023847 0.610252
O O11 0.000000 0.500000 0.000000
O O12 0.813580 0.801313 0.580183
O O13 0.367389 0.414444 0.759771
O O14 0.000000 0.000000 0.000000
#
# Coordination Sequence:
#
# PCOD8029945 Si02
#       6
#     2   2   2   2   2   2
#     4  11  21  41  65  97 142 178 224 275 338 412
#     4  11  23  42  67  98 140 187 221 279 345 406
#     4  11  26  48  71 100 137 179 235 291 342 399
#     4  11  24  45  70 100 138 180 229 284 346 411
#     4  11  25  46  71 101 139 177 234 285 341 415
#     4  11  24  42  65 105 140 178 227 281 343 416
#
# _framework density 21.970932999999999
#
# number of rings (size 3 to 8) (size 9 to 14) (size 15 to 20)
#    0.000    1.000    6.667    1.500    2.333    2.667 
#    0.000    0.000    0.000    0.000    0.000    0.000 
#    0.000    0.000    0.000    0.000    0.000    0.000 
#
# Total GULP energy -148678.910502 kJ/mol
# GULP energy per Si atom -12389.909209 kJ/mol
# Density = 2.192093 g / cm^3
# Si number density = 21.970933 Si / 1000 Ang^3
#
#
#
# Elastic Constant Matrix: (Units=GPa)
#
#
# Indices 1 2 3 4 5 6 
#
# 1 96.1931 33.4988 49.4464 -12.9459 10.6054 -10.9958
# 2 33.4988 89.2148 15.2056 -2.4369 -9.3643 -6.1065
# 3 49.4464 15.2056 200.6084 -1.4331 -6.3637 -1.2846
# 4 -12.9459 -2.4369 -1.4331 35.5470 7.9367 8.0866
# 5 10.6054 -9.3643 -6.3637 7.9367 38.1840 4.0593
# 6 -10.9958 -6.1065 -1.2846 8.0866 4.0593 31.3876
#
#
#
# Elastic Compliance Matrix: (Units=1/GPa)
#
#
# Indices 1 2 3 4 5 6 
#
# 1 0.016795 -0.006097 -0.003878 0.006559 -0.008590 0.003960
# 2 -0.006097 0.013959 0.000610 -0.002638 0.005708 0.000546
# 3 -0.003878 0.000610 0.005961 -0.001502 0.002633 -0.000949
# 4 0.006559 -0.002638 -0.001502 0.033621 -0.009095 -0.005763
# 5 -0.008590 0.005708 0.002633 -0.009095 0.032695 -0.003676
# 6 0.003960 0.000546 -0.000949 -0.005763 -0.003676 0.035274
#
#
# Mechanical properties :
#
#
# Convention : Reuss Voigt Hill
#
# Bulk Modulus (GPa) = 55.59782 64.70201 60.14992
# Shear Modulus (GPa) = 30.66958 40.21477 35.44217
#
# Velocity S-wave (km/s) = 3.74025 4.28291 4.02075
# Velocity P-wave (km/s) = 6.63421 7.34647 6.99941
#
# Compressibility (1/GPa) = 0.01798632
#
# Stress axis : x y z
#
# Youngs Moduli (GPa) = 59.54247 71.64042 167.75442
#
# Poissons Ratio (x) = 0.43677 0.65051
# Poissons Ratio (y) = 0.36301 -0.10240
# Poissons Ratio (z) = 0.23089 -0.04373
#
# Static dielectric constant tensor:
#      x y z
#    x 4.016430 -0.132770 0.632890 
#    y -0.132770 4.013080 0.133780 
#    z 0.632890 0.133780 4.108740 
# 
# 
# High freq. dielectric constant tensor:
#      x y z
#    x 1.852850 -0.001490 0.019960 
#    y -0.001490 1.870890 0.019050 
#    z 0.019960 0.019050 1.880010 
# 
# From -- ./inp_files/200011.got.cif
#   From: 2010.06.25/outbox.cif.g09.slc.cpg/sg2_101_cif.got.tgz:200011.got - 2010.06.27 13:26:56.
