data_PCOD8029736
_publ_section_title
;
Structure prediction by ZEFSAII (Michael W. Deem and Ramdas Pophale) SiO2 
 PCOD8029736
Probable space group: P -1
;
_chemical_formula_sum "Si O2"
_cell_formula_units_Z 14
_cell_length_a 19.501302
_cell_length_b 16.794434
_cell_length_c 10.849419
_cell_angle_alpha 146.961494
_cell_angle_beta 137.279240
_cell_angle_gamma 20.675774
_cell_volume 660.878159
_symmetry_space_group_name_H-M "P -1"
_symmetry_group_IT_number 2
_symmetry_cell_setting 'triclinic'
loop_
_space_group_symop_operation_xyz
x,y,z
-x,-y,-z
loop_
_atom_site_type_symbol
_atom_site_label
_atom_site_fract_x
_atom_site_fract_y
_atom_site_fract_z
Si Si1 0.166681 0.916182 0.115303
Si Si2 0.397940 0.054945 0.627403
Si Si3 0.516665 0.486018 0.198228
Si Si4 0.409012 0.927983 0.219318
Si Si5 0.544943 0.748957 0.683841
Si Si6 0.811957 0.660846 0.896653
Si Si7 0.021108 0.540048 0.410469
O O1 0.284523 0.780442 0.225901
O O2 0.330669 0.670026 0.911874
O O3 0.064061 0.199135 0.315636
O O4 0.000000 0.000000 0.000000
O O5 0.458316 0.146418 0.798823
O O6 0.157905 0.349297 0.706555
O O7 0.482865 0.852692 0.361227
O O8 0.489084 0.877438 0.641119
O O9 0.555862 0.560228 0.450255
O O10 0.566933 0.268894 0.046128
O O11 0.176656 0.273562 0.366658
O O12 0.756366 0.568361 0.759050
O O13 0.381636 0.994921 0.890122
O O14 0.849733 0.596462 0.718924
O O15 0.000000 0.500000 0.000000
#
# Coordination Sequence:
#
# PCOD8029736 Si02
#       7
#     2   2   2   2   2   2   2
#     4  11  23  34  62  90 127 162 202 253 305 361
#     4  11  21  39  62  91 125 164 201 246 303 377
#     4  11  22  41  56  93 128 159 200 258 306 364
#     4  11  25  36  63  93 134 162 192 249 320 371
#     4  11  22  41  66  89 118 164 215 252 301 360
#     4  11  22  39  67  91 113 161 218 263 291 356
#     4  12  22  40  61  95 123 161 209 251 302 373
#
# _framework density 21.183935999999999
#
# number of rings (size 3 to 8) (size 9 to 14) (size 15 to 20)
#    0.000    0.857    5.714    2.143    4.000    0.000 
#    0.000    0.714    0.000    1.714    0.000    0.000 
#    0.000    0.000    0.000    0.000    0.000    0.000 
#
# Total GULP energy -173579.769655 kJ/mol
# GULP energy per Si atom -12398.554975 kJ/mol
# Density = 2.113572 g / cm^3
# Si number density = 21.183936 Si / 1000 Ang^3
#
#
#
# Elastic Constant Matrix: (Units=GPa)
#
#
# Indices 1 2 3 4 5 6 
#
# 1 57.7352 22.0941 15.2846 6.5033 16.7967 -24.6122
# 2 22.0941 98.7532 28.0276 -3.5477 26.2940 -31.5205
# 3 15.2846 28.0276 121.4001 -1.7566 31.1700 -12.0223
# 4 6.5033 -3.5477 -1.7566 29.4358 -3.1602 8.1125
# 5 16.7967 26.2940 31.1700 -3.1602 47.3580 -7.0530
# 6 -24.6122 -31.5205 -12.0223 8.1125 -7.0530 42.7300
#
#
#
# Elastic Compliance Matrix: (Units=1/GPa)
#
#
# Indices 1 2 3 4 5 6 
#
# 1 0.028583 0.001415 0.000032 -0.012165 -0.009025 0.018336
# 2 0.001415 0.015415 -0.000868 -0.002352 -0.006973 0.011237
# 3 0.000032 -0.000868 0.010102 -0.000520 -0.006015 0.001326
# 4 -0.012165 -0.002352 -0.000520 0.041354 0.006386 -0.015685
# 5 -0.009025 -0.006973 -0.006015 0.006386 0.031372 -0.008068
# 6 0.018336 0.011237 0.001326 -0.015685 -0.008068 0.044273
#
#
# Mechanical properties :
#
#
# Convention : Reuss Voigt Hill
#
# Bulk Modulus (GPa) = 18.09730 45.41123 31.75426
# Shear Modulus (GPa) = 26.54485 38.07022 32.30753
#
# Velocity S-wave (km/s) = 3.54371 4.24385 3.90948
# Velocity P-wave (km/s) = 5.03044 6.74514 5.94988
#
# Compressibility (1/GPa) = 0.05525686
#
# Stress axis : x y z
#
# Youngs Moduli (GPa) = 34.98569 64.87237 98.99134
#
# Poissons Ratio (x) = -0.09177 -0.00314
# Poissons Ratio (y) = -0.04949 0.08592
# Poissons Ratio (z) = -0.00111 0.05630
#
# Static dielectric constant tensor:
#      x y z
#    x 3.959180 -0.290810 0.075830 
#    y -0.290810 4.069120 -0.216350 
#    z 0.075830 -0.216350 3.919080 
# 
# 
# High freq. dielectric constant tensor:
#      x y z
#    x 1.828300 -0.032090 0.002800 
#    y -0.032090 1.825870 -0.011770 
#    z 0.002800 -0.011770 1.822930 
# 
# From -- ./inp_files/196458.got.cif
#   From: 2010.06.25/outbox.cif.g09.slc.cpg/sg2_99_cif.got.tgz:196458.got - 2010.06.27 13:26:56.
