data_PCOD8029796
_publ_section_title
;
Structure prediction by ZEFSAII (Michael W. Deem and Ramdas Pophale) SiO2 
 PCOD8029796
Probable space group: P -1
;
_chemical_formula_sum "Si O2"
_cell_formula_units_Z 16
_cell_length_a 8.498606
_cell_length_b 12.198962
_cell_length_c 15.309325
_cell_angle_alpha 151.554051
_cell_angle_beta 81.416105
_cell_angle_gamma 88.334083
_cell_volume 702.919527
_symmetry_space_group_name_H-M "P -1"
_symmetry_group_IT_number 2
_symmetry_cell_setting 'triclinic'
loop_
_space_group_symop_operation_xyz
x,y,z
-x,-y,-z
loop_
_atom_site_type_symbol
_atom_site_label
_atom_site_fract_x
_atom_site_fract_y
_atom_site_fract_z
Si Si1 0.761289 0.385110 0.097987
Si Si2 0.889051 0.470153 0.409736
Si Si3 0.310801 0.076833 0.537237
Si Si4 0.631941 0.187868 0.264268
Si Si5 0.522999 0.485597 0.640020
Si Si6 0.913871 0.701061 0.896209
Si Si7 0.207606 0.032921 0.321408
Si Si8 0.844511 0.242220 0.557608
O O1 0.770719 0.635749 0.231859
O O2 0.629255 0.465558 0.245149
O O3 0.949437 0.231301 0.008560
O O4 0.705297 0.218612 0.916417
O O5 0.768740 0.324617 0.346496
O O6 0.000000 0.500000 0.500000
O O7 0.021795 0.313267 0.217833
O O8 0.774828 0.736002 0.569345
O O9 0.500000 0.000000 0.500000
O O10 0.303138 0.013306 0.391685
O O11 0.216291 0.924949 0.490768
O O12 0.525697 0.268689 0.419566
O O13 0.510240 0.269680 0.246037
O O14 0.726555 0.898729 0.056671
O O15 0.702332 0.404171 0.616243
O O16 0.902454 0.440106 0.745671
O O17 0.009004 0.066227 0.370778
#
# Coordination Sequence:
#
# PCOD8029796 Si02
#       8
#     2   2   2   2   2   2   2   2
#     4  12  24  48  72 103 139 190 230 295 357 417
#     4  11  21  39  70 101 142 181 234 292 340 416
#     4  12  25  50  76 100 147 181 232 303 354 409
#     4  11  23  42  69  98 141 193 233 282 360 412
#     4  11  24  44  62 101 143 180 231 293 349 415
#     4  11  23  43  71 103 139 187 241 285 348 425
#     4  11  26  46  75 109 138 184 246 285 348 427
#     4  11  24  47  69 103 143 179 237 294 346 416
#
# _framework density 22.762208000000001
#
# number of rings (size 3 to 8) (size 9 to 14) (size 15 to 20)
#    0.000    0.750    5.000    3.750    1.750    1.500 
#    9.000    0.000    0.000    0.000    0.000    0.000 
#    0.000    0.000    0.000    0.000    0.000    0.000 
#
# Total GULP energy -198354.037183 kJ/mol
# GULP energy per Si atom -12397.127324 kJ/mol
# Density = 2.271040 g / cm^3
# Si number density = 22.762208 Si / 1000 Ang^3
#
#
#
# Elastic Constant Matrix: (Units=GPa)
#
#
# Indices 1 2 3 4 5 6 
#
# 1 78.1298 36.8182 21.0107 -5.4027 -7.3666 -11.2409
# 2 36.8182 99.3989 48.0877 -3.6080 0.8522 -9.4463
# 3 21.0107 48.0877 150.1197 -6.7881 -11.1897 2.9328
# 4 -5.4027 -3.6080 -6.7881 21.5387 -5.5485 4.5631
# 5 -7.3666 0.8522 -11.1897 -5.5485 32.7734 5.6594
# 6 -11.2409 -9.4463 2.9328 4.5631 5.6594 50.3405
#
#
#
# Elastic Compliance Matrix: (Units=1/GPa)
#
#
# Indices 1 2 3 4 5 6 
#
# 1 0.016461 -0.005836 0.000020 0.003871 0.004211 0.001755
# 2 -0.005836 0.014445 -0.004223 -0.001838 -0.003829 0.002251
# 3 0.000020 -0.004223 0.008500 0.003425 0.003948 -0.002037
# 4 0.003871 -0.001838 0.003425 0.052479 0.011971 -0.005783
# 5 0.004211 -0.003829 0.003948 0.011971 0.035817 -0.005120
# 6 0.001755 0.002251 -0.002037 -0.005783 -0.005120 0.021897
#
#
# Mechanical properties :
#
#
# Convention : Reuss Voigt Hill
#
# Bulk Modulus (GPa) = 51.73526 59.94239 55.83883
# Shear Modulus (GPa) = 28.38958 35.71266 32.05112
#
# Velocity S-wave (km/s) = 3.53544 3.96529 3.75652
# Velocity P-wave (km/s) = 6.28042 6.88157 6.58786
#
# Compressibility (1/GPa) = 0.01932918
#
# Stress axis : x y z
#
# Youngs Moduli (GPa) = 60.74910 69.22768 117.64382
#
# Poissons Ratio (x) = 0.40400 -0.00237
# Poissons Ratio (y) = 0.35452 0.49680
# Poissons Ratio (z) = -0.00122 0.29234
#
# Static dielectric constant tensor:
#      x y z
#    x 4.206880 -0.223320 -0.034980 
#    y -0.223320 4.252820 0.140700 
#    z -0.034980 0.140700 4.079050 
# 
# 
# High freq. dielectric constant tensor:
#      x y z
#    x 1.911380 -0.009080 -0.004060 
#    y -0.009080 1.895780 0.002940 
#    z -0.004060 0.002940 1.892130 
# 
# From -- ./inp_files/501186.got.cif
#   From: 2010.06.25/outbox.cif.g09.slc.cpg/sg2_251_cif.got.tgz:501186.got - 2010.06.27 13:26:56.
