data_PCOD8029928
_publ_section_title
;
Structure prediction by ZEFSAII (Michael W. Deem and Ramdas Pophale) SiO2 
 PCOD8029928
Probable space group: P -1
;
_chemical_formula_sum "Si O2"
_cell_formula_units_Z 16
_cell_length_a 12.548350
_cell_length_b 9.757986
_cell_length_c 19.684874
_cell_angle_alpha 45.278711
_cell_angle_beta 41.275565
_cell_angle_gamma 78.604590
_cell_volume 799.341882
_symmetry_space_group_name_H-M "P -1"
_symmetry_group_IT_number 2
_symmetry_cell_setting 'triclinic'
loop_
_space_group_symop_operation_xyz
x,y,z
-x,-y,-z
loop_
_atom_site_type_symbol
_atom_site_label
_atom_site_fract_x
_atom_site_fract_y
_atom_site_fract_z
Si Si1 0.920422 0.573545 0.840821
Si Si2 0.152147 0.220827 0.908257
Si Si3 0.146690 0.752559 0.893606
Si Si4 0.606188 0.179886 0.452815
Si Si5 0.906450 0.602255 0.549682
Si Si6 0.395855 0.162887 0.913228
Si Si7 0.287850 0.632773 0.134813
Si Si8 0.744739 0.826094 0.880384
O O1 0.833989 0.490367 0.835098
O O2 0.812544 0.660480 0.902798
O O3 0.195881 0.801336 0.625333
O O4 0.847596 0.327584 0.005261
O O5 0.308138 0.528590 0.699071
O O6 0.306741 0.184696 0.879510
O O7 0.984803 0.155378 0.070682
O O8 0.000000 0.000000 0.000000
O O9 0.407671 0.012236 0.661419
O O10 0.000000 0.500000 0.000000
O O11 0.500000 0.000000 0.500000
O O12 0.654761 0.449999 0.698923
O O13 0.898684 0.556262 0.650413
O O14 0.000000 0.500000 0.500000
O O15 0.074755 0.919697 0.344129
O O16 0.241228 0.090765 0.077370
O O17 0.399846 0.936539 0.983514
O O18 0.489385 0.645230 0.037839
#
# Coordination Sequence:
#
# PCOD8029928 Si02
#       8
#     2   2   2   2   2   2   2   2
#     4  11  25  40  66  95 128 166 211 266 327 367
#     4  11  25  43  64 101 135 164 218 275 319 376
#     4  11  22  44  68  89 133 174 212 265 318 385
#     4  11  24  43  67  96 130 172 221 261 317 394
#     4  11  21  41  63  90 123 165 212 259 306 384
#     4  11  22  38  68  88 124 170 212 250 319 384
#     4  11  23  43  60  94 131 160 206 268 317 379
#     4  11  23  39  66  92 122 169 214 254 316 384
#
# _framework density 20.016465
#
# number of rings (size 3 to 8) (size 9 to 14) (size 15 to 20)
#    0.000    1.000    5.000    3.375    1.750    3.000 
#    2.250    0.000    0.000    0.000    0.000    0.000 
#    0.000    0.000    0.000    0.000    0.000    0.000 
#
# Total GULP energy -198393.027295 kJ/mol
# GULP energy per Si atom -12399.564206 kJ/mol
# Density = 1.997091 g / cm^3
# Si number density = 20.016465 Si / 1000 Ang^3
#
#
#
# Elastic Constant Matrix: (Units=GPa)
#
#
# Indices 1 2 3 4 5 6 
#
# 1 116.1649 20.9037 31.9787 1.7951 -8.3432 9.2387
# 2 20.9037 75.0872 25.3206 3.6386 -6.5487 5.1473
# 3 31.9787 25.3206 137.3477 13.0575 -3.9069 0.6345
# 4 1.7951 3.6386 13.0575 32.6519 -2.2602 -6.7046
# 5 -8.3432 -6.5487 -3.9069 -2.2602 26.6911 0.7677
# 6 9.2387 5.1473 0.6345 -6.7046 0.7677 36.1423
#
#
#
# Elastic Compliance Matrix: (Units=1/GPa)
#
#
# Indices 1 2 3 4 5 6 
#
# 1 0.009793 -0.001727 -0.001893 0.000117 0.002435 -0.002254
# 2 -0.001727 0.014949 -0.002181 -0.000890 0.002787 -0.001874
# 3 -0.001893 -0.002181 0.008405 -0.003005 -0.000154 0.000093
# 4 0.000117 -0.000890 -0.003005 0.033353 0.002021 0.006294
# 5 0.002435 0.002787 -0.000154 0.002021 0.039102 -0.001472
# 6 -0.002254 -0.001874 0.000093 0.006294 -0.001472 0.029709
#
#
# Mechanical properties :
#
#
# Convention : Reuss Voigt Hill
#
# Bulk Modulus (GPa) = 46.41653 53.88952 50.15302
# Shear Modulus (GPa) = 32.44798 35.79018 34.11908
#
# Velocity S-wave (km/s) = 4.03061 4.23311 4.13310
# Velocity P-wave (km/s) = 6.70079 7.13255 6.92004
#
# Compressibility (1/GPa) = 0.02154405
#
# Stress axis : x y z
#
# Youngs Moduli (GPa) = 102.11733 66.89518 118.98208
#
# Poissons Ratio (x) = 0.11550 0.22525
# Poissons Ratio (y) = 0.17631 0.25953
# Poissons Ratio (z) = 0.19332 0.14592
#
# Static dielectric constant tensor:
#      x y z
#    x 3.693250 -0.170010 -0.078500 
#    y -0.170010 3.761680 0.160770 
#    z -0.078500 0.160770 3.826090 
# 
# 
# High freq. dielectric constant tensor:
#      x y z
#    x 1.789260 -0.005330 -0.003160 
#    y -0.005330 1.783790 0.012140 
#    z -0.003160 0.012140 1.785830 
# 
# From -- ./inp_files/279014.got.cif
#   From: 2010.06.25/outbox.cif.g09.slc.cpg/sg2_140_cif.got.tgz:279014.got - 2010.06.27 13:26:56.
