data_PCOD8029154
_publ_section_title
;
Structure prediction by ZEFSAII (Michael W. Deem and Ramdas Pophale) SiO2 
 PCOD8029154
Probable space group: P -1
;
_chemical_formula_sum "Si O2"
_cell_formula_units_Z 14
_cell_length_a 11.614331
_cell_length_b 20.226173
_cell_length_c 11.274031
_cell_angle_alpha 36.844719
_cell_angle_beta 56.323663
_cell_angle_gamma 29.998151
_cell_volume 704.128731
_symmetry_space_group_name_H-M "P -1"
_symmetry_group_IT_number 2
_symmetry_cell_setting 'triclinic'
loop_
_space_group_symop_operation_xyz
x,y,z
-x,-y,-z
loop_
_atom_site_type_symbol
_atom_site_label
_atom_site_fract_x
_atom_site_fract_y
_atom_site_fract_z
Si Si1 0.796401 0.690043 0.435186
Si Si2 0.269989 0.925868 0.354379
Si Si3 0.176473 0.714095 0.308730
Si Si4 0.198213 0.461020 0.713347
Si Si5 0.696544 0.008766 0.014444
Si Si6 0.263206 0.680956 0.786211
Si Si7 0.321746 0.538680 0.710609
O O1 0.529694 0.803883 0.434410
O O2 0.000000 0.500000 0.500000
O O3 0.918196 0.606726 0.618395
O O4 0.732882 0.855433 0.188954
O O5 0.245094 0.962702 0.177221
O O6 0.288272 0.784669 0.569803
O O7 0.013503 0.151518 0.235019
O O8 0.260493 0.529040 0.500203
O O9 0.193265 0.718247 0.437278
O O10 0.367899 0.666749 0.196920
O O11 0.885193 0.930864 0.119491
O O12 0.403446 0.226027 0.912001
O O13 0.205699 0.496702 0.796080
O O14 0.267837 0.591707 0.802957
O O15 0.500000 0.500000 0.000000
#
# Coordination Sequence:
#
# PCOD8029154 Si02
#       7
#     2   2   2   2   2   2   2
#     4  11  23  37  63  93 127 157 199 263 306 358
#     4  11  25  39  62  94 122 165 211 239 308 369
#     4   8  18  32  57  88 120 153 191 259 303 351
#     4   9  19  34  55  91 118 151 196 249 310 349
#     4  11  20  36  62  98 119 153 200 257 316 358
#     4  11  25  44  62  86 128 169 205 247 296 373
#     4   9  18  39  57  84 125 157 199 255 302 357
#
# _framework density 19.882728
#
# number of rings (size 3 to 8) (size 9 to 14) (size 15 to 20)
#    0.857    1.143    1.429    2.143    4.000    0.571 
#    5.143    0.714    0.000    1.714    0.000    0.000 
#    0.000    0.000    0.000    0.000    0.000    0.000 
#
# Total GULP energy -173455.146257 kJ/mol
# GULP energy per Si atom -12389.653304 kJ/mol
# Density = 1.983747 g / cm^3
# Si number density = 19.882728 Si / 1000 Ang^3
#
#
#
# Elastic Constant Matrix: (Units=GPa)
#
#
# Indices 1 2 3 4 5 6 
#
# 1 119.6652 53.9200 42.9401 -11.0575 29.8191 3.8674
# 2 53.9200 92.4157 41.0392 -14.8021 15.6211 7.3461
# 3 42.9401 41.0392 95.2620 -20.9171 15.9450 7.4041
# 4 -11.0575 -14.8021 -20.9171 23.3862 -3.0456 7.6858
# 5 29.8191 15.6211 15.9450 -3.0456 29.7002 -6.3164
# 6 3.8674 7.3461 7.4041 7.6858 -6.3164 40.0785
#
#
#
# Elastic Compliance Matrix: (Units=1/GPa)
#
#
# Indices 1 2 3 4 5 6 
#
# 1 0.014318 -0.005358 -0.002022 0.000782 -0.010791 -0.001877
# 2 -0.005358 0.016883 -0.002769 0.006606 -0.002117 -0.003667
# 3 -0.002022 -0.002769 0.016997 0.013729 -0.005493 -0.005936
# 4 0.000782 0.006606 0.013729 0.064206 -0.008771 -0.017518
# 5 -0.010791 -0.002117 -0.005493 -0.008771 0.050228 0.012042
# 6 -0.001877 -0.003667 -0.005936 -0.017518 0.012042 0.032158
#
#
# Mechanical properties :
#
#
# Convention : Reuss Voigt Hill
#
# Bulk Modulus (GPa) = 35.84019 64.79350 50.31685
# Shear Modulus (GPa) = 22.28282 29.92922 26.10602
#
# Velocity S-wave (km/s) = 3.35134 3.88401 3.62747
# Velocity P-wave (km/s) = 5.74806 7.26448 6.55030
#
# Compressibility (1/GPa) = 0.02790163
#
# Stress axis : x y z
#
# Youngs Moduli (GPa) = 69.84084 59.22989 58.83347
#
# Poissons Ratio (x) = 0.31733 0.11898
# Poissons Ratio (y) = 0.37418 0.16289
# Poissons Ratio (z) = 0.14124 0.16398
#
# Static dielectric constant tensor:
#      x y z
#    x 3.843850 -0.004110 0.227110 
#    y -0.004110 3.283660 -0.207290 
#    z 0.227110 -0.207290 3.641220 
# 
# 
# High freq. dielectric constant tensor:
#      x y z
#    x 1.791000 -0.001330 0.018550 
#    y -0.001330 1.736040 -0.020360 
#    z 0.018550 -0.020360 1.773540 
# 
# From -- ./inp_files/438029.got.cif
#   From: 2010.06.25/outbox.cif.g09.slc.cpg/sg2_220_cif.got.tgz:438029.got - 2010.06.27 13:26:56.
