data_PCOD8029006
_publ_section_title
;
Structure prediction by ZEFSAII (Michael W. Deem and Ramdas Pophale) SiO2 
 PCOD8029006
Probable space group: P -1
;
_chemical_formula_sum "Si O2"
_cell_formula_units_Z 12
_cell_length_a 9.121185
_cell_length_b 11.395594
_cell_length_c 9.525422
_cell_angle_alpha 89.014621
_cell_angle_beta 139.654099
_cell_angle_gamma 107.553972
_cell_volume 573.713792
_symmetry_space_group_name_H-M "P -1"
_symmetry_group_IT_number 2
_symmetry_cell_setting 'triclinic'
loop_
_space_group_symop_operation_xyz
x,y,z
-x,-y,-z
loop_
_atom_site_type_symbol
_atom_site_label
_atom_site_fract_x
_atom_site_fract_y
_atom_site_fract_z
Si Si1 0.649038 0.202406 0.172757
Si Si2 0.713256 0.961745 0.329556
Si Si3 0.826546 0.623679 0.574319
Si Si4 0.450938 0.223422 0.546603
Si Si5 0.540850 0.668798 0.740944
Si Si6 0.992371 0.635928 0.999848
O O1 0.511340 0.270977 0.159223
O O2 0.941508 0.307270 0.364586
O O3 0.649901 0.083716 0.265566
O O4 0.488892 0.154564 0.913208
O O5 0.686911 0.917717 0.474817
O O6 0.000000 0.000000 0.500000
O O7 0.611695 0.675610 0.404506
O O8 0.703469 0.466546 0.475118
O O9 0.942927 0.673931 0.809536
O O10 0.379283 0.226508 0.331226
O O11 0.743138 0.256185 0.755214
O O12 0.774319 0.634901 0.944342
O O13 0.000000 0.500000 0.000000
#
# Coordination Sequence:
#
# PCOD8029006 Si02
#       6
#     2   2   2   2   2   2
#     4  11  25  41  62  95 125 157 210 260 297 358
#     4  11  24  45  66  82 122 175 209 242 307 369
#     4  11  20  39  65  93 127 159 199 251 312 370
#     4  11  21  40  66  89 120 169 206 242 304 374
#     4  11  24  37  63 101 127 150 202 264 305 355
#     4  11  19  38  62  92 128 165 199 238 311 380
#
# _framework density 20.916353000000001
#
# number of rings (size 3 to 8) (size 9 to 14) (size 15 to 20)
#    0.000    1.000    6.667    1.500    0.000    2.000 
#    0.000    3.333    0.000    0.000    0.000    0.000 
#    0.000    0.000    0.000    0.000    0.000    0.000 
#
# Total GULP energy -148747.133181 kJ/mol
# GULP energy per Si atom -12395.594432 kJ/mol
# Density = 2.086875 g / cm^3
# Si number density = 20.916353 Si / 1000 Ang^3
#
#
#
# Elastic Constant Matrix: (Units=GPa)
#
#
# Indices 1 2 3 4 5 6 
#
# 1 140.7442 41.4810 32.4906 3.6817 22.1303 -10.1082
# 2 41.4810 80.8127 13.8974 -10.3691 4.7473 9.6300
# 3 32.4906 13.8974 66.1768 -2.9227 26.7186 -2.5509
# 4 3.6817 -10.3691 -2.9227 24.4731 2.4897 4.3615
# 5 22.1303 4.7473 26.7186 2.4897 33.5479 -1.3728
# 6 -10.1082 9.6300 -2.5509 4.3615 -1.3728 41.3060
#
#
#
# Elastic Compliance Matrix: (Units=1/GPa)
#
#
# Indices 1 2 3 4 5 6 
#
# 1 0.010349 -0.005764 -0.002505 -0.004672 -0.003502 0.004099
# 2 -0.005764 0.017401 -0.001227 0.009104 0.001377 -0.006459
# 3 -0.002505 -0.001227 0.023871 0.004473 -0.017513 0.000093
# 4 -0.004672 0.009104 0.004473 0.048002 -0.005668 -0.008247
# 5 -0.003502 0.001377 -0.017513 -0.005668 0.046287 -0.000123
# 6 0.004099 -0.006459 0.000093 -0.008247 -0.000123 0.027591
#
#
# Mechanical properties :
#
#
# Convention : Reuss Voigt Hill
#
# Bulk Modulus (GPa) = 30.64855 51.49685 41.07270
# Shear Modulus (GPa) = 24.58581 33.18970 28.88775
#
# Velocity S-wave (km/s) = 3.43218 3.98777 3.72036
# Velocity P-wave (km/s) = 5.51282 6.77325 6.17528
#
# Compressibility (1/GPa) = 0.03262798
#
# Stress axis : x y z
#
# Youngs Moduli (GPa) = 96.62462 57.46898 41.89200
#
# Poissons Ratio (x) = 0.33123 0.10496
# Poissons Ratio (y) = 0.55691 0.05142
# Poissons Ratio (z) = 0.24208 0.07054
#
# Static dielectric constant tensor:
#      x y z
#    x 3.209680 -0.424610 -0.895870 
#    y -0.424610 3.583000 -1.328390 
#    z -0.895870 -1.328390 1.127030 
# 
# 
# High freq. dielectric constant tensor:
#      x y z
#    x 1.818080 0.007580 0.029700 
#    y 0.007580 1.819130 -0.017160 
#    z 0.029700 -0.017160 1.807720 
# 
# From -- ./inp_files/18290.got.cif
#   From: 2010.06.25/outbox.cif.g09.slc.cpg/sg2_10_cif.got.tgz:18290.got - 2010.06.27 13:26:56.
