data_PCOD8029290
_publ_section_title
;
Structure prediction by ZEFSAII (Michael W. Deem and Ramdas Pophale) SiO2 
 PCOD8029290
Probable space group: P -1
;
_chemical_formula_sum "Si O2"
_cell_formula_units_Z 14
_cell_length_a 14.271789
_cell_length_b 15.631354
_cell_length_c 9.690625
_cell_angle_alpha 39.038775
_cell_angle_beta 43.338848
_cell_angle_gamma 30.128059
_cell_volume 672.831158
_symmetry_space_group_name_H-M "P -1"
_symmetry_group_IT_number 2
_symmetry_cell_setting 'triclinic'
loop_
_space_group_symop_operation_xyz
x,y,z
-x,-y,-z
loop_
_atom_site_type_symbol
_atom_site_label
_atom_site_fract_x
_atom_site_fract_y
_atom_site_fract_z
Si Si1 0.582630 0.994293 0.772951
Si Si2 0.950039 0.864755 0.616809
Si Si3 0.077072 0.051784 0.155610
Si Si4 0.434333 0.393340 0.363637
Si Si5 0.504960 0.201451 0.033550
Si Si6 0.650636 0.506769 0.374306
Si Si7 0.712305 0.449408 0.966271
O O1 0.810911 0.849171 0.719751
O O2 0.531787 0.934350 0.770228
O O3 0.508223 0.192173 0.560791
O O4 0.500000 0.000000 0.000000
O O5 0.858508 0.978003 0.716671
O O6 0.149025 0.660025 0.702874
O O7 0.981796 0.968744 0.346710
O O8 0.933524 0.269971 0.988174
O O9 0.272137 0.923873 0.018852
O O10 0.311357 0.519296 0.470672
O O11 0.299065 0.493859 0.250362
O O12 0.607669 0.378486 0.186300
O O13 0.379860 0.367016 0.073275
O O14 0.435233 0.294423 0.839145
O O15 0.500000 0.500000 0.500000
#
# Coordination Sequence:
#
# PCOD8029290 Si02
#       7
#     2   2   2   2   2   2   2
#     4  12  24  41  64  99 136 166 215 279 331 379
#     4  11  21  36  67 100 129 166 222 277 320 377
#     4  11  20  39  68  98 125 171 225 266 317 390
#     4  11  23  44  66  96 133 170 215 274 320 389
#     4  12  24  41  69  97 132 170 216 277 326 381
#     4  12  20  39  70 101 126 164 226 274 316 378
#     4  11  24  44  68  94 131 177 220 259 328 394
#
# _framework density 20.807597000000001
#
# number of rings (size 3 to 8) (size 9 to 14) (size 15 to 20)
#    0.000    0.571    8.571    0.000    0.000    1.143 
#    5.143    2.857    0.000    0.000    0.000    0.000 
#    0.000    0.000    0.000    0.000    0.000    0.000 
#
# Total GULP energy -173550.454271 kJ/mol
# GULP energy per Si atom -12396.461019 kJ/mol
# Density = 2.076024 g / cm^3
# Si number density = 20.807597 Si / 1000 Ang^3
#
#
#
# Elastic Constant Matrix: (Units=GPa)
#
#
# Indices 1 2 3 4 5 6 
#
# 1 106.9056 48.4457 44.7984 3.5608 -6.7532 4.6171
# 2 48.4457 127.6424 27.8889 -2.4144 -1.3361 -7.4343
# 3 44.7984 27.8889 72.0910 -9.1688 2.0886 9.0981
# 4 3.5608 -2.4144 -9.1688 27.1666 1.1270 -6.6802
# 5 -6.7532 -1.3361 2.0886 1.1270 41.0112 1.6079
# 6 4.6171 -7.4343 9.0981 -6.6802 1.6079 38.0608
#
#
#
# Elastic Compliance Matrix: (Units=1/GPa)
#
#
# Indices 1 2 3 4 5 6 
#
# 1 0.015227 -0.004108 -0.008473 -0.005781 0.003033 -0.001767
# 2 -0.004108 0.009918 -0.001444 0.001714 -0.000449 0.003100
# 3 -0.008473 -0.001444 0.021087 0.007502 -0.002610 -0.002868
# 4 -0.005781 0.001714 0.007502 0.042019 -0.002697 0.006732
# 5 0.003033 -0.000449 -0.002610 -0.002697 0.025129 -0.001367
# 6 -0.001767 0.003100 -0.002868 0.006732 -0.001367 0.029018
#
#
# Mechanical properties :
#
#
# Convention : Reuss Voigt Hill
#
# Bulk Modulus (GPa) = 55.00380 60.98944 57.99662
# Shear Modulus (GPa) = 28.32722 33.61479 30.97100
#
# Velocity S-wave (km/s) = 3.69370 4.02370 3.86222
# Velocity P-wave (km/s) = 6.68454 7.13874 6.91537
#
# Compressibility (1/GPa) = 0.01818056
#
# Stress axis : x y z
#
# Youngs Moduli (GPa) = 65.67336 100.83161 47.42297
#
# Poissons Ratio (x) = 0.41427 0.40181
# Poissons Ratio (y) = 0.26982 0.06848
# Poissons Ratio (z) = 0.55644 0.14559
#
# Static dielectric constant tensor:
#      x y z
#    x 0.000000 0.000000 0.000000 
#    y 0.000000 0.000000 0.000000 
#    z 0.000000 0.000000 0.000000 
# 
# 
# High freq. dielectric constant tensor:
#      x y z
#    x 1.804340 -0.000300 -0.004850 
#    y -0.000300 1.823100 -0.011850 
#    z -0.004850 -0.011850 1.796750 
# 
# From -- ./inp_files/180031.got.cif
#   From: 2010.06.25/outbox.cif.g09.slc.cpg/sg2_91_cif.got.tgz:180031.got - 2010.06.27 13:26:56.
