data_PCOD8029731
_publ_section_title
;
Structure prediction by ZEFSAII (Michael W. Deem and Ramdas Pophale) SiO2 
 PCOD8029731
Probable space group: P -1
;
_chemical_formula_sum "Si O2"
_cell_formula_units_Z 16
_cell_length_a 5.089394
_cell_length_b 24.330589
_cell_length_c 11.349473
_cell_angle_alpha 135.584141
_cell_angle_beta 117.287589
_cell_angle_gamma 65.443894
_cell_volume 865.300033
_symmetry_space_group_name_H-M "P -1"
_symmetry_group_IT_number 2
_symmetry_cell_setting 'triclinic'
loop_
_space_group_symop_operation_xyz
x,y,z
-x,-y,-z
loop_
_atom_site_type_symbol
_atom_site_label
_atom_site_fract_x
_atom_site_fract_y
_atom_site_fract_z
Si Si1 0.559994 0.537566 0.446320
Si Si2 0.404274 0.223664 0.277634
Si Si3 0.000766 0.786547 0.042109
Si Si4 0.850166 0.321715 0.401914
Si Si5 0.443364 0.125076 0.737669
Si Si6 0.120258 0.619710 0.748556
Si Si7 0.302315 0.039775 0.349248
Si Si8 0.390458 0.936872 0.794851
O O1 0.500000 0.500000 0.500000
O O2 0.257344 0.593006 0.422001
O O3 0.676068 0.457967 0.270880
O O4 0.814537 0.594370 0.595317
O O5 0.688706 0.254697 0.326335
O O6 0.532643 0.150482 0.271537
O O7 0.204783 0.289883 0.421209
O O8 0.199505 0.196223 0.089822
O O9 0.849791 0.830842 0.191807
O O10 0.311647 0.816836 0.127865
O O11 0.055770 0.691651 0.938444
O O12 0.728457 0.340918 0.272407
O O13 0.349157 0.104363 0.555823
O O14 0.556875 0.047268 0.715924
O O15 0.459312 0.063145 0.300368
O O16 0.958673 0.038808 0.253231
O O17 0.500000 0.000000 0.000000
#
# Coordination Sequence:
#
# PCOD8029731 Si02
#       8
#     2   2   2   2   2   2   2   2
#     4   9  16  28  45  70 112 158 170 208 268 324
#     4  11  21  32  52  78 110 142 181 224 266 324
#     4  11  20  34  54  83 112 144 184 220 267 324
#     4  10  17  31  45  70 107 149 178 207 258 328
#     4  11  23  38  59  77 106 149 185 227 269 319
#     4   9  18  28  46  75 111 152 177 213 263 329
#     4  11  24  42  57  79 109 143 189 226 273 327
#     4  12  24  39  58  82 109 141 179 231 280 322
#
# _framework density 18.490694000000001
#
# number of rings (size 3 to 8) (size 9 to 14) (size 15 to 20)
#    0.000    1.500    2.500    5.625    1.750    2.000 
#    0.000    0.000    0.000    0.000    0.000    0.000 
#    0.000   20.000    0.000    0.000    0.000    0.000 
#
# Total GULP energy -198254.008558 kJ/mol
# GULP energy per Si atom -12390.875535 kJ/mol
# Density = 1.844861 g / cm^3
# Si number density = 18.490694 Si / 1000 Ang^3
#
#
#
# Elastic Constant Matrix: (Units=GPa)
#
#
# Indices 1 2 3 4 5 6 
#
# 1 101.1271 32.5730 19.4202 3.7321 -7.7650 14.7748
# 2 32.5730 79.9616 44.1181 17.1925 -15.1027 12.5907
# 3 19.4202 44.1181 75.3233 15.2209 -12.4714 7.1527
# 4 3.7321 17.1925 15.2209 30.7532 -6.8198 -2.8491
# 5 -7.7650 -15.1027 -12.4714 -6.8198 30.7388 11.7878
# 6 14.7748 12.5907 7.1527 -2.8491 11.7878 23.9898
#
#
#
# Elastic Compliance Matrix: (Units=1/GPa)
#
#
# Indices 1 2 3 4 5 6 
#
# 1 0.012447 -0.002834 0.000060 0.000391 0.005201 -0.008705
# 2 -0.002834 0.025036 -0.008776 -0.008045 0.012287 -0.015771
# 3 0.000060 -0.008776 0.020533 -0.004631 0.004699 -0.004412
# 4 0.000391 -0.008045 -0.004631 0.040038 -0.000899 0.010559
# 5 0.005201 0.012287 0.004699 -0.000899 0.056519 -0.038931
# 6 -0.008705 -0.015771 -0.004412 0.010559 -0.038931 0.077022
#
#
# Mechanical properties :
#
#
# Convention : Reuss Voigt Hill
#
# Bulk Modulus (GPa) = 28.64023 49.84825 39.24424
# Shear Modulus (GPa) = 18.77337 27.78308 23.27823
#
# Velocity S-wave (km/s) = 3.18981 3.88047 3.55197
# Velocity P-wave (km/s) = 5.39344 6.86254 6.17186
#
# Compressibility (1/GPa) = 0.03491592
#
# Stress axis : x y z
#
# Youngs Moduli (GPa) = 80.34233 39.94192 48.70101
#
# Poissons Ratio (x) = 0.11321 -0.00291
# Poissons Ratio (y) = 0.22773 0.42738
# Poissons Ratio (z) = -0.00480 0.35052
#
# Static dielectric constant tensor:
#      x y z
#    x 3.864060 -0.146180 -0.288040 
#    y -0.146180 3.628460 0.564730 
#    z -0.288040 0.564730 3.511770 
# 
# 
# High freq. dielectric constant tensor:
#      x y z
#    x 1.747490 -0.000440 -0.010270 
#    y -0.000440 1.704560 0.051080 
#    z -0.010270 0.051080 1.683560 
# 
# From -- ./inp_files/370761.got.cif
#   From: 2010.06.25/outbox.cif.g09.slc.cpg/sg2_186_cif.got.tgz:370761.got - 2010.06.27 13:26:56.
