data_PCOD8029466
_publ_section_title
;
Structure prediction by ZEFSAII (Michael W. Deem and Ramdas Pophale) SiO2 
 PCOD8029466
Probable space group: P -1
;
_chemical_formula_sum "Si O2"
_cell_formula_units_Z 14
_cell_length_a 12.925035
_cell_length_b 23.589315
_cell_length_c 16.240272
_cell_angle_alpha 161.813155
_cell_angle_beta 153.607167
_cell_angle_gamma 27.768114
_cell_volume 666.266861
_symmetry_space_group_name_H-M "P -1"
_symmetry_group_IT_number 2
_symmetry_cell_setting 'triclinic'
loop_
_space_group_symop_operation_xyz
x,y,z
-x,-y,-z
loop_
_atom_site_type_symbol
_atom_site_label
_atom_site_fract_x
_atom_site_fract_y
_atom_site_fract_z
Si Si1 0.639499 0.155629 0.303322
Si Si2 0.801803 0.439824 0.221620
Si Si3 0.628990 0.283014 0.641419
Si Si4 0.645074 0.628845 0.742928
Si Si5 0.799229 0.924497 0.373019
Si Si6 0.100415 0.465173 0.754386
Si Si7 0.529778 0.122130 0.608797
O O1 0.536406 0.291388 0.493535
O O2 0.560573 0.234030 0.266286
O O3 0.928665 0.093977 0.428696
O O4 0.500000 0.000000 0.000000
O O5 0.577094 0.618420 0.306371
O O6 0.893832 0.417648 0.163686
O O7 0.000000 0.500000 0.500000
O O8 0.719705 0.254546 0.939667
O O9 0.744857 0.075476 0.469434
O O10 0.819663 0.408222 0.944334
O O11 0.500000 0.500000 0.500000
O O12 0.827825 0.485577 0.614871
O O13 0.759702 0.734949 0.042122
O O14 0.623501 0.982716 0.406944
O O15 0.265167 0.252833 0.578670
O O16 0.500000 0.000000 0.500000
#
# Coordination Sequence:
#
# PCOD8029466 Si02
#       7
#     2   2   2   2   2   2   2
#     4  12  25  40  75 104 133 181 240 281 344 415
#     4  11  23  40  71 102 138 180 241 286 341 422
#     4  11  20  42  70 104 132 182 232 291 343 401
#     4  12  29  46  68 105 146 186 229 288 361 417
#     4  12  24  46  72 102 143 179 235 294 342 416
#     4  11  22  48  68  98 140 185 231 289 346 416
#     4  11  26  45  72 101 138 189 228 288 366 407
#
# _framework density 21.012602000000001
#
# number of rings (size 3 to 8) (size 9 to 14) (size 15 to 20)
#    0.000    0.571    5.714    3.000    4.000    4.000 
#    0.000    1.429    0.000    0.000    0.000    0.000 
#    0.000    0.000    0.000    0.000    0.000    0.000 
#
# Total GULP energy -173437.675188 kJ/mol
# GULP energy per Si atom -12388.405371 kJ/mol
# Density = 2.096478 g / cm^3
# Si number density = 21.012602 Si / 1000 Ang^3
#
#
#
# Elastic Constant Matrix: (Units=GPa)
#
#
# Indices 1 2 3 4 5 6 
#
# 1 145.1473 54.6004 64.1341 5.8941 6.2246 -6.2633
# 2 54.6004 102.3468 61.5259 -6.4498 16.4565 1.2303
# 3 64.1341 61.5259 116.1361 -6.8977 5.4042 -2.0013
# 4 5.8941 -6.4498 -6.8977 32.6910 4.6734 -1.0639
# 5 6.2246 16.4565 5.4042 4.6734 41.3761 2.1362
# 6 -6.2633 1.2303 -2.0013 -1.0639 2.1362 39.5345
#
#
#
# Elastic Compliance Matrix: (Units=1/GPa)
#
#
# Indices 1 2 3 4 5 6 
#
# 1 0.010072 -0.003279 -0.004030 -0.003358 0.000624 0.001370
# 2 -0.003279 0.016550 -0.006523 0.003242 -0.005553 -0.000977
# 3 -0.004030 -0.006523 0.014387 0.002336 0.001042 0.000299
# 4 -0.003358 0.003242 0.002336 0.033042 -0.004854 0.000637
# 5 0.000624 -0.005553 0.001042 -0.004854 0.026760 -0.001252
# 6 0.001370 -0.000977 0.000299 0.000637 -0.001252 0.025642
#
#
# Mechanical properties :
#
#
# Convention : Reuss Voigt Hill
#
# Bulk Modulus (GPa) = 74.93050 80.46123 77.69587
# Shear Modulus (GPa) = 31.53244 34.94497 33.23871
#
# Velocity S-wave (km/s) = 3.87802 4.08247 3.98156
# Velocity P-wave (km/s) = 7.46922 7.78442 7.62845
#
# Compressibility (1/GPa) = 0.01334570
#
# Stress axis : x y z
#
# Youngs Moduli (GPa) = 99.28026 60.42163 69.50666
#
# Poissons Ratio (x) = 0.19814 0.28011
# Poissons Ratio (y) = 0.32557 0.45338
# Poissons Ratio (z) = 0.40009 0.39412
#
# Static dielectric constant tensor:
#      x y z
#    x 3.423930 0.611560 -0.046420 
#    y 0.611560 2.667760 -0.272500 
#    z -0.046420 -0.272500 3.875860 
# 
# 
# High freq. dielectric constant tensor:
#      x y z
#    x 1.837890 -0.011050 -0.010540 
#    y -0.011050 1.822550 -0.007880 
#    z -0.010540 -0.007880 1.822450 
# 
# From -- ./inp_files/186578.got.cif
#   From: 2010.06.25/outbox.cif.g09.slc.cpg/sg2_94_cif.got.tgz:186578.got - 2010.06.27 13:26:56.
