data_PCOD8029842
_publ_section_title
;
Structure prediction by ZEFSAII (Michael W. Deem and Ramdas Pophale) SiO2 
 PCOD8029842
Probable space group: P -1
;
_chemical_formula_sum "Si O2"
_cell_formula_units_Z 16
_cell_length_a 13.958282
_cell_length_b 11.824407
_cell_length_c 9.549694
_cell_angle_alpha 84.257754
_cell_angle_beta 106.196391
_cell_angle_gamma 148.321461
_cell_volume 764.840382
_symmetry_space_group_name_H-M "P -1"
_symmetry_group_IT_number 2
_symmetry_cell_setting 'triclinic'
loop_
_space_group_symop_operation_xyz
x,y,z
-x,-y,-z
loop_
_atom_site_type_symbol
_atom_site_label
_atom_site_fract_x
_atom_site_fract_y
_atom_site_fract_z
Si Si1 0.914056 0.021236 0.386265
Si Si2 0.183775 0.468181 0.366399
Si Si3 0.266050 0.603987 0.819917
Si Si4 0.468889 0.436079 0.835783
Si Si5 0.501340 0.293068 0.307378
Si Si6 0.582721 0.301649 0.841098
Si Si7 0.794550 0.203422 0.323367
Si Si8 0.146943 0.871450 0.396423
O O1 0.754136 0.820996 0.237577
O O2 0.834458 0.024644 0.477100
O O3 0.000000 0.000000 0.500000
O O4 0.074216 0.240543 0.326904
O O5 0.323504 0.583731 0.541616
O O6 0.312221 0.632598 0.267306
O O7 0.016740 0.399030 0.335300
O O8 0.454679 0.719398 0.824361
O O9 0.269655 0.733277 0.744560
O O10 0.068069 0.342316 0.731997
O O11 0.291980 0.634380 0.993201
O O12 0.510415 0.581814 0.728856
O O13 0.598405 0.453923 0.843121
O O14 0.500000 0.500000 0.000000
O O15 0.293619 0.047496 0.310907
O O16 0.359498 0.035589 0.782527
O O17 0.795588 0.191340 0.495995
#
# Coordination Sequence:
#
# PCOD8029842 Si02
#       8
#     2   2   2   2   2   2   2   2
#     4  11  21  40  66  93 134 174 216 267 326 389
#     4  11  23  42  70  96 130 176 222 267 330 393
#     4  12  26  45  68 100 138 171 224 282 326 381
#     4  12  24  42  67  98 139 172 216 275 330 398
#     4  12  24  42  70 101 134 176 218 274 334 390
#     4  12  26  45  66 102 135 176 222 270 338 394
#     4  11  24  46  71  96 134 178 223 275 326 397
#     4  11  24  42  67 104 130 170 231 269 326 401
#
# _framework density 20.919398000000001
#
# number of rings (size 3 to 8) (size 9 to 14) (size 15 to 20)
#    0.000    0.500    8.750    0.750    1.750    5.000 
#    0.000    1.250    0.000    0.000    0.000    0.000 
#    0.000    0.000    0.000    0.000    0.000    0.000 
#
# Total GULP energy -198360.735874 kJ/mol
# GULP energy per Si atom -12397.545992 kJ/mol
# Density = 2.087178 g / cm^3
# Si number density = 20.919398 Si / 1000 Ang^3
#
#
#
# Elastic Constant Matrix: (Units=GPa)
#
#
# Indices 1 2 3 4 5 6 
#
# 1 74.7518 47.1894 4.7408 -3.6449 7.3375 -6.5392
# 2 47.1894 103.9712 33.2635 -5.3565 -2.6847 12.0284
# 3 4.7408 33.2635 98.0226 9.9730 6.2938 11.3604
# 4 -3.6449 -5.3565 9.9730 32.3311 -2.8065 2.6609
# 5 7.3375 -2.6847 6.2938 -2.8065 29.3406 -5.5477
# 6 -6.5392 12.0284 11.3604 2.6609 -5.5477 31.5788
#
#
#
# Elastic Compliance Matrix: (Units=1/GPa)
#
#
# Indices 1 2 3 4 5 6 
#
# 1 0.021777 -0.011777 0.002637 -0.001407 -0.005875 0.007133
# 2 -0.011777 0.017837 -0.005447 0.004289 0.004874 -0.006778
# 3 0.002637 -0.005447 0.013020 -0.004839 -0.004889 -0.002514
# 4 -0.001407 0.004289 -0.004839 0.033553 0.004574 -0.002208
# 5 -0.005875 0.004874 -0.004889 0.004574 0.038439 0.005053
# 6 0.007133 -0.006778 -0.002514 -0.002208 0.005053 0.037704
#
#
# Mechanical properties :
#
#
# Convention : Reuss Voigt Hill
#
# Bulk Modulus (GPa) = 42.62577 49.68144 46.15360
# Shear Modulus (GPa) = 25.08460 31.42023 28.25241
#
# Velocity S-wave (km/s) = 3.46657 3.87973 3.67895
# Velocity P-wave (km/s) = 6.03682 6.62346 6.33693
#
# Compressibility (1/GPa) = 0.02345999
#
# Stress axis : x y z
#
# Youngs Moduli (GPa) = 45.91980 56.06342 76.80343
#
# Poissons Ratio (x) = 0.66026 -0.20252
# Poissons Ratio (y) = 0.54080 0.41835
# Poissons Ratio (z) = -0.12108 0.30538
#
# Static dielectric constant tensor:
#      x y z
#    x 3.711020 -0.014520 0.133070 
#    y -0.014520 3.754460 0.050530 
#    z 0.133070 0.050530 3.769080 
# 
# 
# High freq. dielectric constant tensor:
#      x y z
#    x 1.817990 -0.008690 0.016800 
#    y -0.008690 1.822670 0.003540 
#    z 0.016800 0.003540 1.821920 
# 
# From -- ./inp_files/242084.got.cif
#   From: 2010.06.25/outbox.cif.g09.slc.cpg/sg2_122_cif.got.tgz:242084.got - 2010.06.27 13:26:56.
