data_PCOD8029586
_publ_section_title
;
Structure prediction by ZEFSAII (Michael W. Deem and Ramdas Pophale) SiO2 
 PCOD8029586
Probable space group: P -1
;
_chemical_formula_sum "Si O2"
_cell_formula_units_Z 14
_cell_length_a 9.251220
_cell_length_b 9.262090
_cell_length_c 11.082861
_cell_angle_alpha 72.220642
_cell_angle_beta 72.226636
_cell_angle_gamma 112.667114
_cell_volume 731.424217
_symmetry_space_group_name_H-M "P -1"
_symmetry_group_IT_number 2
_symmetry_cell_setting 'triclinic'
loop_
_space_group_symop_operation_xyz
x,y,z
-x,-y,-z
loop_
_atom_site_type_symbol
_atom_site_label
_atom_site_fract_x
_atom_site_fract_y
_atom_site_fract_z
Si Si1 0.066195 0.083178 0.092668
Si Si2 0.836400 0.664468 0.500423
Si Si3 0.221301 0.916760 0.261447
Si Si4 0.705921 0.863343 0.353517
Si Si5 0.364419 0.206627 0.352636
Si Si6 0.583924 0.279508 0.738436
Si Si7 0.416310 0.433284 0.907754
O O1 0.171729 0.994611 0.141554
O O2 0.202027 0.297290 0.000411
O O3 0.897033 0.042965 0.228604
O O4 0.000000 0.000000 0.000000
O O5 0.748472 0.704229 0.395770
O O6 0.795649 0.751877 0.605212
O O7 0.747030 0.454158 0.589647
O O8 0.047125 0.754852 0.411138
O O9 0.344987 0.844907 0.202012
O O10 0.330843 0.071402 0.290633
O O11 0.623469 0.875755 0.500360
O O12 0.569862 0.828374 0.292269
O O13 0.543909 0.398086 0.228201
O O14 0.504914 0.327803 0.858909
O O15 0.500000 0.500000 0.000000
#
# Coordination Sequence:
#
# PCOD8029586 Si02
#       7
#     2   2   2   2   2   2   2
#     4  11  22  39  61  88 114 160 201 241 286 358
#     4   8  19  34  57  84 112 154 194 232 283 352
#     4  11  21  35  59  90 119 152 195 253 296 338
#     4   9  20  36  62  84 117 154 205 228 291 355
#     4   9  20  36  62  84 117 154 205 228 291 355
#     4  11  21  35  59  90 119 152 195 253 296 338
#     4  11  22  39  61  88 114 160 201 241 286 358
#
# _framework density 19.140740000000001
#
# number of rings (size 3 to 8) (size 9 to 14) (size 15 to 20)
#    0.857    1.143    2.857    1.286    0.000    1.143 
#    0.000    0.000    0.000    3.429    0.000    0.000 
#    0.000    0.000    0.000    0.000    0.000    0.000 
#
# Total GULP energy -173491.457427 kJ/mol
# GULP energy per Si atom -12392.246959 kJ/mol
# Density = 1.909717 g / cm^3
# Si number density = 19.140740 Si / 1000 Ang^3
#
#
#
# Elastic Constant Matrix: (Units=GPa)
#
#
# Indices 1 2 3 4 5 6 
#
# 1 44.3571 60.1866 26.5043 -8.4547 5.5021 0.0153
# 2 60.1866 65.8391 42.0221 0.3528 -10.4495 25.4067
# 3 26.5043 42.0221 121.8865 -13.7906 -9.3400 19.8366
# 4 -8.4547 0.3528 -13.7906 32.9598 14.6411 -2.9805
# 5 5.5021 -10.4495 -9.3400 14.6411 22.1591 1.9725
# 6 0.0153 25.4067 19.8366 -2.9805 1.9725 27.6741
#
#
#
# Elastic Compliance Matrix: (Units=1/GPa)
#
#
# Indices 1 2 3 4 5 6 
#
# 1 -0.007796 0.019185 -0.001726 -0.014164 0.021342 -0.019418
# 2 0.019185 -0.008794 -0.003331 0.014086 -0.020819 0.013451
# 3 -0.001726 -0.003331 0.010959 0.002876 0.001989 -0.004629
# 4 -0.014164 0.014086 0.002876 0.030079 -0.007504 -0.011212
# 5 0.021342 -0.020819 0.001989 -0.007504 0.034525 0.014407
# 6 -0.019418 0.013451 -0.004629 -0.011212 0.014407 0.024880
#
#
# Mechanical properties :
#
#
# Convention : Reuss Voigt Hill
#
# Bulk Modulus (GPa) = 44.19718 54.38987 49.29353
# Shear Modulus (GPa) = 79.19158 23.44991 51.32074
#
# Velocity S-wave (km/s) = 6.43919 3.50398 5.18368
# Velocity P-wave (km/s) = 8.85579 6.69686 7.85089
#
# Compressibility (1/GPa) = 0.02262588
#
# Stress axis : x y z
#
# Youngs Moduli (GPa) = -128.26657 -113.71418 91.24889
#
# Poissons Ratio (x) = 2.18161 0.15748
# Poissons Ratio (y) = 2.46080 0.30392
# Poissons Ratio (z) = -0.22136 -0.37875
#
# Static dielectric constant tensor:
#      x y z
#    x 3.211440 0.126250 -0.096990 
#    y 0.126250 3.308510 -0.139110 
#    z -0.096990 -0.139110 3.928450 
# 
# 
# High freq. dielectric constant tensor:
#      x y z
#    x 1.713000 0.017780 -0.006850 
#    y 0.017780 1.726260 -0.009880 
#    z -0.006850 -0.009880 1.763020 
# 
# From -- ./inp_files/353472.got.cif
#   From: 2010.06.25/outbox.cif.g09.slc.cpg/sg2_177_cif.got.tgz:353472.got - 2010.06.27 13:26:56.
