data_PCOD8029521
_publ_section_title
;
Structure prediction by ZEFSAII (Michael W. Deem and Ramdas Pophale) SiO2 
 PCOD8029521
Probable space group: P -1
;
_chemical_formula_sum "Si O2"
_cell_formula_units_Z 16
_cell_length_a 12.036683
_cell_length_b 9.787594
_cell_length_c 15.793852
_cell_angle_alpha 108.992529
_cell_angle_beta 26.256681
_cell_angle_gamma 110.556295
_cell_volume 770.488895
_symmetry_space_group_name_H-M "P -1"
_symmetry_group_IT_number 2
_symmetry_cell_setting 'triclinic'
loop_
_space_group_symop_operation_xyz
x,y,z
-x,-y,-z
loop_
_atom_site_type_symbol
_atom_site_label
_atom_site_fract_x
_atom_site_fract_y
_atom_site_fract_z
Si Si1 0.273276 0.402994 0.878830
Si Si2 0.024461 0.681087 0.099179
Si Si3 0.063680 0.155881 0.648786
Si Si4 0.917781 0.849615 0.768435
Si Si5 0.512971 0.083423 0.225673
Si Si6 0.351182 0.821825 0.191015
Si Si7 0.192741 0.635759 0.427996
Si Si8 0.122387 0.108656 0.008712
O O1 0.573570 0.421909 0.694237
O O2 0.198200 0.368301 0.825538
O O3 0.166602 0.549758 0.007564
O O4 0.132451 0.273812 0.006063
O O5 0.881217 0.741944 0.287290
O O6 0.236256 0.808509 0.946302
O O7 0.334454 0.169056 0.420467
O O8 0.863725 0.223892 0.740724
O O9 0.960460 0.989581 0.707375
O O10 0.017490 0.899679 0.805462
O O11 0.061721 0.725514 0.606144
O O12 0.619659 0.785734 0.964872
O O13 0.363839 0.999905 0.231096
O O14 0.597810 0.939662 0.184335
O O15 0.280156 0.731149 0.306032
O O16 0.000000 0.500000 0.500000
O O17 0.000000 0.000000 0.000000
#
# Coordination Sequence:
#
# PCOD8029521 Si02
#       8
#     2   2   2   2   2   2   2   2
#     4  11  24  49  65  96 145 170 225 284 332 405
#     4  11  26  44  69  98 135 184 214 281 348 391
#     4  12  23  39  70 102 131 175 232 270 338 405
#     4  11  23  42  69  99 130 182 226 274 343 393
#     4  11  22  41  67 101 129 173 225 273 335 390
#     4  11  24  41  67 100 138 172 223 287 326 401
#     4  12  28  44  67 100 138 182 228 281 341 400
#     4  11  20  43  74  95 133 177 222 277 331 398
#
# _framework density 20.766034999999999
#
# number of rings (size 3 to 8) (size 9 to 14) (size 15 to 20)
#    0.000    0.750    7.500    0.750    3.500    2.500 
#    0.000    3.750    0.000    0.000    0.000    0.000 
#    0.000    0.000    0.000    0.000    0.000    0.000 
#
# Total GULP energy -198333.285728 kJ/mol
# GULP energy per Si atom -12395.830358 kJ/mol
# Density = 2.071877 g / cm^3
# Si number density = 20.766035 Si / 1000 Ang^3
#
#
#
# Elastic Constant Matrix: (Units=GPa)
#
#
# Indices 1 2 3 4 5 6 
#
# 1 112.1669 34.6499 36.5603 9.3551 -5.9153 3.2446
# 2 34.6499 92.4873 18.2726 8.9998 -12.8898 1.7136
# 3 36.5603 18.2726 92.1652 14.4574 -3.9457 3.6763
# 4 9.3551 8.9998 14.4574 29.8171 3.1668 -3.4851
# 5 -5.9153 -12.8898 -3.9457 3.1668 20.7683 2.6558
# 6 3.2446 1.7136 3.6763 -3.4851 2.6558 33.5708
#
#
#
# Elastic Compliance Matrix: (Units=1/GPa)
#
#
# Indices 1 2 3 4 5 6 
#
# 1 0.011243 -0.003299 -0.003602 -0.000939 0.000700 -0.000677
# 2 -0.003299 0.013685 -0.000374 -0.003956 0.008266 -0.001403
# 3 -0.003602 -0.000374 0.013433 -0.005748 0.002412 -0.001891
# 4 -0.000939 -0.003956 -0.005748 0.039627 -0.010608 0.005875
# 5 0.000700 0.008266 0.002412 -0.010608 0.056363 -0.006314
# 6 -0.000677 -0.001403 -0.001891 0.005875 -0.006314 0.031241
#
#
# Mechanical properties :
#
#
# Convention : Reuss Voigt Hill
#
# Bulk Modulus (GPa) = 41.99597 52.86502 47.43049
# Shear Modulus (GPa) = 26.58446 30.65368 28.61907
#
# Velocity S-wave (km/s) = 3.58185 3.84623 3.71639
# Velocity P-wave (km/s) = 6.11339 6.72587 6.42693
#
# Compressibility (1/GPa) = 0.02381181
#
# Stress axis : x y z
#
# Youngs Moduli (GPa) = 88.94282 73.07205 74.44183
#
# Poissons Ratio (x) = 0.24108 0.26811
# Poissons Ratio (y) = 0.29344 0.02785
# Poissons Ratio (z) = 0.32034 0.02734
#
# Static dielectric constant tensor:
#      x y z
#    x 7.540500 1.756510 -1.084580 
#    y 1.756510 4.726020 -0.472670 
#    z -1.084580 -0.472670 4.116900 
# 
# 
# High freq. dielectric constant tensor:
#      x y z
#    x 1.824850 0.002850 0.001380 
#    y 0.002850 1.816920 0.006200 
#    z 0.001380 0.006200 1.805090 
# 
# From -- ./inp_files/515842.got.cif
#   From: 2010.06.25/outbox.cif.g09.slc.cpg/sg2_258_cif.got.tgz:515842.got - 2010.06.27 13:26:56.
