data_PCOD8029983
_publ_section_title
;
Structure prediction by ZEFSAII (Michael W. Deem and Ramdas Pophale) SiO2 
 PCOD8029983
Probable space group: P -1
;
_chemical_formula_sum "Si O2"
_cell_formula_units_Z 16
_cell_length_a 9.078388
_cell_length_b 14.219573
_cell_length_c 23.868452
_cell_angle_alpha 17.946907
_cell_angle_beta 51.066568
_cell_angle_gamma 50.904890
_cell_volume 731.602021
_symmetry_space_group_name_H-M "P -1"
_symmetry_group_IT_number 2
_symmetry_cell_setting 'triclinic'
loop_
_space_group_symop_operation_xyz
x,y,z
-x,-y,-z
loop_
_atom_site_type_symbol
_atom_site_label
_atom_site_fract_x
_atom_site_fract_y
_atom_site_fract_z
Si Si1 0.350335 0.228151 0.246340
Si Si2 0.319155 0.165627 0.414958
Si Si3 0.625999 0.662464 0.309393
Si Si4 0.966638 0.157144 0.763245
Si Si5 0.807872 0.122431 0.941233
Si Si6 0.094098 0.943692 0.396006
Si Si7 0.645886 0.099559 0.159632
Si Si8 0.191894 0.729129 0.378188
O O1 0.349557 0.069518 0.397058
O O2 0.504785 0.026825 0.283972
O O3 0.149952 0.217637 0.267113
O O4 0.410481 0.569309 0.043795
O O5 0.287249 0.535122 0.214115
O O6 0.132644 0.043412 0.553449
O O7 0.500000 0.000000 0.500000
O O8 0.790998 0.374162 0.427304
O O9 0.412614 0.571228 0.413854
O O10 0.663042 0.827267 0.265257
O O11 0.651927 0.895547 0.120224
O O12 0.042424 0.488393 0.559191
O O13 0.841528 0.114971 0.871378
O O14 0.844163 0.107301 0.765780
O O15 0.146484 0.892042 0.867895
O O16 0.000000 0.000000 0.000000
O O17 0.157097 0.977210 0.296809
#
# Coordination Sequence:
#
# PCOD8029983 Si02
#       8
#     2   2   2   2   2   2   2   2
#     4  11  25  41  65  94 137 175 224 259 343 404
#     4  12  26  43  65  99 139 181 215 274 344 401
#     4  12  22  42  76  97 128 169 241 277 321 388
#     4  11  23  41  69  96 134 170 224 282 345 375
#     4  12  21  44  73  95 131 178 228 277 326 399
#     4  12  23  44  69  97 129 180 225 277 323 409
#     4  11  21  41  68  94 123 181 221 276 321 408
#     4  11  23  39  66 105 129 163 222 291 333 380
#
# _framework density 21.869814000000002
#
# number of rings (size 3 to 8) (size 9 to 14) (size 15 to 20)
#    0.000    0.500    7.500    1.500    1.750    1.500 
#    2.250    0.625    0.000    0.000    0.000    0.000 
#    0.000    0.000    0.000    0.000    0.000    0.000 
#
# Total GULP energy -198343.076212 kJ/mol
# GULP energy per Si atom -12396.442263 kJ/mol
# Density = 2.182004 g / cm^3
# Si number density = 21.869814 Si / 1000 Ang^3
#
#
#
# Elastic Constant Matrix: (Units=GPa)
#
#
# Indices 1 2 3 4 5 6 
#
# 1 131.6471 51.5944 31.6865 16.3606 20.6178 2.3184
# 2 51.5944 94.6363 34.8297 32.4259 18.0961 -8.5053
# 3 31.6865 34.8297 66.5706 17.3401 10.1148 4.5163
# 4 16.3606 32.4259 17.3401 44.0238 3.0234 8.7634
# 5 20.6178 18.0961 10.1148 3.0234 33.7135 10.1515
# 6 2.3184 -8.5053 4.5163 8.7634 10.1515 41.6903
#
#
#
# Elastic Compliance Matrix: (Units=1/GPa)
#
#
# Indices 1 2 3 4 5 6 
#
# 1 0.010305 -0.004516 -0.002215 0.000711 -0.003080 -0.000654
# 2 -0.004516 0.022829 -0.005235 -0.014574 -0.009912 0.010953
# 3 -0.002215 -0.005235 0.019774 -0.002586 -0.000831 -0.002341
# 4 0.000711 -0.014574 -0.002586 0.036082 0.008670 -0.012428
# 5 -0.003080 -0.009912 -0.000831 0.008670 0.040377 -0.013415
# 6 -0.000654 0.010953 -0.002341 -0.012428 -0.013415 0.032390
#
#
# Mechanical properties :
#
#
# Convention : Reuss Voigt Hill
#
# Bulk Modulus (GPa) = 34.51285 58.78614 46.64949
# Shear Modulus (GPa) = 25.59536 35.53509 30.56523
#
# Velocity S-wave (km/s) = 3.42475 4.03531 3.74250
# Velocity P-wave (km/s) = 5.60837 6.97496 6.32866
#
# Compressibility (1/GPa) = 0.02897472
#
# Stress axis : x y z
#
# Youngs Moduli (GPa) = 97.04325 43.80381 50.57216
#
# Poissons Ratio (x) = 0.19783 0.11201
# Poissons Ratio (y) = 0.43827 0.26476
# Poissons Ratio (z) = 0.21493 0.22933
#
# Static dielectric constant tensor:
#      x y z
#    x 3.999750 0.033940 0.037730 
#    y 0.033940 4.121820 0.189590 
#    z 0.037730 0.189590 3.986190 
# 
# 
# High freq. dielectric constant tensor:
#      x y z
#    x 1.848730 0.002300 -0.001230 
#    y 0.002300 1.870000 0.017580 
#    z -0.001230 0.017580 1.852620 
# 
# From -- ./inp_files/321048.got.cif
#   From: 2010.06.25/outbox.cif.g09.slc.cpg/sg2_161_cif.got.tgz:321048.got - 2010.06.27 13:26:56.
