data_PCOD8029803
_publ_section_title
;
Structure prediction by ZEFSAII (Michael W. Deem and Ramdas Pophale) SiO2 
 PCOD8029803
Probable space group: P -1
;
_chemical_formula_sum "Si O2"
_cell_formula_units_Z 16
_cell_length_a 13.519767
_cell_length_b 9.965004
_cell_length_c 15.112039
_cell_angle_alpha 118.348076
_cell_angle_beta 45.991810
_cell_angle_gamma 147.487428
_cell_volume 753.892572
_symmetry_space_group_name_H-M "P -1"
_symmetry_group_IT_number 2
_symmetry_cell_setting 'triclinic'
loop_
_space_group_symop_operation_xyz
x,y,z
-x,-y,-z
loop_
_atom_site_type_symbol
_atom_site_label
_atom_site_fract_x
_atom_site_fract_y
_atom_site_fract_z
Si Si1 0.038244 0.616631 0.257039
Si Si2 0.911169 0.805862 0.706870
Si Si3 0.214417 0.788836 0.857426
Si Si4 0.639325 0.872102 0.877908
Si Si5 0.150176 0.285400 0.476184
Si Si6 0.621497 0.630559 0.371199
Si Si7 0.242550 0.523144 0.871999
Si Si8 0.364899 0.681438 0.167713
O O1 0.175296 0.640887 0.251879
O O2 0.845457 0.339293 0.240211
O O3 0.913971 0.641831 0.392278
O O4 0.213412 0.840990 0.143322
O O5 0.811220 0.883705 0.776474
O O6 0.901448 0.705545 0.588658
O O7 0.766584 0.588218 0.803271
O O8 0.181883 0.061157 0.649020
O O9 0.268893 0.714142 0.875538
O O10 0.454424 0.102533 0.799819
O O11 0.003037 0.709787 0.995320
O O12 0.453953 0.678847 0.855230
O O13 0.511973 0.773838 0.018823
O O14 0.427072 0.502254 0.380335
O O15 0.000000 0.000000 0.500000
O O16 0.500000 0.500000 0.500000
O O17 0.750728 0.591803 0.247960
#
# Coordination Sequence:
#
# PCOD8029803 Si02
#       8
#     2   2   2   2   2   2   2   2
#     4  12  24  44  73 101 132 179 234 277 331 404
#     4  12  27  45  68 102 141 178 224 279 343 399
#     4  11  23  40  67 102 138 171 222 278 345 395
#     4  12  21  46  72 100 137 180 228 281 326 406
#     4  12  24  45  72 100 129 173 233 283 326 397
#     4  12  23  42  72 100 130 178 235 280 328 393
#     4  11  21  39  71 104 129 174 232 284 323 397
#     4  12  27  44  66 102 146 179 213 281 352 399
#
# _framework density 21.223182999999999
#
# number of rings (size 3 to 8) (size 9 to 14) (size 15 to 20)
#    0.000    0.250    6.250    4.500    0.000    2.500 
#    0.000    2.500    0.000    0.000    0.000    0.000 
#    0.000    0.000    0.000    0.000    0.000    0.000 
#
# Total GULP energy -198492.109514 kJ/mol
# GULP energy per Si atom -12405.756845 kJ/mol
# Density = 2.117488 g / cm^3
# Si number density = 21.223183 Si / 1000 Ang^3
#
#
#
# Elastic Constant Matrix: (Units=GPa)
#
#
# Indices 1 2 3 4 5 6 
#
# 1 81.0205 49.0287 22.5207 -7.8726 -9.8638 15.5847
# 2 49.0287 138.6227 42.1861 -9.0658 -2.0818 27.6607
# 3 22.5207 42.1861 99.9910 22.3718 -0.8474 12.1599
# 4 -7.8726 -9.0658 22.3718 37.4798 3.7751 2.3056
# 5 -9.8638 -2.0818 -0.8474 3.7751 30.7398 -3.8864
# 6 15.5847 27.6607 12.1599 2.3056 -3.8864 34.3589
#
#
#
# Elastic Compliance Matrix: (Units=1/GPa)
#
#
# Indices 1 2 3 4 5 6 
#
# 1 0.017172 -0.004391 -0.002436 0.003762 0.004284 -0.003159
# 2 -0.004391 0.011666 -0.004303 0.005085 -0.002180 -0.006465
# 3 -0.002436 -0.004303 0.014676 -0.010385 0.000625 0.000143
# 4 0.003762 0.005085 -0.010385 0.035579 -0.003728 -0.004934
# 5 0.004284 -0.002180 0.000625 -0.003728 0.034709 0.003767
# 6 -0.003159 -0.006465 0.000143 -0.004934 0.003767 0.036449
#
#
# Mechanical properties :
#
#
# Convention : Reuss Voigt Hill
#
# Bulk Modulus (GPa) = 47.05002 60.78948 53.91975
# Shear Modulus (GPa) = 27.84009 34.24228 31.04119
#
# Velocity S-wave (km/s) = 3.62578 4.02112 3.82855
# Velocity P-wave (km/s) = 6.30441 7.08974 6.70858
#
# Compressibility (1/GPa) = 0.02125397
#
# Stress axis : x y z
#
# Youngs Moduli (GPa) = 58.23489 85.71661 68.13675
#
# Poissons Ratio (x) = 0.37641 0.16598
# Poissons Ratio (y) = 0.25573 0.29319
# Poissons Ratio (z) = 0.14186 0.36884
#
# Static dielectric constant tensor:
#      x y z
#    x 3.904200 0.323330 -0.134670 
#    y 0.323330 3.949910 0.059970 
#    z -0.134670 0.059970 3.927690 
# 
# 
# High freq. dielectric constant tensor:
#      x y z
#    x 1.829600 0.028750 -0.010250 
#    y 0.028750 1.832050 0.010290 
#    z -0.010250 0.010290 1.836050 
# 
# From -- ./inp_files/272637.got.cif
#   From: 2010.06.25/outbox.cif.g09.slc.cpg/sg2_137_cif.got.tgz:272637.got - 2010.06.27 13:26:56.
