data_PCOD8029151
_publ_section_title
;
Structure prediction by ZEFSAII (Michael W. Deem and Ramdas Pophale) SiO2 
 PCOD8029151
Probable space group: P -1
;
_chemical_formula_sum "Si O2"
_cell_formula_units_Z 14
_cell_length_a 12.034874
_cell_length_b 5.392087
_cell_length_c 22.226962
_cell_angle_alpha 74.168914
_cell_angle_beta 150.062879
_cell_angle_gamma 119.064233
_cell_volume 591.764488
_symmetry_space_group_name_H-M "P -1"
_symmetry_group_IT_number 2
_symmetry_cell_setting 'triclinic'
loop_
_space_group_symop_operation_xyz
x,y,z
-x,-y,-z
loop_
_atom_site_type_symbol
_atom_site_label
_atom_site_fract_x
_atom_site_fract_y
_atom_site_fract_z
Si Si1 0.144247 0.191612 0.691163
Si Si2 0.955074 0.106257 0.035199
Si Si3 0.378472 0.077993 0.600792
Si Si4 0.498468 0.361494 0.444790
Si Si5 0.568018 0.265322 0.801919
Si Si6 0.028476 0.523444 0.708870
Si Si7 0.882149 0.147504 0.770631
O O1 0.402964 0.355841 0.760844
O O2 0.199232 0.420944 0.757286
O O3 0.905109 0.165176 0.541956
O O4 0.103235 0.867677 0.712432
O O5 0.197969 0.440572 0.140471
O O6 0.687974 0.107679 0.909148
O O7 0.931962 0.882971 0.092459
O O8 0.000000 0.000000 0.000000
O O9 0.425053 0.405934 0.589238
O O10 0.385826 0.036449 0.679036
O O11 0.610389 0.058069 0.680197
O O12 0.500000 0.500000 0.500000
O O13 0.728420 0.287608 0.562311
O O14 0.208786 0.084748 0.313079
O O15 0.044946 0.473123 0.792354
#
# Coordination Sequence:
#
# PCOD8029151 Si02
#       7
#     2   2   2   2   2   2   2
#     4  11  26  43  68 101 143 182 214 277 354 416
#     4  11  25  44  72  93 126 182 232 296 321 389
#     4  11  21  38  67 102 133 175 219 285 340 403
#     4  11  20  36  62 100 140 168 215 279 340 400
#     4  11  25  46  65  97 133 176 239 276 341 402
#     4  11  24  40  65 102 140 178 215 276 344 409
#     4  12  21  39  67 100 133 171 237 271 336 398
#
# _framework density 23.658062000000001
#
# number of rings (size 3 to 8) (size 9 to 14) (size 15 to 20)
#    0.000    0.857    5.714    2.571    2.000    0.000 
#    0.000    4.286    0.000    0.000    0.000    0.000 
#    0.000    0.000    0.000    0.000    0.000    0.000 
#
# Total GULP energy -173548.180157 kJ/mol
# GULP energy per Si atom -12396.298583 kJ/mol
# Density = 2.360422 g / cm^3
# Si number density = 23.658062 Si / 1000 Ang^3
#
#
#
# Elastic Constant Matrix: (Units=GPa)
#
#
# Indices 1 2 3 4 5 6 
#
# 1 123.7296 16.6831 46.3198 -20.9782 8.6687 -15.6806
# 2 16.6831 58.8130 33.9150 -21.7993 -10.6975 -5.1714
# 3 46.3198 33.9150 106.6160 -41.1239 -7.5853 6.4027
# 4 -20.9782 -21.7993 -41.1239 33.7849 1.7541 -4.5503
# 5 8.6687 -10.6975 -7.5853 1.7541 39.3676 -4.2162
# 6 -15.6806 -5.1714 6.4027 -4.5503 -4.2162 36.4958
#
#
#
# Elastic Compliance Matrix: (Units=1/GPa)
#
#
# Indices 1 2 3 4 5 6 
#
# 1 0.011028 0.000394 -0.004449 0.002578 -0.002695 0.005585
# 2 0.000394 0.025381 -0.002947 0.013609 0.006355 0.006714
# 3 -0.004449 -0.002947 0.020023 0.019139 0.002849 -0.003127
# 4 0.002578 0.013609 0.019139 0.064135 0.004842 0.008234
# 5 -0.002695 0.006355 0.002849 0.004842 0.028390 0.003126
# 6 0.005585 0.006714 -0.003127 0.008234 0.003126 0.032688
#
#
# Mechanical properties :
#
#
# Convention : Reuss Voigt Hill
#
# Bulk Modulus (GPa) = 23.56961 53.66604 38.61783
# Shear Modulus (GPa) = 23.83319 34.74570 29.28945
#
# Velocity S-wave (km/s) = 3.17740 3.83647 3.52239
# Velocity P-wave (km/s) = 4.84205 6.50830 5.73600
#
# Compressibility (1/GPa) = 0.04242751
#
# Stress axis : x y z
#
# Youngs Moduli (GPa) = 90.67423 39.39959 49.94362
#
# Poissons Ratio (x) = -0.01552 0.22221
# Poissons Ratio (y) = -0.03571 0.14718
# Poissons Ratio (z) = 0.40343 0.11610
#
# Static dielectric constant tensor:
#      x y z
#    x 4.252630 -0.002840 0.039640 
#    y -0.002840 4.258340 -0.271760 
#    z 0.039640 -0.271760 4.401070 
# 
# 
# High freq. dielectric constant tensor:
#      x y z
#    x 1.935870 -0.006980 -0.006230 
#    y -0.006980 1.927890 -0.023330 
#    z -0.006230 -0.023330 1.923100 
# 
# From -- ./inp_files/66113.got.cif
#   From: 2010.06.25/outbox.cif.g09.slc.cpg/sg2_34_cif.got.tgz:66113.got - 2010.06.27 13:26:56.
