data_PCOD8029743
_publ_section_title
;
Structure prediction by ZEFSAII (Michael W. Deem and Ramdas Pophale) SiO2 
 PCOD8029743
Probable space group: P -1
;
_chemical_formula_sum "Si O2"
_cell_formula_units_Z 16
_cell_length_a 11.165088
_cell_length_b 14.609066
_cell_length_c 9.767103
_cell_angle_alpha 98.242961
_cell_angle_beta 94.862939
_cell_angle_gamma 150.485652
_cell_volume 701.338849
_symmetry_space_group_name_H-M "P -1"
_symmetry_group_IT_number 2
_symmetry_cell_setting 'triclinic'
loop_
_space_group_symop_operation_xyz
x,y,z
-x,-y,-z
loop_
_atom_site_type_symbol
_atom_site_label
_atom_site_fract_x
_atom_site_fract_y
_atom_site_fract_z
Si Si1 0.386772 0.244066 0.631791
Si Si2 0.227040 0.197100 0.889641
Si Si3 0.328089 0.991570 0.593855
Si Si4 0.873604 0.112568 0.938736
Si Si5 0.273421 0.249896 0.343421
Si Si6 0.083502 0.313470 0.289449
Si Si7 0.563992 0.340356 0.186154
Si Si8 0.161225 0.769642 0.270857
O O1 0.345014 0.282447 0.765760
O O2 0.288066 0.073714 0.624222
O O3 0.219745 0.168698 0.470277
O O4 0.706268 0.459774 0.673247
O O5 0.130537 0.232769 0.931499
O O6 0.458556 0.320951 0.038237
O O7 0.974946 0.952729 0.822215
O O8 0.631846 0.173011 0.700607
O O9 0.261016 0.916735 0.417275
O O10 0.124802 0.800576 0.637595
O O11 0.848809 0.190213 0.869425
O O12 0.597198 0.864959 0.844808
O O13 0.912155 0.165936 0.110719
O O14 0.280608 0.365972 0.373344
O O15 0.540275 0.391619 0.327865
O O16 0.875079 0.529978 0.235037
#
# Coordination Sequence:
#
# PCOD8029743 Si02
#       8
#     2   2   2   2   2   2   2   2
#     4  12  25  39  67  98 132 174 209 262 328 379
#     4  11  21  40  66  97 140 165 203 269 325 385
#     4  11  26  50  61  94 131 168 225 270 307 377
#     4  11  23  42  66 101 134 167 210 264 325 379
#     4  11  21  39  64 100 134 166 203 266 329 380
#     4  12  24  41  66  99 136 167 209 267 323 387
#     4  11  21  42  66  97 129 169 212 264 321 384
#     4  11  27  44  72  88 124 180 221 262 316 382
#
# _framework density 22.813507999999999
#
# number of rings (size 3 to 8) (size 9 to 14) (size 15 to 20)
#    0.000    0.750    3.750    4.500    3.500    2.500 
#    0.000    7.500    0.000    0.000    0.000    0.000 
#    0.000    0.000    0.000    0.000    0.000    0.000 
#
# Total GULP energy -198535.667988 kJ/mol
# GULP energy per Si atom -12408.479249 kJ/mol
# Density = 2.276158 g / cm^3
# Si number density = 22.813508 Si / 1000 Ang^3
#
#
#
# Elastic Constant Matrix: (Units=GPa)
#
#
# Indices 1 2 3 4 5 6 
#
# 1 52.1230 6.0580 17.0668 -3.2241 12.2693 8.2090
# 2 6.0580 88.7471 -3.5946 -7.2833 8.7219 14.9147
# 3 17.0668 -3.5946 69.6402 -27.1016 5.9212 2.7844
# 4 -3.2241 -7.2833 -27.1016 33.4793 -0.1039 2.1220
# 5 12.2693 8.7219 5.9212 -0.1039 25.0572 4.1337
# 6 8.2090 14.9147 2.7844 2.1220 4.1337 35.8811
#
#
#
# Elastic Compliance Matrix: (Units=1/GPa)
#
#
# Indices 1 2 3 4 5 6 
#
# 1 0.023807 -0.000521 -0.005819 -0.002336 -0.009526 -0.003543
# 2 -0.000521 0.013350 0.003876 0.006333 -0.004357 -0.005604
# 3 -0.005819 0.003876 0.024222 0.020065 -0.003658 -0.002925
# 4 -0.002336 0.006333 0.020065 0.047627 -0.004625 -0.005939
# 5 -0.009526 -0.004357 -0.003658 -0.004625 0.047080 -0.000876
# 6 -0.003543 -0.005604 -0.002925 -0.005939 -0.000876 0.031689
#
#
# Mechanical properties :
#
#
# Convention : Reuss Voigt Hill
#
# Bulk Modulus (GPa) = 17.71412 27.73008 22.72210
# Shear Modulus (GPa) = 23.63856 31.61551 27.62703
#
# Velocity S-wave (km/s) = 3.22244 3.72670 3.48371
# Velocity P-wave (km/s) = 4.65050 5.54069 5.11500
#
# Compressibility (1/GPa) = 0.05645215
#
# Stress axis : x y z
#
# Youngs Moduli (GPa) = 42.00437 74.90505 41.28466
#
# Poissons Ratio (x) = 0.03901 0.24023
# Poissons Ratio (y) = 0.02188 -0.16002
# Poissons Ratio (z) = 0.24441 -0.29033
#
# Static dielectric constant tensor:
#      x y z
#    x 3.769950 0.160160 0.001630 
#    y 0.160160 4.052680 -0.061010 
#    z 0.001630 -0.061010 4.159300 
# 
# 
# High freq. dielectric constant tensor:
#      x y z
#    x 1.866510 0.010810 0.002140 
#    y 0.010810 1.911560 -0.005500 
#    z 0.002140 -0.005500 1.917270 
# 
# From -- ./inp_files/273420.got.cif
#   From: 2010.06.25/outbox.cif.g09.slc.cpg/sg2_137_cif.got.tgz:273420.got - 2010.06.27 13:26:56.
