data_PCOD8029085
_publ_section_title
;
Structure prediction by ZEFSAII (Michael W. Deem and Ramdas Pophale) SiO2 
 PCOD8029085
Probable space group: P -1
;
_chemical_formula_sum "Si O2"
_cell_formula_units_Z 16
_cell_length_a 12.433840
_cell_length_b 5.265625
_cell_length_c 13.174389
_cell_angle_alpha 83.823827
_cell_angle_beta 111.688332
_cell_angle_gamma 69.247188
_cell_volume 720.694492
_symmetry_space_group_name_H-M "P -1"
_symmetry_group_IT_number 2
_symmetry_cell_setting 'triclinic'
loop_
_space_group_symop_operation_xyz
x,y,z
-x,-y,-z
loop_
_atom_site_type_symbol
_atom_site_label
_atom_site_fract_x
_atom_site_fract_y
_atom_site_fract_z
Si Si1 0.117604 0.883891 0.338806
Si Si2 0.936794 0.877009 0.899107
Si Si3 0.965524 0.340333 0.405416
Si Si4 0.363238 0.935718 0.707751
Si Si5 0.269131 0.578023 0.573898
Si Si6 0.455171 0.274531 0.043362
Si Si7 0.148490 0.137678 0.771410
Si Si8 0.820936 0.654962 0.028577
O O1 0.238629 0.615064 0.439687
O O2 0.982725 0.871736 0.301653
O O3 0.145035 0.911254 0.228153
O O4 0.094133 0.144710 0.396473
O O5 0.838113 0.767644 0.918998
O O6 0.052773 0.629655 0.892015
O O7 0.000000 0.000000 0.000000
O O8 0.871160 0.221616 0.431674
O O9 0.867431 0.553435 0.280489
O O10 0.000000 0.500000 0.500000
O O11 0.327735 0.246582 0.636351
O O12 0.265224 0.913707 0.758229
O O13 0.367324 0.713856 0.631355
O O14 0.495755 0.818583 0.820585
O O15 0.301898 0.410523 0.998854
O O16 0.500000 0.500000 0.000000
O O17 0.500000 0.000000 0.000000
O O18 0.183267 0.104561 0.904040
#
# Coordination Sequence:
#
# PCOD8029085 Si02
#       8
#     2   2   2   2   2   2   2   2
#     4  12  21  35  61  90 130 177 224 268 340 406
#     4  11  25  42  67  98 133 184 227 284 338 409
#     4  11  20  32  51  88 130 173 208 260 340 404
#     4  11  24  40  60  97 130 172 217 268 340 401
#     4  11  23  37  58  90 136 172 214 273 334 403
#     4  12  27  44  73 102 133 184 227 284 348 404
#     4  11  20  33  60  88 134 170 210 272 330 420
#     4  11  25  44  64  97 138 177 230 282 346 402
#
# _framework density 22.200811000000002
#
# number of rings (size 3 to 8) (size 9 to 14) (size 15 to 20)
#    0.000    0.750    6.250    2.625    5.250    0.000 
#    0.000    0.000    0.000    1.500    0.000    0.000 
#    0.000    0.000    0.000    0.000    0.000    0.000 
#
# Total GULP energy -198213.751925 kJ/mol
# GULP energy per Si atom -12388.359495 kJ/mol
# Density = 2.215028 g / cm^3
# Si number density = 22.200811 Si / 1000 Ang^3
#
#
#
# Elastic Constant Matrix: (Units=GPa)
#
#
# Indices 1 2 3 4 5 6 
#
# 1 94.5463 26.5631 34.8636 -0.5181 0.8925 6.7087
# 2 26.5631 77.1131 39.4764 3.5498 -2.6848 21.2909
# 3 34.8636 39.4764 152.0161 -6.6319 -4.5301 10.1777
# 4 -0.5181 3.5498 -6.6319 34.6312 6.9325 4.7730
# 5 0.8925 -2.6848 -4.5301 6.9325 29.1004 0.3552
# 6 6.7087 21.2909 10.1777 4.7730 0.3552 20.9608
#
#
#
# Elastic Compliance Matrix: (Units=1/GPa)
#
#
# Indices 1 2 3 4 5 6 
#
# 1 0.012235 -0.003368 -0.001978 0.000307 -0.001072 0.000413
# 2 -0.003368 0.021116 -0.003441 -0.000696 0.001908 -0.018574
# 3 -0.001978 -0.003441 0.008032 0.001772 0.000574 -0.000185
# 4 0.000307 -0.000696 0.001772 0.031762 -0.007274 -0.007361
# 5 -0.001072 0.001908 0.000574 -0.007274 0.036405 -0.000834
# 6 0.000413 -0.018574 -0.000185 -0.007361 -0.000834 0.068222
#
#
# Mechanical properties :
#
#
# Convention : Reuss Voigt Hill
#
# Bulk Modulus (GPa) = 41.99855 58.38685 50.19270
# Shear Modulus (GPa) = 24.59635 31.78998 28.19316
#
# Velocity S-wave (km/s) = 3.33213 3.78819 3.56745
# Velocity P-wave (km/s) = 5.81057 6.74465 6.29496
#
# Compressibility (1/GPa) = 0.02381034
#
# Stress axis : x y z
#
# Youngs Moduli (GPa) = 81.73475 47.35649 124.49859
#
# Poissons Ratio (x) = 0.15948 0.24621
# Poissons Ratio (y) = 0.27526 0.42843
# Poissons Ratio (z) = 0.16164 0.16296
#
# Static dielectric constant tensor:
#      x y z
#    x 3.824280 0.233130 -0.069930 
#    y 0.233130 4.031790 -0.191600 
#    z -0.069930 -0.191600 4.459640 
# 
# 
# High freq. dielectric constant tensor:
#      x y z
#    x 1.828350 0.029510 0.001020 
#    y 0.029510 1.861890 -0.003630 
#    z 0.001020 -0.003630 1.895410 
# 
# From -- ./inp_files/410603.got.cif
#   From: 2010.06.25/outbox.cif.g09.slc.cpg/sg2_206_cif.got.tgz:410603.got - 2010.06.27 13:26:56.
