data_PCOD8029307
_publ_section_title
;
Structure prediction by ZEFSAII (Michael W. Deem and Ramdas Pophale) SiO2 
 PCOD8029307
Probable space group: P -1
;
_chemical_formula_sum "Si O2"
_cell_formula_units_Z 16
_cell_length_a 12.839963
_cell_length_b 15.438690
_cell_length_c 15.310827
_cell_angle_alpha 28.049385
_cell_angle_beta 142.726169
_cell_angle_gamma 123.051997
_cell_volume 721.369593
_symmetry_space_group_name_H-M "P -1"
_symmetry_group_IT_number 2
_symmetry_cell_setting 'triclinic'
loop_
_space_group_symop_operation_xyz
x,y,z
-x,-y,-z
loop_
_atom_site_type_symbol
_atom_site_label
_atom_site_fract_x
_atom_site_fract_y
_atom_site_fract_z
Si Si1 0.747869 0.620356 0.326405
Si Si2 0.233441 0.888131 0.281270
Si Si3 0.421116 0.628075 0.478061
Si Si4 0.198396 0.298542 0.892803
Si Si5 0.928098 0.089224 0.148864
Si Si6 0.725358 0.357510 0.311345
Si Si7 0.127832 0.516190 0.150219
Si Si8 0.742626 0.841393 0.296708
O O1 0.589702 0.569700 0.310003
O O2 0.672538 0.754945 0.064778
O O3 0.796228 0.748852 0.315961
O O4 0.955797 0.396169 0.631389
O O5 0.370642 0.807826 0.357337
O O6 0.300201 0.680160 0.571252
O O7 0.279457 0.061382 0.202509
O O8 0.000000 0.000000 0.000000
O O9 0.649704 0.534875 0.681444
O O10 0.251781 0.741603 0.187824
O O11 0.200689 0.475574 0.798808
O O12 0.838311 0.987720 0.244617
O O13 0.997259 0.231856 0.120978
O O14 0.129404 0.882212 0.421916
O O15 0.500000 0.500000 0.000000
O O16 0.157150 0.349564 0.394246
O O17 0.000000 0.500000 0.000000
O O18 0.500000 0.000000 0.000000
#
# Coordination Sequence:
#
# PCOD8029307 Si02
#       8
#     2   2   2   2   2   2   2   2
#     4  11  20  39  72 104 136 176 236 295 336 411
#     4  12  22  41  73 103 140 181 228 294 351 415
#     4  12  22  44  76 107 138 186 244 291 344 423
#     4  11  22  40  67 104 141 179 228 284 353 418
#     4  12  24  47  77 100 140 188 244 292 346 433
#     4  12  27  44  67 108 146 184 230 289 364 428
#     4  12  30  49  70 106 146 187 240 300 361 416
#     4  12  24  43  75 105 136 188 242 292 350 415
#
# _framework density 22.180029999999999
#
# number of rings (size 3 to 8) (size 9 to 14) (size 15 to 20)
#    0.000    0.250    7.500    2.625    0.000    3.000 
#    0.000    0.000    0.000    0.000    0.000    0.000 
#    0.000    0.000    0.000    0.000    0.000    0.000 
#
# Total GULP energy -198249.039936 kJ/mol
# GULP energy per Si atom -12390.564996 kJ/mol
# Density = 2.212955 g / cm^3
# Si number density = 22.180030 Si / 1000 Ang^3
#
#
#
# Elastic Constant Matrix: (Units=GPa)
#
#
# Indices 1 2 3 4 5 6 
#
# 1 89.3517 26.3024 24.3851 -1.0323 2.1755 5.8147
# 2 26.3024 141.8175 52.6305 -21.4150 -4.7795 0.6263
# 3 24.3851 52.6305 88.1926 1.4523 -2.0625 2.5560
# 4 -1.0323 -21.4150 1.4523 40.3025 5.8138 -2.8146
# 5 2.1755 -4.7795 -2.0625 5.8138 25.8125 -12.5779
# 6 5.8147 0.6263 2.5560 -2.8146 -12.5779 35.6352
#
#
#
# Elastic Compliance Matrix: (Units=1/GPa)
#
#
# Indices 1 2 3 4 5 6 
#
# 1 0.012589 -0.001489 -0.002575 -0.000157 -0.002912 -0.002884
# 2 -0.001489 0.010396 -0.005901 0.005654 0.000916 0.001253
# 3 -0.002575 -0.005901 0.015677 -0.003949 0.000992 -0.000562
# 4 -0.000157 0.005654 -0.003949 0.028782 -0.005469 0.000552
# 5 -0.002912 0.000916 0.000992 -0.005469 0.048847 0.017197
# 6 -0.002884 0.001253 -0.000562 0.000552 0.017197 0.034665
#
#
# Mechanical properties :
#
#
# Convention : Reuss Voigt Hill
#
# Bulk Modulus (GPa) = 53.37692 58.44420 55.91056
# Shear Modulus (GPa) = 28.22814 34.75297 31.49055
#
# Velocity S-wave (km/s) = 3.57134 3.96265 3.77207
# Velocity P-wave (km/s) = 6.41276 6.88069 6.65084
#
# Compressibility (1/GPa) = 0.01873469
#
# Stress axis : x y z
#
# Youngs Moduli (GPa) = 79.43261 96.18792 63.78973
#
# Poissons Ratio (x) = 0.14318 0.16423
# Poissons Ratio (y) = 0.11824 0.37640
# Poissons Ratio (z) = 0.20450 0.56757
#
# Static dielectric constant tensor:
#      x y z
#    x 4.013270 -0.129050 -0.020210 
#    y -0.129050 3.810770 -0.336100 
#    z -0.020210 -0.336100 3.827880 
# 
# 
# High freq. dielectric constant tensor:
#      x y z
#    x 1.886290 0.008770 -0.003250 
#    y 0.008770 1.873400 -0.036320 
#    z -0.003250 -0.036320 1.853180 
# 
# From -- ./inp_files/522209.got.cif
#   From: 2010.06.25/outbox.cif.g09.slc.cpg/sg2_262_cif.got.tgz:522209.got - 2010.06.27 13:26:56.
