data_PCOD8029207
_publ_section_title
;
Structure prediction by ZEFSAII (Michael W. Deem and Ramdas Pophale) SiO2 
 PCOD8029207
Probable space group: P -1
;
_chemical_formula_sum "Si O2"
_cell_formula_units_Z 16
_cell_length_a 15.915224
_cell_length_b 18.972930
_cell_length_c 12.240791
_cell_angle_alpha 152.842313
_cell_angle_beta 47.923922
_cell_angle_gamma 147.964406
_cell_volume 839.133703
_symmetry_space_group_name_H-M "P -1"
_symmetry_group_IT_number 2
_symmetry_cell_setting 'triclinic'
loop_
_space_group_symop_operation_xyz
x,y,z
-x,-y,-z
loop_
_atom_site_type_symbol
_atom_site_label
_atom_site_fract_x
_atom_site_fract_y
_atom_site_fract_z
Si Si1 0.034026 0.954061 0.791980
Si Si2 0.091265 0.365874 0.033685
Si Si3 0.372913 0.507536 0.833831
Si Si4 0.731772 0.381431 0.546122
Si Si5 0.406629 0.439279 0.109260
Si Si6 0.195099 0.113131 0.278498
Si Si7 0.025869 0.640553 0.475460
Si Si8 0.349110 0.022440 0.865932
O O1 0.995556 0.732105 0.530803
O O2 0.911723 0.898806 0.732051
O O3 0.225992 0.174264 0.893060
O O4 0.000000 0.000000 0.000000
O O5 0.177459 0.464976 0.212916
O O6 0.044854 0.489254 0.199597
O O7 0.212136 0.407454 0.899718
O O8 0.924327 0.093435 0.814867
O O9 0.487733 0.515672 0.819674
O O10 0.315652 0.352329 0.565862
O O11 0.482194 0.763866 0.051872
O O12 0.610750 0.394409 0.626482
O O13 0.872130 0.481242 0.473636
O O14 0.621458 0.117496 0.301703
O O15 0.500000 0.500000 0.000000
O O16 0.314629 0.110474 0.112130
O O17 0.192444 0.862213 0.699445
#
# Coordination Sequence:
#
# PCOD8029207 Si02
#       8
#     2   2   2   2   2   2   2   2
#     4  12  20  37  65  90 113 157 214 244 280 356
#     4  11  21  40  62  89 118 164 201 243 302 358
#     4  12  26  38  59  95 131 155 191 251 315 360
#     4  11  20  38  67  88 119 154 211 255 289 351
#     4  12  22  39  59  94 123 152 199 253 300 348
#     4  12  22  42  61  88 127 164 199 239 302 374
#     4  11  20  37  68  90 114 154 217 255 281 350
#     4  11  21  38  61  92 119 159 197 253 305 345
#
# _framework density 19.067284000000001
#
# number of rings (size 3 to 8) (size 9 to 14) (size 15 to 20)
#    0.000    0.500    8.750    1.500    0.000    3.000 
#    0.000    2.500    0.000    0.000    0.000    0.000 
#    0.000    0.000    0.000    0.000    0.000    0.000 
#
# Total GULP energy -198470.669911 kJ/mol
# GULP energy per Si atom -12404.416869 kJ/mol
# Density = 1.902389 g / cm^3
# Si number density = 19.067284 Si / 1000 Ang^3
#
#
#
# Elastic Constant Matrix: (Units=GPa)
#
#
# Indices 1 2 3 4 5 6 
#
# 1 1270.8373 334.8718 -349.7337 -238.4345 -332.8028 671.4366
# 2 334.8718 165.9142 -100.2580 -54.4433 -88.6228 181.0029
# 3 -349.7337 -100.2580 212.3157 91.9823 92.8536 -234.2658
# 4 -238.4345 -54.4433 91.9823 78.7786 62.5046 -154.1169
# 5 -332.8028 -88.6228 92.8536 62.5046 122.7633 -178.5090
# 6 671.4366 181.0029 -234.2658 -154.1169 -178.5090 412.9447
#
#
#
# Elastic Compliance Matrix: (Units=1/GPa)
#
#
# Indices 1 2 3 4 5 6 
#
# 1 0.008279 -0.002848 -0.002403 -0.001199 0.006526 -0.011202
# 2 -0.002848 0.013953 0.001112 -0.007199 0.000073 -0.003510
# 3 -0.002403 0.001112 0.013661 -0.002171 0.000336 0.010504
# 4 -0.001199 -0.007199 -0.002171 0.052941 0.001622 0.024333
# 5 0.006526 0.000073 0.000336 0.001622 0.028247 0.002364
# 6 -0.011202 -0.003510 0.010504 0.024333 0.002364 0.038237
#
#
# Mechanical properties :
#
#
# Convention : Reuss Voigt Hill
#
# Bulk Modulus (GPa) = 36.21145 157.64749 96.92947
# Shear Modulus (GPa) = 28.93548 240.50980 134.72264
#
# Velocity S-wave (km/s) = 3.89980 11.24328 8.41486
# Velocity P-wave (km/s) = 6.26981 15.85583 12.05649
#
# Compressibility (1/GPa) = 0.02761557
#
# Stress axis : x y z
#
# Youngs Moduli (GPa) = 120.79352 71.67142 73.19932
#
# Poissons Ratio (x) = 0.20411 0.17588
# Poissons Ratio (y) = 0.34400 -0.08140
# Poissons Ratio (z) = 0.29023 -0.07970
#
# Static dielectric constant tensor:
#      x y z
#    x 3.189070 -0.107640 -0.326780 
#    y -0.107640 3.592340 0.100340 
#    z -0.326780 0.100340 3.536290 
# 
# 
# High freq. dielectric constant tensor:
#      x y z
#    x 1.738000 -0.002440 -0.029160 
#    y -0.002440 1.755150 0.006280 
#    z -0.029160 0.006280 1.730650 
# 
# From -- ./inp_files/225984.got.cif
#   From: 2010.06.25/outbox.cif.g09.slc.cpg/sg2_113_cif.got.tgz:225984.got - 2010.06.27 13:26:56.
