data_PCOD8029581
_publ_section_title
;
Structure prediction by ZEFSAII (Michael W. Deem and Ramdas Pophale) SiO2 
 PCOD8029581
Probable space group: P -1
;
_chemical_formula_sum "Si O2"
_cell_formula_units_Z 16
_cell_length_a 15.940905
_cell_length_b 9.789286
_cell_length_c 5.307370
_cell_angle_alpha 83.113678
_cell_angle_beta 72.947389
_cell_angle_gamma 105.189863
_cell_volume 746.566123
_symmetry_space_group_name_H-M "P -1"
_symmetry_group_IT_number 2
_symmetry_cell_setting 'triclinic'
loop_
_space_group_symop_operation_xyz
x,y,z
-x,-y,-z
loop_
_atom_site_type_symbol
_atom_site_label
_atom_site_fract_x
_atom_site_fract_y
_atom_site_fract_z
Si Si1 0.537706 0.405895 0.300392
Si Si2 0.283469 0.802416 0.255277
Si Si3 0.657951 0.908815 0.068650
Si Si4 0.716333 0.515952 0.828056
Si Si5 0.461258 0.867714 0.379115
Si Si6 0.899578 0.536154 0.874185
Si Si7 0.096799 0.636050 0.593896
Si Si8 0.340904 0.251628 0.381524
O O1 0.500000 0.500000 0.500000
O O2 0.576946 0.287915 0.420801
O O3 0.451059 0.323696 0.219813
O O4 0.625010 0.514846 0.061188
O O5 0.291740 0.646626 0.208451
O O6 0.373136 0.890186 0.316429
O O7 0.186893 0.778780 0.497047
O O8 0.290608 0.915934 0.994576
O O9 0.547547 0.870215 0.125727
O O10 0.679174 0.838343 0.322469
O O11 0.699071 0.849630 0.802663
O O12 0.810702 0.587742 0.887132
O O13 0.712156 0.625580 0.580396
O O14 0.500000 0.000000 0.500000
O O15 0.902675 0.419706 0.681844
O O16 0.998822 0.664411 0.730789
O O17 0.890467 0.475417 0.179991
#
# Coordination Sequence:
#
# PCOD8029581 Si02
#       8
#     2   2   2   2   2   2   2   2
#     4  11  21  35  56  85 119 154 196 240 287 343
#     4  11  21  36  62  88 114 154 206 245 285 347
#     4  11  24  40  55  79 120 159 189 232 292 347
#     4  11  21  36  62  88 114 154 206 245 285 347
#     4  11  21  35  56  85 119 154 196 240 287 343
#     4   9  19  35  57  88 120 146 184 246 304 341
#     4   9  19  35  57  88 120 146 184 246 304 341
#     4  11  24  40  55  79 120 159 189 232 292 347
#
# _framework density 21.431457000000002
#
# number of rings (size 3 to 8) (size 9 to 14) (size 15 to 20)
#    0.000    1.500    0.000    6.750    0.000    6.000 
#    0.000    0.000    0.000    1.500    0.000    0.000 
#    0.000    1.000    0.000    0.000    0.000    0.250 
#
# Total GULP energy -198212.880558 kJ/mol
# GULP energy per Si atom -12388.305035 kJ/mol
# Density = 2.138268 g / cm^3
# Si number density = 21.431457 Si / 1000 Ang^3
#
#
#
# Elastic Constant Matrix: (Units=GPa)
#
#
# Indices 1 2 3 4 5 6 
#
# 1 126.0876 45.3050 66.2184 -33.4709 2.4274 -3.3841
# 2 45.3050 103.8807 48.7380 -12.2152 5.7461 -11.7822
# 3 66.2184 48.7380 109.3562 -16.1886 4.5616 2.3245
# 4 -33.4709 -12.2152 -16.1886 37.0844 7.9445 4.3394
# 5 2.4274 5.7461 4.5616 7.9445 21.6972 -1.2413
# 6 -3.3841 -11.7822 2.3245 4.3394 -1.2413 18.4399
#
#
#
# Elastic Compliance Matrix: (Units=1/GPa)
#
#
# Indices 1 2 3 4 5 6 
#
# 1 0.014987 -0.002144 -0.006324 0.010958 -0.003829 -0.000658
# 2 -0.002144 0.014084 -0.005132 -0.000224 -0.001804 0.009184
# 3 -0.006324 -0.005132 0.015559 0.000555 -0.001788 -0.006652
# 4 0.010958 -0.000224 0.000555 0.041762 -0.017100 -0.009181
# 5 -0.003829 -0.001804 -0.001788 -0.017100 0.053977 0.006028
# 6 -0.000658 0.009184 -0.006652 -0.009181 0.006028 0.063383
#
#
# Mechanical properties :
#
#
# Convention : Reuss Voigt Hill
#
# Bulk Modulus (GPa) = 57.36860 73.31634 65.34247
# Shear Modulus (GPa) = 21.11824 27.38184 24.25004
#
# Velocity S-wave (km/s) = 3.14249 3.57830 3.36745
# Velocity P-wave (km/s) = 6.32404 7.16633 6.75832
#
# Compressibility (1/GPa) = 0.01743114
#
# Stress axis : x y z
#
# Youngs Moduli (GPa) = 66.72316 71.00111 64.26990
#
# Poissons Ratio (x) = 0.15220 0.40644
# Poissons Ratio (y) = 0.14303 0.32985
# Poissons Ratio (z) = 0.42196 0.36439
#
# Static dielectric constant tensor:
#      x y z
#    x 4.563230 -0.078300 -0.151060 
#    y -0.078300 4.275140 -0.411910 
#    z -0.151060 -0.411910 4.030030 
# 
# 
# High freq. dielectric constant tensor:
#      x y z
#    x 1.836260 0.000620 0.007560 
#    y 0.000620 1.813600 -0.010930 
#    z 0.007560 -0.010930 1.845380 
# 
# From -- ./inp_files/90046.got.cif
#   From: 2010.06.25/outbox.cif.g09.slc.cpg/sg2_46_cif.got.tgz:90046.got - 2010.06.27 13:26:56.
