data_PCOD8029837
_publ_section_title
;
Structure prediction by ZEFSAII (Michael W. Deem and Ramdas Pophale) SiO2 
 PCOD8029837
Probable space group: P -1
;
_chemical_formula_sum "Si O2"
_cell_formula_units_Z 16
_cell_length_a 6.753266
_cell_length_b 11.089898
_cell_length_c 24.103880
_cell_angle_alpha 150.461282
_cell_angle_beta 122.619455
_cell_angle_gamma 60.244566
_cell_volume 747.989384
_symmetry_space_group_name_H-M "P -1"
_symmetry_group_IT_number 2
_symmetry_cell_setting 'triclinic'
loop_
_space_group_symop_operation_xyz
x,y,z
-x,-y,-z
loop_
_atom_site_type_symbol
_atom_site_label
_atom_site_fract_x
_atom_site_fract_y
_atom_site_fract_z
Si Si1 0.800484 0.379612 0.843562
Si Si2 0.694467 0.580635 0.021994
Si Si3 0.215180 0.835147 0.444513
Si Si4 0.117129 0.536921 0.590578
Si Si5 0.064080 0.338107 0.271079
Si Si6 0.529668 0.258294 0.134749
Si Si7 0.708941 0.998946 0.595142
Si Si8 0.505479 0.876267 0.802148
O O1 0.639282 0.540260 0.840843
O O2 0.816102 0.103357 0.710260
O O3 0.063844 0.462640 0.924420
O O4 0.686990 0.401043 0.895976
O O5 0.635332 0.860417 0.106305
O O6 0.500000 0.500000 0.000000
O O7 0.196313 0.566201 0.358525
O O8 0.237164 0.818577 0.374233
O O9 0.435504 0.973645 0.556300
O O10 0.000000 0.000000 0.500000
O O11 0.335582 0.697173 0.673635
O O12 0.000000 0.500000 0.500000
O O13 0.952569 0.662206 0.664419
O O14 0.187449 0.266211 0.515280
O O15 0.246833 0.109829 0.188637
O O16 0.804301 0.322495 0.199244
O O17 0.440334 0.244388 0.178303
O O18 0.500000 0.000000 0.000000
#
# Coordination Sequence:
#
# PCOD8029837 Si02
#       8
#     2   2   2   2   2   2   2   2
#     4  11  25  46  67  98 135 176 220 279 333 401
#     4  11  27  46  69  95 134 180 226 274 337 407
#     4  11  21  40  66 101 134 169 215 270 340 390
#     4  11  24  43  65  98 135 181 219 268 332 397
#     4  11  24  41  70 101 136 175 222 283 332 400
#     4  11  24  44  72 100 133 174 227 285 340 387
#     4  11  23  40  68  96 137 170 214 274 328 395
#     4  11  24  46  69 101 134 174 228 279 336 399
#
# _framework density 21.390678000000001
#
# number of rings (size 3 to 8) (size 9 to 14) (size 15 to 20)
#    0.000    1.000    3.750    2.250    5.250    6.000 
#    2.250    0.000    0.000    0.000    0.000    0.000 
#    0.000    0.000    0.000    0.000    0.000    0.000 
#
# Total GULP energy -198349.880178 kJ/mol
# GULP energy per Si atom -12396.867511 kJ/mol
# Density = 2.134199 g / cm^3
# Si number density = 21.390678 Si / 1000 Ang^3
#
#
#
# Elastic Constant Matrix: (Units=GPa)
#
#
# Indices 1 2 3 4 5 6 
#
# 1 154.4664 42.5857 44.2403 -21.8615 -9.0279 -2.5114
# 2 42.5857 63.8088 14.7034 -25.9190 5.4352 -3.8377
# 3 44.2403 14.7034 114.0508 -25.9906 -8.5349 4.0431
# 4 -21.8615 -25.9190 -25.9906 39.6380 0.5469 0.3389
# 5 -9.0279 5.4352 -8.5349 0.5469 24.5765 9.9910
# 6 -2.5114 -3.8377 4.0431 0.3389 9.9910 26.9726
#
#
#
# Elastic Compliance Matrix: (Units=1/GPa)
#
#
# Indices 1 2 3 4 5 6 
#
# 1 0.009028 -0.006209 -0.002507 -0.000774 0.004352 -0.001269
# 2 -0.006209 0.027044 0.001324 0.015219 -0.010962 0.006940
# 3 -0.002507 0.001324 0.011600 0.007062 0.004025 -0.003363
# 4 -0.000774 0.015219 0.007062 0.039408 -0.002701 0.001540
# 5 0.004352 -0.010962 0.004025 -0.002701 0.055180 -0.022163
# 6 -0.001269 0.006940 -0.003363 0.001540 -0.022163 0.046638
#
#
# Mechanical properties :
#
#
# Convention : Reuss Voigt Hill
#
# Bulk Modulus (GPa) = 30.40723 59.48719 44.94721
# Shear Modulus (GPa) = 23.29438 33.62386 28.45912
#
# Velocity S-wave (km/s) = 3.30358 3.96901 3.65148
# Velocity P-wave (km/s) = 5.36633 6.99102 6.23185
#
# Compressibility (1/GPa) = 0.03288692
#
# Stress axis : x y z
#
# Youngs Moduli (GPa) = 110.76766 36.97708 86.20968
#
# Poissons Ratio (x) = 0.22959 0.21614
# Poissons Ratio (y) = 0.68774 -0.11413
# Poissons Ratio (z) = 0.27771 -0.04895
#
# Static dielectric constant tensor:
#      x y z
#    x 3.938840 -0.271930 -0.246960 
#    y -0.271930 4.486020 0.590890 
#    z -0.246960 0.590890 4.524880 
# 
# 
# High freq. dielectric constant tensor:
#      x y z
#    x 1.845880 -0.006880 -0.009090 
#    y -0.006880 1.836720 0.002370 
#    z -0.009090 0.002370 1.852550 
# 
# From -- ./inp_files/78546.got.cif
#   From: 2010.06.25/outbox.cif.g09.slc.cpg/sg2_40_cif.got.tgz:78546.got - 2010.06.27 13:26:56.
