data_PCOD8029029
_publ_section_title
;
Structure prediction by ZEFSAII (Michael W. Deem and Ramdas Pophale) SiO2 
 PCOD8029029
Probable space group: P -1
;
_chemical_formula_sum "Si O2"
_cell_formula_units_Z 16
_cell_length_a 15.340886
_cell_length_b 24.055278
_cell_length_c 9.397574
_cell_angle_alpha 152.012848
_cell_angle_beta 50.117208
_cell_angle_gamma 148.781716
_cell_volume 745.169914
_symmetry_space_group_name_H-M "P -1"
_symmetry_group_IT_number 2
_symmetry_cell_setting 'triclinic'
loop_
_space_group_symop_operation_xyz
x,y,z
-x,-y,-z
loop_
_atom_site_type_symbol
_atom_site_label
_atom_site_fract_x
_atom_site_fract_y
_atom_site_fract_z
Si Si1 0.079031 0.790807 0.753130
Si Si2 0.085514 0.095915 0.779289
Si Si3 0.523321 0.195105 0.778569
Si Si4 0.088468 0.173120 0.402206
Si Si5 0.465792 0.018219 0.919542
Si Si6 0.122369 0.787591 0.384093
Si Si7 0.493916 0.566869 0.801462
Si Si8 0.228761 0.633895 0.816384
O O1 0.284794 0.953714 0.979430
O O2 0.101347 0.742720 0.471036
O O3 0.925113 0.596558 0.575806
O O4 0.011223 0.867698 0.973123
O O5 0.315399 0.293994 0.990190
O O6 0.000000 0.000000 0.500000
O O7 0.014330 0.926732 0.565224
O O8 0.568454 0.118755 0.462572
O O9 0.316885 0.018508 0.667068
O O10 0.539790 0.323746 0.952666
O O11 0.665309 0.314645 0.033206
O O12 0.317158 0.360258 0.604419
O O13 0.051847 0.274923 0.616927
O O14 0.000000 0.000000 0.000000
O O15 0.500000 0.000000 0.000000
O O16 0.636458 0.240979 0.180019
O O17 0.112434 0.657833 0.014302
O O18 0.500000 0.500000 0.500000
#
# Coordination Sequence:
#
# PCOD8029029 Si02
#       8
#     2   2   2   2   2   2   2   2
#     4  12  24  42  71  95 131 176 219 271 334 399
#     4  12  29  47  65 101 143 178 224 281 338 399
#     4  11  21  41  70 100 131 165 223 282 324 389
#     4  12  23  42  71  99 130 182 227 277 331 397
#     4  11  26  43  63  97 138 176 208 266 340 399
#     4  11  19  39  70 102 130 164 224 285 327 385
#     4  12  24  43  72 100 131 178 234 280 330 395
#     4  11  23  41  68 103 128 164 223 280 325 388
#
# _framework density 21.471612
#
# number of rings (size 3 to 8) (size 9 to 14) (size 15 to 20)
#    0.000    0.500    6.250    2.625    3.500    2.000 
#    2.250    0.000    0.000    0.000    0.000    0.000 
#    0.000    0.000    0.000    0.000    0.000    0.000 
#
# Total GULP energy -198398.414006 kJ/mol
# GULP energy per Si atom -12399.900875 kJ/mol
# Density = 2.142274 g / cm^3
# Si number density = 21.471612 Si / 1000 Ang^3
#
#
#
# Elastic Constant Matrix: (Units=GPa)
#
#
# Indices 1 2 3 4 5 6 
#
# 1 117.9559 44.4520 23.0201 7.7473 10.4032 8.9605
# 2 44.4520 119.9971 39.0976 29.9239 16.1344 3.0454
# 3 23.0201 39.0976 54.2765 18.1722 4.5679 1.5872
# 4 7.7473 29.9239 18.1722 32.9302 0.5525 -0.0735
# 5 10.4032 16.1344 4.5679 0.5525 38.2643 -3.0886
# 6 8.9605 3.0454 1.5872 -0.0735 -3.0886 43.0609
#
#
#
# Elastic Compliance Matrix: (Units=1/GPa)
#
#
# Indices 1 2 3 4 5 6 
#
# 1 0.010334 -0.003269 -0.002512 0.001943 -0.001314 -0.001918
# 2 -0.003269 0.014154 -0.005405 -0.009039 -0.004340 -0.000448
# 3 -0.002512 -0.005405 0.026433 -0.009083 -0.000070 -0.000090
# 4 0.001943 -0.009039 -0.009083 0.043074 0.003819 0.000917
# 5 -0.001314 -0.004340 -0.000070 0.003819 0.028487 0.002633
# 6 -0.001918 -0.000448 -0.000090 0.000917 0.002633 0.023847
#
#
# Mechanical properties :
#
#
# Convention : Reuss Voigt Hill
#
# Bulk Modulus (GPa) = 35.02766 56.15211 45.58989
# Shear Modulus (GPa) = 28.05565 35.22842 31.64203
#
# Velocity S-wave (km/s) = 3.61867 4.05495 3.84300
# Velocity P-wave (km/s) = 5.81451 6.93772 6.40080
#
# Compressibility (1/GPa) = 0.02854887
#
# Stress axis : x y z
#
# Youngs Moduli (GPa) = 96.76988 70.64929 37.83203
#
# Poissons Ratio (x) = 0.23094 0.09504
# Poissons Ratio (y) = 0.31632 0.20448
# Poissons Ratio (z) = 0.24310 0.38186
#
# Static dielectric constant tensor:
#      x y z
#    x 4.008650 0.491040 -0.097960 
#    y 0.491040 4.037430 0.216920 
#    z -0.097960 0.216920 3.794610 
# 
# 
# High freq. dielectric constant tensor:
#      x y z
#    x 1.850410 0.009980 -0.015110 
#    y 0.009980 1.855980 0.016780 
#    z -0.015110 0.016780 1.819640 
# 
# From -- ./inp_files/245952.got.cif
#   From: 2010.06.25/outbox.cif.g09.slc.cpg/sg2_123_cif.got.tgz:245952.got - 2010.06.27 13:26:56.
