data_PCOD8029272
_publ_section_title
;
Structure prediction by ZEFSAII (Michael W. Deem and Ramdas Pophale) SiO2 
 PCOD8029272
Probable space group: P -1
;
_chemical_formula_sum "Si O2"
_cell_formula_units_Z 16
_cell_length_a 9.586490
_cell_length_b 16.877679
_cell_length_c 19.877741
_cell_angle_alpha 160.419652
_cell_angle_beta 39.069517
_cell_angle_gamma 139.117006
_cell_volume 674.708008
_symmetry_space_group_name_H-M "P -1"
_symmetry_group_IT_number 2
_symmetry_cell_setting 'triclinic'
loop_
_space_group_symop_operation_xyz
x,y,z
-x,-y,-z
loop_
_atom_site_type_symbol
_atom_site_label
_atom_site_fract_x
_atom_site_fract_y
_atom_site_fract_z
Si Si1 0.756800 0.825307 0.096244
Si Si2 0.661696 0.421503 0.276833
Si Si3 0.420254 0.036062 0.484637
Si Si4 0.536229 0.156072 0.987223
Si Si5 0.636262 0.432384 0.047429
Si Si6 0.901564 0.396636 0.787389
Si Si7 0.297985 0.682046 0.674090
Si Si8 0.037612 0.246528 0.252898
O O1 0.610062 0.995600 0.328085
O O2 0.952137 0.013389 0.142579
O O3 0.605347 0.674760 0.976890
O O4 0.846865 0.636646 0.962065
O O5 0.636998 0.192133 0.053463
O O6 0.408700 0.482646 0.431047
O O7 0.782527 0.389210 0.277442
O O8 0.831908 0.615006 0.327569
O O9 0.208064 0.844051 0.397919
O O10 0.500000 0.000000 0.500000
O O11 0.360336 0.301942 0.713452
O O12 0.694579 0.283531 0.972199
O O13 0.297492 0.253935 0.148844
O O14 0.511871 0.877610 0.759056
O O15 0.827950 0.415013 0.906819
O O16 0.091789 0.775453 0.788010
O O17 0.000000 0.500000 0.500000
#
# Coordination Sequence:
#
# PCOD8029272 Si02
#       8
#     2   2   2   2   2   2   2   2
#     4  11  22  40  66 101 137 168 223 284 330 394
#     4  11  27  46  66  97 140 179 225 273 338 411
#     4  11  20  39  65 101 135 172 223 282 331 391
#     4  12  25  45  72  98 135 179 225 278 340 399
#     4  11  23  41  67 100 134 169 226 281 331 391
#     4  11  24  42  66 100 138 179 221 273 339 398
#     4  11  25  48  67  97 138 177 226 281 333 401
#     4  12  24  43  73 104 133 174 226 283 338 389
#
# _framework density 23.713961000000001
#
# number of rings (size 3 to 8) (size 9 to 14) (size 15 to 20)
#    0.000    0.750    5.000    3.000    1.750    2.500 
#    0.000    1.250    0.000    0.000    0.000    0.000 
#    0.000    0.000    0.000    0.000    0.000    0.000 
#
# Total GULP energy -198347.058371 kJ/mol
# GULP energy per Si atom -12396.691148 kJ/mol
# Density = 2.365999 g / cm^3
# Si number density = 23.713961 Si / 1000 Ang^3
#
#
#
# Elastic Constant Matrix: (Units=GPa)
#
#
# Indices 1 2 3 4 5 6 
#
# 1 62.9610 32.0374 10.3643 -18.3744 25.8236 -8.7099
# 2 32.0374 125.1088 29.3011 3.3249 10.0764 -21.6985
# 3 10.3643 29.3011 87.6029 17.3879 28.1201 -10.9242
# 4 -18.3744 3.3249 17.3879 30.0438 3.6415 3.7014
# 5 25.8236 10.0764 28.1201 3.6415 35.2397 -2.1404
# 6 -8.7099 -21.6985 -10.9242 3.7014 -2.1404 32.7211
#
#
#
# Elastic Compliance Matrix: (Units=1/GPa)
#
#
# Indices 1 2 3 4 5 6 
#
# 1 0.043265 -0.009790 0.003480 0.029669 -0.034714 0.000560
# 2 -0.009790 0.011757 -0.003026 -0.007094 0.007291 0.005460
# 3 0.003480 -0.003026 0.019244 -0.007372 -0.015968 0.005134
# 4 0.029669 -0.007094 -0.007372 0.059871 -0.020465 -0.007379
# 5 -0.034714 0.007291 -0.015968 -0.020465 0.066400 -0.003078
# 6 0.000560 0.005460 0.005134 -0.007379 -0.003078 0.036678
#
#
# Mechanical properties :
#
#
# Convention : Reuss Voigt Hill
#
# Bulk Modulus (GPa) = 17.98724 46.56427 32.27575
# Shear Modulus (GPa) = 18.22029 33.19891 25.70960
#
# Velocity S-wave (km/s) = 2.77489 3.74568 3.29622
# Velocity P-wave (km/s) = 4.22709 6.19558 5.30347
#
# Compressibility (1/GPa) = 0.05559498
#
# Stress axis : x y z
#
# Youngs Moduli (GPa) = 23.11316 85.05722 51.96295
#
# Poissons Ratio (x) = 0.83269 -0.18081
# Poissons Ratio (y) = 0.22627 0.15723
# Poissons Ratio (z) = -0.08043 0.25737
#
# Static dielectric constant tensor:
#      x y z
#    x 4.253980 -0.053910 0.353990 
#    y -0.053910 4.398110 0.212250 
#    z 0.353990 0.212250 4.909220 
# 
# 
# High freq. dielectric constant tensor:
#      x y z
#    x 1.934800 -0.009610 0.022520 
#    y -0.009610 1.950630 -0.001070 
#    z 0.022520 -0.001070 1.946760 
# 
# From -- ./inp_files/591249.got.cif
#   From: 2010.06.25/outbox.cif.g09.slc.cpg/sg2_296_cif.got.tgz:591249.got - 2010.06.27 13:26:56.
