data_PCOD8029760
_publ_section_title
;
Structure prediction by ZEFSAII (Michael W. Deem and Ramdas Pophale) SiO2 
 PCOD8029760
Probable space group: P -1
;
_chemical_formula_sum "Si O2"
_cell_formula_units_Z 16
_cell_length_a 10.963088
_cell_length_b 11.244161
_cell_length_c 16.468548
_cell_angle_alpha 148.304701
_cell_angle_beta 51.879521
_cell_angle_gamma 138.360107
_cell_volume 707.705552
_symmetry_space_group_name_H-M "P -1"
_symmetry_group_IT_number 2
_symmetry_cell_setting 'triclinic'
loop_
_space_group_symop_operation_xyz
x,y,z
-x,-y,-z
loop_
_atom_site_type_symbol
_atom_site_label
_atom_site_fract_x
_atom_site_fract_y
_atom_site_fract_z
Si Si1 0.448472 0.774392 0.822100
Si Si2 0.677291 0.573515 0.677333
Si Si3 0.381071 0.956760 0.673485
Si Si4 0.851715 0.890984 0.068352
Si Si5 0.351782 0.834105 0.172468
Si Si6 0.530518 0.514677 0.875075
Si Si7 0.927858 0.557982 0.156824
Si Si8 0.001519 0.864449 0.158908
O O1 0.512790 0.573760 0.702221
O O2 0.227385 0.566850 0.781776
O O3 0.538758 0.899782 0.772129
O O4 0.500000 0.000000 0.000000
O O5 0.666913 0.298929 0.507485
O O6 0.669399 0.623498 0.805109
O O7 0.870200 0.815503 0.703000
O O8 0.201374 0.888616 0.761483
O O9 0.564312 0.067919 0.715564
O O10 0.410526 0.191111 0.735566
O O11 0.901191 0.787776 0.068357
O O12 0.660890 0.624241 0.964527
O O13 0.000000 0.000000 0.000000
O O14 0.135082 0.721723 0.202352
O O15 0.391893 0.619487 0.991079
O O16 0.885196 0.739369 0.217994
O O17 0.884958 0.284741 0.969272
#
# Coordination Sequence:
#
# PCOD8029760 Si02
#       8
#     2   2   2   2   2   2   2   2
#     4  12  22  40  70 102 129 177 228 280 329 397
#     4  12  24  43  65  98 142 178 215 277 354 392
#     4  11  27  43  64  98 141 180 212 280 345 399
#     4  11  23  42  68  98 125 177 228 274 324 399
#     4  11  22  45  71  98 133 173 234 278 329 395
#     4  11  22  44  68  96 132 177 226 272 331 407
#     4  11  22  38  71 103 124 172 232 285 318 392
#     4  11  21  39  65  98 134 163 226 275 332 388
#
# _framework density 22.608273000000001
#
# number of rings (size 3 to 8) (size 9 to 14) (size 15 to 20)
#    0.000    0.750    5.000    4.125    3.500    1.000 
#    0.000    0.625    0.000    0.000    0.000    0.000 
#    0.000    0.000    0.000    0.000    0.000    0.000 
#
# Total GULP energy -198275.856702 kJ/mol
# GULP energy per Si atom -12392.241044 kJ/mol
# Density = 2.255682 g / cm^3
# Si number density = 22.608273 Si / 1000 Ang^3
#
#
#
# Elastic Constant Matrix: (Units=GPa)
#
#
# Indices 1 2 3 4 5 6 
#
# 1 106.6397 49.4967 29.0188 4.3691 -5.4240 -2.3690
# 2 49.4967 129.6750 27.2431 13.0242 -3.1565 22.1728
# 3 29.0188 27.2431 94.5817 15.6911 -12.5735 -3.6403
# 4 4.3691 13.0242 15.6911 28.2759 -3.5854 -6.8379
# 5 -5.4240 -3.1565 -12.5735 -3.5854 24.0392 1.4734
# 6 -2.3690 22.1728 -3.6403 -6.8379 1.4734 32.9752
#
#
#
# Elastic Compliance Matrix: (Units=1/GPa)
#
#
# Indices 1 2 3 4 5 6 
#
# 1 0.012609 -0.005425 -0.002526 0.003265 0.000998 0.004907
# 2 -0.005425 0.012477 -0.001288 -0.006765 -0.000637 -0.010296
# 3 -0.002526 -0.001288 0.013390 -0.005579 0.005385 0.000765
# 4 0.003265 -0.006765 -0.005579 0.044641 0.002774 0.013300
# 5 0.000998 -0.000637 0.005385 0.002774 0.044991 -0.000340
# 6 0.004907 -0.010296 0.000765 0.013300 -0.000340 0.040459
#
#
# Mechanical properties :
#
#
# Convention : Reuss Voigt Hill
#
# Bulk Modulus (GPa) = 50.00666 60.26817 55.13741
# Shear Modulus (GPa) = 25.81158 32.06726 28.93942
#
# Velocity S-wave (km/s) = 3.38255 3.77023 3.58164
# Velocity P-wave (km/s) = 6.11738 6.75783 6.44557
#
# Compressibility (1/GPa) = 0.01999734
#
# Stress axis : x y z
#
# Youngs Moduli (GPa) = 79.31069 80.14602 74.68305
#
# Poissons Ratio (x) = 0.43477 0.18867
# Poissons Ratio (y) = 0.43024 0.09621
# Poissons Ratio (z) = 0.20036 0.10325
#
# Static dielectric constant tensor:
#      x y z
#    x 4.177600 -0.076880 -0.177180 
#    y -0.076880 4.452760 0.009740 
#    z -0.177180 0.009740 3.596460 
# 
# 
# High freq. dielectric constant tensor:
#      x y z
#    x 1.901630 -0.003110 -0.011140 
#    y -0.003110 1.912510 0.014840 
#    z -0.011140 0.014840 1.838080 
# 
# From -- ./inp_files/568984.got.cif
#   From: 2010.06.25/outbox.cif.g09.slc.cpg/sg2_285_cif.got.tgz:568984.got - 2010.06.27 13:26:56.
