data_PCOD8029986
_publ_section_title
;
Structure prediction by ZEFSAII (Michael W. Deem and Ramdas Pophale) SiO2 
 PCOD8029986
Probable space group: P -1
;
_chemical_formula_sum "Si O2"
_cell_formula_units_Z 12
_cell_length_a 10.031212
_cell_length_b 9.741111
_cell_length_c 12.928111
_cell_angle_alpha 82.438557
_cell_angle_beta 34.147713
_cell_angle_gamma 64.249721
_cell_volume 570.087977
_symmetry_space_group_name_H-M "P -1"
_symmetry_group_IT_number 2
_symmetry_cell_setting 'triclinic'
loop_
_space_group_symop_operation_xyz
x,y,z
-x,-y,-z
loop_
_atom_site_type_symbol
_atom_site_label
_atom_site_fract_x
_atom_site_fract_y
_atom_site_fract_z
Si Si1 0.094274 0.620769 0.554920
Si Si2 0.574635 0.736193 0.731603
Si Si3 0.983845 0.546180 0.851488
Si Si4 0.637724 0.951343 0.529083
Si Si5 0.522270 0.713720 0.297450
Si Si6 0.774069 0.345283 0.902111
O O1 0.282140 0.424862 0.419944
O O2 0.269429 0.702233 0.415184
O O3 0.800971 0.727127 0.666719
O O4 0.010141 0.636523 0.727543
O O5 0.457551 0.901414 0.718773
O O6 0.312981 0.756217 0.961998
O O7 0.904454 0.416110 0.886576
O O8 0.291466 0.439243 0.724754
O O9 0.730223 0.694547 0.072789
O O10 0.977881 0.787838 0.324266
O O11 0.500000 0.000000 0.500000
O O12 0.627407 0.104868 0.570875
O O13 0.500000 0.500000 0.000000
#
# Coordination Sequence:
#
# PCOD8029986 Si02
#       6
#     2   2   2   2   2   2
#     4  11  21  41  68  96 130 175 226 265 325 396
#     4  11  23  39  70  99 127 179 222 265 331 398
#     4  11  22  42  68  96 132 177 222 266 331 394
#     4  12  26  46  65 101 137 171 220 279 331 388
#     4  11  25  41  65  99 135 173 218 278 327 386
#     4  12  22  44  73  96 130 178 222 271 326 400
#
# _framework density 21.049384
#
# number of rings (size 3 to 8) (size 9 to 14) (size 15 to 20)
#    0.000    0.667    6.667    1.500    0.000    2.667 
#    0.000    1.667    0.000    0.000    0.000    0.000 
#    0.000    0.000    0.000    0.000    0.000    0.000 
#
# Total GULP energy -148869.946335 kJ/mol
# GULP energy per Si atom -12405.828861 kJ/mol
# Density = 2.100147 g / cm^3
# Si number density = 21.049384 Si / 1000 Ang^3
#
#
#
# Elastic Constant Matrix: (Units=GPa)
#
#
# Indices 1 2 3 4 5 6 
#
# 1 56.9015 7.9894 21.6069 2.8956 8.3418 6.0666
# 2 7.9894 70.6389 31.2662 -8.2518 2.8234 -9.4971
# 3 21.6069 31.2662 97.6214 1.6295 7.8015 -6.4122
# 4 2.8956 -8.2518 1.6295 43.7626 2.7901 12.8195
# 5 8.3418 2.8234 7.8015 2.7901 34.7361 -11.9847
# 6 6.0666 -9.4971 -6.4122 12.8195 -11.9847 26.9501
#
#
#
# Elastic Compliance Matrix: (Units=1/GPa)
#
#
# Indices 1 2 3 4 5 6 
#
# 1 0.021734 -0.001381 -0.004488 0.002245 -0.008118 -0.011125
# 2 -0.001381 0.017414 -0.005106 0.001994 0.001631 0.005010
# 3 -0.004488 -0.005106 0.013135 -0.002100 -0.000163 0.003263
# 4 0.002245 0.001994 -0.002100 0.028984 -0.008763 -0.017986
# 5 -0.008118 0.001631 -0.000163 -0.008763 0.039689 0.024182
# 6 -0.011125 0.005010 0.003263 -0.017986 0.024182 0.061461
#
#
# Mechanical properties :
#
#
# Convention : Reuss Voigt Hill
#
# Bulk Modulus (GPa) = 32.96708 38.54297 35.75503
# Shear Modulus (GPa) = 23.31248 32.04304 27.67776
#
# Velocity S-wave (km/s) = 3.33154 3.90587 3.63008
# Velocity P-wave (km/s) = 5.52220 6.22026 5.88159
#
# Compressibility (1/GPa) = 0.03033329
#
# Stress axis : x y z
#
# Youngs Moduli (GPa) = 46.01056 57.42492 76.13374
#
# Poissons Ratio (x) = 0.07929 0.34167
# Poissons Ratio (y) = 0.06353 0.38877
# Poissons Ratio (z) = 0.20648 0.29323
#
# Static dielectric constant tensor:
#      x y z
#    x 3.902750 0.032770 0.055690 
#    y 0.032770 3.680740 -0.134490 
#    z 0.055690 -0.134490 4.028500 
# 
# 
# High freq. dielectric constant tensor:
#      x y z
#    x 1.836980 0.002510 0.008500 
#    y 0.002510 1.810250 -0.014980 
#    z 0.008500 -0.014980 1.830310 
# 
# From -- ./inp_files/148539.got.cif
#   From: 2010.06.25/outbox.cif.g09.slc.cpg/sg2_75_cif.got.tgz:148539.got - 2010.06.27 13:26:56.
