data_PCOD8029507
_publ_section_title
;
Structure prediction by ZEFSAII (Michael W. Deem and Ramdas Pophale) SiO2 
 PCOD8029507
Probable space group: P -1
;
_chemical_formula_sum "Si O2"
_cell_formula_units_Z 16
_cell_length_a 17.087789
_cell_length_b 8.439741
_cell_length_c 12.302236
_cell_angle_alpha 49.119587
_cell_angle_beta 131.148931
_cell_angle_gamma 147.925652
_cell_volume 688.275114
_symmetry_space_group_name_H-M "P -1"
_symmetry_group_IT_number 2
_symmetry_cell_setting 'triclinic'
loop_
_space_group_symop_operation_xyz
x,y,z
-x,-y,-z
loop_
_atom_site_type_symbol
_atom_site_label
_atom_site_fract_x
_atom_site_fract_y
_atom_site_fract_z
Si Si1 0.687486 0.701666 0.127861
Si Si2 0.885362 0.643108 0.037380
Si Si3 0.084014 0.678175 0.653369
Si Si4 0.832770 0.504145 0.378159
Si Si5 0.600825 0.633400 0.317218
Si Si6 0.499609 0.089546 0.578842
Si Si7 0.421155 0.669840 0.012483
Si Si8 0.687548 0.183971 0.896720
O O1 0.829306 0.745498 0.233680
O O2 0.615309 0.545179 0.251193
O O3 0.572456 0.473216 0.025925
O O4 0.743414 0.023713 0.021646
O O5 0.956797 0.522691 0.187647
O O6 0.743351 0.470018 0.067404
O O7 0.827517 0.537771 0.906726
O O8 0.000000 0.000000 0.000000
O O9 0.094929 0.524215 0.637892
O O10 0.944111 0.632700 0.526024
O O11 0.238424 0.033717 0.650670
O O12 0.662351 0.168857 0.395280
O O13 0.544993 0.399873 0.467186
O O14 0.468820 0.613567 0.189782
O O15 0.630404 0.169565 0.733495
O O16 0.500000 0.000000 0.500000
O O17 0.557751 0.032561 0.941740
#
# Coordination Sequence:
#
# PCOD8029507 Si02
#       8
#     2   2   2   2   2   2   2   2
#     4  11  20  43  71 100 127 180 222 272 337 415
#     4  12  26  44  66  98 136 178 231 283 330 396
#     4  11  25  48  63  96 136 186 222 269 341 413
#     4  11  25  41  72  93 139 180 220 274 344 403
#     4  11  24  40  71  99 131 170 229 273 337 402
#     4  12  23  43  68 111 134 169 222 296 335 392
#     4  11  21  42  72  94 130 178 220 274 335 406
#     4  11  23  42  73  98 133 176 231 272 337 408
#
# _framework density 23.246517000000001
#
# number of rings (size 3 to 8) (size 9 to 14) (size 15 to 20)
#    0.000    0.750    6.250    2.625    3.500    3.000 
#    0.000    0.625    0.000    0.000    0.000    0.000 
#    0.000    0.000    0.000    0.000    0.000    0.000 
#
# Total GULP energy -198323.384800 kJ/mol
# GULP energy per Si atom -12395.211550 kJ/mol
# Density = 2.319361 g / cm^3
# Si number density = 23.246517 Si / 1000 Ang^3
#
#
#
# Elastic Constant Matrix: (Units=GPa)
#
#
# Indices 1 2 3 4 5 6 
#
# 1 44.5253 19.6588 27.6181 4.3575 12.9419 -3.3800
# 2 19.6588 140.9448 67.1323 14.0371 20.2147 -16.7499
# 3 27.6181 67.1323 189.4140 13.6519 28.7930 -7.9855
# 4 4.3575 14.0371 13.6519 39.9145 -0.9664 3.8329
# 5 12.9419 20.2147 28.7930 -0.9664 34.3444 2.6927
# 6 -3.3800 -16.7499 -7.9855 3.8329 2.6927 14.1930
#
#
#
# Elastic Compliance Matrix: (Units=1/GPa)
#
#
# Indices 1 2 3 4 5 6 
#
# 1 0.027362 -0.000373 -0.001917 -0.003151 -0.009168 0.007588
# 2 -0.000373 0.011145 -0.002049 -0.004697 -0.005956 0.014310
# 3 -0.001917 -0.002049 0.007186 -0.001873 -0.004345 0.002499
# 4 -0.003151 -0.004697 -0.001873 0.029485 0.007666 -0.016764
# 5 -0.009168 -0.005956 -0.004345 0.007666 0.041631 -0.021626
# 6 0.007588 0.014310 0.002499 -0.016764 -0.021626 0.099188
#
#
# Mechanical properties :
#
#
# Convention : Reuss Voigt Hill
#
# Bulk Modulus (GPa) = 27.01514 67.07805 47.04660
# Shear Modulus (GPa) = 21.09586 35.05539 28.07562
#
# Velocity S-wave (km/s) = 3.01572 3.88749 3.47902
# Velocity P-wave (km/s) = 4.87570 7.00484 6.03491
#
# Compressibility (1/GPa) = 0.03701628
#
# Stress axis : x y z
#
# Youngs Moduli (GPa) = 36.54719 89.72349 139.16291
#
# Poissons Ratio (x) = 0.03347 0.26675
# Poissons Ratio (y) = 0.01363 0.28508
# Poissons Ratio (z) = 0.07005 0.18380
#
# Static dielectric constant tensor:
#      x y z
#    x 4.150050 -0.265800 0.162190 
#    y -0.265800 4.117040 0.180050 
#    z 0.162190 0.180050 4.768370 
# 
# 
# High freq. dielectric constant tensor:
#      x y z
#    x 1.909250 -0.028320 0.012190 
#    y -0.028320 1.907700 0.021590 
#    z 0.012190 0.021590 1.937780 
# 
# From -- ./inp_files/461917.got.cif
#   From: 2010.06.25/outbox.cif.g09.slc.cpg/sg2_231_cif.got.tgz:461917.got - 2010.06.27 13:26:56.
