data_PCOD8029033
_publ_section_title
;
Structure prediction by ZEFSAII (Michael W. Deem and Ramdas Pophale) SiO2 
 PCOD8029033
Probable space group: P -1
;
_chemical_formula_sum "Si O2"
_cell_formula_units_Z 14
_cell_length_a 14.204424
_cell_length_b 20.715114
_cell_length_c 11.003889
_cell_angle_alpha 148.948491
_cell_angle_beta 29.604530
_cell_angle_gamma 154.484695
_cell_volume 648.311631
_symmetry_space_group_name_H-M "P -1"
_symmetry_group_IT_number 2
_symmetry_cell_setting 'triclinic'
loop_
_space_group_symop_operation_xyz
x,y,z
-x,-y,-z
loop_
_atom_site_type_symbol
_atom_site_label
_atom_site_fract_x
_atom_site_fract_y
_atom_site_fract_z
Si Si1 0.540203 0.526417 0.640262
Si Si2 0.794761 0.980539 0.568973
Si Si3 0.060396 0.855331 0.961383
Si Si4 0.032645 0.160867 0.225761
Si Si5 0.361030 0.705000 0.761298
Si Si6 0.022708 0.308056 0.970076
Si Si7 0.384836 0.919217 0.268682
O O1 0.500000 0.500000 0.500000
O O2 0.654643 0.446955 0.438012
O O3 0.290688 0.459989 0.878846
O O4 0.730596 0.713541 0.756970
O O5 0.627616 0.848601 0.645137
O O6 0.974359 0.954655 0.266406
O O7 0.624000 0.973104 0.646942
O O8 0.959209 0.151527 0.724054
O O9 0.990967 0.716817 0.909446
O O10 0.932887 0.773650 0.844310
O O11 0.346593 0.979155 0.815936
O O12 0.798852 0.132272 0.499069
O O13 0.000000 0.000000 0.000000
O O14 0.309208 0.758978 0.030517
O O15 0.160362 0.656882 0.807799
#
# Coordination Sequence:
#
# PCOD8029033 Si02
#       7
#     2   2   2   2   2   2   2
#     4  12  28  47  70 100 140 184 227 293 348 400
#     4  11  19  39  73 109 138 174 233 284 331 420
#     4  12  22  41  72 100 138 183 228 275 345 407
#     4  12  29  48  66 100 144 188 233 278 343 421
#     4  11  22  42  73 109 137 168 240 289 335 410
#     4  11  22  40  72 106 135 180 229 280 345 401
#     4  11  22  42  72 103 137 182 231 283 333 408
#
# _framework density 21.594553999999999
#
# number of rings (size 3 to 8) (size 9 to 14) (size 15 to 20)
#    0.000    0.571    5.714    4.286    2.000    2.857 
#    2.571    0.714    0.000    0.000    0.000    0.000 
#    0.000    0.000    0.000    0.000    0.000    0.000 
#
# Total GULP energy -173694.831468 kJ/mol
# GULP energy per Si atom -12406.773676 kJ/mol
# Density = 2.154540 g / cm^3
# Si number density = 21.594554 Si / 1000 Ang^3
#
#
#
# Elastic Constant Matrix: (Units=GPa)
#
#
# Indices 1 2 3 4 5 6 
#
# 1 137.8057 37.9453 35.0254 0.8839 13.4394 4.8475
# 2 37.9453 117.6686 57.0077 -10.3014 0.8629 11.7712
# 3 35.0254 57.0077 88.9297 -20.3718 -0.1970 5.9820
# 4 0.8839 -10.3014 -20.3718 37.1491 -7.3863 -2.0167
# 5 13.4394 0.8629 -0.1970 -7.3863 30.9049 -7.2026
# 6 4.8475 11.7712 5.9820 -2.0167 -7.2026 33.1864
#
#
#
# Elastic Compliance Matrix: (Units=1/GPa)
#
#
# Indices 1 2 3 4 5 6 
#
# 1 0.009089 -0.001399 -0.003411 -0.003584 -0.005153 -0.001553
# 2 -0.001399 0.012951 -0.007756 -0.000959 -0.000782 -0.003219
# 3 -0.003411 -0.007756 0.019704 0.009685 0.004431 0.001248
# 4 -0.003584 -0.000959 0.009685 0.034364 0.010681 0.003524
# 5 -0.005153 -0.000782 0.004431 0.010681 0.039399 0.009432
# 6 -0.001553 -0.003219 0.001248 0.003524 0.009432 0.033538
#
#
# Mechanical properties :
#
#
# Convention : Reuss Voigt Hill
#
# Bulk Modulus (GPa) = 60.19417 67.15120 63.67268
# Shear Modulus (GPa) = 27.82190 34.54311 31.18250
#
# Velocity S-wave (km/s) = 3.59329 4.00387 3.80412
# Velocity P-wave (km/s) = 6.71944 7.24834 6.98889
#
# Compressibility (1/GPa) = 0.01661291
#
# Stress axis : x y z
#
# Youngs Moduli (GPa) = 110.02408 77.21379 50.74993
#
# Poissons Ratio (x) = 0.10804 0.17309
# Poissons Ratio (y) = 0.15394 0.39361
# Poissons Ratio (z) = 0.37525 0.59887
#
# Static dielectric constant tensor:
#      x y z
#    x 4.236700 -0.096100 -0.072170 
#    y -0.096100 3.712650 -0.184300 
#    z -0.072170 -0.184300 3.935270 
# 
# 
# High freq. dielectric constant tensor:
#      x y z
#    x 1.864630 -0.004060 -0.010340 
#    y -0.004060 1.834600 -0.022230 
#    z -0.010340 -0.022230 1.845800 
# 
# From -- ./inp_files/279996.got.cif
#   From: 2010.06.25/outbox.cif.g09.slc.cpg/sg2_140_cif.got.tgz:279996.got - 2010.06.27 13:26:56.
