data_PCOD8029084
_publ_section_title
;
Structure prediction by ZEFSAII (Michael W. Deem and Ramdas Pophale) SiO2 
 PCOD8029084
Probable space group: P -1
;
_chemical_formula_sum "Si O2"
_cell_formula_units_Z 16
_cell_length_a 8.095650
_cell_length_b 12.763401
_cell_length_c 13.770442
_cell_angle_alpha 74.330922
_cell_angle_beta 58.675535
_cell_angle_gamma 35.682172
_cell_volume 675.083578
_symmetry_space_group_name_H-M "P -1"
_symmetry_group_IT_number 2
_symmetry_cell_setting 'triclinic'
loop_
_space_group_symop_operation_xyz
x,y,z
-x,-y,-z
loop_
_atom_site_type_symbol
_atom_site_label
_atom_site_fract_x
_atom_site_fract_y
_atom_site_fract_z
Si Si1 0.838019 0.480999 0.490969
Si Si2 0.514675 0.476725 0.732609
Si Si3 0.599729 0.178868 0.045040
Si Si4 0.030218 0.409156 0.920356
Si Si5 0.725342 0.334121 0.051196
Si Si6 0.121145 0.252413 0.274426
Si Si7 0.716958 0.154611 0.797718
Si Si8 0.092489 0.883180 0.590157
O O1 0.785466 0.398583 0.594117
O O2 0.069500 0.348216 0.362177
O O3 0.478000 0.678913 0.510265
O O4 0.000000 0.500000 0.500000
O O5 0.441128 0.600297 0.807571
O O6 0.175381 0.595010 0.751935
O O7 0.692002 0.295879 0.779853
O O8 0.863521 0.146652 0.023835
O O9 0.272827 0.410972 0.101199
O O10 0.482053 0.123681 0.150731
O O11 0.704989 0.106543 0.920376
O O12 0.401933 0.258018 0.802008
O O13 0.000000 0.500000 0.000000
O O14 0.025919 0.283393 0.983476
O O15 0.500000 0.500000 0.000000
O O16 0.136364 0.119847 0.335642
O O17 0.047534 0.967200 0.685431
O O18 0.000000 0.000000 0.500000
#
# Coordination Sequence:
#
# PCOD8029084 Si02
#       8
#     2   2   2   2   2   2   2   2
#     4  11  25  45  69  94 124 174 223 272 328 391
#     4  11  18  36  64  91 127 172 221 267 310 399
#     4  10  19  32  59  93 132 167 217 261 323 391
#     4   9  15  29  52  87 121 164 208 248 296 384
#     4  10  17  30  54  98 131 164 214 264 311 374
#     4  11  22  41  66  90 125 176 227 263 317 400
#     4  11  19  36  61  95 128 164 216 267 326 379
#     4  11  25  44  66  96 130 170 224 277 329 386
#
# _framework density 23.700772000000001
#
# number of rings (size 3 to 8) (size 9 to 14) (size 15 to 20)
#    0.000    1.500    5.000    4.500    0.000    0.500 
#    0.000    3.750    0.000    4.500    0.000    0.000 
#    0.000    0.000    0.000    0.000    0.000    0.000 
#
# Total GULP energy -198292.519203 kJ/mol
# GULP energy per Si atom -12393.282450 kJ/mol
# Density = 2.364683 g / cm^3
# Si number density = 23.700772 Si / 1000 Ang^3
#
#
#
# Elastic Constant Matrix: (Units=GPa)
#
#
# Indices 1 2 3 4 5 6 
#
# 1 97.5567 14.0047 41.1938 -12.3176 -4.6859 31.2516
# 2 14.0047 66.7668 40.9369 -14.1589 -0.8808 32.6114
# 3 41.1938 40.9369 165.2419 -9.1448 6.9135 15.7701
# 4 -12.3176 -14.1589 -9.1448 39.8386 13.9466 4.5264
# 5 -4.6859 -0.8808 6.9135 13.9466 42.9318 2.9929
# 6 31.2516 32.6114 15.7701 4.5264 2.9929 38.5162
#
#
#
# Elastic Compliance Matrix: (Units=1/GPa)
#
#
# Indices 1 2 3 4 5 6 
#
# 1 0.023586 0.019761 -0.006557 0.016404 0.001161 -0.035202
# 2 0.019761 0.052789 -0.010656 0.029364 -0.000415 -0.059785
# 3 -0.006557 -0.010656 0.009080 -0.004398 -0.001754 0.011278
# 4 0.016404 0.029364 -0.004398 0.047606 -0.009490 -0.041229
# 5 0.001161 -0.000415 -0.001754 -0.009490 0.026835 -0.000842
# 6 -0.035202 -0.059785 0.011278 -0.041229 -0.000842 0.105439
#
#
# Mechanical properties :
#
#
# Convention : Reuss Voigt Hill
#
# Bulk Modulus (GPa) = 11.04348 57.98182 34.51265
# Shear Modulus (GPa) = 17.21632 39.81931 28.51781
#
# Velocity S-wave (km/s) = 2.69811 4.10333 3.47254
# Velocity P-wave (km/s) = 3.79158 6.85325 5.53819
#
# Compressibility (1/GPa) = 0.09055118
#
# Stress axis : x y z
#
# Youngs Moduli (GPa) = 42.39820 18.94333 110.13351
#
# Poissons Ratio (x) = -0.37434 0.72210
# Poissons Ratio (y) = -0.83782 1.17359
# Poissons Ratio (z) = 0.27799 0.20186
#
# Static dielectric constant tensor:
#      x y z
#    x 5.065940 -0.108950 -0.355970 
#    y -0.108950 4.656820 0.049770 
#    z -0.355970 0.049770 4.341530 
# 
# 
# High freq. dielectric constant tensor:
#      x y z
#    x 1.939150 0.017390 -0.003570 
#    y 0.017390 1.936570 -0.005200 
#    z -0.003570 -0.005200 1.942450 
# 
# From -- ./inp_files/392504.got.cif
#   From: 2010.06.25/outbox.cif.g09.slc.cpg/sg2_197_cif.got.tgz:392504.got - 2010.06.27 13:26:56.
