data_PCOD8029456
_publ_section_title
;
Structure prediction by ZEFSAII (Michael W. Deem and Ramdas Pophale) SiO2 
 PCOD8029456
Probable space group: P -1
;
_chemical_formula_sum "Si O2"
_cell_formula_units_Z 14
_cell_length_a 8.569791
_cell_length_b 8.859693
_cell_length_c 13.321360
_cell_angle_alpha 72.643133
_cell_angle_beta 52.514273
_cell_angle_gamma 100.673040
_cell_volume 670.227606
_symmetry_space_group_name_H-M "P -1"
_symmetry_group_IT_number 2
_symmetry_cell_setting 'triclinic'
loop_
_space_group_symop_operation_xyz
x,y,z
-x,-y,-z
loop_
_atom_site_type_symbol
_atom_site_label
_atom_site_fract_x
_atom_site_fract_y
_atom_site_fract_z
Si Si1 0.520575 0.976049 0.698810
Si Si2 0.730502 0.678056 0.868695
Si Si3 0.891997 0.331827 0.150692
Si Si4 0.380409 0.693949 0.540372
Si Si5 0.193054 0.203038 0.393488
Si Si6 0.822418 0.678802 0.411635
Si Si7 0.683724 0.028038 0.842085
O O1 0.250143 0.854873 0.819445
O O2 0.585076 0.818216 0.681267
O O3 0.619976 0.133118 0.544729
O O4 0.605578 0.066620 0.756644
O O5 0.820847 0.687981 0.718621
O O6 0.900342 0.679041 0.882512
O O7 0.691923 0.845239 0.869406
O O8 0.500000 0.500000 0.000000
O O9 0.738821 0.348220 0.295998
O O10 0.000000 0.500000 0.000000
O O11 0.639533 0.736686 0.435339
O O12 0.242311 0.520793 0.558510
O O13 0.167986 0.312198 0.473609
O O14 0.000000 0.000000 0.500000
O O15 0.073608 0.814443 0.247624
O O16 0.500000 0.000000 0.000000
#
# Coordination Sequence:
#
# PCOD8029456 Si02
#       7
#     2   2   2   2   2   2   2
#     4  11  23  42  71  98 127 178 228 272 334 394
#     4  11  25  42  68  98 130 177 225 272 334 394
#     4  12  25  43  70 101 137 175 228 279 331 405
#     4  11  26  42  69 102 134 178 223 282 333 396
#     4  11  20  42  68  95 127 172 223 271 323 398
#     4  11  24  44  67  95 142 173 226 272 342 392
#     4  11  26  46  66 101 140 176 219 284 340 400
#
# _framework density 20.888428000000001
#
# number of rings (size 3 to 8) (size 9 to 14) (size 15 to 20)
#    0.000    0.857    4.286    3.857    4.000    1.714 
#    2.571    1.429    0.000    0.000    0.000    0.000 
#    0.000    0.000    0.000    0.000    0.000    0.000 
#
# Total GULP energy -173561.313271 kJ/mol
# GULP energy per Si atom -12397.236662 kJ/mol
# Density = 2.084089 g / cm^3
# Si number density = 20.888428 Si / 1000 Ang^3
#
#
#
# Elastic Constant Matrix: (Units=GPa)
#
#
# Indices 1 2 3 4 5 6 
#
# 1 129.4344 37.5635 65.5505 -11.5223 -2.5329 20.8997
# 2 37.5635 89.0593 48.8474 -3.6697 0.8140 26.4759
# 3 65.5505 48.8474 165.1687 -6.8082 5.0536 13.7691
# 4 -11.5223 -3.6697 -6.8082 42.3390 2.1720 -5.9989
# 5 -2.5329 0.8140 5.0536 2.1720 45.4053 -9.7968
# 6 20.8997 26.4759 13.7691 -5.9989 -9.7968 34.4312
#
#
#
# Elastic Compliance Matrix: (Units=1/GPa)
#
#
# Indices 1 2 3 4 5 6 
#
# 1 0.010617 -0.001460 -0.003414 0.001694 0.000136 -0.003623
# 2 -0.001460 0.017285 -0.003506 -0.001019 -0.002519 -0.011898
# 3 -0.003414 -0.003506 0.008381 0.000332 -0.000808 0.001245
# 4 0.001694 -0.001019 0.000332 0.024602 -0.000274 0.003831
# 5 0.000136 -0.002519 -0.000808 -0.000274 0.024120 0.008993
# 6 -0.003623 -0.011898 0.001245 0.003831 0.008993 0.043120
#
#
# Mechanical properties :
#
#
# Convention : Reuss Voigt Hill
#
# Bulk Modulus (GPa) = 51.22011 76.39837 63.80924
# Shear Modulus (GPa) = 33.02684 39.88182 36.45433
#
# Velocity S-wave (km/s) = 3.98063 4.37427 4.18208
# Velocity P-wave (km/s) = 6.76027 7.88455 7.34396
#
# Compressibility (1/GPa) = 0.01952358
#
# Stress axis : x y z
#
# Youngs Moduli (GPa) = 94.18789 57.85343 119.32004
#
# Poissons Ratio (x) = 0.08446 0.40738
# Poissons Ratio (y) = 0.13750 0.41829
# Poissons Ratio (z) = 0.32157 0.20281
#
# Static dielectric constant tensor:
#      x y z
#    x 4.311640 0.427960 0.114450 
#    y 0.427960 3.198170 -0.401740 
#    z 0.114450 -0.401740 3.620380 
# 
# 
# High freq. dielectric constant tensor:
#      x y z
#    x 1.839480 0.019150 -0.005730 
#    y 0.019150 1.810840 -0.006440 
#    z -0.005730 -0.006440 1.821950 
# 
# From -- ./inp_files/154621.got.cif
#   From: 2010.06.25/outbox.cif.g09.slc.cpg/sg2_78_cif.got.tgz:154621.got - 2010.06.27 13:26:56.
