data_PCOD8029552
_publ_section_title
;
Structure prediction by ZEFSAII (Michael W. Deem and Ramdas Pophale) SiO2 
 PCOD8029552
Probable space group: P -1
;
_chemical_formula_sum "Si O2"
_cell_formula_units_Z 16
_cell_length_a 15.152092
_cell_length_b 11.313162
_cell_length_c 11.537952
_cell_angle_alpha 119.768887
_cell_angle_beta 150.523229
_cell_angle_gamma 50.299533
_cell_volume 739.461037
_symmetry_space_group_name_H-M "P -1"
_symmetry_group_IT_number 2
_symmetry_cell_setting 'triclinic'
loop_
_space_group_symop_operation_xyz
x,y,z
-x,-y,-z
loop_
_atom_site_type_symbol
_atom_site_label
_atom_site_fract_x
_atom_site_fract_y
_atom_site_fract_z
Si Si1 0.259767 0.909360 0.330276
Si Si2 0.499842 0.576210 0.417369
Si Si3 0.220277 0.458191 0.478454
Si Si4 0.458672 0.122445 0.689708
Si Si5 0.800775 0.506578 0.089968
Si Si6 0.857140 0.070034 0.047690
Si Si7 0.099422 0.676349 0.655021
Si Si8 0.636471 0.836488 0.140832
O O1 0.460649 0.745039 0.497752
O O2 0.319358 0.045474 0.460704
O O3 0.165959 0.886862 0.092851
O O4 0.098556 0.941834 0.268250
O O5 0.500000 0.500000 0.500000
O O6 0.706729 0.499006 0.538397
O O7 0.313224 0.582215 0.132901
O O8 0.378959 0.279940 0.602070
O O9 0.228957 0.569207 0.643581
O O10 0.990897 0.482613 0.214194
O O11 0.465542 0.151484 0.846609
O O12 0.696802 0.010380 0.870474
O O13 0.900873 0.433712 0.294076
O O14 0.640240 0.691512 0.005717
O O15 0.800737 0.220399 0.136399
O O16 0.870880 0.795889 0.408620
O O17 0.500000 0.000000 0.000000
#
# Coordination Sequence:
#
# PCOD8029552 Si02
#       8
#     2   2   2   2   2   2   2   2
#     4  11  24  42  61  97 140 168 221 271 332 393
#     4  12  29  45  66  96 138 182 224 280 333 404
#     4  11  23  42  73 100 127 177 231 277 333 398
#     4  12  22  40  69  99 130 176 225 271 334 404
#     4  11  22  44  72  98 134 176 225 280 333 401
#     4  11  23  38  69 100 126 174 219 279 321 391
#     4  11  20  45  71 103 134 168 234 282 329 405
#     4  11  24  41  66 100 141 172 211 286 345 394
#
# _framework density 21.637378999999999
#
# number of rings (size 3 to 8) (size 9 to 14) (size 15 to 20)
#    0.000    0.750    6.250    1.125    5.250    1.500 
#    4.500    0.625    0.000    0.000    0.000    0.000 
#    0.000    0.000    0.000    0.000    0.000    0.000 
#
# Total GULP energy -198289.649041 kJ/mol
# GULP energy per Si atom -12393.103065 kJ/mol
# Density = 2.158813 g / cm^3
# Si number density = 21.637379 Si / 1000 Ang^3
#
#
#
# Elastic Constant Matrix: (Units=GPa)
#
#
# Indices 1 2 3 4 5 6 
#
# 1 148.1971 44.2777 35.3919 -14.5768 15.3343 -17.5076
# 2 44.2777 106.0059 36.6808 -9.0713 -0.5228 -13.6464
# 3 35.3919 36.6808 75.5519 -0.5185 16.4276 -7.4039
# 4 -14.5768 -9.0713 -0.5185 27.0637 0.6085 -7.7792
# 5 15.3343 -0.5228 16.4276 0.6085 33.8842 -11.2884
# 6 -17.5076 -13.6464 -7.4039 -7.7792 -11.2884 30.8028
#
#
#
# Elastic Compliance Matrix: (Units=1/GPa)
#
#
# Indices 1 2 3 4 5 6 
#
# 1 0.009179 -0.001870 -0.002574 0.005637 -0.001487 0.004649
# 2 -0.001870 0.013933 -0.006565 0.005498 0.006589 0.007335
# 3 -0.002574 -0.006565 0.019273 -0.004251 -0.009653 -0.004350
# 4 0.005637 0.005498 -0.004251 0.046878 0.004824 0.018225
# 5 -0.001487 0.006589 -0.009653 0.004824 0.040100 0.015667
# 6 0.004649 0.007335 -0.004350 0.018225 0.015667 0.047655
#
#
# Mechanical properties :
#
#
# Convention : Reuss Voigt Hill
#
# Bulk Modulus (GPa) = 49.09984 62.49506 55.79745
# Shear Modulus (GPa) = 24.29264 32.57712 28.43488
#
# Velocity S-wave (km/s) = 3.35433 3.88441 3.62906
# Velocity P-wave (km/s) = 6.14357 7.00456 6.58814
#
# Compressibility (1/GPa) = 0.02036667
#
# Stress axis : x y z
#
# Youngs Moduli (GPa) = 108.94756 71.77100 51.88711
#
# Poissons Ratio (x) = 0.13418 0.13358
# Poissons Ratio (y) = 0.20368 0.34064
# Poissons Ratio (z) = 0.28048 0.47117
#
# Static dielectric constant tensor:
#      x y z
#    x 3.944100 -0.502600 -0.003880 
#    y -0.502600 4.670480 0.406210 
#    z -0.003880 0.406210 4.074950 
# 
# 
# High freq. dielectric constant tensor:
#      x y z
#    x 1.843860 -0.025570 0.016620 
#    y -0.025570 1.851800 0.014190 
#    z 0.016620 0.014190 1.838850 
# 
# From -- ./inp_files/429123.got.cif
#   From: 2010.06.25/outbox.cif.g09.slc.cpg/sg2_215_cif.got.tgz:429123.got - 2010.06.27 13:26:56.
