data_PCOD8029565
_publ_section_title
;
Structure prediction by ZEFSAII (Michael W. Deem and Ramdas Pophale) SiO2 
 PCOD8029565
Probable space group: P -1
;
_chemical_formula_sum "Si O2"
_cell_formula_units_Z 16
_cell_length_a 12.978686
_cell_length_b 10.927092
_cell_length_c 10.720511
_cell_angle_alpha 38.470323
_cell_angle_beta 59.198418
_cell_angle_gamma 64.120507
_cell_volume 810.623143
_symmetry_space_group_name_H-M "P -1"
_symmetry_group_IT_number 2
_symmetry_cell_setting 'triclinic'
loop_
_space_group_symop_operation_xyz
x,y,z
-x,-y,-z
loop_
_atom_site_type_symbol
_atom_site_label
_atom_site_fract_x
_atom_site_fract_y
_atom_site_fract_z
Si Si1 0.409682 0.261173 0.581776
Si Si2 0.331873 0.049849 0.556711
Si Si3 0.867154 0.983262 0.475812
Si Si4 0.662541 0.209374 0.574560
Si Si5 0.529090 0.269109 0.143245
Si Si6 0.944194 0.718966 0.845577
Si Si7 0.443343 0.714077 0.164500
Si Si8 0.306141 0.334434 0.840980
O O1 0.342977 0.161090 0.590933
O O2 0.544545 0.168265 0.599235
O O3 0.415829 0.488548 0.367460
O O4 0.328448 0.231511 0.776201
O O5 0.407852 0.155644 0.320400
O O6 0.196033 0.058180 0.583702
O O7 0.380133 0.820672 0.733500
O O8 0.773004 0.069479 0.569380
O O9 0.967775 0.133635 0.261534
O O10 0.928454 0.782163 0.658730
O O11 0.634925 0.170281 0.770565
O O12 0.698938 0.430851 0.356105
O O13 0.500000 0.500000 0.000000
O O14 0.586989 0.215233 0.014336
O O15 0.816363 0.740930 0.973225
O O16 0.000000 0.500000 0.000000
O O17 0.585041 0.738008 0.077122
#
# Coordination Sequence:
#
# PCOD8029565 Si02
#       8
#     2   2   2   2   2   2   2   2
#     4   9  18  35  56  89 121 148 181 225 287 352
#     4  11  23  36  53  84 123 151 186 231 281 347
#     4  11  24  38  60  87 112 149 193 244 283 332
#     4   9  17  34  59  88 117 143 189 234 281 338
#     4  11  21  33  53  83 124 160 184 216 283 353
#     4  11  23  42  61  83 107 147 202 245 285 326
#     4   9  18  33  58  89 116 151 184 227 284 340
#     4   9  18  34  62  83 112 153 191 237 278 326
#
# _framework density 19.737901999999998
#
# number of rings (size 3 to 8) (size 9 to 14) (size 15 to 20)
#    0.000    2.000    2.500    3.750    1.750    2.000 
#    0.000    3.750    0.000    0.750    0.000    0.000 
#    0.000    0.000    0.000    0.000    0.000    0.000 
#
# Total GULP energy -198323.993156 kJ/mol
# GULP energy per Si atom -12395.249572 kJ/mol
# Density = 1.969298 g / cm^3
# Si number density = 19.737902 Si / 1000 Ang^3
#
#
#
# Elastic Constant Matrix: (Units=GPa)
#
#
# Indices 1 2 3 4 5 6 
#
# 1 127.5411 30.0433 58.2894 -4.7813 -9.9044 18.9302
# 2 30.0433 67.7701 32.9028 0.2329 -2.8422 13.8588
# 3 58.2894 32.9028 114.9853 7.2928 -3.2054 4.6269
# 4 -4.7813 0.2329 7.2928 27.2788 -5.1617 4.3409
# 5 -9.9044 -2.8422 -3.2054 -5.1617 33.5678 4.4136
# 6 18.9302 13.8588 4.6269 4.3409 4.4136 32.0455
#
#
#
# Elastic Compliance Matrix: (Units=1/GPa)
#
#
# Indices 1 2 3 4 5 6 
#
# 1 0.012561 -0.000875 -0.006049 0.005989 0.004983 -0.007666
# 2 -0.000875 0.019163 -0.004831 0.002649 0.002330 -0.007753
# 3 -0.006049 -0.004831 0.013249 -0.005803 -0.002462 0.004875
# 4 0.005989 0.002649 -0.005803 0.042766 0.009452 -0.010941
# 5 0.004983 0.002330 -0.002462 0.009452 0.033932 -0.009550
# 6 -0.007666 -0.007753 0.004875 -0.010941 -0.009550 0.041180
#
#
# Mechanical properties :
#
#
# Convention : Reuss Voigt Hill
#
# Bulk Modulus (GPa) = 46.59460 61.41862 54.00661
# Shear Modulus (GPa) = 25.83754 31.18249 28.51001
#
# Velocity S-wave (km/s) = 3.62198 3.97902 3.80469
# Velocity P-wave (km/s) = 6.41479 7.23151 6.83536
#
# Compressibility (1/GPa) = 0.02146172
#
# Stress axis : x y z
#
# Youngs Moduli (GPa) = 79.61266 52.18325 75.47741
#
# Poissons Ratio (x) = 0.04568 0.45660
# Poissons Ratio (y) = 0.06968 0.36463
# Poissons Ratio (z) = 0.48161 0.25209
#
# Static dielectric constant tensor:
#      x y z
#    x 3.540480 0.030280 0.103940 
#    y 0.030280 3.623510 0.030410 
#    z 0.103940 0.030410 3.833530 
# 
# 
# High freq. dielectric constant tensor:
#      x y z
#    x 1.747300 0.008850 0.011750 
#    y 0.008850 1.757990 -0.010630 
#    z 0.011750 -0.010630 1.790970 
# 
# From -- ./inp_files/422744.got.cif
#   From: 2010.06.25/outbox.cif.g09.slc.cpg/sg2_212_cif.got.tgz:422744.got - 2010.06.27 13:26:56.
