data_PCOD8029773
_publ_section_title
;
Structure prediction by ZEFSAII (Michael W. Deem and Ramdas Pophale) SiO2 
 PCOD8029773
Probable space group: P -1
;
_chemical_formula_sum "Si O2"
_cell_formula_units_Z 12
_cell_length_a 12.572715
_cell_length_b 8.605892
_cell_length_c 6.863058
_cell_angle_alpha 100.588431
_cell_angle_beta 128.542314
_cell_angle_gamma 75.767826
_cell_volume 562.522654
_symmetry_space_group_name_H-M "P -1"
_symmetry_group_IT_number 2
_symmetry_cell_setting 'triclinic'
loop_
_space_group_symop_operation_xyz
x,y,z
-x,-y,-z
loop_
_atom_site_type_symbol
_atom_site_label
_atom_site_fract_x
_atom_site_fract_y
_atom_site_fract_z
Si Si1 0.127038 0.457289 0.776276
Si Si2 0.211028 0.209690 0.097782
Si Si3 0.561814 0.602659 0.437119
Si Si4 0.297282 0.845673 0.091058
Si Si5 0.737483 0.365262 0.328452
Si Si6 0.910168 0.292571 0.893205
O O1 0.246146 0.523249 0.813967
O O2 0.000000 0.500000 0.500000
O O3 0.173665 0.270879 0.845844
O O4 0.091135 0.538142 0.964288
O O5 0.300466 0.331058 0.327661
O O6 0.300644 0.033807 0.149047
O O7 0.068490 0.201245 0.048846
O O8 0.500000 0.500000 0.500000
O O9 0.449902 0.754476 0.288730
O O10 0.599143 0.467130 0.282419
O O11 0.184443 0.806843 0.110252
O O12 0.269370 0.804509 0.823152
O O13 0.856662 0.327210 0.618774
#
# Coordination Sequence:
#
# PCOD8029773 Si02
#       6
#     2   2   2   2   2   2
#     4  11  21  39  67 100 129 174 226 266 324 393
#     4  12  24  43  69 103 136 167 223 282 329 384
#     4  12  23  47  72  92 133 183 222 267 328 403
#     4  11  26  43  67 102 137 174 215 275 338 386
#     4  11  22  44  70  94 132 177 228 264 326 401
#     4  11  22  45  70  95 136 179 218 272 329 396
#
# _framework density 21.332474999999999
#
# number of rings (size 3 to 8) (size 9 to 14) (size 15 to 20)
#    0.000    0.667    5.000    4.000    0.000    0.667 
#    6.000    1.667    0.000    0.000    0.000    0.000 
#    0.000    0.000    0.000    0.000    0.000    0.000 
#
# Total GULP energy -148683.175006 kJ/mol
# GULP energy per Si atom -12390.264584 kJ/mol
# Density = 2.128392 g / cm^3
# Si number density = 21.332475 Si / 1000 Ang^3
#
#
#
# Elastic Constant Matrix: (Units=GPa)
#
#
# Indices 1 2 3 4 5 6 
#
# 1 101.1257 32.1338 38.1257 9.7850 -4.1001 -18.5649
# 2 32.1338 107.7852 36.9568 -4.0232 -6.6675 -10.2422
# 3 38.1257 36.9568 128.0982 -4.6538 -6.0880 -4.5636
# 4 9.7850 -4.0232 -4.6538 27.2492 -5.5104 2.8563
# 5 -4.1001 -6.6675 -6.0880 -5.5104 39.6360 -0.5295
# 6 -18.5649 -10.2422 -4.5636 2.8563 -0.5295 28.9461
#
#
#
# Elastic Compliance Matrix: (Units=1/GPa)
#
#
# Indices 1 2 3 4 5 6 
#
# 1 0.014198 -0.002534 -0.003469 -0.007012 -0.000354 0.008348
# 2 -0.002534 0.011156 -0.002240 0.002316 0.001616 0.001770
# 3 -0.003469 -0.002240 0.009583 0.002965 0.001125 -0.001779
# 4 -0.007012 0.002316 0.002965 0.042010 0.005863 -0.007248
# 5 -0.000354 0.001616 0.001125 0.005863 0.026458 0.000428
# 6 0.008348 0.001770 -0.001779 -0.007248 0.000428 0.040970
#
#
# Mechanical properties :
#
#
# Convention : Reuss Voigt Hill
#
# Bulk Modulus (GPa) = 54.19733 61.27131 57.73432
# Shear Modulus (GPa) = 29.93782 34.48576 32.21179
#
# Velocity S-wave (km/s) = 3.75025 4.02504 3.89007
# Velocity P-wave (km/s) = 6.64934 7.09829 6.87748
#
# Compressibility (1/GPa) = 0.01845109
#
# Stress axis : x y z
#
# Youngs Moduli (GPa) = 70.43047 89.63873 104.34985
#
# Poissons Ratio (x) = 0.22713 0.36199
# Poissons Ratio (y) = 0.17846 0.23378
# Poissons Ratio (z) = 0.24432 0.20082
#
# Static dielectric constant tensor:
#      x y z
#    x 4.609300 0.402910 -0.249940 
#    y 0.402910 3.564790 0.048600 
#    z -0.249940 0.048600 4.049520 
# 
# 
# High freq. dielectric constant tensor:
#      x y z
#    x 1.848440 -0.005870 -0.000760 
#    y -0.005870 1.827200 -0.008230 
#    z -0.000760 -0.008230 1.843430 
# 
# From -- ./inp_files/19261.got.cif
#   From: 2010.06.25/outbox.cif.g09.slc.cpg/sg2_10_cif.got.tgz:19261.got - 2010.06.27 13:26:56.
