data_PCOD8029288
_publ_section_title
;
Structure prediction by ZEFSAII (Michael W. Deem and Ramdas Pophale) SiO2 
 PCOD8029288
Probable space group: P -1
;
_chemical_formula_sum "Si O2"
_cell_formula_units_Z 16
_cell_length_a 11.531577
_cell_length_b 13.655047
_cell_length_c 13.159224
_cell_angle_alpha 144.148056
_cell_angle_beta 48.299906
_cell_angle_gamma 106.075695
_cell_volume 725.053015
_symmetry_space_group_name_H-M "P -1"
_symmetry_group_IT_number 2
_symmetry_cell_setting 'triclinic'
loop_
_space_group_symop_operation_xyz
x,y,z
-x,-y,-z
loop_
_atom_site_type_symbol
_atom_site_label
_atom_site_fract_x
_atom_site_fract_y
_atom_site_fract_z
Si Si1 0.091410 0.188273 0.382456
Si Si2 0.767967 0.187332 0.871133
Si Si3 0.652302 0.501552 0.844763
Si Si4 0.986967 0.686430 0.111998
Si Si5 0.405596 0.943587 0.300859
Si Si6 0.387455 0.899489 0.808729
Si Si7 0.363572 0.584176 0.450802
Si Si8 0.750809 0.567405 0.436235
O O1 0.174530 0.292758 0.480707
O O2 0.861833 0.357509 0.651393
O O3 0.139710 0.990383 0.248045
O O4 0.196426 0.105186 0.142279
O O5 0.699690 0.133163 0.766575
O O6 0.929384 0.226216 0.784877
O O7 0.583700 0.406042 0.206146
O O8 0.671627 0.418041 0.649600
O O9 0.500000 0.500000 0.000000
O O10 0.579833 0.741801 0.090553
O O11 0.760740 0.870746 0.373660
O O12 0.000000 0.500000 0.000000
O O13 0.111469 0.617455 0.878968
O O14 0.490649 0.033154 0.257277
O O15 0.315930 0.807748 0.692341
O O16 0.526543 0.721438 0.661049
O O17 0.231578 0.542965 0.560174
#
# Coordination Sequence:
#
# PCOD8029288 Si02
#       8
#     2   2   2   2   2   2   2   2
#     4  12  24  42  72  98 138 186 227 278 342 409
#     4  11  20  39  68  96 130 177 230 284 338 394
#     4  11  28  50  66  97 141 184 230 275 343 417
#     4  12  22  37  64 104 138 171 223 285 346 394
#     4  11  24  42  67  98 136 181 227 283 336 400
#     4  12  22  43  72 107 139 170 233 291 338 401
#     4  11  24  43  72 100 139 179 222 290 341 401
#     4  12  23  41  69 109 141 170 230 288 339 403
#
# _framework density 22.067350999999999
#
# number of rings (size 3 to 8) (size 9 to 14) (size 15 to 20)
#    0.000    0.500    5.000    4.125    0.000    6.500 
#    0.000    3.750    0.000    0.000    0.000    0.000 
#    0.000    0.000    0.000    0.000    0.000    0.000 
#
# Total GULP energy -198413.711743 kJ/mol
# GULP energy per Si atom -12400.856984 kJ/mol
# Density = 2.201712 g / cm^3
# Si number density = 22.067351 Si / 1000 Ang^3
#
#
#
# Elastic Constant Matrix: (Units=GPa)
#
#
# Indices 1 2 3 4 5 6 
#
# 1 40.1060 15.7378 3.1566 8.0491 -2.6388 3.7332
# 2 15.7378 92.6235 0.8507 -2.9834 7.8127 10.4155
# 3 3.1566 0.8507 108.6240 -4.5042 -19.3886 3.0267
# 4 8.0491 -2.9834 -4.5042 41.2421 2.3219 6.0575
# 5 -2.6388 7.8127 -19.3886 2.3219 30.4510 3.8507
# 6 3.7332 10.4155 3.0267 6.0575 3.8507 35.1747
#
#
#
# Elastic Compliance Matrix: (Units=1/GPa)
#
#
# Indices 1 2 3 4 5 6 
#
# 1 0.028629 -0.005322 -0.000261 -0.006115 0.004255 -0.000853
# 2 -0.005322 0.012452 -0.000414 0.002562 -0.003720 -0.003121
# 3 -0.000261 -0.000414 0.010544 0.001031 0.006933 -0.001694
# 4 -0.006115 0.002562 0.001031 0.026518 -0.001978 -0.004548
# 5 0.004255 -0.003720 0.006933 -0.001978 0.039221 -0.003900
# 6 -0.000853 -0.003121 -0.001694 -0.004548 -0.003900 0.030800
#
#
# Mechanical properties :
#
#
# Convention : Reuss Voigt Hill
#
# Bulk Modulus (GPa) = 25.23174 31.20488 28.21831
# Shear Modulus (GPa) = 28.84042 36.14747 32.49395
#
# Velocity S-wave (km/s) = 3.61907 4.05168 3.84147
# Velocity P-wave (km/s) = 5.37795 6.00496 5.70008
#
# Compressibility (1/GPa) = 0.03963263
#
# Stress axis : x y z
#
# Youngs Moduli (GPa) = 34.92902 80.31048 94.83822
#
# Poissons Ratio (x) = 0.42741 0.02473
# Poissons Ratio (y) = 0.18589 0.03923
# Poissons Ratio (z) = 0.00911 0.03322
#
# Static dielectric constant tensor:
#      x y z
#    x 3.747760 0.143040 0.002560 
#    y 0.143040 3.981610 0.070960 
#    z 0.002560 0.070960 4.529760 
# 
# 
# High freq. dielectric constant tensor:
#      x y z
#    x 1.839570 0.016630 0.005740 
#    y 0.016630 1.878600 -0.001180 
#    z 0.005740 -0.001180 1.890980 
# 
# From -- ./inp_files/175357.got.cif
#   From: 2010.06.25/outbox.cif.g09.slc.cpg/sg2_88_cif.got.tgz:175357.got - 2010.06.27 13:26:56.
