data_PCOD8029020
_publ_section_title
;
Structure prediction by ZEFSAII (Michael W. Deem and Ramdas Pophale) SiO2 
 PCOD8029020
Probable space group: P -1
;
_chemical_formula_sum "Si O2"
_cell_formula_units_Z 16
_cell_length_a 22.441600
_cell_length_b 12.866817
_cell_length_c 19.164213
_cell_angle_alpha 37.792594
_cell_angle_beta 17.519100
_cell_angle_gamma 28.556328
_cell_volume 751.890114
_symmetry_space_group_name_H-M "P -1"
_symmetry_group_IT_number 2
_symmetry_cell_setting 'triclinic'
loop_
_space_group_symop_operation_xyz
x,y,z
-x,-y,-z
loop_
_atom_site_type_symbol
_atom_site_label
_atom_site_fract_x
_atom_site_fract_y
_atom_site_fract_z
Si Si1 0.716516 0.883183 0.510717
Si Si2 0.330438 0.193505 0.028481
Si Si3 0.207128 0.489681 0.460936
Si Si4 0.703483 0.402550 0.958437
Si Si5 0.410865 0.706090 0.403473
Si Si6 0.512929 0.142568 0.085875
Si Si7 0.128369 0.802770 0.266444
Si Si8 0.703573 0.596509 0.276303
O O1 0.689003 0.751096 0.554787
O O2 0.690152 0.825411 0.649342
O O3 0.009757 0.802287 0.218672
O O4 0.492582 0.152999 0.601666
O O5 0.023149 0.399988 0.283249
O O6 0.458260 0.304088 0.809984
O O7 0.500000 0.000000 0.000000
O O8 0.338637 0.084064 0.005381
O O9 0.085233 0.674389 0.436681
O O10 0.459974 0.435223 0.246171
O O11 0.652131 0.634786 0.898904
O O12 0.686140 0.366864 0.914301
O O13 0.626849 0.600766 0.279991
O O14 0.319490 0.565057 0.569195
O O15 0.157996 0.972388 0.563428
O O16 0.743764 0.108878 0.886504
O O17 0.000000 0.500000 0.000000
#
# Coordination Sequence:
#
# PCOD8029020 Si02
#       8
#     2   2   2   2   2   2   2   2
#     4  12  21  40  67  93 124 169 222 274 327 375
#     4  12  24  43  62  98 144 179 209 263 333 403
#     4  11  24  38  61  99 137 170 211 265 331 398
#     4  11  21  34  61  97 133 167 213 270 327 385
#     4  11  24  42  66  97 135 169 218 278 322 383
#     4  11  21  36  64  94 135 178 211 261 330 393
#     4  11  19  39  63  97 133 166 215 273 324 389
#     4  11  25  43  70  99 122 171 231 281 318 369
#
# _framework density 21.279706000000001
#
# number of rings (size 3 to 8) (size 9 to 14) (size 15 to 20)
#    0.000    0.750    6.250    2.625    0.000    2.000 
#    2.250    0.625    0.000    1.500    0.000    0.000 
#    0.000    0.000    0.000    0.000    0.000    0.000 
#
# Total GULP energy -198457.107682 kJ/mol
# GULP energy per Si atom -12403.569230 kJ/mol
# Density = 2.123127 g / cm^3
# Si number density = 21.279706 Si / 1000 Ang^3
#
#
#
# Elastic Constant Matrix: (Units=GPa)
#
#
# Indices 1 2 3 4 5 6 
#
# 1 34.9105 22.3570 31.4398 -5.2464 -5.0914 8.2263
# 2 22.3570 139.4809 75.1474 -4.6186 -1.9514 13.0989
# 3 31.4398 75.1474 166.6803 -6.4850 -3.2104 2.6165
# 4 -5.2464 -4.6186 -6.4850 39.0524 -0.0601 0.5516
# 5 -5.0914 -1.9514 -3.2104 -0.0601 37.7393 5.0505
# 6 8.2263 13.0989 2.6165 0.5516 5.0505 33.0242
#
#
#
# Elastic Compliance Matrix: (Units=1/GPa)
#
#
# Indices 1 2 3 4 5 6 
#
# 1 0.039057 -0.001861 -0.006103 0.004157 0.005930 -0.009484
# 2 -0.001861 0.009985 -0.004082 0.000299 0.000351 -0.003232
# 3 -0.006103 -0.004082 0.008945 0.000146 -0.000611 0.002521
# 4 0.004157 0.000299 0.000146 0.026251 0.000863 -0.001736
# 5 0.005930 0.000351 -0.000611 0.000863 0.028051 -0.005872
# 6 -0.009484 -0.003232 0.002521 -0.001736 -0.005872 0.034653
#
#
# Mechanical properties :
#
#
# Convention : Reuss Voigt Hill
#
# Bulk Modulus (GPa) = 29.50214 66.55113 48.02663
# Shear Modulus (GPa) = 27.42253 36.10501 31.76377
#
# Velocity S-wave (km/s) = 3.59370 4.12356 3.86771
# Velocity P-wave (km/s) = 5.57796 7.34942 6.52409
#
# Compressibility (1/GPa) = 0.03389585
#
# Stress axis : x y z
#
# Youngs Moduli (GPa) = 25.60354 100.14904 111.79104
#
# Poissons Ratio (x) = 0.18637 0.68230
# Poissons Ratio (y) = 0.04765 0.45629
# Poissons Ratio (z) = 0.15627 0.40877
#
# Static dielectric constant tensor:
#      x y z
#    x 3.492300 0.166550 -0.070850 
#    y 0.166550 3.977880 -0.089330 
#    z -0.070850 -0.089330 4.017050 
# 
# 
# High freq. dielectric constant tensor:
#      x y z
#    x 1.799580 0.020330 -0.021930 
#    y 0.020330 1.834300 0.001720 
#    z -0.021930 0.001720 1.849100 
# 
# From -- ./inp_files/451304.got.cif
#   From: 2010.06.25/outbox.cif.g09.slc.cpg/sg2_226_cif.got.tgz:451304.got - 2010.06.27 13:26:56.
