data_PCOD8029737
_publ_section_title
;
Structure prediction by ZEFSAII (Michael W. Deem and Ramdas Pophale) SiO2 
 PCOD8029737
Probable space group: P -1
;
_chemical_formula_sum "Si O2"
_cell_formula_units_Z 14
_cell_length_a 12.458560
_cell_length_b 9.641653
_cell_length_c 9.042489
_cell_angle_alpha 74.998906
_cell_angle_beta 55.461101
_cell_angle_gamma 112.095585
_cell_volume 651.408316
_symmetry_space_group_name_H-M "P -1"
_symmetry_group_IT_number 2
_symmetry_cell_setting 'triclinic'
loop_
_space_group_symop_operation_xyz
x,y,z
-x,-y,-z
loop_
_atom_site_type_symbol
_atom_site_label
_atom_site_fract_x
_atom_site_fract_y
_atom_site_fract_z
Si Si1 0.710859 0.597913 0.931868
Si Si2 0.011605 0.180157 0.826570
Si Si3 0.421438 0.485126 0.402640
Si Si4 0.407555 0.710034 0.126668
Si Si5 0.123569 0.721494 0.326282
Si Si6 0.227522 0.047361 0.338438
Si Si7 0.000125 0.867009 0.828594
O O1 0.702807 0.483045 0.833266
O O2 0.788715 0.805010 0.754633
O O3 0.854701 0.660024 0.923398
O O4 0.523046 0.472293 0.195059
O O5 0.218193 0.306704 0.612239
O O6 0.923691 0.254798 0.804209
O O7 0.922168 0.970432 0.892491
O O8 0.956449 0.172106 0.039103
O O9 0.500000 0.500000 0.500000
O O10 0.438761 0.664690 0.280568
O O11 0.315254 0.797267 0.178535
O O12 0.581340 0.871373 0.859593
O O13 0.000000 0.500000 0.500000
O O14 0.094739 0.837114 0.424571
O O15 0.178170 0.009077 0.559410
#
# Coordination Sequence:
#
# PCOD8029737 Si02
#       7
#     2   2   2   2   2   2   2
#     4  11  21  40  66  96 122 165 219 263 308 370
#     4  11  23  41  61  96 130 166 206 265 320 369
#     4  11  21  39  62  93 124 161 210 263 315 360
#     4  11  24  41  66  95 128 167 210 264 314 377
#     4  12  24  42  65  93 132 170 210 253 320 387
#     4  11  23  41  63  94 124 166 218 259 309 375
#     4  11  22  38  66  93 127 163 215 267 309 366
#
# _framework density 21.491897000000002
#
# number of rings (size 3 to 8) (size 9 to 14) (size 15 to 20)
#    0.000    0.857    4.286    5.143    0.000    0.000 
#    0.000    5.000    0.000    0.000    0.000    0.000 
#    0.000    0.000    0.000    0.000    0.000    0.000 
#
# Total GULP energy -173440.653910 kJ/mol
# GULP energy per Si atom -12388.618136 kJ/mol
# Density = 2.144298 g / cm^3
# Si number density = 21.491897 Si / 1000 Ang^3
#
#
#
# Elastic Constant Matrix: (Units=GPa)
#
#
# Indices 1 2 3 4 5 6 
#
# 1 133.7361 24.5203 37.5439 8.9903 30.3342 -4.8048
# 2 24.5203 88.6793 23.8326 -1.2970 19.8111 4.6453
# 3 37.5439 23.8326 120.2947 13.7674 26.7598 6.1753
# 4 8.9903 -1.2970 13.7674 29.0386 6.1339 -2.2041
# 5 30.3342 19.8111 26.7598 6.1339 34.5520 -1.1030
# 6 -4.8048 4.6453 6.1753 -2.2041 -1.1030 28.9200
#
#
#
# Elastic Compliance Matrix: (Units=1/GPa)
#
#
# Indices 1 2 3 4 5 6 
#
# 1 0.009662 -0.000915 -0.001329 -0.000852 -0.006723 0.001715
# 2 -0.000915 0.013448 -0.001106 0.002638 -0.006587 -0.002126
# 3 -0.001329 -0.001106 0.010866 -0.003731 -0.006044 -0.002878
# 4 -0.000852 0.002638 -0.003731 0.037758 -0.004484 0.002938
# 5 -0.006723 -0.006587 -0.006044 -0.004484 0.044180 0.002575
# 6 0.001715 -0.002126 -0.002878 0.002938 0.002575 0.036141
#
#
# Mechanical properties :
#
#
# Convention : Reuss Voigt Hill
#
# Bulk Modulus (GPa) = 36.66278 57.16708 46.91493
# Shear Modulus (GPa) = 29.78879 35.62301 32.70590
#
# Velocity S-wave (km/s) = 3.72701 4.07567 3.90523
# Velocity P-wave (km/s) = 5.96797 6.98607 6.49699
#
# Compressibility (1/GPa) = 0.02727562
#
# Stress axis : x y z
#
# Youngs Moduli (GPa) = 103.49818 74.35816 92.02816
#
# Poissons Ratio (x) = 0.06802 0.12234
# Poissons Ratio (y) = 0.09468 0.10182
# Poissons Ratio (z) = 0.13759 0.08227
#
# Static dielectric constant tensor:
#      x y z
#    x 3.897550 0.177070 -0.013380 
#    y 0.177070 3.798020 0.043060 
#    z -0.013380 0.043060 4.130350 
# 
# 
# High freq. dielectric constant tensor:
#      x y z
#    x 1.835630 0.016000 -0.004720 
#    y 0.016000 1.831480 -0.003770 
#    z -0.004720 -0.003770 1.855890 
# 
# From -- ./inp_files/157614.got.cif
#   From: 2010.06.25/outbox.cif.g09.slc.cpg/sg2_79_cif.got.tgz:157614.got - 2010.06.27 13:26:56.
