data_PCOD8029390
_publ_section_title
;
Structure prediction by ZEFSAII (Michael W. Deem and Ramdas Pophale) SiO2 
 PCOD8029390
Probable space group: P -1
;
_chemical_formula_sum "Si O2"
_cell_formula_units_Z 16
_cell_length_a 11.231833
_cell_length_b 12.785031
_cell_length_c 8.544884
_cell_angle_alpha 116.310479
_cell_angle_beta 42.046162
_cell_angle_gamma 132.710173
_cell_volume 599.266648
_symmetry_space_group_name_H-M "P -1"
_symmetry_group_IT_number 2
_symmetry_cell_setting 'triclinic'
loop_
_space_group_symop_operation_xyz
x,y,z
-x,-y,-z
loop_
_atom_site_type_symbol
_atom_site_label
_atom_site_fract_x
_atom_site_fract_y
_atom_site_fract_z
Si Si1 0.875432 0.819908 0.226480
Si Si2 0.906354 0.693282 0.600624
Si Si3 0.624424 0.585094 0.100249
Si Si4 0.756542 0.429133 0.389278
Si Si5 0.316941 0.080110 0.750633
Si Si6 0.772498 0.889426 0.819247
Si Si7 0.500428 0.333269 0.279747
Si Si8 0.810068 0.215567 0.330365
O O1 0.867701 0.710481 0.024880
O O2 0.810525 0.916767 0.271454
O O3 0.692273 0.696731 0.438043
O O4 0.081930 0.936649 0.212725
O O5 0.906587 0.597640 0.398257
O O6 0.910290 0.823007 0.607374
O O7 0.120642 0.752837 0.534830
O O8 0.683948 0.585635 0.857480
O O9 0.475016 0.642671 0.332752
O O10 0.521302 0.433876 0.185681
O O11 0.715055 0.402995 0.224657
O O12 0.890624 0.363449 0.259788
O O13 0.550817 0.127754 0.502746
O O14 0.164873 0.909432 0.844282
O O15 0.326861 0.169277 0.949293
O O16 0.579009 0.817948 0.828617
#
# Coordination Sequence:
#
# PCOD8029390 Si02
#       8
#     2   2   2   2   2   2   2   2
#     4  11  20  41  64  97 127 159 209 265 317 368
#     4  12  23  37  69 100 120 162 219 273 302 368
#     4  11  22  39  67  96 126 163 216 262 315 361
#     4  11  22  42  62  89 131 169 206 253 322 376
#     4  11  22  40  68  91 127 167 208 265 317 372
#     4  12  23  40  69 101 122 157 224 269 309 364
#     4  11  25  40  64  94 132 173 202 260 322 375
#     4  11  23  40  64  93 130 165 208 259 323 373
#
# _framework density 26.699300999999998
#
# number of rings (size 3 to 8) (size 9 to 14) (size 15 to 20)
#    0.000    0.750    6.250    3.750    1.750    0.000 
#    0.000    1.250    0.000    0.000    0.000    0.000 
#    0.000    0.000    0.000    0.000    0.000    0.000 
#
# Total GULP energy -198226.689791 kJ/mol
# GULP energy per Si atom -12389.168112 kJ/mol
# Density = 2.663853 g / cm^3
# Si number density = 26.699301 Si / 1000 Ang^3
#
#
#
# Elastic Constant Matrix: (Units=GPa)
#
#
# Indices 1 2 3 4 5 6 
#
# 1 116.5412 40.4386 29.8248 37.5984 24.5739 15.1019
# 2 40.4386 118.0637 28.2261 28.3134 8.5803 13.7776
# 3 29.8248 28.2261 45.1717 9.6694 17.2552 -0.8540
# 4 37.5984 28.3134 9.6694 37.5313 2.6492 8.8238
# 5 24.5739 8.5803 17.2552 2.6492 42.9469 12.3755
# 6 15.1019 13.7776 -0.8540 8.8238 12.3755 50.5046
#
#
#
# Elastic Compliance Matrix: (Units=1/GPa)
#
#
# Indices 1 2 3 4 5 6 
#
# 1 0.015705 -0.000414 -0.005021 -0.013509 -0.005797 -0.000887
# 2 -0.000414 0.011855 -0.006402 -0.006406 0.001550 -0.002479
# 3 -0.005021 -0.006402 0.033822 0.000412 -0.011343 0.006527
# 4 -0.013509 -0.006406 0.000412 0.045310 0.007167 -0.003878
# 5 -0.005797 0.001550 -0.011343 0.007167 0.032759 -0.008160
# 6 -0.000887 -0.002479 0.006527 -0.003878 -0.008160 0.023529
#
#
# Mechanical properties :
#
#
# Convention : Reuss Voigt Hill
#
# Bulk Modulus (GPa) = 26.52040 52.97285 39.74662
# Shear Modulus (GPa) = 25.09733 38.28237 31.68985
#
# Velocity S-wave (km/s) = 3.06927 3.79071 3.44890
# Velocity P-wave (km/s) = 4.74501 6.24843 5.54788
#
# Compressibility (1/GPa) = 0.03770682
#
# Stress axis : x y z
#
# Youngs Moduli (GPa) = 63.67370 84.35002 29.56695
#
# Poissons Ratio (x) = 0.03494 0.14845
# Poissons Ratio (y) = 0.02638 0.18930
# Poissons Ratio (z) = 0.31970 0.54004
#
# Static dielectric constant tensor:
#      x y z
#    x 5.036000 0.345120 0.027240 
#    y 0.345120 5.456750 0.127000 
#    z 0.027240 0.127000 4.688230 
# 
# 
# High freq. dielectric constant tensor:
#      x y z
#    x 2.072430 0.039150 0.012590 
#    y 0.039150 2.109230 -0.006840 
#    z 0.012590 -0.006840 2.052720 
# 
# From -- ./inp_files/262776.got.cif
#   From: 2010.06.25/outbox.cif.g09.slc.cpg/sg2_132_cif.got.tgz:262776.got - 2010.06.27 13:26:56.
