data_PCOD8029753
_publ_section_title
;
Structure prediction by ZEFSAII (Michael W. Deem and Ramdas Pophale) SiO2 
 PCOD8029753
Probable space group: P -1
;
_chemical_formula_sum "Si O2"
_cell_formula_units_Z 14
_cell_length_a 6.884251
_cell_length_b 16.945529
_cell_length_c 10.136328
_cell_angle_alpha 125.283251
_cell_angle_beta 111.027501
_cell_angle_gamma 106.283788
_cell_volume 692.286277
_symmetry_space_group_name_H-M "P -1"
_symmetry_group_IT_number 2
_symmetry_cell_setting 'triclinic'
loop_
_space_group_symop_operation_xyz
x,y,z
-x,-y,-z
loop_
_atom_site_type_symbol
_atom_site_label
_atom_site_fract_x
_atom_site_fract_y
_atom_site_fract_z
Si Si1 0.987910 0.076591 0.886443
Si Si2 0.006883 0.286098 0.551613
Si Si3 0.186847 0.462597 0.525299
Si Si4 0.927129 0.369337 0.883651
Si Si5 0.595448 0.879633 0.790213
Si Si6 0.668535 0.811449 0.479788
Si Si7 0.188613 0.340671 0.154833
O O1 0.283580 0.123944 0.046797
O O2 0.018888 0.191905 0.945226
O O3 0.792602 0.022282 0.916892
O O4 0.853094 0.961714 0.637154
O O5 0.149626 0.403999 0.602855
O O6 0.173714 0.238238 0.561896
O O7 0.999037 0.326440 0.734268
O O8 0.707838 0.171560 0.312132
O O9 0.112758 0.362031 0.298841
O O10 0.494529 0.588947 0.707238
O O11 0.000000 0.500000 0.500000
O O12 0.609709 0.265977 0.745470
O O13 0.000000 0.500000 0.000000
O O14 0.107891 0.391516 0.071886
O O15 0.590685 0.789364 0.595803
#
# Coordination Sequence:
#
# PCOD8029753 Si02
#       7
#     2   2   2   2   2   2   2
#     4   9  18  39  60  87 123 158 192 242 303 356
#     4  11  21  39  65  89 116 158 201 247 295 348
#     4  11  24  40  62  92 120 152 204 251 292 349
#     4  11  24  41  61  85 121 162 202 240 295 357
#     4   8  18  36  59  90 122 151 194 241 297 352
#     4   9  20  37  58  88 117 155 198 242 287 359
#     4  11  24  42  61  88 125 160 190 249 305 344
#
# _framework density 20.222846000000001
#
# number of rings (size 3 to 8) (size 9 to 14) (size 15 to 20)
#    0.857    1.143    0.000    3.429    0.000    9.143 
#    2.571    0.714    0.000    0.000    0.000    0.000 
#    0.000    0.000    0.000    0.000    0.000    0.000 
#
# Total GULP energy -173558.664350 kJ/mol
# GULP energy per Si atom -12397.047454 kJ/mol
# Density = 2.017682 g / cm^3
# Si number density = 20.222846 Si / 1000 Ang^3
#
#
#
# Elastic Constant Matrix: (Units=GPa)
#
#
# Indices 1 2 3 4 5 6 
#
# 1 121.2798 31.3092 39.1612 4.4564 12.4302 -21.2124
# 2 31.3092 92.2718 26.7088 14.8549 -3.4530 -16.9477
# 3 39.1612 26.7088 96.6504 6.9721 9.3104 -17.1824
# 4 4.4564 14.8549 6.9721 34.7094 -5.7879 -4.8839
# 5 12.4302 -3.4530 9.3104 -5.7879 17.6423 1.3270
# 6 -21.2124 -16.9477 -17.1824 -4.8839 1.3270 30.3977
#
#
#
# Elastic Compliance Matrix: (Units=1/GPa)
#
#
# Indices 1 2 3 4 5 6 
#
# 1 0.011383 -0.002420 -0.002133 -0.000531 -0.007968 0.005651
# 2 -0.002420 0.013813 -0.002238 -0.003929 0.004004 0.003941
# 3 -0.002133 -0.002238 0.013527 -0.001978 -0.007091 0.004901
# 4 -0.000531 -0.003929 -0.001978 0.033017 0.011396 0.001128
# 5 -0.007968 0.004004 -0.007091 0.011396 0.071208 -0.008613
# 6 0.005651 0.003941 0.004901 0.001128 -0.008613 0.042366
#
#
# Mechanical properties :
#
#
# Convention : Reuss Voigt Hill
#
# Bulk Modulus (GPa) = 39.77687 56.06229 47.91958
# Shear Modulus (GPa) = 24.12242 30.75140 27.43691
#
# Velocity S-wave (km/s) = 3.45748 3.90375 3.68738
# Velocity P-wave (km/s) = 5.97084 6.93552 6.47118
#
# Compressibility (1/GPa) = 0.02514024
#
# Stress axis : x y z
#
# Youngs Moduli (GPa) = 87.84682 72.39676 73.92880
#
# Poissons Ratio (x) = 0.17519 0.15771
# Poissons Ratio (y) = 0.21257 0.16547
# Poissons Ratio (z) = 0.18740 0.16204
#
# Static dielectric constant tensor:
#      x y z
#    x 3.620510 0.010200 0.158260 
#    y 0.010200 3.410100 0.042030 
#    z 0.158260 0.042030 3.792270 
# 
# 
# High freq. dielectric constant tensor:
#      x y z
#    x 1.785200 -0.011270 0.013760 
#    y -0.011270 1.769380 0.006360 
#    z 0.013760 0.006360 1.798240 
# 
# From -- ./inp_files/368121.got.cif
#   From: 2010.06.25/outbox.cif.g09.slc.cpg/sg2_185_cif.got.tgz:368121.got - 2010.06.27 13:26:56.
