data_PCOD8029180
_publ_section_title
;
Structure prediction by ZEFSAII (Michael W. Deem and Ramdas Pophale) SiO2 
 PCOD8029180
Probable space group: P -1
;
_chemical_formula_sum "Si O2"
_cell_formula_units_Z 16
_cell_length_a 18.463897
_cell_length_b 9.803002
_cell_length_c 9.814611
_cell_angle_alpha 41.538176
_cell_angle_beta 68.178200
_cell_angle_gamma 49.341718
_cell_volume 869.573500
_symmetry_space_group_name_H-M "P -1"
_symmetry_group_IT_number 2
_symmetry_cell_setting 'triclinic'
loop_
_space_group_symop_operation_xyz
x,y,z
-x,-y,-z
loop_
_atom_site_type_symbol
_atom_site_label
_atom_site_fract_x
_atom_site_fract_y
_atom_site_fract_z
Si Si1 0.903207 0.540775 0.883607
Si Si2 0.126033 0.169788 0.046007
Si Si3 0.905485 0.743765 0.452759
Si Si4 0.805049 0.294136 0.034020
Si Si5 0.739909 0.402818 0.684569
Si Si6 0.624951 0.332962 0.125446
Si Si7 0.766144 0.811269 0.292532
Si Si8 0.527890 0.718579 0.682347
O O1 0.859617 0.710287 0.922733
O O2 0.907126 0.711177 0.638284
O O3 0.829355 0.475839 0.943530
O O4 0.013108 0.279632 0.026636
O O5 0.194513 0.861330 0.248776
O O6 0.158592 0.246825 0.834366
O O7 0.813756 0.763941 0.443560
O O8 0.000000 0.500000 0.500000
O O9 0.897076 0.997221 0.224854
O O10 0.708947 0.337215 0.138106
O O11 0.784071 0.346901 0.848116
O O12 0.740903 0.613664 0.443334
O O13 0.625486 0.522295 0.672846
O O14 0.564180 0.274954 0.312074
O O15 0.672777 0.113897 0.134309
O O16 0.548321 0.613505 0.901583
O O17 0.500000 0.000000 0.500000
#
# Coordination Sequence:
#
# PCOD8029180 Si02
#       8
#     2   2   2   2   2   2   2   2
#     4  11  24  38  56  79 116 160 186 232 285 329
#     4  11  24  39  51  83 121 147 192 235 280 335
#     4  11  20  34  57  83 105 146 196 236 268 330
#     4  10  21  35  56  82 109 146 193 234 276 330
#     4  11  20  34  59  85 111 150 186 236 286 331
#     4   9  19  32  51  88 114 135 186 237 276 331
#     4  11  19  34  56  83 113 145 188 234 273 328
#     4  10  17  30  55  87 117 140 176 240 289 328
#
# _framework density 18.399825
#
# number of rings (size 3 to 8) (size 9 to 14) (size 15 to 20)
#    0.000    1.500    7.500    0.000    1.750    2.000 
#    0.000    2.500    0.000    0.750    0.000    7.875 
#    0.000    0.000    0.000    0.000    0.000    0.000 
#
# Total GULP energy -198268.474187 kJ/mol
# GULP energy per Si atom -12391.779637 kJ/mol
# Density = 1.835795 g / cm^3
# Si number density = 18.399825 Si / 1000 Ang^3
#
#
#
# Elastic Constant Matrix: (Units=GPa)
#
#
# Indices 1 2 3 4 5 6 
#
# 1 105.1851 54.3130 32.9487 -4.5622 -22.3416 -1.0525
# 2 54.3130 102.4056 34.6639 -11.0956 -1.4162 -1.7229
# 3 32.9487 34.6639 79.0603 -17.6906 -13.4834 2.8222
# 4 -4.5622 -11.0956 -17.6906 27.7798 1.0534 3.2097
# 5 -22.3416 -1.4162 -13.4834 1.0534 30.0066 -1.1892
# 6 -1.0525 -1.7229 2.8222 3.2097 -1.1892 21.1654
#
#
#
# Elastic Compliance Matrix: (Units=1/GPa)
#
#
# Indices 1 2 3 4 5 6 
#
# 1 0.016712 -0.008267 -0.002009 -0.002430 0.011292 0.001429
# 2 -0.008267 0.015741 -0.004180 0.002473 -0.007352 0.000640
# 3 -0.002009 -0.004180 0.018820 0.010228 0.006240 -0.004150
# 4 -0.002430 0.002473 0.010228 0.043972 0.001047 -0.007893
# 5 0.011292 -0.007352 0.006240 0.001047 0.044211 0.001456
# 6 0.001429 0.000640 -0.004150 -0.007893 0.001456 0.049202
#
#
# Mechanical properties :
#
#
# Convention : Reuss Voigt Hill
#
# Bulk Modulus (GPa) = 44.72011 58.94470 51.83240
# Shear Modulus (GPa) = 22.21978 26.77204 24.49591
#
# Velocity S-wave (km/s) = 3.47884 3.81861 3.65267
# Velocity P-wave (km/s) = 6.36347 7.17965 6.78385
#
# Compressibility (1/GPa) = 0.02236131
#
# Stress axis : x y z
#
# Youngs Moduli (GPa) = 59.83556 63.52653 53.13607
#
# Poissons Ratio (x) = 0.52516 0.10677
# Poissons Ratio (y) = 0.49465 0.22211
# Poissons Ratio (z) = 0.12023 0.26554
#
# Static dielectric constant tensor:
#      x y z
#    x 3.607500 -0.383070 0.003630 
#    y -0.383070 3.361060 -0.349190 
#    z 0.003630 -0.349190 3.704490 
# 
# 
# High freq. dielectric constant tensor:
#      x y z
#    x 1.706460 -0.027280 -0.019940 
#    y -0.027280 1.690020 -0.027560 
#    z -0.019940 -0.027560 1.716030 
# 
# From -- ./inp_files/214954.got.cif
#   From: 2010.06.25/outbox.cif.g09.slc.cpg/sg2_108_cif.got.tgz:214954.got - 2010.06.27 13:26:56.
