data_PCOD8029430
_publ_section_title
;
Structure prediction by ZEFSAII (Michael W. Deem and Ramdas Pophale) SiO2 
 PCOD8029430
Probable space group: P -1
;
_chemical_formula_sum "Si O2"
_cell_formula_units_Z 14
_cell_length_a 15.416858
_cell_length_b 9.913268
_cell_length_c 12.421936
_cell_angle_alpha 123.548472
_cell_angle_beta 134.225227
_cell_angle_gamma 27.529436
_cell_volume 616.245220
_symmetry_space_group_name_H-M "P -1"
_symmetry_group_IT_number 2
_symmetry_cell_setting 'triclinic'
loop_
_space_group_symop_operation_xyz
x,y,z
-x,-y,-z
loop_
_atom_site_type_symbol
_atom_site_label
_atom_site_fract_x
_atom_site_fract_y
_atom_site_fract_z
Si Si1 0.049953 0.182484 0.609977
Si Si2 0.554580 0.758774 0.402249
Si Si3 0.708821 0.747845 0.144470
Si Si4 0.628531 0.949926 0.842247
Si Si5 0.536276 0.465327 0.388954
Si Si6 0.857749 0.284879 0.937797
Si Si7 0.983996 0.290876 0.835516
O O1 0.144538 0.257462 0.720032
O O2 0.011084 0.166419 0.692233
O O3 0.815193 0.448100 0.462366
O O4 0.208568 0.871608 0.557000
O O5 0.482256 0.705673 0.403960
O O6 0.500000 0.000000 0.500000
O O7 0.415440 0.888282 0.228669
O O8 0.611773 0.810232 0.205239
O O9 0.857339 0.442752 0.083055
O O10 0.500000 0.000000 0.000000
O O11 0.746761 0.649251 0.778448
O O12 0.800702 0.835872 0.024681
O O13 0.500000 0.500000 0.500000
O O14 0.388215 0.503645 0.210571
O O15 0.982488 0.174149 0.884173
O O16 0.000000 0.000000 0.000000
#
# Coordination Sequence:
#
# PCOD8029430 Si02
#       7
#     2   2   2   2   2   2   2
#     4  12  25  46  75 100 144 187 239 289 361 430
#     4  12  28  45  70 107 142 186 241 293 350 424
#     4  12  22  44  72 107 134 188 237 286 356 422
#     4  11  22  40  71 103 141 178 237 291 343 424
#     4  12  28  50  71 101 150 192 233 291 363 427
#     4  12  26  43  72 106 142 179 244 301 347 416
#     4  11  20  41  72 100 135 188 229 289 360 410
#
# _framework density 22.718228
#
# number of rings (size 3 to 8) (size 9 to 14) (size 15 to 20)
#    0.000    0.286    5.714    3.000    4.000    2.857 
#    0.000    2.857    0.000    0.000    0.000    0.000 
#    0.000    0.000    0.000    0.000    0.000    0.000 
#
# Total GULP energy -173616.203184 kJ/mol
# GULP energy per Si atom -12401.157370 kJ/mol
# Density = 2.266652 g / cm^3
# Si number density = 22.718228 Si / 1000 Ang^3
#
#
#
# Elastic Constant Matrix: (Units=GPa)
#
#
# Indices 1 2 3 4 5 6 
#
# 1 140.4535 47.5846 29.3436 3.1707 -26.2075 10.1732
# 2 47.5846 119.0441 32.6336 3.8860 -27.6385 4.7805
# 3 29.3436 32.6336 77.2284 -5.5152 -15.5477 3.2058
# 4 3.1707 3.8860 -5.5152 39.1319 3.3171 -2.1153
# 5 -26.2075 -27.6385 -15.5477 3.3171 47.2942 1.5534
# 6 10.1732 4.7805 3.2058 -2.1153 1.5534 45.6763
#
#
#
# Elastic Compliance Matrix: (Units=1/GPa)
#
#
# Indices 1 2 3 4 5 6 
#
# 1 0.009022 -0.002245 -0.001837 -0.001138 0.003223 -0.001808
# 2 -0.002245 0.011275 -0.003110 -0.001793 0.004471 -0.000697
# 3 -0.001837 -0.003110 0.015577 0.002456 0.002123 -0.000317
# 4 -0.001138 -0.001793 0.002456 0.026493 -0.002781 0.001590
# 5 0.003223 0.004471 0.002123 -0.002781 0.026514 -0.002365
# 6 -0.001808 -0.000697 -0.000317 0.001590 -0.002365 0.022545
#
#
# Mechanical properties :
#
#
# Convention : Reuss Voigt Hill
#
# Bulk Modulus (GPa) = 46.53356 61.76105 54.14731
# Shear Modulus (GPa) = 37.60178 41.56477 39.58327
#
# Velocity S-wave (km/s) = 4.07275 4.28200 4.17868
# Velocity P-wave (km/s) = 6.53022 7.18972 6.86789
#
# Compressibility (1/GPa) = 0.02148987
#
# Stress axis : x y z
#
# Youngs Moduli (GPa) = 110.83923 88.69398 64.19780
#
# Poissons Ratio (x) = 0.19910 0.11792
# Poissons Ratio (y) = 0.24881 0.19967
# Poissons Ratio (z) = 0.20359 0.27586
#
# Static dielectric constant tensor:
#      x y z
#    x 4.460840 -0.012540 0.079330 
#    y -0.012540 3.842400 -0.168990 
#    z 0.079330 -0.168990 4.264300 
# 
# 
# High freq. dielectric constant tensor:
#      x y z
#    x 1.909020 -0.002690 0.001580 
#    y -0.002690 1.890350 -0.005270 
#    z 0.001580 -0.005270 1.901460 
# 
# From -- ./inp_files/306654.got.cif
#   From: 2010.06.25/outbox.cif.g09.slc.cpg/sg2_154_cif.got.tgz:306654.got - 2010.06.27 13:26:56.
