data_PCOD8029183
_publ_section_title
;
Structure prediction by ZEFSAII (Michael W. Deem and Ramdas Pophale) SiO2 
 PCOD8029183
Probable space group: P -1
;
_chemical_formula_sum "Si O2"
_cell_formula_units_Z 16
_cell_length_a 13.976755
_cell_length_b 14.132795
_cell_length_c 10.016479
_cell_angle_alpha 62.692418
_cell_angle_beta 102.711832
_cell_angle_gamma 49.310544
_cell_volume 849.699432
_symmetry_space_group_name_H-M "P -1"
_symmetry_group_IT_number 2
_symmetry_cell_setting 'triclinic'
loop_
_space_group_symop_operation_xyz
x,y,z
-x,-y,-z
loop_
_atom_site_type_symbol
_atom_site_label
_atom_site_fract_x
_atom_site_fract_y
_atom_site_fract_z
Si Si1 0.854740 0.751010 0.937892
Si Si2 0.845831 0.915766 0.491268
Si Si3 0.801154 0.113806 0.596227
Si Si4 0.460493 0.913178 0.559167
Si Si5 0.398177 0.552401 0.302498
Si Si6 0.022488 0.783140 0.106161
Si Si7 0.137573 0.488401 0.948708
Si Si8 0.104994 0.000215 0.802324
O O1 0.820557 0.659605 0.029226
O O2 0.978209 0.699786 0.118588
O O3 0.962458 0.639016 0.902143
O O4 0.652494 0.007351 0.668080
O O5 0.061622 0.653782 0.720169
O O6 0.846886 0.998439 0.558694
O O7 0.673407 0.991406 0.415183
O O8 0.802971 0.012868 0.275696
O O9 0.565340 0.353350 0.380526
O O10 0.915433 0.117302 0.608474
O O11 0.882377 0.987486 0.839645
O O12 0.500000 0.000000 0.500000
O O13 0.668946 0.657289 0.813399
O O14 0.500000 0.500000 0.500000
O O15 0.251646 0.593518 0.269316
O O16 0.276290 0.759981 0.058646
O O17 0.970273 0.853794 0.196770
#
# Coordination Sequence:
#
# PCOD8029183 Si02
#       8
#     2   2   2   2   2   2   2   2
#     4   9  18  33  58  88 107 144 197 236 280 338
#     4  11  23  37  56  90 121 152 189 236 299 340
#     4  11  21  39  58  84 115 152 201 235 275 352
#     4   9  18  34  58  84 112 147 191 238 276 336
#     4  11  21  38  61  83 112 156 201 237 283 338
#     4  11  20  37  61  85 113 151 195 243 283 343
#     4   9  18  35  56  82 117 144 185 242 286 333
#     4  11  24  38  56  84 126 152 185 246 291 344
#
# _framework density 18.830188
#
# number of rings (size 3 to 8) (size 9 to 14) (size 15 to 20)
#    0.000    1.750    5.000    1.875    1.750    1.500 
#    0.000    0.625    0.000    3.000    0.000    0.000 
#    0.000    0.000    0.000    0.000    0.000    0.000 
#
# Total GULP energy -198270.379605 kJ/mol
# GULP energy per Si atom -12391.898725 kJ/mol
# Density = 1.878733 g / cm^3
# Si number density = 18.830188 Si / 1000 Ang^3
#
#
#
# Elastic Constant Matrix: (Units=GPa)
#
#
# Indices 1 2 3 4 5 6 
#
# 1 106.1045 57.2874 49.3519 11.0971 13.4456 3.0023
# 2 57.2874 66.5377 42.1148 0.3239 -4.2148 2.4577
# 3 49.3519 42.1148 107.0729 -9.1898 8.4086 2.0288
# 4 11.0971 0.3239 -9.1898 28.4176 -4.5569 -2.9901
# 5 13.4456 -4.2148 8.4086 -4.5569 30.1389 2.9091
# 6 3.0023 2.4577 2.0288 -2.9901 2.9091 26.4817
#
#
#
# Elastic Compliance Matrix: (Units=1/GPa)
#
#
# Indices 1 2 3 4 5 6 
#
# 1 0.025615 -0.020636 -0.003634 -0.013451 -0.015280 -0.000551
# 2 -0.020636 0.037694 -0.005945 0.008345 0.017561 -0.001690
# 3 -0.003634 -0.005945 0.014012 0.005728 -0.002330 0.000793
# 4 -0.013451 0.008345 0.005728 0.044534 0.011914 0.004031
# 5 -0.015280 0.017561 -0.002330 0.011914 0.045226 -0.003342
# 6 -0.000551 -0.001690 0.000793 0.004031 -0.003342 0.038743
#
#
# Mechanical properties :
#
#
# Convention : Reuss Voigt Hill
#
# Bulk Modulus (GPa) = 59.20419 64.13591 61.67005
# Shear Modulus (GPa) = 18.39007 25.73838 22.06423
#
# Velocity S-wave (km/s) = 3.12849 3.70113 3.42679
# Velocity P-wave (km/s) = 6.67528 7.23869 6.96268
#
# Compressibility (1/GPa) = 0.01689070
#
# Stress axis : x y z
#
# Youngs Moduli (GPa) = 39.03891 26.52960 71.36584
#
# Poissons Ratio (x) = 0.54748 0.25933
# Poissons Ratio (y) = 0.80562 0.42428
# Poissons Ratio (z) = 0.14186 0.15772
#
# Static dielectric constant tensor:
#      x y z
#    x 3.723930 0.083250 0.189380 
#    y 0.083250 3.258550 -0.297700 
#    z 0.189380 -0.297700 3.821300 
# 
# 
# High freq. dielectric constant tensor:
#      x y z
#    x 1.733450 0.011990 0.015760 
#    y 0.011990 1.701120 -0.018560 
#    z 0.015760 -0.018560 1.733770 
# 
# From -- ./inp_files/313004.got.cif
#   From: 2010.06.25/outbox.cif.g09.slc.cpg/sg2_157_cif.got.tgz:313004.got - 2010.06.27 13:26:56.
