data_PCOD8029872
_publ_section_title
;
Structure prediction by ZEFSAII (Michael W. Deem and Ramdas Pophale) SiO2 
 PCOD8029872
Probable space group: P -1
;
_chemical_formula_sum "Si O2"
_cell_formula_units_Z 12
_cell_length_a 13.299152
_cell_length_b 10.433679
_cell_length_c 6.522183
_cell_angle_alpha 104.260946
_cell_angle_beta 86.257369
_cell_angle_gamma 139.578472
_cell_volume 557.864678
_symmetry_space_group_name_H-M "P -1"
_symmetry_group_IT_number 2
_symmetry_cell_setting 'triclinic'
loop_
_space_group_symop_operation_xyz
x,y,z
-x,-y,-z
loop_
_atom_site_type_symbol
_atom_site_label
_atom_site_fract_x
_atom_site_fract_y
_atom_site_fract_z
Si Si1 0.583642 0.699885 0.186943
Si Si2 0.978308 0.635753 0.583158
Si Si3 0.632812 0.313892 0.602575
Si Si4 0.601614 0.065829 0.818792
Si Si5 0.195352 0.942381 0.021780
Si Si6 0.126411 0.012245 0.456563
O O1 0.439021 0.619749 0.295251
O O2 0.664388 0.879495 0.083579
O O3 0.500000 0.500000 0.000000
O O4 0.714539 0.782214 0.364962
O O5 0.796084 0.494382 0.529850
O O6 0.000000 0.500000 0.500000
O O7 0.039228 0.743989 0.840131
O O8 0.069868 0.811545 0.466998
O O9 0.669208 0.264510 0.780294
O O10 0.504209 0.119053 0.399097
O O11 0.751608 0.130479 0.884516
O O12 0.500000 0.000000 0.000000
O O13 0.158160 0.026185 0.214538
O O14 0.000000 0.000000 0.500000
#
# Coordination Sequence:
#
# PCOD8029872 Si02
#       6
#     2   2   2   2   2   2
#     4  11  26  44  67  96 131 174 223 273 324 388
#     4  11  26  44  68 101 137 172 219 272 331 393
#     4  11  24  40  67 100 131 166 222 275 321 393
#     4  11  21  40  68  96 130 168 213 272 334 379
#     4  11  24  45  68  94 135 173 218 273 329 394
#     4  11  27  47  67  96 135 178 221 270 332 397
#
# _framework density 21.510593
#
# number of rings (size 3 to 8) (size 9 to 14) (size 15 to 20)
#    0.000    1.000    3.333    2.000    9.333    7.333 
#    0.000    0.000    0.000    0.000    0.000    0.000 
#    0.000    0.000    0.000    0.000    0.000    0.000 
#
# Total GULP energy -148830.526293 kJ/mol
# GULP energy per Si atom -12402.543858 kJ/mol
# Density = 2.146163 g / cm^3
# Si number density = 21.510593 Si / 1000 Ang^3
#
#
#
# Elastic Constant Matrix: (Units=GPa)
#
#
# Indices 1 2 3 4 5 6 
#
# 1 137.1474 9.3988 31.7660 10.1179 -13.2966 13.0798
# 2 9.3988 53.5569 8.1350 14.9501 -3.5817 3.8176
# 3 31.7660 8.1350 100.6912 5.6476 -12.6842 -3.6520
# 4 10.1179 14.9501 5.6476 36.1065 2.9932 -2.9907
# 5 -13.2966 -3.5817 -12.6842 2.9932 44.6705 -3.4981
# 6 13.0798 3.8176 -3.6520 -2.9907 -3.4981 35.1457
#
#
#
# Elastic Compliance Matrix: (Units=1/GPa)
#
#
# Indices 1 2 3 4 5 6 
#
# 1 0.008542 -0.000094 -0.002461 -0.002399 0.001726 -0.003457
# 2 -0.000094 0.021764 -0.001098 -0.009214 0.001784 -0.003050
# 3 -0.002461 -0.001098 0.011247 -0.000631 0.002604 0.002409
# 4 -0.002399 -0.009214 -0.000631 0.032927 -0.003503 0.004281
# 5 0.001726 0.001784 0.002604 -0.003503 0.024138 0.001539
# 6 -0.003457 -0.003050 0.002409 0.004281 0.001539 0.030839
#
#
# Mechanical properties :
#
#
# Convention : Reuss Voigt Hill
#
# Bulk Modulus (GPa) = 29.19837 43.33281 36.26559
# Shear Modulus (GPa) = 33.74362 39.32424 36.53393
#
# Velocity S-wave (km/s) = 3.96498 4.28031 4.12566
# Velocity P-wave (km/s) = 5.87918 6.67957 6.29212
#
# Compressibility (1/GPa) = 0.03424849
#
# Stress axis : x y z
#
# Youngs Moduli (GPa) = 117.07110 45.94830 88.91143
#
# Poissons Ratio (x) = 0.00430 0.21877
# Poissons Ratio (y) = 0.01096 0.09761
# Poissons Ratio (z) = 0.28806 0.05045
#
# Static dielectric constant tensor:
#      x y z
#    x 3.950670 0.061900 0.040130 
#    y 0.061900 3.980050 -0.084780 
#    z 0.040130 -0.084780 4.153000 
# 
# 
# High freq. dielectric constant tensor:
#      x y z
#    x 1.852350 0.009300 -0.001840 
#    y 0.009300 1.837120 -0.001650 
#    z -0.001840 -0.001650 1.860540 
# 
# From -- ./inp_files/91858.got.cif
#   From: 2010.06.25/outbox.cif.g09.slc.cpg/sg2_46_cif.got.tgz:91858.got - 2010.06.27 13:26:56.
