data_PCOD8029685
_publ_section_title
;
Structure prediction by ZEFSAII (Michael W. Deem and Ramdas Pophale) SiO2 
 PCOD8029685
Probable space group: P -1
;
_chemical_formula_sum "Si O2"
_cell_formula_units_Z 16
_cell_length_a 14.994399
_cell_length_b 6.669180
_cell_length_c 24.028383
_cell_angle_alpha 69.671443
_cell_angle_beta 161.235617
_cell_angle_gamma 109.177241
_cell_volume 724.798161
_symmetry_space_group_name_H-M "P -1"
_symmetry_group_IT_number 2
_symmetry_cell_setting 'triclinic'
loop_
_space_group_symop_operation_xyz
x,y,z
-x,-y,-z
loop_
_atom_site_type_symbol
_atom_site_label
_atom_site_fract_x
_atom_site_fract_y
_atom_site_fract_z
Si Si1 0.903062 0.183744 0.728728
Si Si2 0.630390 0.778874 0.661488
Si Si3 0.222343 0.115706 0.750854
Si Si4 0.605410 0.252429 0.357659
Si Si5 0.209874 0.023743 0.071994
Si Si6 0.546790 0.319185 0.830491
Si Si7 0.995713 0.550665 0.139794
Si Si8 0.454747 0.255786 0.986363
O O1 0.677711 0.199653 0.545887
O O2 0.919349 0.414647 0.748587
O O3 0.199532 0.146186 0.878944
O O4 0.827163 0.975807 0.741203
O O5 0.614119 0.769836 0.719458
O O6 0.746501 0.551243 0.730666
O O7 0.318048 0.171017 0.739131
O O8 0.408978 0.237023 0.895194
O O9 0.904049 0.180380 0.562453
O O10 0.268628 0.864429 0.815999
O O11 0.507661 0.097065 0.265239
O O12 0.606839 0.496152 0.313115
O O13 0.256723 0.811961 0.083160
O O14 0.070552 0.204441 0.935486
O O15 0.000000 0.000000 0.000000
O O16 0.727556 0.411652 0.979542
O O17 0.500000 0.500000 0.000000
#
# Coordination Sequence:
#
# PCOD8029685 Si02
#       8
#     2   2   2   2   2   2   2   2
#     4  11  23  42  66  97 132 173 219 278 338 391
#     4  11  23  41  65  97 137 169 219 277 334 399
#     4  11  24  44  65  98 132 174 228 273 326 393
#     4  11  24  43  66  98 133 175 221 274 331 395
#     4  11  23  40  63  94 128 171 217 270 328 392
#     4  11  24  42  69  92 137 177 220 275 325 397
#     4  11  21  38  63  94 125 170 217 262 332 392
#     4  11  24  44  69  96 134 178 221 276 330 393
#
# _framework density 22.075112000000001
#
# number of rings (size 3 to 8) (size 9 to 14) (size 15 to 20)
#    0.000    1.000    1.250    6.000    0.000    5.500 
#    4.500    0.000    0.000    0.000    0.000    0.000 
#    0.000    0.000    0.000    0.000    0.000    0.000 
#
# Total GULP energy -198340.266911 kJ/mol
# GULP energy per Si atom -12396.266682 kJ/mol
# Density = 2.202487 g / cm^3
# Si number density = 22.075112 Si / 1000 Ang^3
#
#
#
# Elastic Constant Matrix: (Units=GPa)
#
#
# Indices 1 2 3 4 5 6 
#
# 1 114.1747 39.4440 24.5419 -1.7675 5.9463 -2.2779
# 2 39.4440 142.1439 51.7610 -14.5254 -7.1926 -11.4607
# 3 24.5419 51.7610 92.1972 -23.2395 -0.4058 4.4290
# 4 -1.7675 -14.5254 -23.2395 27.4503 -6.6275 -2.0657
# 5 5.9463 -7.1926 -0.4058 -6.6275 33.6346 -0.0480
# 6 -2.2779 -11.4607 4.4290 -2.0657 -0.0480 37.2294
#
#
#
# Elastic Compliance Matrix: (Units=1/GPa)
#
#
# Indices 1 2 3 4 5 6 
#
# 1 0.010196 -0.002553 -0.002097 -0.003202 -0.003005 -0.000094
# 2 -0.002553 0.010085 -0.004561 0.002311 0.003014 0.003623
# 3 -0.002097 -0.004561 0.017211 0.012293 0.002021 -0.002895
# 4 -0.003202 0.002311 0.012293 0.050700 0.011201 0.001881
# 5 -0.003005 0.003014 0.002021 0.011201 0.033140 0.001168
# 6 -0.000094 0.003623 -0.002895 0.001881 0.001168 0.028420
#
#
# Mechanical properties :
#
#
# Convention : Reuss Voigt Hill
#
# Bulk Modulus (GPa) = 52.43130 64.44551 58.43841
# Shear Modulus (GPa) = 28.64829 35.18076 31.91453
#
# Velocity S-wave (km/s) = 3.60636 3.99643 3.80639
# Velocity P-wave (km/s) = 6.41436 7.11002 6.77113
#
# Compressibility (1/GPa) = 0.01907258
#
# Stress axis : x y z
#
# Youngs Moduli (GPa) = 98.07642 99.15742 58.10081
#
# Poissons Ratio (x) = 0.25311 0.12183
# Poissons Ratio (y) = 0.25035 0.26497
# Poissons Ratio (z) = 0.20565 0.45221
#
# Static dielectric constant tensor:
#      x y z
#    x 4.001770 -0.132960 -0.103630 
#    y -0.132960 3.976700 -0.038520 
#    z -0.103630 -0.038520 3.951530 
# 
# 
# High freq. dielectric constant tensor:
#      x y z
#    x 1.875750 -0.008660 -0.010380 
#    y -0.008660 1.868450 -0.004710 
#    z -0.010380 -0.004710 1.873970 
# 
# From -- ./inp_files/71671.got.cif
#   From: 2010.06.25/outbox.cif.g09.slc.cpg/sg2_36_cif.got.tgz:71671.got - 2010.06.27 13:26:56.
