data_PCOD8029043
_publ_section_title
;
Structure prediction by ZEFSAII (Michael W. Deem and Ramdas Pophale) SiO2 
 PCOD8029043
Probable space group: P -1
;
_chemical_formula_sum "Si O2"
_cell_formula_units_Z 14
_cell_length_a 25.392277
_cell_length_b 10.784812
_cell_length_c 17.219293
_cell_angle_alpha 148.402283
_cell_angle_beta 158.739110
_cell_angle_gamma 22.506995
_cell_volume 653.108742
_symmetry_space_group_name_H-M "P -1"
_symmetry_group_IT_number 2
_symmetry_cell_setting 'triclinic'
loop_
_space_group_symop_operation_xyz
x,y,z
-x,-y,-z
loop_
_atom_site_type_symbol
_atom_site_label
_atom_site_fract_x
_atom_site_fract_y
_atom_site_fract_z
Si Si1 0.786351 0.700079 0.519654
Si Si2 0.683990 0.348835 0.484288
Si Si3 0.946566 0.328850 0.385283
Si Si4 0.730444 0.248021 0.669400
Si Si5 0.037855 0.553516 0.918745
Si Si6 0.370564 0.074545 0.230893
Si Si7 0.296417 0.785736 0.098383
O O1 0.820281 0.521108 0.391788
O O2 0.950536 0.469408 0.689454
O O3 0.825698 0.934213 0.683221
O O4 0.564327 0.896285 0.349089
O O5 0.753220 0.175480 0.570718
O O6 0.677266 0.641665 0.630756
O O7 0.468523 0.498554 0.239681
O O8 0.862253 0.031441 0.510444
O O9 0.000000 0.500000 0.500000
O O10 0.812554 0.320989 0.140353
O O11 0.500000 0.500000 0.500000
O O12 0.827951 0.387512 0.903013
O O13 0.177893 0.241930 0.001346
O O14 0.854231 0.873104 0.883017
O O15 0.403589 0.812688 0.191253
#
# Coordination Sequence:
#
# PCOD8029043 Si02
#       7
#     2   2   2   2   2   2   2
#     4  12  24  41  65 100 139 169 220 277 335 392
#     4  11  23  42  69  99 128 176 221 279 322 390
#     4  12  27  45  63 100 142 175 219 274 334 405
#     4  11  19  40  66  99 130 162 231 279 317 385
#     4  11  22  39  71  98 125 180 220 277 327 382
#     4  11  24  43  72 102 129 171 234 281 311 403
#     4  12  24  44  73  97 131 180 229 266 338 389
#
# _framework density 21.435939999999999
#
# number of rings (size 3 to 8) (size 9 to 14) (size 15 to 20)
#    0.000    0.571    8.571    1.286    0.000    3.429 
#    0.000    1.429    0.000    0.000    0.000    0.000 
#    0.000    0.000    0.000    0.000    0.000    0.000 
#
# Total GULP energy -173556.934066 kJ/mol
# GULP energy per Si atom -12396.923862 kJ/mol
# Density = 2.138715 g / cm^3
# Si number density = 21.435940 Si / 1000 Ang^3
#
#
#
# Elastic Constant Matrix: (Units=GPa)
#
#
# Indices 1 2 3 4 5 6 
#
# 1 70.1246 23.4622 37.1659 9.1094 8.0318 -1.3416
# 2 23.4622 80.3612 39.7137 -10.9676 4.4641 -11.4883
# 3 37.1659 39.7137 130.4298 -21.0833 -19.3234 3.0855
# 4 9.1094 -10.9676 -21.0833 33.2600 4.2818 -1.4225
# 5 8.0318 4.4641 -19.3234 4.2818 38.2751 0.9110
# 6 -1.3416 -11.4883 3.0855 -1.4225 0.9110 24.7001
#
#
#
# Elastic Compliance Matrix: (Units=1/GPa)
#
#
# Indices 1 2 3 4 5 6 
#
# 1 0.022030 -0.003595 -0.008071 -0.011428 -0.007003 0.000133
# 2 -0.003595 0.017956 -0.004500 0.005010 -0.004391 0.009169
# 3 -0.008071 -0.004500 0.014040 0.008360 0.008470 -0.004116
# 4 -0.011428 0.005010 0.008360 0.040082 0.001481 0.002919
# 5 -0.007003 -0.004391 0.008470 0.001481 0.032328 -0.004588
# 6 0.000133 0.009169 -0.004116 0.002919 -0.004588 0.045609
#
#
# Mechanical properties :
#
#
# Convention : Reuss Voigt Hill
#
# Bulk Modulus (GPa) = 46.09542 53.51103 49.80322
# Shear Modulus (GPa) = 23.62865 31.28531 27.45698
#
# Velocity S-wave (km/s) = 3.32368 3.82446 3.58283
# Velocity P-wave (km/s) = 6.02326 6.67229 6.35606
#
# Compressibility (1/GPa) = 0.02169413
#
# Stress axis : x y z
#
# Youngs Moduli (GPa) = 45.39346 55.69192 71.22271
#
# Poissons Ratio (x) = 0.20022 0.57480
# Poissons Ratio (y) = 0.16319 0.32053
# Poissons Ratio (z) = 0.36635 0.25063
#
# Static dielectric constant tensor:
#      x y z
#    x 3.661870 0.144560 -0.006630 
#    y 0.144560 4.724050 0.080230 
#    z -0.006630 0.080230 4.015510 
# 
# 
# High freq. dielectric constant tensor:
#      x y z
#    x 1.842820 -0.000400 0.000290 
#    y -0.000400 1.826190 -0.021420 
#    z 0.000290 -0.021420 1.848450 
# 
# From -- ./inp_files/471736.got.cif
#   From: 2010.06.25/outbox.cif.g09.slc.cpg/sg2_236_cif.got.tgz:471736.got - 2010.06.27 13:26:56.
