data_PCOD8029123
_publ_section_title
;
Structure prediction by ZEFSAII (Michael W. Deem and Ramdas Pophale) SiO2 
 PCOD8029123
Probable space group: P -1
;
_chemical_formula_sum "Si O2"
_cell_formula_units_Z 16
_cell_length_a 18.113181
_cell_length_b 21.583027
_cell_length_c 12.022500
_cell_angle_alpha 141.534464
_cell_angle_beta 149.925332
_cell_angle_gamma 19.388679
_cell_volume 766.070657
_symmetry_space_group_name_H-M "P -1"
_symmetry_group_IT_number 2
_symmetry_cell_setting 'triclinic'
loop_
_space_group_symop_operation_xyz
x,y,z
-x,-y,-z
loop_
_atom_site_type_symbol
_atom_site_label
_atom_site_fract_x
_atom_site_fract_y
_atom_site_fract_z
Si Si1 0.726824 0.552188 0.636440
Si Si2 0.335616 0.195215 0.020328
Si Si3 0.281879 0.036348 0.997086
Si Si4 0.818529 0.494472 0.429818
Si Si5 0.363407 0.607754 0.356999
Si Si6 0.549412 0.825279 0.265032
Si Si7 0.321941 0.464032 0.927636
Si Si8 0.306580 0.219487 0.378818
O O1 0.672445 0.703148 0.766504
O O2 0.750258 0.489880 0.456137
O O3 0.475367 0.648457 0.514943
O O4 0.012935 0.356920 0.799268
O O5 0.498050 0.144054 0.050823
O O6 0.500000 0.000000 0.000000
O O7 0.967332 0.194055 0.770482
O O8 0.366111 0.105833 0.198887
O O9 0.304660 0.994387 0.097493
O O10 0.690029 0.500600 0.170578
O O11 0.646925 0.697047 0.486989
O O12 0.151534 0.321258 0.607806
O O13 0.500000 0.500000 0.500000
O O14 0.438227 0.485061 0.185740
O O15 0.495860 0.739487 0.098891
O O16 0.508402 0.906002 0.443529
O O17 0.012769 0.609551 0.761646
#
# Coordination Sequence:
#
# PCOD8029123 Si02
#       8
#     2   2   2   2   2   2   2   2
#     4  11  24  41  63  87 124 161 199 250 301 360
#     4  11  24  41  62  91 116 157 207 251 299 351
#     4  11  20  35  59  85 117 153 198 248 290 356
#     4   9  16  35  60  87 114 153 200 241 299 350
#     4  11  25  41  57  85 121 162 199 244 302 361
#     4   9  16  31  58  92 113 145 197 247 295 343
#     4   8  18  34  59  84 118 155 193 243 293 360
#     4   8  16  30  58  89 118 146 190 253 293 343
#
# _framework density 20.885802999999999
#
# number of rings (size 3 to 8) (size 9 to 14) (size 15 to 20)
#    0.000    2.250    1.250    3.375    1.750    3.000 
#    2.250    0.000    0.000    1.500    0.000    0.000 
#    0.000    0.000    0.000    0.000    0.000    0.000 
#
# Total GULP energy -198224.385938 kJ/mol
# GULP energy per Si atom -12389.024121 kJ/mol
# Density = 2.083827 g / cm^3
# Si number density = 20.885803 Si / 1000 Ang^3
#
#
#
# Elastic Constant Matrix: (Units=GPa)
#
#
# Indices 1 2 3 4 5 6 
#
# 1 73.1789 6.2982 38.3437 2.9225 -11.7718 -2.3222
# 2 6.2982 63.1329 31.4060 -3.3815 -1.8931 1.9674
# 3 38.3437 31.4060 104.7676 0.4146 -20.9824 2.2138
# 4 2.9225 -3.3815 0.4146 26.0411 0.7852 -6.9526
# 5 -11.7718 -1.8931 -20.9824 0.7852 29.7792 2.5339
# 6 -2.3222 1.9674 2.2138 -6.9526 2.5339 32.1745
#
#
#
# Elastic Compliance Matrix: (Units=1/GPa)
#
#
# Indices 1 2 3 4 5 6 
#
# 1 0.017322 0.001353 -0.006270 -0.001451 0.002461 0.001091
# 2 0.001353 0.019172 -0.006897 0.002601 -0.003192 0.000213
# 3 -0.006270 -0.006897 0.015615 -0.001231 0.008290 -0.002024
# 4 -0.001451 0.002601 -0.001231 0.041424 -0.003135 0.009019
# 5 0.002461 -0.003192 0.008290 -0.003135 0.040621 -0.004074
# 6 0.001091 0.000213 -0.002024 0.009019 -0.004074 0.033555
#
#
# Mechanical properties :
#
#
# Convention : Reuss Voigt Hill
#
# Bulk Modulus (GPa) = 35.10889 43.68613 39.39751
# Shear Modulus (GPa) = 24.89662 28.60105 26.74884
#
# Velocity S-wave (km/s) = 3.45633 3.70456 3.58260
# Velocity P-wave (km/s) = 5.72492 6.26581 6.00146
#
# Compressibility (1/GPa) = 0.02848282
#
# Stress axis : x y z
#
# Youngs Moduli (GPa) = 57.72875 52.15852 64.04153
#
# Poissons Ratio (x) = -0.07056 0.40152
# Poissons Ratio (y) = -0.07810 0.44167
# Poissons Ratio (z) = 0.36194 0.35971
#
# Static dielectric constant tensor:
#      x y z
#    x 3.654790 -0.035900 -0.419040 
#    y -0.035900 4.380780 0.768920 
#    z -0.419040 0.768920 4.223080 
# 
# 
# High freq. dielectric constant tensor:
#      x y z
#    x 1.809510 0.006270 -0.033780 
#    y 0.006270 1.809640 0.012600 
#    z -0.033780 0.012600 1.803300 
# 
# From -- ./inp_files/467144.got.cif
#   From: 2010.06.25/outbox.cif.g09.slc.cpg/sg2_234_cif.got.tgz:467144.got - 2010.06.27 13:26:56.
