data_PCOD8029549
_publ_section_title
;
Structure prediction by ZEFSAII (Michael W. Deem and Ramdas Pophale) SiO2 
 PCOD8029549
Probable space group: P -1
;
_chemical_formula_sum "Si O2"
_cell_formula_units_Z 16
_cell_length_a 9.388623
_cell_length_b 25.450187
_cell_length_c 11.579188
_cell_angle_alpha 146.559949
_cell_angle_beta 38.976035
_cell_angle_gamma 149.832891
_cell_volume 750.369674
_symmetry_space_group_name_H-M "P -1"
_symmetry_group_IT_number 2
_symmetry_cell_setting 'triclinic'
loop_
_space_group_symop_operation_xyz
x,y,z
-x,-y,-z
loop_
_atom_site_type_symbol
_atom_site_label
_atom_site_fract_x
_atom_site_fract_y
_atom_site_fract_z
Si Si1 0.014198 0.054591 0.261706
Si Si2 0.135393 0.535977 0.303628
Si Si3 0.602975 0.522595 0.607213
Si Si4 0.605307 0.679125 0.078259
Si Si5 0.946389 0.279562 0.952437
Si Si6 0.375916 0.011428 0.820698
Si Si7 0.633200 0.675510 0.425532
Si Si8 0.741300 0.930991 0.446755
O O1 0.289691 0.196315 0.356158
O O2 0.133695 0.984000 0.013550
O O3 0.775414 0.038221 0.298866
O O4 0.864848 0.003333 0.383592
O O5 0.332679 0.577742 0.142164
O O6 0.328570 0.594382 0.403016
O O7 0.935605 0.576204 0.495703
O O8 0.932577 0.389981 0.177030
O O9 0.500000 0.500000 0.500000
O O10 0.394205 0.394711 0.571152
O O11 0.585353 0.621031 0.861031
O O12 0.897934 0.726592 0.046469
O O13 0.600755 0.790757 0.263896
O O14 0.113787 0.300576 0.768247
O O15 0.626487 0.155388 0.916678
O O16 0.491601 0.939324 0.659264
O O17 0.000000 0.000000 0.500000
#
# Coordination Sequence:
#
# PCOD8029549 Si02
#       8
#     2   2   2   2   2   2   2   2
#     4  11  26  44  70 100 136 180 231 278 332 401
#     4  11  23  43  73  97 127 180 226 272 332 399
#     4  12  27  43  65 105 140 170 217 279 348 400
#     4  11  24  43  66 101 138 172 222 281 334 397
#     4  11  20  44  76  95 126 177 233 276 328 399
#     4  11  25  45  69 101 132 181 232 276 335 400
#     4  11  21  43  73  97 129 177 229 271 329 404
#     4  12  24  43  67 100 140 181 223 278 339 398
#
# _framework density 21.322824000000001
#
# number of rings (size 3 to 8) (size 9 to 14) (size 15 to 20)
#    0.000    0.750    5.000    3.000    1.750    6.000 
#    0.000    0.000    0.000    0.000    0.000    0.000 
#    0.000    0.000    0.000    0.000    0.000    0.000 
#
# Total GULP energy -198492.557491 kJ/mol
# GULP energy per Si atom -12405.784843 kJ/mol
# Density = 2.127429 g / cm^3
# Si number density = 21.322824 Si / 1000 Ang^3
#
#
#
# Elastic Constant Matrix: (Units=GPa)
#
#
# Indices 1 2 3 4 5 6 
#
# 1 99.4850 16.8053 56.8550 -0.6430 2.8108 -2.4421
# 2 16.8053 50.3976 23.7236 15.8177 -3.5661 1.4490
# 3 56.8550 23.7236 133.3986 16.8630 -8.8535 1.3690
# 4 -0.6430 15.8177 16.8630 39.8068 -3.8509 -7.4028
# 5 2.8108 -3.5661 -8.8535 -3.8509 43.5435 -4.9397
# 6 -2.4421 1.4490 1.3690 -7.4028 -4.9397 24.8456
#
#
#
# Elastic Compliance Matrix: (Units=1/GPa)
#
#
# Indices 1 2 3 4 5 6 
#
# 1 0.014360 -0.003530 -0.006228 0.004665 -0.001729 0.003007
# 2 -0.003530 0.025138 -0.001596 -0.010184 0.000534 -0.004653
# 3 -0.006228 -0.001596 0.011136 -0.004382 0.001915 -0.002057
# 4 0.004665 -0.010184 -0.004382 0.033499 0.002267 0.011726
# 5 -0.001729 0.000534 0.001915 0.002267 0.024301 0.005200
# 6 0.003007 -0.004653 -0.002057 0.011726 0.005200 0.045456
#
#
# Mechanical properties :
#
#
# Convention : Reuss Voigt Hill
#
# Bulk Modulus (GPa) = 35.80596 53.11653 44.46125
# Shear Modulus (GPa) = 26.89528 34.03233 30.46381
#
# Velocity S-wave (km/s) = 3.55538 3.99940 3.78391
# Velocity P-wave (km/s) = 5.80372 6.80379 6.32356
#
# Compressibility (1/GPa) = 0.02792831
#
# Stress axis : x y z
#
# Youngs Moduli (GPa) = 69.63837 39.78026 89.79489
#
# Poissons Ratio (x) = 0.14041 0.55922
# Poissons Ratio (y) = 0.24579 0.14329
# Poissons Ratio (z) = 0.43369 0.06348
#
# Static dielectric constant tensor:
#      x y z
#    x 3.728570 0.019440 -0.030500 
#    y 0.019440 3.883260 -0.000150 
#    z -0.030500 -0.000150 4.136950 
# 
# 
# High freq. dielectric constant tensor:
#      x y z
#    x 1.826590 0.002010 0.002780 
#    y 0.002010 1.839070 -0.003450 
#    z 0.002780 -0.003450 1.857110 
# 
# From -- ./inp_files/273299.got.cif
#   From: 2010.06.25/outbox.cif.g09.slc.cpg/sg2_137_cif.got.tgz:273299.got - 2010.06.27 13:26:56.
