data_PCOD8029362
_publ_section_title
;
Structure prediction by ZEFSAII (Michael W. Deem and Ramdas Pophale) SiO2 
 PCOD8029362
Probable space group: P -1
;
_chemical_formula_sum "Si O2"
_cell_formula_units_Z 14
_cell_length_a 18.180641
_cell_length_b 12.825926
_cell_length_c 9.503288
_cell_angle_alpha 35.425616
_cell_angle_beta 45.294632
_cell_angle_gamma 28.854081
_cell_volume 619.459363
_symmetry_space_group_name_H-M "P -1"
_symmetry_group_IT_number 2
_symmetry_cell_setting 'triclinic'
loop_
_space_group_symop_operation_xyz
x,y,z
-x,-y,-z
loop_
_atom_site_type_symbol
_atom_site_label
_atom_site_fract_x
_atom_site_fract_y
_atom_site_fract_z
Si Si1 0.151800 0.779528 0.122260
Si Si2 0.570869 0.415045 0.151498
Si Si3 0.338616 0.690091 0.398334
Si Si4 0.925601 0.449910 0.343935
Si Si5 0.225800 0.454098 0.852058
Si Si6 0.284566 0.004544 0.372825
Si Si7 0.087246 0.125964 0.070407
O O1 0.160721 0.576937 0.408707
O O2 0.163734 0.924168 0.060448
O O3 0.294180 0.609351 0.010505
O O4 0.000000 0.000000 0.000000
O O5 0.442632 0.635339 0.193079
O O6 0.648992 0.126513 0.417212
O O7 0.500000 0.500000 0.000000
O O8 0.344912 0.463953 0.654494
O O9 0.378353 0.745536 0.428460
O O10 0.165009 0.960262 0.292718
O O11 0.863052 0.504588 0.210921
O O12 0.106321 0.187161 0.398508
O O13 0.884471 0.698963 0.181879
O O14 0.093626 0.686633 0.882487
O O15 0.318917 0.167585 0.108265
#
# Coordination Sequence:
#
# PCOD8029362 Si02
#       7
#     2   2   2   2   2   2   2
#     4  12  25  44  66  92 134 180 227 265 321 398
#     4  12  26  45  65  95 139 182 214 269 335 396
#     4  12  22  41  68  96 136 175 213 271 337 394
#     4  11  20  40  70 102 127 167 224 281 323 385
#     4  11  21  38  72 104 127 165 224 275 337 380
#     4  11  23  42  67  97 132 170 225 276 321 395
#     4  11  21  38  69  99 132 169 218 277 331 380
#
# _framework density 22.600353999999999
#
# number of rings (size 3 to 8) (size 9 to 14) (size 15 to 20)
#    0.000    0.571    7.143    2.571    0.000    1.143 
#    0.000    2.143    0.000    0.000    0.000    0.000 
#    0.000    0.000    0.000    0.000    0.000    0.000 
#
# Total GULP energy -173611.484986 kJ/mol
# GULP energy per Si atom -12400.820356 kJ/mol
# Density = 2.254891 g / cm^3
# Si number density = 22.600354 Si / 1000 Ang^3
#
#
#
# Elastic Constant Matrix: (Units=GPa)
#
#
# Indices 1 2 3 4 5 6 
#
# 1 95.3076 20.9331 57.3853 1.8518 1.1087 0.1734
# 2 20.9331 65.1293 57.2162 21.2711 -21.3639 0.3314
# 3 57.3853 57.2162 188.0303 -2.6068 -2.6994 3.4693
# 4 1.8518 21.2711 -2.6068 32.7440 -7.9752 -3.4620
# 5 1.1087 -21.3639 -2.6994 -7.9752 51.2493 -6.7373
# 6 0.1734 0.3314 3.4693 -3.4620 -6.7373 24.8488
#
#
#
# Elastic Compliance Matrix: (Units=1/GPa)
#
#
# Indices 1 2 3 4 5 6 
#
# 1 0.012949 -0.001137 -0.003629 -0.000521 -0.001015 0.000084
# 2 -0.001137 0.035613 -0.010642 -0.021078 0.011176 0.001112
# 3 -0.003629 -0.010642 0.009739 0.007091 -0.002871 -0.000983
# 4 -0.000521 -0.021078 0.007091 0.045242 -0.000649 0.005422
# 5 -0.001015 0.011176 -0.002871 -0.000649 0.024849 0.006906
# 6 0.000084 0.001112 -0.000983 0.005422 0.006906 0.042993
#
#
# Mechanical properties :
#
#
# Convention : Reuss Voigt Hill
#
# Bulk Modulus (GPa) = 36.38351 68.83738 52.61045
# Shear Modulus (GPa) = 23.65596 35.96393 29.80995
#
# Velocity S-wave (km/s) = 3.23880 3.99344 3.63575
# Velocity P-wave (km/s) = 5.48817 7.19639 6.39953
#
# Compressibility (1/GPa) = 0.02748498
#
# Stress axis : x y z
#
# Youngs Moduli (GPa) = 77.22557 28.07976 102.67468
#
# Poissons Ratio (x) = 0.03192 0.37265
# Poissons Ratio (y) = 0.08778 1.09267
# Poissons Ratio (z) = 0.28028 0.29883
#
# Static dielectric constant tensor:
#      x y z
#    x 3.780830 -0.042760 0.230760 
#    y -0.042760 4.252380 0.141320 
#    z 0.230760 0.141320 4.442230 
# 
# 
# High freq. dielectric constant tensor:
#      x y z
#    x 1.881100 -0.020590 0.010680 
#    y -0.020590 1.889920 -0.000950 
#    z 0.010680 -0.000950 1.905240 
# 
# From -- ./inp_files/244318.got.cif
#   From: 2010.06.25/outbox.cif.g09.slc.cpg/sg2_123_cif.got.tgz:244318.got - 2010.06.27 13:26:56.
