data_PCOD8029327
_publ_section_title
;
Structure prediction by ZEFSAII (Michael W. Deem and Ramdas Pophale) SiO2 
 PCOD8029327
Probable space group: P -1
;
_chemical_formula_sum "Si O2"
_cell_formula_units_Z 16
_cell_length_a 21.896566
_cell_length_b 18.833877
_cell_length_c 11.466530
_cell_angle_alpha 32.355184
_cell_angle_beta 151.437302
_cell_angle_gamma 160.011775
_cell_volume 767.402343
_symmetry_space_group_name_H-M "P -1"
_symmetry_group_IT_number 2
_symmetry_cell_setting 'triclinic'
loop_
_space_group_symop_operation_xyz
x,y,z
-x,-y,-z
loop_
_atom_site_type_symbol
_atom_site_label
_atom_site_fract_x
_atom_site_fract_y
_atom_site_fract_z
Si Si1 0.329565 0.261255 0.011379
Si Si2 0.207239 0.920476 0.403116
Si Si3 0.089559 0.982735 0.337353
Si Si4 0.361808 0.281580 0.768223
Si Si5 0.215342 0.438780 0.206682
Si Si6 0.460784 0.898850 0.952104
Si Si7 0.845572 0.103254 0.199866
Si Si8 0.188112 0.352689 0.021104
O O1 0.289065 0.222993 0.859970
O O2 0.129537 0.153039 0.891542
O O3 0.500000 0.500000 0.000000
O O4 0.358834 0.134629 0.283388
O O5 0.201275 0.977539 0.442495
O O6 0.302176 0.851323 0.671938
O O7 0.985243 0.728027 0.241644
O O8 0.057328 0.879880 0.545704
O O9 0.216055 0.217372 0.243992
O O10 0.334698 0.405408 0.497081
O O11 0.592000 0.413932 0.965917
O O12 0.223164 0.069296 0.760631
O O13 0.128472 0.344889 0.062450
O O14 0.025799 0.326075 0.127209
O O15 0.378589 0.686774 0.135706
O O16 0.500000 0.000000 0.000000
O O17 0.664192 0.054649 0.999884
#
# Coordination Sequence:
#
# PCOD8029327 Si02
#       8
#     2   2   2   2   2   2   2   2
#     4  11  23  39  66 104 133 169 220 283 343 394
#     4  11  25  44  63  95 143 179 221 272 337 406
#     4  11  20  40  66  97 135 168 218 289 335 392
#     4  12  22  42  73 106 132 165 227 291 339 394
#     4  12  25  44  72 101 135 173 227 284 333 399
#     4  12  28  47  67  94 138 191 225 268 331 411
#     4  12  23  44  71 104 130 172 233 279 335 392
#     4  11  22  41  69 100 133 173 217 283 351 386
#
# _framework density 20.849557000000001
#
# number of rings (size 3 to 8) (size 9 to 14) (size 15 to 20)
#    0.000    0.500    5.000    6.000    1.750    1.000 
#    4.500    1.250    0.000    0.000    0.000    0.000 
#    0.000    0.000    0.000    0.000    0.000    0.000 
#
# Total GULP energy -198440.915391 kJ/mol
# GULP energy per Si atom -12402.557212 kJ/mol
# Density = 2.080210 g / cm^3
# Si number density = 20.849557 Si / 1000 Ang^3
#
#
#
# Elastic Constant Matrix: (Units=GPa)
#
#
# Indices 1 2 3 4 5 6 
#
# 1 104.9627 16.9358 19.6007 9.7793 -1.3225 -4.3971
# 2 16.9358 77.7100 9.6949 7.0954 -2.3693 3.5315
# 3 19.6007 9.6949 90.2641 11.1241 1.6515 -0.6312
# 4 9.7793 7.0954 11.1241 25.3796 3.8056 4.6825
# 5 -1.3225 -2.3693 1.6515 3.8056 28.1803 6.1477
# 6 -4.3971 3.5315 -0.6312 4.6825 6.1477 40.0544
#
#
#
# Elastic Compliance Matrix: (Units=1/GPa)
#
#
# Indices 1 2 3 4 5 6 
#
# 1 0.010508 -0.001846 -0.001693 -0.003160 0.000519 0.001579
# 2 -0.001846 0.013740 -0.000771 -0.002807 0.001792 -0.001373
# 3 -0.001693 -0.000771 0.012095 -0.004497 -0.000389 0.000658
# 4 -0.003160 -0.002807 -0.004497 0.045008 -0.005188 -0.004636
# 5 0.000519 0.001792 -0.000389 -0.005188 0.037532 -0.005261
# 6 0.001579 -0.001373 0.000658 -0.004636 -0.005261 0.026620
#
#
# Mechanical properties :
#
#
# Convention : Reuss Voigt Hill
#
# Bulk Modulus (GPa) = 36.07096 40.59996 38.33546
# Shear Modulus (GPa) = 30.60618 33.83654 32.22136
#
# Velocity S-wave (km/s) = 3.83554 4.03288 3.93545
# Velocity P-wave (km/s) = 6.07893 6.41877 6.25116
#
# Compressibility (1/GPa) = 0.02772313
#
# Stress axis : x y z
#
# Youngs Moduli (GPa) = 95.16265 72.77832 82.67976
#
# Poissons Ratio (x) = 0.13438 0.13994
# Poissons Ratio (y) = 0.17571 0.06377
# Poissons Ratio (z) = 0.16107 0.05613
#
# Static dielectric constant tensor:
#      x y z
#    x 4.064010 0.154450 -0.118430 
#    y 0.154450 3.824610 -0.014050 
#    z -0.118430 -0.014050 3.720920 
# 
# 
# High freq. dielectric constant tensor:
#      x y z
#    x 1.830830 0.001260 -0.010370 
#    y 0.001260 1.821090 0.012200 
#    z -0.010370 0.012200 1.802690 
# 
# From -- ./inp_files/424553.got.cif
#   From: 2010.06.25/outbox.cif.g09.slc.cpg/sg2_213_cif.got.tgz:424553.got - 2010.06.27 13:26:56.
