data_PCOD8029537
_publ_section_title
;
Structure prediction by ZEFSAII (Michael W. Deem and Ramdas Pophale) SiO2 
 PCOD8029537
Probable space group: P -1
;
_chemical_formula_sum "Si O2"
_cell_formula_units_Z 16
_cell_length_a 9.344383
_cell_length_b 9.222958
_cell_length_c 11.692368
_cell_angle_alpha 61.118782
_cell_angle_beta 119.094361
_cell_angle_gamma 103.238152
_cell_volume 770.991779
_symmetry_space_group_name_H-M "P -1"
_symmetry_group_IT_number 2
_symmetry_cell_setting 'triclinic'
loop_
_space_group_symop_operation_xyz
x,y,z
-x,-y,-z
loop_
_atom_site_type_symbol
_atom_site_label
_atom_site_fract_x
_atom_site_fract_y
_atom_site_fract_z
Si Si1 0.740234 0.057362 0.338001
Si Si2 0.506177 0.541876 0.654494
Si Si3 0.466164 0.780806 0.344599
Si Si4 0.842478 0.670676 0.803618
Si Si5 0.946357 0.021661 0.646056
Si Si6 0.102979 0.867389 0.164602
Si Si7 0.915358 0.576110 0.105864
Si Si8 0.627682 0.413472 0.164919
O O1 0.643990 0.223614 0.201513
O O2 0.863800 0.003074 0.305554
O O3 0.611267 0.911684 0.366556
O O4 0.846095 0.108801 0.471458
O O5 0.431455 0.673411 0.485763
O O6 0.480570 0.350210 0.682910
O O7 0.698981 0.570768 0.726229
O O8 0.420237 0.577914 0.725986
O O9 0.298306 0.881924 0.212615
O O10 0.846100 0.854736 0.688812
O O11 0.012267 0.585319 0.866885
O O12 0.820566 0.678117 0.930073
O O13 0.942473 0.123238 0.723063
O O14 0.054763 0.684699 0.176061
O O15 0.000000 0.000000 0.000000
O O16 0.795485 0.514055 0.181271
O O17 0.500000 0.500000 0.000000
#
# Coordination Sequence:
#
# PCOD8029537 Si02
#       8
#     2   2   2   2   2   2   2   2
#     4  11  26  45  67  98 133 172 222 273 330 391
#     4  11  24  45  69  98 129 173 217 276 329 388
#     4  11  26  45  67  98 133 172 222 273 330 391
#     4  11  20  44  71  90 133 178 219 263 321 402
#     4  11  24  45  69  98 129 173 217 276 329 388
#     4  12  26  42  66  99 132 172 222 268 329 389
#     4  11  24  42  65  97 136 174 218 268 323 397
#     4  12  26  42  66  99 132 172 222 268 329 389
#
# _framework density 20.752493000000001
#
# number of rings (size 3 to 8) (size 9 to 14) (size 15 to 20)
#    0.000    0.750    6.250    0.750    5.250    2.000 
#    0.000    2.500    0.000    0.000    0.000    0.000 
#    0.000    0.000    0.000    0.000    0.000    0.000 
#
# Total GULP energy -198429.429243 kJ/mol
# GULP energy per Si atom -12401.839328 kJ/mol
# Density = 2.070526 g / cm^3
# Si number density = 20.752493 Si / 1000 Ang^3
#
#
#
# Elastic Constant Matrix: (Units=GPa)
#
#
# Indices 1 2 3 4 5 6 
#
# 1 98.4536 34.4374 27.8228 -8.4655 2.3741 -3.0446
# 2 34.4374 96.4226 33.9839 3.1166 2.0280 -3.8845
# 3 27.8228 33.9839 78.9615 -4.1679 12.8983 -3.9116
# 4 -8.4655 3.1166 -4.1679 32.4255 -2.4512 -1.3165
# 5 2.3741 2.0280 12.8983 -2.4512 29.3556 -0.0224
# 6 -3.0446 -3.8845 -3.9116 -1.3165 -0.0224 29.5292
#
#
#
# Elastic Compliance Matrix: (Units=1/GPa)
#
#
# Indices 1 2 3 4 5 6 
#
# 1 0.012479 -0.003579 -0.002771 0.003325 0.000734 0.000598
# 2 -0.003579 0.013444 -0.004843 -0.002728 0.001262 0.000637
# 3 -0.002771 -0.004843 0.016979 0.001468 -0.006778 0.001387
# 4 0.003325 -0.002728 0.001468 0.032374 0.001979 0.001623
# 5 0.000734 0.001262 -0.006778 0.001979 0.037061 -0.000540
# 6 0.000598 0.000637 0.001387 0.001623 -0.000540 0.034266
#
#
# Mechanical properties :
#
#
# Convention : Reuss Voigt Hill
#
# Bulk Modulus (GPa) = 48.74774 51.81399 50.28087
# Shear Modulus (GPa) = 28.43685 30.10164 29.26924
#
# Velocity S-wave (km/s) = 3.70575 3.81268 3.75960
# Velocity P-wave (km/s) = 6.46925 6.66362 6.56716
#
# Compressibility (1/GPa) = 0.02051377
#
# Stress axis : x y z
#
# Youngs Moduli (GPa) = 80.13569 74.38519 58.89697
#
# Poissons Ratio (x) = 0.26621 0.16323
# Poissons Ratio (y) = 0.28680 0.28526
# Poissons Ratio (z) = 0.22210 0.36027
#
# Static dielectric constant tensor:
#      x y z
#    x 3.771600 -0.018550 -0.063460 
#    y -0.018550 3.811750 0.092490 
#    z -0.063460 0.092490 3.912700 
# 
# 
# High freq. dielectric constant tensor:
#      x y z
#    x 1.816860 -0.002270 0.001790 
#    y -0.002270 1.812140 -0.001630 
#    z 0.001790 -0.001630 1.817760 
# 
# From -- ./inp_files/381454.got.cif
#   From: 2010.06.25/outbox.cif.g09.slc.cpg/sg2_191_cif.got.tgz:381454.got - 2010.06.27 13:26:56.
