data_PCOD8029587
_publ_section_title
;
Structure prediction by ZEFSAII (Michael W. Deem and Ramdas Pophale) SiO2 
 PCOD8029587
Probable space group: P -1
;
_chemical_formula_sum "Si O2"
_cell_formula_units_Z 16
_cell_length_a 12.840853
_cell_length_b 17.427861
_cell_length_c 11.061680
_cell_angle_alpha 82.686774
_cell_angle_beta 65.345953
_cell_angle_gamma 26.886231
_cell_volume 817.335062
_symmetry_space_group_name_H-M "P -1"
_symmetry_group_IT_number 2
_symmetry_cell_setting 'triclinic'
loop_
_space_group_symop_operation_xyz
x,y,z
-x,-y,-z
loop_
_atom_site_type_symbol
_atom_site_label
_atom_site_fract_x
_atom_site_fract_y
_atom_site_fract_z
Si Si1 0.861164 0.064662 0.426642
Si Si2 0.402319 0.679954 0.069208
Si Si3 0.533692 0.118454 0.516170
Si Si4 0.843380 0.514476 0.761485
Si Si5 0.468707 0.889152 0.761479
Si Si6 0.093417 0.254435 0.483835
Si Si7 0.489674 0.436154 0.426639
Si Si8 0.224713 0.693013 0.930793
O O1 0.692167 0.088253 0.518564
O O2 0.602448 0.288588 0.468207
O O3 0.000000 0.000000 0.500000
O O4 0.134419 0.891292 0.230400
O O5 0.525861 0.530605 0.117665
O O6 0.680692 0.565166 0.932740
O O7 0.258867 0.741132 0.999999
O O8 0.546058 0.129630 0.366002
O O9 0.176540 0.332831 0.689058
O O10 0.721708 0.921579 0.486447
O O11 0.630114 0.722067 0.796309
O O12 0.884974 0.439324 0.634014
O O13 0.662524 0.846850 0.689051
O O14 0.124137 0.121724 0.932732
O O15 0.869474 0.350107 0.481436
O O16 0.500000 0.500000 0.500000
O O17 0.712327 0.313393 0.230395
#
# Coordination Sequence:
#
# PCOD8029587 Si02
#       8
#     2   2   2   2   2   2   2   2
#     4  12  25  42  63  89 123 162 203 247 302 363
#     4  11  22  38  62  91 123 158 202 251 301 354
#     4  11  21  37  59  87 122 160 200 247 302 356
#     4  11  21  35  59  91 122 156 200 251 302 353
#     4  11  21  35  59  91 122 156 200 251 302 353
#     4  11  21  37  59  87 122 160 200 247 302 356
#     4  12  25  42  63  89 123 162 203 247 302 363
#     4  11  22  38  62  91 123 158 202 251 301 354
#
# _framework density 19.575814000000001
#
# number of rings (size 3 to 8) (size 9 to 14) (size 15 to 20)
#    0.000    0.750    2.500    9.000    0.000    1.000 
#    0.000    1.250    0.000    0.000    0.000    0.000 
#    0.000    0.000    0.000    0.000    0.000    0.000 
#
# Total GULP energy -198517.952538 kJ/mol
# GULP energy per Si atom -12407.372034 kJ/mol
# Density = 1.953126 g / cm^3
# Si number density = 19.575814 Si / 1000 Ang^3
#
#
#
# Elastic Constant Matrix: (Units=GPa)
#
#
# Indices 1 2 3 4 5 6 
#
# 1 124.1929 16.3658 52.3112 0.0491 -13.8233 -11.3138
# 2 16.3658 80.6782 18.1634 2.2934 -0.7524 1.2953
# 3 52.3112 18.1634 96.1924 3.7749 -17.6700 -8.1504
# 4 0.0491 2.2934 3.7749 33.3396 -0.1478 -4.7237
# 5 -13.8233 -0.7524 -17.6700 -0.1478 35.2966 1.8396
# 6 -11.3138 1.2953 -8.1504 -4.7237 1.8396 33.1550
#
#
#
# Elastic Compliance Matrix: (Units=1/GPa)
#
#
# Indices 1 2 3 4 5 6 
#
# 1 0.010782 -0.001067 -0.005222 0.001009 0.001460 0.002500
# 2 -0.001067 0.013146 -0.002208 -0.000867 -0.001170 -0.001479
# 3 -0.005222 -0.002208 0.014788 -0.001284 0.005229 0.001467
# 4 0.001009 -0.000867 -0.001284 0.030830 -0.000370 0.004476
# 5 0.001460 -0.001170 0.005229 -0.000370 0.031493 0.000029
# 6 0.002500 -0.001479 0.001467 0.004476 0.000029 0.032069
#
#
# Mechanical properties :
#
#
# Convention : Reuss Voigt Hill
#
# Bulk Modulus (GPa) = 46.03603 52.74939 49.39271
# Shear Modulus (GPa) = 31.77806 34.63976 33.20891
#
# Velocity S-wave (km/s) = 4.03343 4.21113 4.12324
# Velocity P-wave (km/s) = 6.72750 7.11685 6.92491
#
# Compressibility (1/GPa) = 0.02172212
#
# Stress axis : x y z
#
# Youngs Moduli (GPa) = 92.74935 76.06889 67.62440
#
# Poissons Ratio (x) = 0.08115 0.35310
# Poissons Ratio (y) = 0.09894 0.14933
# Poissons Ratio (z) = 0.48429 0.16798
#
# Static dielectric constant tensor:
#      x y z
#    x 3.588580 0.019360 -0.260670 
#    y 0.019360 3.638730 0.060850 
#    z -0.260670 0.060850 3.627820 
# 
# 
# High freq. dielectric constant tensor:
#      x y z
#    x 1.755440 0.006710 -0.027680 
#    y 0.006710 1.779760 0.007050 
#    z -0.027680 0.007050 1.755560 
# 
# From -- ./inp_files/425514.got.cif
#   From: 2010.06.25/outbox.cif.g09.slc.cpg/sg2_213_cif.got.tgz:425514.got - 2010.06.27 13:26:56.
