data_PCOD8029450
_publ_section_title
;
Structure prediction by ZEFSAII (Michael W. Deem and Ramdas Pophale) SiO2 
 PCOD8029450
Probable space group: P -1
;
_chemical_formula_sum "Si O2"
_cell_formula_units_Z 12
_cell_length_a 12.297121
_cell_length_b 8.765210
_cell_length_c 9.476570
_cell_angle_alpha 63.191823
_cell_angle_beta 128.296343
_cell_angle_gamma 83.842307
_cell_volume 596.532974
_symmetry_space_group_name_H-M "P -1"
_symmetry_group_IT_number 2
_symmetry_cell_setting 'triclinic'
loop_
_space_group_symop_operation_xyz
x,y,z
-x,-y,-z
loop_
_atom_site_type_symbol
_atom_site_label
_atom_site_fract_x
_atom_site_fract_y
_atom_site_fract_z
Si Si1 0.382707 0.446517 0.510314
Si Si2 0.381630 0.617400 0.721799
Si Si3 0.434430 0.028421 0.779320
Si Si4 0.884559 0.986306 0.523644
Si Si5 0.575523 0.789304 0.730853
Si Si6 0.119717 0.568853 0.033848
O O1 0.500000 0.500000 0.500000
O O2 0.370541 0.470988 0.661023
O O3 0.429483 0.215962 0.619728
O O4 0.204424 0.586370 0.234942
O O5 0.451785 0.717171 0.634714
O O6 0.200577 0.798394 0.552084
O O7 0.500000 0.500000 0.000000
O O8 0.256727 0.049631 0.631580
O O9 0.568454 0.830832 0.876786
O O10 0.500000 0.000000 0.000000
O O11 0.000000 0.000000 0.500000
O O12 0.014980 0.798803 0.801123
O O13 0.755627 0.599463 0.910532
O O14 0.500000 0.000000 0.500000
O O15 0.000000 0.500000 0.000000
#
# Coordination Sequence:
#
# PCOD8029450 Si02
#       6
#     2   2   2   2   2   2
#     4  12  23  41  70  98 125 174 225 262 317 394
#     4  11  23  43  68  94 127 173 221 261 319 398
#     4  11  24  43  67  96 127 174 226 258 314 402
#     4  11  25  44  64  95 135 170 208 276 337 368
#     4  11  20  42  67  90 125 175 214 257 320 387
#     4  12  23  42  66  97 137 164 213 281 326 374
#
# _framework density 20.116240999999999
#
# number of rings (size 3 to 8) (size 9 to 14) (size 15 to 20)
#    0.000    0.667    5.000    4.000    2.333    0.667 
#    3.000    1.667    0.000    0.000    0.000    0.000 
#    0.000    0.000    0.000    0.000    0.000    0.000 
#
# Total GULP energy -148666.306705 kJ/mol
# GULP energy per Si atom -12388.858892 kJ/mol
# Density = 2.007046 g / cm^3
# Si number density = 20.116241 Si / 1000 Ang^3
#
#
#
# Elastic Constant Matrix: (Units=GPa)
#
#
# Indices 1 2 3 4 5 6 
#
# 1 132.3369 42.1744 32.2366 2.2111 13.2116 -4.1498
# 2 42.1744 116.0590 50.9232 5.1781 6.3978 -23.6461
# 3 32.2366 50.9232 140.0307 7.6683 -3.6194 -19.1669
# 4 2.2111 5.1781 7.6683 49.7338 -1.2708 0.7788
# 5 13.2116 6.3978 -3.6194 -1.2708 32.4275 -5.2647
# 6 -4.1498 -23.6461 -19.1669 0.7788 -5.2647 48.6856
#
#
#
# Elastic Compliance Matrix: (Units=1/GPa)
#
#
# Indices 1 2 3 4 5 6 
#
# 1 0.009094 -0.002819 -0.001370 0.000033 -0.003547 -0.001517
# 2 -0.002819 0.011949 -0.003096 -0.000731 -0.000892 0.004259
# 3 -0.001370 -0.003096 0.009003 -0.000976 0.002494 0.002209
# 4 0.000033 -0.000731 -0.000976 0.020364 0.000659 -0.000991
# 5 -0.003547 -0.000892 0.002494 0.000659 0.033388 0.003846
# 6 -0.001517 0.004259 0.002209 -0.000991 0.003846 0.023781
#
#
# Mechanical properties :
#
#
# Convention : Reuss Voigt Hill
#
# Bulk Modulus (GPa) = 64.61530 71.01056 67.81293
# Shear Modulus (GPa) = 39.27487 43.70888 41.49187
#
# Velocity S-wave (km/s) = 4.42339 4.66640 4.54652
# Velocity P-wave (km/s) = 7.63408 8.02562 7.83229
#
# Compressibility (1/GPa) = 0.01547621
#
# Stress axis : x y z
#
# Youngs Moduli (GPa) = 109.95716 83.69021 111.07550
#
# Poissons Ratio (x) = 0.23592 0.15214
# Poissons Ratio (y) = 0.30996 0.34393
# Poissons Ratio (z) = 0.15061 0.25913
#
# Static dielectric constant tensor:
#      x y z
#    x 4.381760 -0.116800 -0.205700 
#    y -0.116800 4.058000 -0.012850 
#    z -0.205700 -0.012850 3.723670 
# 
# 
# High freq. dielectric constant tensor:
#      x y z
#    x 1.800090 0.005620 -0.014200 
#    y 0.005620 1.802260 -0.007000 
#    z -0.014200 -0.007000 1.779940 
# 
# From -- ./inp_files/144395.got.cif
#   From: 2010.06.25/outbox.cif.g09.slc.cpg/sg2_73_cif.got.tgz:144395.got - 2010.06.27 13:26:56.
