data_PCOD8029277
_publ_section_title
;
Structure prediction by ZEFSAII (Michael W. Deem and Ramdas Pophale) SiO2 
 PCOD8029277
Probable space group: P -1
;
_chemical_formula_sum "Si O2"
_cell_formula_units_Z 16
_cell_length_a 12.463495
_cell_length_b 21.054554
_cell_length_c 18.118237
_cell_angle_alpha 19.086152
_cell_angle_beta 39.997059
_cell_angle_gamma 29.815537
_cell_volume 729.346860
_symmetry_space_group_name_H-M "P -1"
_symmetry_group_IT_number 2
_symmetry_cell_setting 'triclinic'
loop_
_space_group_symop_operation_xyz
x,y,z
-x,-y,-z
loop_
_atom_site_type_symbol
_atom_site_label
_atom_site_fract_x
_atom_site_fract_y
_atom_site_fract_z
Si Si1 0.297133 0.965547 0.220068
Si Si2 0.834305 0.725941 0.780014
Si Si3 0.753162 0.100651 0.523275
Si Si4 0.638557 0.142879 0.940253
Si Si5 0.474758 0.710494 0.999475
Si Si6 0.209561 0.283426 0.783408
Si Si7 0.011211 0.827113 0.307702
Si Si8 0.173617 0.653539 0.575500
O O1 0.265656 0.035065 0.247667
O O2 0.558324 0.777679 0.263266
O O3 0.212788 0.811601 0.430447
O O4 0.153790 0.215404 0.964659
O O5 0.654247 0.707998 0.865740
O O6 0.978993 0.674229 0.689867
O O7 0.710220 0.010288 0.571006
O O8 0.000000 0.500000 0.000000
O O9 0.563345 0.419998 0.278896
O O10 0.000000 0.000000 0.500000
O O11 0.419119 0.348790 0.776087
O O12 0.804342 0.193749 0.811532
O O13 0.553111 0.161856 0.046393
O O14 0.785612 0.857653 0.136073
O O15 0.241225 0.887673 0.882284
O O16 0.012916 0.601733 0.526798
O O17 0.089093 0.786643 0.394908
#
# Coordination Sequence:
#
# PCOD8029277 Si02
#       8
#     2   2   2   2   2   2   2   2
#     4  11  20  39  66 103 121 167 224 273 317 373
#     4  12  24  43  71  99 124 170 226 274 320 382
#     4  12  22  42  71  97 124 169 225 276 319 379
#     4  12  22  44  70  97 131 175 226 266 319 389
#     4  12  27  44  67  98 136 175 214 275 328 392
#     4  11  24  36  68  97 130 172 212 273 323 389
#     4  12  27  43  62 101 143 170 212 268 343 384
#     4  12  22  43  70  96 134 171 221 279 310 393
#
# _framework density 21.937434
#
# number of rings (size 3 to 8) (size 9 to 14) (size 15 to 20)
#    0.000    0.250    7.500    3.000    1.750    2.000 
#    0.000    0.625    0.000    0.000    0.000    0.000 
#    0.000    0.000    0.000    0.000    0.000    0.000 
#
# Total GULP energy -198427.484655 kJ/mol
# GULP energy per Si atom -12401.717791 kJ/mol
# Density = 2.188750 g / cm^3
# Si number density = 21.937434 Si / 1000 Ang^3
#
#
#
# Elastic Constant Matrix: (Units=GPa)
#
#
# Indices 1 2 3 4 5 6 
#
# 1 57.8993 11.8772 14.8590 -14.4080 -0.1061 -8.6287
# 2 11.8772 92.4300 34.3231 6.9407 2.6077 -16.8616
# 3 14.8590 34.3231 89.2914 -10.9630 -11.0668 -8.6006
# 4 -14.4080 6.9407 -10.9630 38.1252 -4.2897 -9.2919
# 5 -0.1061 2.6077 -11.0668 -4.2897 33.9344 -10.2851
# 6 -8.6287 -16.8616 -8.6006 -9.2919 -10.2851 26.3377
#
#
#
# Elastic Compliance Matrix: (Units=1/GPa)
#
#
# Indices 1 2 3 4 5 6 
#
# 1 0.022779 -0.001839 0.000586 0.013094 0.006150 0.013498
# 2 -0.001839 0.014279 -0.005483 -0.003988 -0.002015 0.004554
# 3 0.000586 -0.005483 0.016425 0.009253 0.009708 0.009101
# 4 0.013094 -0.003988 0.009253 0.042904 0.016808 0.026459
# 5 0.006150 -0.002015 0.009708 0.016808 0.043001 0.026617
# 6 0.013498 0.004554 0.009101 0.026459 0.026617 0.068007
#
#
# Mechanical properties :
#
#
# Convention : Reuss Voigt Hill
#
# Bulk Modulus (GPa) = 24.99309 40.19325 32.59317
# Shear Modulus (GPa) = 21.34882 31.58355 26.46619
#
# Velocity S-wave (km/s) = 3.12295 3.79847 3.47715
# Velocity P-wave (km/s) = 4.94180 6.13183 5.56870
#
# Compressibility (1/GPa) = 0.04001106
#
# Stress axis : x y z
#
# Youngs Moduli (GPa) = 43.89938 70.03474 60.88135
#
# Poissons Ratio (x) = 0.12881 -0.03569
# Poissons Ratio (y) = 0.08074 0.33383
# Poissons Ratio (z) = -0.02574 0.38402
#
# Static dielectric constant tensor:
#      x y z
#    x 3.754250 -0.073440 -0.297000 
#    y -0.073440 4.437960 0.338440 
#    z -0.297000 0.338440 4.232900 
# 
# 
# High freq. dielectric constant tensor:
#      x y z
#    x 1.844480 0.009430 -0.021740 
#    y 0.009430 1.863820 0.015980 
#    z -0.021740 0.015980 1.864710 
# 
# From -- ./inp_files/405339.got.cif
#   From: 2010.06.25/outbox.cif.g09.slc.cpg/sg2_203_cif.got.tgz:405339.got - 2010.06.27 13:26:56.
