data_PCOD8029784
_publ_section_title
;
Structure prediction by ZEFSAII (Michael W. Deem and Ramdas Pophale) SiO2 
 PCOD8029784
Probable space group: P -1
;
_chemical_formula_sum "Si O2"
_cell_formula_units_Z 14
_cell_length_a 11.862876
_cell_length_b 12.451171
_cell_length_c 5.070202
_cell_angle_alpha 84.635498
_cell_angle_beta 76.899373
_cell_angle_gamma 42.813084
_cell_volume 492.708709
_symmetry_space_group_name_H-M "P -1"
_symmetry_group_IT_number 2
_symmetry_cell_setting 'triclinic'
loop_
_space_group_symop_operation_xyz
x,y,z
-x,-y,-z
loop_
_atom_site_type_symbol
_atom_site_label
_atom_site_fract_x
_atom_site_fract_y
_atom_site_fract_z
Si Si1 0.347812 0.701678 0.992281
Si Si2 0.183875 0.887588 0.532219
Si Si3 0.155159 0.115094 0.206863
Si Si4 0.062194 0.343396 0.595060
Si Si5 0.679328 0.716022 0.213555
Si Si6 0.189871 0.600199 0.935044
Si Si7 0.474597 0.835225 0.802521
O O1 0.201309 0.852459 0.841060
O O2 0.354053 0.569740 0.928049
O O3 0.496490 0.688240 0.861501
O O4 0.303451 0.730742 0.318851
O O5 0.224872 0.983569 0.420494
O O6 0.000000 0.000000 0.500000
O O7 0.166522 0.221260 0.325938
O O8 0.956926 0.233182 0.187818
O O9 0.284905 0.013264 0.914097
O O10 0.178191 0.290035 0.803108
O O11 0.000000 0.500000 0.500000
O O12 0.903421 0.376258 0.754080
O O13 0.749801 0.544563 0.229536
O O14 0.530652 0.828656 0.482959
O O15 0.605652 0.796870 0.950050
#
# Coordination Sequence:
#
# PCOD8029784 Si02
#       7
#     2   2   2   2   2   2   2
#     4  11  25  44  75 109 156 186 249 303 378 446
#     4  11  21  39  68 113 149 183 233 319 367 427
#     4  11  26  44  79 111 145 195 259 301 382 435
#     4  12  27  50  78 112 146 196 260 325 358 433
#     4  12  28  51  73 105 161 198 251 301 376 446
#     4  12  27  46  82 111 141 204 256 311 369 441
#     4  11  28  49  72 114 154 200 234 311 383 456
#
# _framework density 28.414351
#
# number of rings (size 3 to 8) (size 9 to 14) (size 15 to 20)
#    0.000    0.571    2.857    4.286   10.000    2.286 
#    0.000    0.000    0.000    0.000    0.000    0.000 
#    0.000    0.000    0.000    0.000    0.000    0.000 
#
# Total GULP energy -173448.512605 kJ/mol
# GULP energy per Si atom -12389.179472 kJ/mol
# Density = 2.834968 g / cm^3
# Si number density = 28.414351 Si / 1000 Ang^3
#
#
#
# Elastic Constant Matrix: (Units=GPa)
#
#
# Indices 1 2 3 4 5 6 
#
# 1 97.1729 -36.9654 31.3951 27.5407 4.6367 26.0676
# 2 -36.9654 52.7628 20.2812 40.4377 8.1923 50.1486
# 3 31.3951 20.2812 87.0547 20.2586 13.4758 6.3914
# 4 27.5407 40.4377 20.2586 41.5906 -3.9018 -2.7122
# 5 4.6367 8.1923 13.4758 -3.9018 39.0950 1.7616
# 6 26.0676 50.1486 6.3914 -2.7122 1.7616 32.8089
#
#
#
# Elastic Compliance Matrix: (Units=1/GPa)
#
#
# Indices 1 2 3 4 5 6 
#
# 1 0.004911 -0.006832 -0.002175 0.005093 0.001779 0.007291
# 2 -0.006832 -0.003348 0.000142 0.008607 0.001820 0.011132
# 3 -0.002175 0.000142 0.014699 -0.006469 -0.005412 -0.001596
# 4 0.005093 0.008607 -0.006469 0.014670 0.001955 -0.014834
# 5 0.001779 0.001820 -0.005412 0.001955 0.027247 -0.004443
# 6 0.007291 0.011132 -0.001596 -0.014834 -0.004443 0.006995
#
#
# Mechanical properties :
#
#
# Convention : Reuss Voigt Hill
#
# Bulk Modulus (GPa) = -680.61422 29.60135 -325.50643
# Shear Modulus (GPa) = 60.66941 37.51756 49.09349
#
# Velocity S-wave (km/s) = 4.62580 3.63764 4.16116
# Velocity P-wave (km/s) = 14.54377 5.29939 9.57699
#
# Compressibility (1/GPa) = -0.00146926
#
# Stress axis : x y z
#
# Youngs Moduli (GPa) = 203.63905 -298.66756 68.03279
#
# Poissons Ratio (x) = -2.04054 0.14797
# Poissons Ratio (y) = 1.39129 -0.00965
# Poissons Ratio (z) = 0.44291 0.04237
#
# Static dielectric constant tensor:
#      x y z
#    x 6.165510 0.076810 -0.130680 
#    y 0.076810 5.076280 0.482240 
#    z -0.130680 0.482240 2.769280 
# 
# 
# High freq. dielectric constant tensor:
#      x y z
#    x 2.167230 0.007970 0.014460 
#    y 0.007970 2.152440 -0.009350 
#    z 0.014460 -0.009350 2.148240 
# 
# From -- ./inp_files/70413.got.cif
#   From: 2010.06.25/outbox.cif.g09.slc.cpg/sg2_36_cif.got.tgz:70413.got - 2010.06.27 13:26:56.
