data_PCOD8029114
_publ_section_title
;
Structure prediction by ZEFSAII (Michael W. Deem and Ramdas Pophale) SiO2 
 PCOD8029114
Probable space group: P -1
;
_chemical_formula_sum "Si O2"
_cell_formula_units_Z 12
_cell_length_a 11.576815
_cell_length_b 9.318213
_cell_length_c 7.447156
_cell_angle_alpha 51.268604
_cell_angle_beta 48.783350
_cell_angle_gamma 66.271524
_cell_volume 471.347492
_symmetry_space_group_name_H-M "P -1"
_symmetry_group_IT_number 2
_symmetry_cell_setting 'triclinic'
loop_
_space_group_symop_operation_xyz
x,y,z
-x,-y,-z
loop_
_atom_site_type_symbol
_atom_site_label
_atom_site_fract_x
_atom_site_fract_y
_atom_site_fract_z
Si Si1 0.317921 0.494182 0.284425
Si Si2 0.682018 0.096460 0.715523
Si Si3 0.821242 0.483966 0.210791
Si Si4 0.809662 0.864906 0.460430
Si Si5 0.563440 0.630883 0.174825
Si Si6 0.832685 0.135030 0.897025
O O1 0.226614 0.446437 0.598291
O O2 0.291235 0.319770 0.321049
O O3 0.496815 0.543710 0.121490
O O4 0.243097 0.671144 0.129624
O O5 0.773334 0.271309 0.401648
O O6 0.503146 0.161968 0.878525
O O7 0.756926 0.043712 0.870232
O O8 0.708604 0.932060 0.678829
O O9 0.747332 0.612584 0.027538
O O10 0.000000 0.500000 0.000000
O O11 0.986503 0.831875 0.349922
O O12 0.796124 0.000656 0.202186
O O13 0.500000 0.500000 0.500000
#
# Coordination Sequence:
#
# PCOD8029114 Si02
#       6
#     2   2   2   2   2   2
#     4   9  19  37  58  88 126 166 202 257 311 365
#     4   9  19  37  58  88 126 166 202 257 311 365
#     4   9  18  34  64  91 120 167 204 249 322 368
#     4  11  20  34  61  94 126 165 207 261 307 358
#     4   7  15  36  58  82 126 165 197 255 310 369
#     4   9  21  36  54  90 139 157 210 262 298 366
#
# _framework density 25.458925000000001
#
# number of rings (size 3 to 8) (size 9 to 14) (size 15 to 20)
#    0.000    3.667    0.000    1.000    4.667    0.000 
#    0.000   10.833    0.000   72.000    0.000    0.000 
#    0.000    0.000    0.000    0.000    0.000    0.000 
#
# Total GULP energy -148804.024636 kJ/mol
# GULP energy per Si atom -12400.335386 kJ/mol
# Density = 2.540098 g / cm^3
# Si number density = 25.458925 Si / 1000 Ang^3
#
#
#
# Elastic Constant Matrix: (Units=GPa)
#
#
# Indices 1 2 3 4 5 6 
#
# 1 205.4225 110.4404 63.5687 15.4080 -8.2788 -33.1855
# 2 110.4404 182.5147 39.4004 -20.2690 -14.2269 20.5514
# 3 63.5687 39.4004 105.4450 18.9179 -24.5476 -23.0439
# 4 15.4080 -20.2690 18.9179 11.6964 -20.4710 -0.2378
# 5 -8.2788 -14.2269 -24.5476 -20.4710 34.6656 10.3366
# 6 -33.1855 20.5514 -23.0439 -0.2378 10.3366 58.6968
#
#
#
# Elastic Compliance Matrix: (Units=1/GPa)
#
#
# Indices 1 2 3 4 5 6 
#
# 1 0.004788 0.000704 -0.004359 0.017142 0.008680 -0.000710
# 2 0.000704 0.001165 0.000700 -0.022264 -0.012726 0.002416
# 3 -0.004359 0.000700 0.013984 0.003122 0.010722 0.000905
# 4 0.017142 -0.022264 0.003122 -0.048084 -0.038786 0.025348
# 5 0.008680 -0.012726 0.010722 -0.038786 0.006740 0.012229
# 6 -0.000710 0.002416 0.000905 0.025348 0.012229 0.014094
#
#
# Mechanical properties :
#
#
# Convention : Reuss Voigt Hill
#
# Bulk Modulus (GPa) = 71.29510 102.24458 86.76984
# Shear Modulus (GPa) = 1527.58060 39.67659 783.62860
#
# Velocity S-wave (km/s) = 24.52183 3.95201 17.56330
# Velocity P-wave (km/s) = 28.80669 7.81488 21.10566
#
# Compressibility (1/GPa) = 0.01402621
#
# Stress axis : x y z
#
# Youngs Moduli (GPa) = 208.86764 858.15645 71.50962
#
# Poissons Ratio (x) = -0.60441 0.31174
# Poissons Ratio (y) = -0.14711 -0.05004
# Poissons Ratio (z) = 0.91055 -0.60046
#
# Static dielectric constant tensor:
#      x y z
#    x 5.499920 -0.382430 0.158160 
#    y -0.382430 4.863530 -0.066890 
#    z 0.158160 -0.066890 4.802830 
# 
# 
# High freq. dielectric constant tensor:
#      x y z
#    x 2.032330 -0.006170 0.001850 
#    y -0.006170 2.022440 0.002290 
#    z 0.001850 0.002290 2.057550 
# 
# From -- ./inp_files/236466.got.cif
#   From: 2010.06.25/outbox.cif.g09.slc.cpg/sg2_119_cif.got.tgz:236466.got - 2010.06.27 13:26:56.
