data_PCOD8029101
_publ_section_title
;
Structure prediction by ZEFSAII (Michael W. Deem and Ramdas Pophale) SiO2 
 PCOD8029101
Probable space group: P -1
;
_chemical_formula_sum "Si O2"
_cell_formula_units_Z 16
_cell_length_a 20.006732
_cell_length_b 10.994296
_cell_length_c 14.067022
_cell_angle_alpha 29.536278
_cell_angle_beta 32.125808
_cell_angle_gamma 33.189871
_cell_volume 749.772425
_symmetry_space_group_name_H-M "P -1"
_symmetry_group_IT_number 2
_symmetry_cell_setting 'triclinic'
loop_
_space_group_symop_operation_xyz
x,y,z
-x,-y,-z
loop_
_atom_site_type_symbol
_atom_site_label
_atom_site_fract_x
_atom_site_fract_y
_atom_site_fract_z
Si Si1 0.903281 0.348636 0.119145
Si Si2 0.574014 0.022513 0.635227
Si Si3 0.205417 0.467265 0.233268
Si Si4 0.937379 0.318830 0.371039
Si Si5 0.998627 0.235337 0.562806
Si Si6 0.245007 0.709414 0.832159
Si Si7 0.500163 0.749416 0.225989
Si Si8 0.317779 0.445635 0.602555
O O1 0.887841 0.230236 0.114270
O O2 0.765628 0.521206 0.222300
O O3 0.977120 0.074335 0.275896
O O4 0.987243 0.538356 0.883555
O O5 0.693846 0.061109 0.402684
O O6 0.542014 0.205207 0.643997
O O7 0.429835 0.134089 0.675162
O O8 0.639177 0.710828 0.798393
O O9 0.122602 0.641415 0.301017
O O10 0.135709 0.270525 0.409370
O O11 0.213199 0.671099 0.005385
O O12 0.952411 0.389475 0.414224
O O13 0.779039 0.463948 0.434404
O O14 0.000000 0.000000 0.500000
O O15 0.346113 0.447700 0.836615
O O16 0.399587 0.639133 0.369240
O O17 0.500000 0.000000 0.000000
#
# Coordination Sequence:
#
# PCOD8029101 Si02
#       8
#     2   2   2   2   2   2   2   2
#     4  12  22  41  63  96 133 164 209 264 319 380
#     4  11  21  39  61  94 130 158 209 267 316 369
#     4  11  23  41  65  94 127 172 211 265 316 373
#     4  12  27  42  66  94 130 175 211 259 324 385
#     4  11  25  42  63  93 132 167 218 260 312 383
#     4  11  20  34  63  94 126 159 205 265 323 365
#     4  11  20  33  62  95 126 160 203 268 321 369
#     4  11  23  39  60  98 129 164 209 264 322 380
#
# _framework density 21.339808999999999
#
# number of rings (size 3 to 8) (size 9 to 14) (size 15 to 20)
#    0.000    0.750    7.500    1.125    1.750    1.500 
#    0.000    0.625    0.000    3.750    0.000    0.000 
#    0.000    0.000    0.000    0.000    0.000    0.000 
#
# Total GULP energy -198321.010293 kJ/mol
# GULP energy per Si atom -12395.063143 kJ/mol
# Density = 2.129124 g / cm^3
# Si number density = 21.339809 Si / 1000 Ang^3
#
#
#
# Elastic Constant Matrix: (Units=GPa)
#
#
# Indices 1 2 3 4 5 6 
#
# 1 77.4000 30.1858 24.1776 3.8426 11.9520 -28.1212
# 2 30.1858 60.5021 10.6752 11.5915 1.1138 -22.2116
# 3 24.1776 10.6752 94.9725 2.2403 14.7470 2.1337
# 4 3.8426 11.5915 2.2403 27.5965 0.7761 5.0932
# 5 11.9520 1.1138 14.7470 0.7761 32.9466 2.0376
# 6 -28.1212 -22.2116 2.1337 5.0932 2.0376 35.9660
#
#
#
# Elastic Compliance Matrix: (Units=1/GPa)
#
#
# Indices 1 2 3 4 5 6 
#
# 1 0.023460 -0.003434 -0.004749 -0.004474 -0.007248 0.017548
# 2 -0.003434 0.027214 -0.002331 -0.013768 0.000693 0.016171
# 3 -0.004749 -0.002331 0.012640 0.001814 -0.003530 -0.005960
# 4 -0.004474 -0.013768 0.001814 0.045906 0.001351 -0.018685
# 5 -0.007248 0.000693 -0.003530 0.001351 0.034952 -0.007201
# 6 0.017548 0.016171 -0.005960 -0.018685 -0.007201 0.054919
#
#
# Mechanical properties :
#
#
# Convention : Reuss Voigt Hill
#
# Bulk Modulus (GPa) = 23.64892 40.32798 31.98845
# Shear Modulus (GPa) = 21.34805 30.49088 25.91947
#
# Velocity S-wave (km/s) = 3.16632 3.78408 3.48890
# Velocity P-wave (km/s) = 4.94708 6.16696 5.59039
#
# Compressibility (1/GPa) = 0.04228523
#
# Stress axis : x y z
#
# Youngs Moduli (GPa) = 42.62646 36.74527 79.11570
#
# Poissons Ratio (x) = 0.12617 0.37576
# Poissons Ratio (y) = 0.14637 0.18442
# Poissons Ratio (z) = 0.20245 0.08565
#
# Static dielectric constant tensor:
#      x y z
#    x 3.792030 -0.378520 0.172250 
#    y -0.378520 3.763810 0.043720 
#    z 0.172250 0.043720 3.815220 
# 
# 
# High freq. dielectric constant tensor:
#      x y z
#    x 1.819980 -0.027380 0.025010 
#    y -0.027380 1.827330 0.001480 
#    z 0.025010 0.001480 1.841660 
# 
# From -- ./inp_files/540915.got.cif
#   From: 2010.06.25/outbox.cif.g09.slc.cpg/sg2_271_cif.got.tgz:540915.got - 2010.06.27 13:26:56.
