data_PCOD8029011
_publ_section_title
;
Structure prediction by ZEFSAII (Michael W. Deem and Ramdas Pophale) SiO2 
 PCOD8029011
Probable space group: P -1
;
_chemical_formula_sum "Si O2"
_cell_formula_units_Z 16
_cell_length_a 20.627714
_cell_length_b 9.729510
_cell_length_c 8.701362
_cell_angle_alpha 77.990198
_cell_angle_beta 116.553970
_cell_angle_gamma 48.857144
_cell_volume 784.050886
_symmetry_space_group_name_H-M "P -1"
_symmetry_group_IT_number 2
_symmetry_cell_setting 'triclinic'
loop_
_space_group_symop_operation_xyz
x,y,z
-x,-y,-z
loop_
_atom_site_type_symbol
_atom_site_label
_atom_site_fract_x
_atom_site_fract_y
_atom_site_fract_z
Si Si1 0.779215 0.432502 0.735214
Si Si2 0.253637 0.111672 0.706474
Si Si3 0.444567 0.004674 0.794259
Si Si4 0.293142 0.476262 0.030943
Si Si5 0.966499 0.609948 0.104509
Si Si6 0.854717 0.562162 0.196588
Si Si7 0.090277 0.026008 0.196813
Si Si8 0.840347 0.026495 0.369617
O O1 0.690072 0.697754 0.492558
O O2 0.801790 0.273966 0.669952
O O3 0.693667 0.516016 0.774174
O O4 0.930158 0.239521 0.994613
O O5 0.392088 0.937537 0.806060
O O6 0.246489 0.214652 0.829395
O O7 0.108880 0.384494 0.403216
O O8 0.270372 0.915705 0.797091
O O9 0.500000 0.000000 0.000000
O O10 0.557900 0.791786 0.830822
O O11 0.207554 0.474936 0.930948
O O12 0.210374 0.740842 0.801267
O O13 0.856545 0.684684 0.045910
O O14 0.000000 0.500000 0.000000
O O15 0.897190 0.878458 0.946907
O O16 0.013511 0.261166 0.492381
O O17 0.137269 0.006271 0.415977
#
# Coordination Sequence:
#
# PCOD8029011 Si02
#       8
#     2   2   2   2   2   2   2   2
#     4  11  25  40  65  98 129 168 214 268 321 375
#     4  11  24  40  66  95 129 172 213 260 327 376
#     4  12  25  46  66  87 129 180 219 255 310 394
#     4  12  25  42  66  93 134 172 215 259 312 390
#     4  11  19  38  64  97 131 162 205 267 326 376
#     4  11  23  38  65  98 130 168 209 263 324 381
#     4  11  22  38  67  99 132 161 208 271 329 376
#     4  11  23  40  66 101 130 163 207 273 326 374
#
# _framework density 20.406841
#
# number of rings (size 3 to 8) (size 9 to 14) (size 15 to 20)
#    0.000    0.750    6.250    3.000    3.500    0.500 
#    0.000    0.000    0.000    2.250    0.000    0.000 
#    0.000    0.000    0.000    0.000    0.000    0.000 
#
# Total GULP energy -198387.044767 kJ/mol
# GULP energy per Si atom -12399.190298 kJ/mol
# Density = 2.036039 g / cm^3
# Si number density = 20.406841 Si / 1000 Ang^3
#
#
#
# Elastic Constant Matrix: (Units=GPa)
#
#
# Indices 1 2 3 4 5 6 
#
# 1 135.4051 33.7835 15.1952 -10.7669 4.2647 -1.3958
# 2 33.7835 97.2417 14.6425 -6.7969 4.9309 -10.1482
# 3 15.1952 14.6425 33.5819 0.5746 -6.0605 -5.2538
# 4 -10.7669 -6.7969 0.5746 28.4458 -0.7499 -0.9901
# 5 4.2647 4.9309 -6.0605 -0.7499 30.4541 -1.2184
# 6 -1.3958 -10.1482 -5.2538 -0.9901 -1.2184 36.4529
#
#
#
# Elastic Compliance Matrix: (Units=1/GPa)
#
#
# Indices 1 2 3 4 5 6 
#
# 1 0.008583 -0.002301 -0.003308 0.002701 -0.001452 -0.000764
# 2 -0.002301 0.012294 -0.004365 0.002186 -0.002376 0.002685
# 3 -0.003308 -0.004365 0.035340 -0.002653 0.008296 0.003957
# 4 0.002701 0.002186 -0.002653 0.036791 -0.000301 0.001319
# 5 -0.001452 -0.002376 0.008296 -0.000301 0.035134 0.001645
# 6 -0.000764 0.002685 0.003957 0.001319 0.001645 0.028812
#
#
# Mechanical properties :
#
#
# Convention : Reuss Voigt Hill
#
# Bulk Modulus (GPa) = 27.57269 43.71902 35.64586
# Shear Modulus (GPa) = 26.45624 32.57772 29.51698
#
# Velocity S-wave (km/s) = 3.60452 3.99985 3.80732
# Velocity P-wave (km/s) = 5.55556 6.54232 6.06903
#
# Compressibility (1/GPa) = 0.03626777
#
# Stress axis : x y z
#
# Youngs Moduli (GPa) = 116.50606 81.34126 28.29681
#
# Poissons Ratio (x) = 0.18718 0.09361
# Poissons Ratio (y) = 0.26810 0.12352
# Poissons Ratio (z) = 0.38542 0.35507
#
# Static dielectric constant tensor:
#      x y z
#    x 3.375640 -0.140700 0.285620 
#    y -0.140700 3.638980 0.121050 
#    z 0.285620 0.121050 3.145530 
# 
# 
# High freq. dielectric constant tensor:
#      x y z
#    x 1.812630 0.003130 -0.013500 
#    y 0.003130 1.810950 0.008260 
#    z -0.013500 0.008260 1.769720 
# 
# From -- ./inp_files/239978.got.cif
#   From: 2010.06.25/outbox.cif.g09.slc.cpg/sg2_120_cif.got.tgz:239978.got - 2010.06.27 13:26:56.
