data_PCOD8029488
_publ_section_title
;
Structure prediction by ZEFSAII (Michael W. Deem and Ramdas Pophale) SiO2 
 PCOD8029488
Probable space group: P -1
;
_chemical_formula_sum "Si O2"
_cell_formula_units_Z 16
_cell_length_a 19.705232
_cell_length_b 10.773909
_cell_length_c 7.962634
_cell_angle_alpha 48.010686
_cell_angle_beta 145.615797
_cell_angle_gamma 124.336547
_cell_volume 709.299980
_symmetry_space_group_name_H-M "P -1"
_symmetry_group_IT_number 2
_symmetry_cell_setting 'triclinic'
loop_
_space_group_symop_operation_xyz
x,y,z
-x,-y,-z
loop_
_atom_site_type_symbol
_atom_site_label
_atom_site_fract_x
_atom_site_fract_y
_atom_site_fract_z
Si Si1 0.301924 0.262747 0.192269
Si Si2 0.965237 0.863593 0.263407
Si Si3 0.466253 0.186142 0.280920
Si Si4 0.556386 0.707461 0.225070
Si Si5 0.047692 0.778587 0.150593
Si Si6 0.706167 0.342067 0.162398
Si Si7 0.934583 0.454304 0.076740
Si Si8 0.673418 0.378011 0.697174
O O1 0.375287 0.216917 0.217913
O O2 0.371567 0.200431 0.558890
O O3 0.176713 0.162509 0.025637
O O4 0.279369 0.458751 0.972898
O O5 0.037229 0.837671 0.264740
O O6 0.017910 0.729375 0.619687
O O7 0.986397 0.061085 0.181784
O O8 0.594671 0.277546 0.492215
O O9 0.500000 0.000000 0.500000
O O10 0.404844 0.236176 0.933995
O O11 0.585798 0.513998 0.472979
O O12 0.415255 0.732271 0.937037
O O13 0.186152 0.734623 0.441512
O O14 0.964863 0.609834 0.120831
O O15 0.713897 0.282364 0.036053
O O16 0.790422 0.447329 0.773662
O O17 0.000000 0.500000 0.000000
#
# Coordination Sequence:
#
# PCOD8029488 Si02
#       8
#     2   2   2   2   2   2   2   2
#     4  11  23  45  70 102 138 182 233 286 354 415
#     4  11  25  45  72 102 142 178 237 294 340 424
#     4  12  28  43  65 103 145 177 229 291 349 421
#     4  11  24  42  72  99 131 187 232 285 345 422
#     4  11  24  45  71 104 134 187 237 286 349 412
#     4  11  20  42  76  95 134 183 234 288 344 422
#     4  12  27  44  71 100 141 190 230 289 349 414
#     4  11  23  46  68  99 134 179 237 280 350 419
#
# _framework density 22.557452000000001
#
# number of rings (size 3 to 8) (size 9 to 14) (size 15 to 20)
#    0.000    0.750    5.000    3.000    5.250    2.000 
#    2.250    0.000    0.000    0.000    0.000    0.000 
#    0.000    0.000    0.000    0.000    0.000    0.000 
#
# Total GULP energy -198319.515243 kJ/mol
# GULP energy per Si atom -12394.969703 kJ/mol
# Density = 2.250611 g / cm^3
# Si number density = 22.557452 Si / 1000 Ang^3
#
#
#
# Elastic Constant Matrix: (Units=GPa)
#
#
# Indices 1 2 3 4 5 6 
#
# 1 124.9159 31.6026 40.6550 5.7386 4.9128 -1.4195
# 2 31.6026 65.0313 48.2636 -6.7630 12.5175 8.2670
# 3 40.6550 48.2636 101.8055 -12.0206 11.8515 7.0582
# 4 5.7386 -6.7630 -12.0206 39.8127 13.4956 6.7432
# 5 4.9128 12.5175 11.8515 13.4956 43.7753 9.5585
# 6 -1.4195 8.2670 7.0582 6.7432 9.5585 24.3435
#
#
#
# Elastic Compliance Matrix: (Units=1/GPa)
#
#
# Indices 1 2 3 4 5 6 
#
# 1 0.010140 -0.003672 -0.003170 -0.004048 0.001281 0.003376
# 2 -0.003672 0.026377 -0.009522 0.004732 -0.004731 -0.005864
# 3 -0.003170 -0.009522 0.016650 0.005093 -0.002519 -0.002200
# 4 -0.004048 0.004732 0.005093 0.033060 -0.010659 -0.008292
# 5 0.001281 -0.004731 -0.002519 -0.010659 0.029368 -0.006167
# 6 0.003376 -0.005864 -0.002200 -0.008292 -0.006167 0.048623
#
#
# Mechanical properties :
#
#
# Convention : Reuss Voigt Hill
#
# Bulk Modulus (GPa) = 48.92690 59.19946 54.06318
# Shear Modulus (GPa) = 24.53887 33.00172 28.77029
#
# Velocity S-wave (km/s) = 3.30182 3.82908 3.57518
# Velocity P-wave (km/s) = 6.02271 6.77126 6.40792
#
# Compressibility (1/GPa) = 0.02043866
#
# Stress axis : x y z
#
# Youngs Moduli (GPa) = 98.62020 37.91210 60.06052
#
# Poissons Ratio (x) = 0.13921 0.19037
# Poissons Ratio (y) = 0.36212 0.57192
# Poissons Ratio (z) = 0.31260 0.36101
#
# Static dielectric constant tensor:
#      x y z
#    x 3.705340 0.000400 0.241270 
#    y 0.000400 0.026850 -0.129810 
#    z 0.241270 -0.129810 4.122570 
# 
# 
# High freq. dielectric constant tensor:
#      x y z
#    x 1.896760 0.002250 0.011670 
#    y 0.002250 1.880560 -0.000080 
#    z 0.011670 -0.000080 1.892540 
# 
# From -- ./inp_files/345908.got.cif
#   From: 2010.06.25/outbox.cif.g09.slc.cpg/sg2_173_cif.got.tgz:345908.got - 2010.06.27 13:26:56.
