data_PCOD8029173
_publ_section_title
;
Structure prediction by ZEFSAII (Michael W. Deem and Ramdas Pophale) SiO2 
 PCOD8029173
Probable space group: P -1
;
_chemical_formula_sum "Si O2"
_cell_formula_units_Z 16
_cell_length_a 8.717659
_cell_length_b 7.857805
_cell_length_c 28.207637
_cell_angle_alpha 51.645085
_cell_angle_beta 60.061354
_cell_angle_gamma 101.900804
_cell_volume 854.612212
_symmetry_space_group_name_H-M "P -1"
_symmetry_group_IT_number 2
_symmetry_cell_setting 'triclinic'
loop_
_space_group_symop_operation_xyz
x,y,z
-x,-y,-z
loop_
_atom_site_type_symbol
_atom_site_label
_atom_site_fract_x
_atom_site_fract_y
_atom_site_fract_z
Si Si1 0.707919 0.777657 0.838081
Si Si2 0.892311 0.905503 0.462296
Si Si3 0.484626 0.134711 0.023995
Si Si4 0.799038 0.469669 0.007782
Si Si5 0.611731 0.311369 0.550328
Si Si6 0.900649 0.945711 0.349780
Si Si7 0.020423 0.121435 0.819636
Si Si8 0.624969 0.833056 0.603164
O O1 0.579875 0.460145 0.940113
O O2 0.461248 0.722021 0.884646
O O3 0.813243 0.821166 0.761617
O O4 0.968479 0.080488 0.777921
O O5 0.747912 0.534805 0.538993
O O6 0.956621 0.080201 0.371676
O O7 0.695913 0.878091 0.528507
O O8 0.176729 0.143059 0.403664
O O9 0.674948 0.231531 0.021587
O O10 0.169603 0.863009 0.133588
O O11 0.500000 0.000000 0.000000
O O12 0.962813 0.836661 0.902875
O O13 0.000000 0.500000 0.000000
O O14 0.736827 0.563177 0.442813
O O15 0.286191 0.048986 0.648419
O O16 0.673678 0.118345 0.566542
O O17 0.325782 0.472559 0.722700
#
# Coordination Sequence:
#
# PCOD8029173 Si02
#       8
#     2   2   2   2   2   2   2   2
#     4   9  18  38  60  74 117 147 177 234 280 336
#     4   9  21  38  52  81 119 144 191 234 276 336
#     4   9  19  37  58  84 108 145 187 229 280 346
#     4   9  19  41  58  83 114 143 186 238 284 340
#     4   9  20  36  55  77 114 145 192 228 272 330
#     4   9  19  38  53  85 110 143 194 230 275 331
#     4   9  20  36  57  82 106 148 192 213 286 348
#     4  11  20  37  58  79 116 155 182 233 282 335
#
# _framework density 18.721941000000001
#
# number of rings (size 3 to 8) (size 9 to 14) (size 15 to 20)
#    0.750    2.000    0.000    2.625    1.750    0.500 
#    9.000    1.250    0.000    0.000    0.000    0.000 
#    0.000    0.000    0.000    0.000    0.000    0.000 
#
# Total GULP energy -198229.449896 kJ/mol
# GULP energy per Si atom -12389.340618 kJ/mol
# Density = 1.867933 g / cm^3
# Si number density = 18.721941 Si / 1000 Ang^3
#
#
#
# Elastic Constant Matrix: (Units=GPa)
#
#
# Indices 1 2 3 4 5 6 
#
# 1 101.1820 28.2622 32.1758 4.7311 -21.7086 11.6215
# 2 28.2622 98.9402 24.5778 16.9303 -16.3211 10.1347
# 3 32.1758 24.5778 78.6123 16.2913 -21.6177 12.1970
# 4 4.7311 16.9303 16.2913 31.3004 0.6917 1.8399
# 5 -21.7086 -16.3211 -21.6177 0.6917 23.8134 -1.1149
# 6 11.6215 10.1347 12.1970 1.8399 -1.1149 26.1193
#
#
#
# Elastic Compliance Matrix: (Units=1/GPa)
#
#
# Indices 1 2 3 4 5 6 
#
# 1 0.013335 -0.001321 -0.001695 -0.000383 0.009527 -0.004196
# 2 -0.001321 0.013427 0.001014 -0.007542 0.008941 -0.004182
# 3 -0.001695 0.001014 0.022080 -0.011719 0.019145 -0.008307
# 4 -0.000383 -0.007542 -0.011719 0.042279 -0.017157 0.004859
# 5 0.009527 0.008941 0.019145 -0.017157 0.074109 -0.012276
# 6 -0.004196 -0.004182 -0.008307 0.004859 -0.012276 0.044788
#
#
# Mechanical properties :
#
#
# Convention : Reuss Voigt Hill
#
# Bulk Modulus (GPa) = 22.30343 49.86291 36.08317
# Shear Modulus (GPa) = 21.83715 29.16121 25.49918
#
# Velocity S-wave (km/s) = 3.41896 3.95092 3.69452
# Velocity P-wave (km/s) = 5.24638 6.89233 6.12490
#
# Compressibility (1/GPa) = 0.04483615
#
# Stress axis : x y z
#
# Youngs Moduli (GPa) = 74.99085 74.47876 45.29081
#
# Poissons Ratio (x) = 0.09841 0.07676
# Poissons Ratio (y) = 0.09909 -0.04591
# Poissons Ratio (z) = 0.12709 -0.07549
#
# Static dielectric constant tensor:
#      x y z
#    x 3.228520 0.084540 -0.175670 
#    y 0.084540 3.245920 0.100240 
#    z -0.175670 0.100240 3.289110 
# 
# 
# High freq. dielectric constant tensor:
#      x y z
#    x 1.712240 0.006250 -0.020110 
#    y 0.006250 1.723290 0.009380 
#    z -0.020110 0.009380 1.718560 
# 
# From -- ./inp_files/622321.got.cif
#   From: 2010.06.25/outbox.cif.g09.slc.cpg/sg2_312_cif.got.tgz:622321.got - 2010.06.27 13:26:56.
