data_PCOD8029238
_publ_section_title
;
Structure prediction by ZEFSAII (Michael W. Deem and Ramdas Pophale) SiO2 
 PCOD8029238
Probable space group: P -1
;
_chemical_formula_sum "Si O2"
_cell_formula_units_Z 12
_cell_length_a 11.562748
_cell_length_b 9.895983
_cell_length_c 11.224841
_cell_angle_alpha 69.311118
_cell_angle_beta 73.709588
_cell_angle_gamma 132.775646
_cell_volume 575.374904
_symmetry_space_group_name_H-M "P -1"
_symmetry_group_IT_number 2
_symmetry_cell_setting 'triclinic'
loop_
_space_group_symop_operation_xyz
x,y,z
-x,-y,-z
loop_
_atom_site_type_symbol
_atom_site_label
_atom_site_fract_x
_atom_site_fract_y
_atom_site_fract_z
Si Si1 0.436391 0.624199 0.865300
Si Si2 0.854869 0.999010 0.037957
Si Si3 0.017761 0.363135 0.091225
Si Si4 0.545827 0.877612 0.505400
Si Si5 0.605750 0.476072 0.546117
Si Si6 0.852058 0.963301 0.798158
O O1 0.465196 0.693766 0.695865
O O2 0.700505 0.889296 0.765079
O O3 0.287824 0.599632 0.981823
O O4 0.288466 0.323243 0.022510
O O5 0.563405 0.702419 0.232763
O O6 0.890492 0.101333 0.862791
O O7 0.976161 0.217162 0.036614
O O8 0.000000 0.000000 0.000000
O O9 0.832347 0.149771 0.319275
O O10 0.000000 0.500000 0.000000
O O11 0.412823 0.685960 0.482312
O O12 0.500000 0.000000 0.500000
O O13 0.500000 0.500000 0.500000
O O14 0.881951 0.793197 0.407964
#
# Coordination Sequence:
#
# PCOD8029238 Si02
#       6
#     2   2   2   2   2   2
#     4  11  23  41  61  95 131 162 205 261 320 361
#     4  11  20  38  65  90 121 161 211 256 301 368
#     4  11  22  39  67  91 118 166 214 249 306 375
#     4  11  23  40  67  91 123 166 211 257 305 378
#     4  11  21  37  66  95 116 164 218 251 306 370
#     4  11  23  39  64  95 129 162 204 266 314 364
#
# _framework density 20.855967
#
# number of rings (size 3 to 8) (size 9 to 14) (size 15 to 20)
#    0.000    1.000    5.000    3.000    0.000    1.333 
#    0.000    5.833    0.000    0.000    0.000    0.000 
#    0.000    0.000    0.000    0.000    0.000    0.000 
#
# Total GULP energy -148658.377766 kJ/mol
# GULP energy per Si atom -12388.198147 kJ/mol
# Density = 2.080850 g / cm^3
# Si number density = 20.855967 Si / 1000 Ang^3
#
#
#
# Elastic Constant Matrix: (Units=GPa)
#
#
# Indices 1 2 3 4 5 6 
#
# 1 111.0971 38.3955 57.1250 -5.5683 -28.4189 -0.6341
# 2 38.3955 60.6167 28.5416 6.3037 -21.2513 -12.4026
# 3 57.1250 28.5416 162.7783 -5.0065 -31.9958 9.0547
# 4 -5.5683 6.3037 -5.0065 32.7194 5.3394 -6.6568
# 5 -28.4189 -21.2513 -31.9958 5.3394 41.9695 -6.9968
# 6 -0.6341 -12.4026 9.0547 -6.6568 -6.9968 37.5456
#
#
#
# Elastic Compliance Matrix: (Units=1/GPa)
#
#
# Indices 1 2 3 4 5 6 
#
# 1 0.013732 -0.006362 -0.002933 0.002529 0.003509 -0.000060
# 2 -0.006362 0.027892 -0.001180 -0.006393 0.011462 0.010393
# 3 -0.002933 -0.001180 0.008131 0.000072 0.003311 -0.001770
# 4 0.002529 -0.006393 0.000072 0.033687 -0.005271 0.002904
# 5 0.003509 0.011462 0.003311 -0.005271 0.036694 0.008950
# 6 -0.000060 0.010393 -0.001770 0.002904 0.008950 0.032676
#
#
# Mechanical properties :
#
#
# Convention : Reuss Voigt Hill
#
# Bulk Modulus (GPa) = 34.71492 64.73517 49.72504
# Shear Modulus (GPa) = 27.26831 36.47557 31.87194
#
# Velocity S-wave (km/s) = 3.61980 4.18655 3.91345
# Velocity P-wave (km/s) = 5.84396 7.38080 6.65688
#
# Compressibility (1/GPa) = 0.02880606
#
# Stress axis : x y z
#
# Youngs Moduli (GPa) = 72.82288 35.85241 122.98794
#
# Poissons Ratio (x) = 0.22810 0.36067
# Poissons Ratio (y) = 0.46331 0.14509
# Poissons Ratio (z) = 0.21356 0.04230
#
# Static dielectric constant tensor:
#      x y z
#    x 3.702100 0.196530 -0.012720 
#    y 0.196530 3.796130 -0.554000 
#    z -0.012720 -0.554000 3.254000 
# 
# 
# High freq. dielectric constant tensor:
#      x y z
#    x 1.794300 -0.007800 -0.023330 
#    y -0.007800 1.796170 0.001610 
#    z -0.023330 0.001610 1.847850 
# 
# From -- ./inp_files/302007.got.cif
#   From: 2010.06.25/outbox.cif.g09.slc.cpg/sg2_152_cif.got.tgz:302007.got - 2010.06.27 13:26:56.
