data_PCOD8029394
_publ_section_title
;
Structure prediction by ZEFSAII (Michael W. Deem and Ramdas Pophale) SiO2 
 PCOD8029394
Probable space group: P -1
;
_chemical_formula_sum "Si O2"
_cell_formula_units_Z 14
_cell_length_a 6.612880
_cell_length_b 8.690759
_cell_length_c 12.112608
_cell_angle_alpha 99.730251
_cell_angle_beta 94.389186
_cell_angle_gamma 98.119141
_cell_volume 675.626321
_symmetry_space_group_name_H-M "P -1"
_symmetry_group_IT_number 2
_symmetry_cell_setting 'triclinic'
loop_
_space_group_symop_operation_xyz
x,y,z
-x,-y,-z
loop_
_atom_site_type_symbol
_atom_site_label
_atom_site_fract_x
_atom_site_fract_y
_atom_site_fract_z
Si Si1 0.120148 0.468655 0.891977
Si Si2 0.486780 0.729781 0.940742
Si Si3 0.781389 0.142499 0.238551
Si Si4 0.536332 0.419542 0.647598
Si Si5 0.779066 0.409638 0.449565
Si Si6 0.164382 0.330279 0.197553
Si Si7 0.356205 0.211064 0.813279
O O1 0.354204 0.556253 0.918517
O O2 0.152674 0.290710 0.842985
O O3 0.990575 0.540058 0.800998
O O4 0.000000 0.500000 0.000000
O O5 0.376263 0.835372 0.864978
O O6 0.719267 0.711270 0.913312
O O7 0.505173 0.802331 0.073254
O O8 0.770797 0.256992 0.354686
O O9 0.019108 0.170243 0.210532
O O10 0.726759 0.963325 0.256351
O O11 0.655946 0.343759 0.546663
O O12 0.318730 0.453536 0.599604
O O13 0.662029 0.594344 0.700822
O O14 0.502963 0.304775 0.737803
O O15 0.000000 0.500000 0.500000
#
# Coordination Sequence:
#
# PCOD8029394 Si02
#       7
#     2   2   2   2   2   2   2
#     4  11  21  36  63  92 127 172 218 258 302 385
#     4  11  22  43  66  92 134 180 212 250 326 406
#     4  11  25  42  64 100 135 168 213 271 328 376
#     4  11  23  42  73  93 121 172 226 263 315 386
#     4  11  23  45  73  92 122 174 225 263 318 391
#     4  11  20  41  66  91 126 176 217 253 317 392
#     4  12  24  42  63 103 138 162 212 277 325 372
#
# _framework density 20.721513000000002
#
# number of rings (size 3 to 8) (size 9 to 14) (size 15 to 20)
#    0.000    0.857    5.714    2.571    0.000    1.143 
#    5.143    0.714    0.000    0.000    0.000    0.000 
#    0.000    0.000    0.000    0.000    0.000    0.000 
#
# Total GULP energy -173553.185495 kJ/mol
# GULP energy per Si atom -12396.656107 kJ/mol
# Density = 2.067435 g / cm^3
# Si number density = 20.721513 Si / 1000 Ang^3
#
#
#
# Elastic Constant Matrix: (Units=GPa)
#
#
# Indices 1 2 3 4 5 6 
#
# 1 135.8960 50.6957 51.2827 3.7157 -6.4131 9.2917
# 2 50.6957 110.8439 49.9688 12.4620 -8.2460 13.7680
# 3 51.2827 49.9688 126.5742 4.6111 -10.1837 9.0653
# 4 3.7157 12.4620 4.6111 19.6856 -1.0678 -0.3220
# 5 -6.4131 -8.2460 -10.1837 -1.0678 42.2875 0.1239
# 6 9.2917 13.7680 9.0653 -0.3220 0.1239 20.5124
#
#
#
# Elastic Compliance Matrix: (Units=1/GPa)
#
#
# Indices 1 2 3 4 5 6 
#
# 1 0.009567 -0.003158 -0.002562 0.000789 0.000241 -0.001070
# 2 -0.003158 0.013658 -0.003288 -0.007318 0.001226 -0.006406
# 3 -0.002562 -0.003288 0.010440 0.000180 0.001493 -0.001252
# 4 0.000789 -0.007318 0.000180 0.055334 0.000118 0.005343
# 5 0.000241 0.001226 0.001493 0.000118 0.024291 -0.001737
# 6 -0.001070 -0.006406 -0.001252 0.005343 -0.001737 0.054183
#
#
# Mechanical properties :
#
#
# Convention : Reuss Voigt Hill
#
# Bulk Modulus (GPa) = 63.90708 75.24538 69.57623
# Shear Modulus (GPa) = 26.21842 31.25489 28.73666
#
# Velocity S-wave (km/s) = 3.56093 3.88794 3.72802
# Velocity P-wave (km/s) = 6.91483 7.51972 7.22361
#
# Compressibility (1/GPa) = 0.01564772
#
# Stress axis : x y z
#
# Youngs Moduli (GPa) = 104.53139 73.21576 95.78717
#
# Poissons Ratio (x) = 0.23124 0.24539
# Poissons Ratio (y) = 0.33014 0.31498
# Poissons Ratio (z) = 0.26779 0.24076
#
# Static dielectric constant tensor:
#      x y z
#    x 3.990450 0.059250 -0.043690 
#    y 0.059250 3.559040 -0.093880 
#    z -0.043690 -0.093880 3.907550 
# 
# 
# High freq. dielectric constant tensor:
#      x y z
#    x 1.826110 0.001680 -0.004580 
#    y 0.001680 1.778370 -0.002690 
#    z -0.004580 -0.002690 1.818370 
# 
# From -- ./inp_files/34642.got.cif
#   From: 2010.06.25/outbox.cif.g09.slc.cpg/sg2_18_cif.got.tgz:34642.got - 2010.06.27 13:26:56.
