data_PCOD8029584
_publ_section_title
;
Structure prediction by ZEFSAII (Michael W. Deem and Ramdas Pophale) SiO2 
 PCOD8029584
Probable space group: P -1
;
_chemical_formula_sum "Si O2"
_cell_formula_units_Z 16
_cell_length_a 11.930981
_cell_length_b 11.308634
_cell_length_c 9.093645
_cell_angle_alpha 87.915074
_cell_angle_beta 53.728779
_cell_angle_gamma 119.200486
_cell_volume 765.892308
_symmetry_space_group_name_H-M "P -1"
_symmetry_group_IT_number 2
_symmetry_cell_setting 'triclinic'
loop_
_space_group_symop_operation_xyz
x,y,z
-x,-y,-z
loop_
_atom_site_type_symbol
_atom_site_label
_atom_site_fract_x
_atom_site_fract_y
_atom_site_fract_z
Si Si1 0.062597 0.907784 0.320413
Si Si2 0.167090 0.019109 0.556958
Si Si3 0.303848 0.844701 0.145697
Si Si4 0.498538 0.358627 0.302223
Si Si5 0.828317 0.445494 0.232038
Si Si6 0.245533 0.425841 0.463617
Si Si7 0.123627 0.735848 0.606996
Si Si8 0.726333 0.437480 0.861310
O O1 0.160147 0.008390 0.385651
O O2 0.196302 0.888417 0.134806
O O3 0.882891 0.737587 0.511035
O O4 0.997969 0.982738 0.265142
O O5 0.137699 0.875199 0.659474
O O6 0.357016 0.176781 0.447003
O O7 0.211196 0.782402 0.378032
O O8 0.290504 0.711704 0.083964
O O9 0.500000 0.000000 0.000000
O O10 0.670301 0.416718 0.261589
O O11 0.412520 0.441261 0.402907
O O12 0.565161 0.408518 0.080155
O O13 0.865049 0.563787 0.324755
O O14 0.766436 0.292408 0.370014
O O15 0.000000 0.500000 0.000000
O O16 0.307602 0.552296 0.284479
O O17 0.918438 0.583434 0.763692
#
# Coordination Sequence:
#
# PCOD8029584 Si02
#       8
#     2   2   2   2   2   2   2   2
#     4   9  18  35  62  87 128 165 198 271 329 371
#     4   9  19  38  60  91 126 166 210 257 332 379
#     4  11  21  35  58  96 130 161 209 270 328 374
#     4  11  25  40  65  97 132 175 212 263 328 394
#     4  12  25  43  64  93 132 180 217 261 325 390
#     4  11  22  42  67  95 130 166 223 272 319 379
#     4  11  21  39  63  91 127 169 213 268 318 384
#     4  12  20  38  67  99 123 162 224 276 323 376
#
# _framework density 20.890664000000001
#
# number of rings (size 3 to 8) (size 9 to 14) (size 15 to 20)
#    0.000    1.250    5.000    3.375    0.000    0.500 
#    2.250    0.000    0.000    1.500    0.000    0.000 
#    0.000    0.000    0.000    0.000    0.000    0.000 
#
# Total GULP energy -198247.819199 kJ/mol
# GULP energy per Si atom -12390.488700 kJ/mol
# Density = 2.084312 g / cm^3
# Si number density = 20.890664 Si / 1000 Ang^3
#
#
#
# Elastic Constant Matrix: (Units=GPa)
#
#
# Indices 1 2 3 4 5 6 
#
# 1 108.9290 30.0496 25.7747 6.0196 -17.6923 -16.6046
# 2 30.0496 94.2469 33.0506 -2.1288 -5.7897 -22.3860
# 3 25.7747 33.0506 80.6112 7.2041 -17.1084 -10.7602
# 4 6.0196 -2.1288 7.2041 31.2267 1.8985 -7.7979
# 5 -17.6923 -5.7897 -17.1084 1.8985 29.2100 5.3800
# 6 -16.6046 -22.3860 -10.7602 -7.7979 5.3800 34.1829
#
#
#
# Elastic Compliance Matrix: (Units=1/GPa)
#
#
# Indices 1 2 3 4 5 6 
#
# 1 0.011457 -0.002449 -0.000996 -0.001900 0.005563 0.002339
# 2 -0.002449 0.015349 -0.005575 0.005247 -0.003684 0.008884
# 3 -0.000996 -0.005575 0.017179 -0.005011 0.008914 -0.001273
# 4 -0.001900 0.005247 -0.005011 0.036984 -0.007390 0.010536
# 5 0.005563 -0.003684 0.008914 -0.007390 0.043579 -0.005449
# 6 0.002339 0.008884 -0.001273 0.010536 -0.005449 0.039069
#
#
# Mechanical properties :
#
#
# Convention : Reuss Voigt Hill
#
# Bulk Modulus (GPa) = 38.54472 51.28187 44.91330
# Shear Modulus (GPa) = 26.27367 31.91807 29.09587
#
# Velocity S-wave (km/s) = 3.55022 3.91303 3.73603
# Velocity P-wave (km/s) = 5.94106 6.70945 6.33691
#
# Compressibility (1/GPa) = 0.02594389
#
# Stress axis : x y z
#
# Youngs Moduli (GPa) = 87.28519 65.15250 58.21019
#
# Poissons Ratio (x) = 0.15956 0.05800
# Poissons Ratio (y) = 0.21377 0.32451
# Poissons Ratio (z) = 0.08698 0.36321
#
# Static dielectric constant tensor:
#      x y z
#    x 4.147130 -0.499730 -0.482880 
#    y -0.499730 3.964920 0.343500 
#    z -0.482880 0.343500 3.237460 
# 
# 
# High freq. dielectric constant tensor:
#      x y z
#    x 1.823620 -0.024690 -0.028350 
#    y -0.024690 1.822210 0.000710 
#    z -0.028350 0.000710 1.789230 
# 
# From -- ./inp_files/262470.got.cif
#   From: 2010.06.25/outbox.cif.g09.slc.cpg/sg2_132_cif.got.tgz:262470.got - 2010.06.27 13:26:56.
