data_PCOD8029628
_publ_section_title
;
Structure prediction by ZEFSAII (Michael W. Deem and Ramdas Pophale) SiO2 
 PCOD8029628
Probable space group: P -1
;
_chemical_formula_sum "Si O2"
_cell_formula_units_Z 10
_cell_length_a 12.075122
_cell_length_b 6.416395
_cell_length_c 12.070621
_cell_angle_alpha 96.944343
_cell_angle_beta 24.267938
_cell_angle_gamma 101.198939
_cell_volume 373.384602
_symmetry_space_group_name_H-M "P -1"
_symmetry_group_IT_number 2
_symmetry_cell_setting 'triclinic'
loop_
_space_group_symop_operation_xyz
x,y,z
-x,-y,-z
loop_
_atom_site_type_symbol
_atom_site_label
_atom_site_fract_x
_atom_site_fract_y
_atom_site_fract_z
Si Si1 0.163948 0.572940 0.633227
Si Si2 0.407361 0.696098 0.834646
Si Si3 0.238895 0.226364 0.284661
Si Si4 0.685941 0.262918 0.716578
Si Si5 0.769575 0.133123 0.210796
O O1 0.389821 0.426331 0.423583
O O2 0.273583 0.762160 0.454640
O O3 0.139013 0.652767 0.786082
O O4 0.852732 0.453615 0.874453
O O5 0.596201 0.848449 0.764304
O O6 0.273019 0.828902 0.877119
O O7 0.258505 0.480608 0.299013
O O8 0.904280 0.140937 0.575085
O O9 0.382696 0.171324 0.036055
O O10 0.500000 0.000000 0.500000
O O11 0.000000 0.000000 0.000000
#
# Coordination Sequence:
#
# PCOD8029628 Si02
#       5
#     2   2   2   2   2
#     4  11  21  37  62  87 112 146 192 235 274 333
#     4  11  21  37  62  87 112 146 192 235 274 333
#     4   9  16  28  51  85 115 137 172 228 282 324
#     4   9  16  28  51  85 115 137 172 228 282 324
#     4  12  26  42  58  80 116 154 190 236 288 332
#
# _framework density 26.782035
#
# number of rings (size 3 to 8) (size 9 to 14) (size 15 to 20)
#    0.000    1.600    0.000    9.600    0.000    0.000 
#    0.000    0.000    0.000    7.200    0.000    0.000 
#    0.000    0.000    0.000    0.000    0.000    0.000 
#
# Total GULP energy -123985.668958 kJ/mol
# GULP energy per Si atom -12398.566896 kJ/mol
# Density = 2.672108 g / cm^3
# Si number density = 26.782035 Si / 1000 Ang^3
#
#
#
# Elastic Constant Matrix: (Units=GPa)
#
#
# Indices 1 2 3 4 5 6 
#
# 1 189.9104 31.9341 62.0428 -2.6046 -3.6567 -17.0437
# 2 31.9341 32.2521 27.6025 8.1098 -10.1172 2.6877
# 3 62.0428 27.6025 204.0415 -1.0624 -12.8243 4.1953
# 4 -2.6046 8.1098 -1.0624 47.4437 -4.3045 -11.4134
# 5 -3.6567 -10.1172 -12.8243 -4.3045 53.6092 1.3606
# 6 -17.0437 2.6877 4.1953 -11.4134 1.3606 37.1476
#
#
#
# Elastic Compliance Matrix: (Units=1/GPa)
#
#
# Indices 1 2 3 4 5 6 
#
# 1 0.007490 -0.007720 -0.001397 0.002809 -0.001183 0.005059
# 2 -0.007720 0.047229 -0.003451 -0.010347 0.006984 -0.010004
# 3 -0.001397 -0.003451 0.005859 0.000486 0.000718 -0.000930
# 4 0.002809 -0.010347 0.000486 0.025376 0.000145 0.009774
# 5 -0.001183 0.006984 0.000718 0.000145 0.020120 -0.001822
# 6 0.005059 -0.010004 -0.000930 0.009774 -0.001822 0.033139
#
#
# Mechanical properties :
#
#
# Convention : Reuss Voigt Hill
#
# Bulk Modulus (GPa) = 28.21412 74.37366 51.29389
# Shear Modulus (GPa) = 28.38279 47.94842 38.16561
#
# Velocity S-wave (km/s) = 3.25894 4.23581 3.77907
# Velocity P-wave (km/s) = 4.97177 7.19396 6.18351
#
# Compressibility (1/GPa) = 0.03544325
#
# Stress axis : x y z
#
# Youngs Moduli (GPa) = 133.51394 21.17342 170.66813
#
# Poissons Ratio (x) = 0.16345 0.23840
# Poissons Ratio (y) = 1.03067 0.58898
# Poissons Ratio (z) = 0.18650 0.07307
#
# Static dielectric constant tensor:
#      x y z
#    x 5.892510 -0.049720 0.159340 
#    y -0.049720 5.019860 0.098130 
#    z 0.159340 0.098130 5.285540 
# 
# 
# High freq. dielectric constant tensor:
#      x y z
#    x 2.079780 -0.009820 -0.007310 
#    y -0.009820 2.086860 0.007660 
#    z -0.007310 0.007660 2.103710 
# 
# From -- ./inp_files/948.got.cif
#   From: 2010.06.25/outbox.cif.g09.slc.cpg/sg2_1_cif.got.tgz:948.got - 2010.06.27 13:26:56.
