data_PCOD8029493
_publ_section_title
;
Structure prediction by ZEFSAII (Michael W. Deem and Ramdas Pophale) SiO2 
 PCOD8029493
Probable space group: P -1
;
_chemical_formula_sum "Si O2"
_cell_formula_units_Z 16
_cell_length_a 9.557369
_cell_length_b 14.224637
_cell_length_c 11.422178
_cell_angle_alpha 151.891099
_cell_angle_beta 87.085830
_cell_angle_gamma 106.352257
_cell_volume 631.497734
_symmetry_space_group_name_H-M "P -1"
_symmetry_group_IT_number 2
_symmetry_cell_setting 'triclinic'
loop_
_space_group_symop_operation_xyz
x,y,z
-x,-y,-z
loop_
_atom_site_type_symbol
_atom_site_label
_atom_site_fract_x
_atom_site_fract_y
_atom_site_fract_z
Si Si1 0.686588 0.472930 0.872336
Si Si2 0.751822 0.880140 0.973280
Si Si3 0.465821 0.006820 0.736805
Si Si4 0.082089 0.263121 0.444395
Si Si5 0.730477 0.052275 0.918009
Si Si6 0.025232 0.404127 0.155687
Si Si7 0.611988 0.498121 0.162717
Si Si8 0.223428 0.521110 0.494759
O O1 0.867361 0.632007 0.986123
O O2 0.559297 0.510494 0.842396
O O3 0.644468 0.204876 0.578020
O O4 0.691661 0.555649 0.094529
O O5 0.639673 0.962706 0.126739
O O6 0.763981 0.921678 0.877626
O O7 0.673934 0.601302 0.685746
O O8 0.927264 0.004159 0.168409
O O9 0.573045 0.908488 0.686328
O O10 0.576951 0.245583 0.926566
O O11 0.252834 0.299010 0.533090
O O12 0.093660 0.335989 0.387958
O O13 0.049183 0.440484 0.718096
O O14 0.682620 0.237495 0.177279
O O15 0.886994 0.160973 0.945929
O O16 0.139891 0.559623 0.428449
#
# Coordination Sequence:
#
# PCOD8029493 Si02
#       8
#     2   2   2   2   2   2   2   2
#     4  11  26  47  69  92 128 172 222 277 319 380
#     4  12  24  38  66 102 135 175 213 257 325 398
#     4  12  24  42  67  97 132 172 219 266 326 384
#     4  11  21  43  65  97 132 170 214 263 320 388
#     4  11  23  40  61  99 139 172 209 261 322 394
#     4  11  20  43  67  91 133 173 208 264 326 379
#     4  11  26  48  67  94 129 170 222 275 327 372
#     4  11  21  38  66  92 140 169 204 262 324 382
#
# _framework density 25.336592
#
# number of rings (size 3 to 8) (size 9 to 14) (size 15 to 20)
#    0.000    0.750    6.250    2.625    1.750    1.000 
#    0.000    0.000    0.000    3.750    0.000    0.000 
#    0.000    0.000    0.000    0.000    0.000    0.000 
#
# Total GULP energy -198314.558068 kJ/mol
# GULP energy per Si atom -12394.659879 kJ/mol
# Density = 2.527893 g / cm^3
# Si number density = 25.336592 Si / 1000 Ang^3
#
#
#
# Elastic Constant Matrix: (Units=GPa)
#
#
# Indices 1 2 3 4 5 6 
#
# 1 109.6731 23.6453 7.6114 -3.9208 -1.8189 -5.1229
# 2 23.6453 72.7151 18.5060 -9.8727 6.5226 1.7358
# 3 7.6114 18.5060 56.2317 -1.5835 4.8895 2.6851
# 4 -3.9208 -9.8727 -1.5835 29.5330 -1.5560 -10.7245
# 5 -1.8189 6.5226 4.8895 -1.5560 33.4904 -0.0981
# 6 -5.1229 1.7358 2.6851 -10.7245 -0.0981 36.7680
#
#
#
# Elastic Compliance Matrix: (Units=1/GPa)
#
#
# Indices 1 2 3 4 5 6 
#
# 1 0.009973 -0.003143 -0.000488 0.000992 0.001277 0.001866
# 2 -0.003143 0.016895 -0.004801 0.005051 -0.002524 0.000582
# 3 -0.000488 -0.004801 0.019648 -0.001329 -0.002027 -0.001669
# 4 0.000992 0.005051 -0.001329 0.039896 0.001152 0.011637
# 5 0.001277 -0.002524 -0.002027 0.001152 0.030772 0.000863
# 6 0.001866 0.000582 -0.001669 0.011637 0.000863 0.030949
#
#
# Mechanical properties :
#
#
# Convention : Reuss Voigt Hill
#
# Bulk Modulus (GPa) = 33.72392 37.57172 35.64782
# Shear Modulus (GPa) = 28.59104 32.54876 30.56990
#
# Velocity S-wave (km/s) = 3.36288 3.58810 3.47731
# Velocity P-wave (km/s) = 5.33084 5.65925 5.49750
#
# Compressibility (1/GPa) = 0.02965254
#
# Stress axis : x y z
#
# Youngs Moduli (GPa) = 100.26696 59.19071 50.89581
#
# Poissons Ratio (x) = 0.18606 0.02482
# Poissons Ratio (y) = 0.31518 0.24433
# Poissons Ratio (z) = 0.04890 0.28415
#
# Static dielectric constant tensor:
#      x y z
#    x 4.787470 -0.077800 -0.296960 
#    y -0.077800 4.291680 0.090190 
#    z -0.296960 0.090190 4.515820 
# 
# 
# High freq. dielectric constant tensor:
#      x y z
#    x 2.024810 -0.002020 -0.024320 
#    y -0.002020 1.984870 0.007150 
#    z -0.024320 0.007150 2.013430 
# 
# From -- ./inp_files/400022.got.cif
#   From: 2010.06.25/outbox.cif.g09.slc.cpg/sg2_201_cif.got.tgz:400022.got - 2010.06.27 13:26:56.
