data_PCOD8029870
_publ_section_title
;
Structure prediction by ZEFSAII (Michael W. Deem and Ramdas Pophale) SiO2 
 PCOD8029870
Probable space group: P -1
;
_chemical_formula_sum "Si O2"
_cell_formula_units_Z 14
_cell_length_a 12.637720
_cell_length_b 14.362412
_cell_length_c 6.897088
_cell_angle_alpha 142.777737
_cell_angle_beta 79.814591
_cell_angle_gamma 115.126761
_cell_volume 655.204422
_symmetry_space_group_name_H-M "P -1"
_symmetry_group_IT_number 2
_symmetry_cell_setting 'triclinic'
loop_
_space_group_symop_operation_xyz
x,y,z
-x,-y,-z
loop_
_atom_site_type_symbol
_atom_site_label
_atom_site_fract_x
_atom_site_fract_y
_atom_site_fract_z
Si Si1 0.310377 0.829379 0.705994
Si Si2 0.852028 0.732128 0.647110
Si Si3 0.934600 0.297316 0.644775
Si Si4 0.891399 0.995552 0.406320
Si Si5 0.469882 0.217164 0.395956
Si Si6 0.723875 0.722722 0.273575
Si Si7 0.693268 0.443976 0.509297
O O1 0.203018 0.765872 0.482037
O O2 0.429345 0.812283 0.560323
O O3 0.260409 0.699727 0.696375
O O4 0.354485 0.032237 0.071335
O O5 0.805980 0.752735 0.486726
O O6 0.751320 0.546421 0.463210
O O7 0.983220 0.738048 0.597444
O O8 0.870490 0.893639 0.040833
O O9 0.922067 0.192906 0.675291
O O10 0.000000 0.500000 0.000000
O O11 0.773251 0.899418 0.421937
O O12 0.000000 0.000000 0.500000
O O13 0.415058 0.325218 0.708103
O O14 0.543138 0.333572 0.374412
O O15 0.731185 0.573996 0.897668
#
# Coordination Sequence:
#
# PCOD8029870 Si02
#       7
#     2   2   2   2   2   2   2
#     4   9  21  40  62  90 134 167 214 261 327 383
#     4  11  24  40  68  97 131 174 211 274 328 380
#     4  12  25  43  67  99 133 171 218 271 326 390
#     4  11  25  42  64  98 129 172 224 261 329 389
#     4   9  20  40  65  90 131 172 209 270 317 385
#     4  11  21  40  68  92 128 166 217 268 320 382
#     4   9  21  41  62  99 123 168 218 262 322 382
#
# _framework density 21.367377000000001
#
# number of rings (size 3 to 8) (size 9 to 14) (size 15 to 20)
#    0.857    0.857    1.429    2.571    4.000    2.286 
#    0.000    2.143    0.000    0.000    0.000    0.000 
#    0.000    0.000    0.000    0.000    0.000    0.000 
#
# Total GULP energy -173439.853365 kJ/mol
# GULP energy per Si atom -12388.560955 kJ/mol
# Density = 2.131874 g / cm^3
# Si number density = 21.367377 Si / 1000 Ang^3
#
#
#
# Elastic Constant Matrix: (Units=GPa)
#
#
# Indices 1 2 3 4 5 6 
#
# 1 109.2429 23.7509 27.1507 -1.2317 15.6997 6.5723
# 2 23.7509 151.2083 51.0791 25.3196 8.1149 -6.3471
# 3 27.1507 51.0791 77.6714 10.3532 23.1639 -5.9260
# 4 -1.2317 25.3196 10.3532 38.5517 4.7970 -1.5059
# 5 15.6997 8.1149 23.1639 4.7970 17.5537 1.1680
# 6 6.5723 -6.3471 -5.9260 -1.5059 1.1680 30.6820
#
#
#
# Elastic Compliance Matrix: (Units=1/GPa)
#
#
# Indices 1 2 3 4 5 6 
#
# 1 0.011113 -0.001539 -0.000798 0.002572 -0.008718 -0.002395
# 2 -0.001539 0.009980 -0.007823 -0.005560 0.008587 0.000283
# 3 -0.000798 -0.007823 0.028755 0.001899 -0.034501 0.005513
# 4 0.002572 -0.005560 0.001899 0.030505 -0.010609 0.000567
# 5 -0.008718 0.008587 -0.034501 -0.010609 0.109735 -0.007718
# 6 -0.002395 0.000283 0.005513 0.000567 -0.007718 0.034550
#
#
# Mechanical properties :
#
#
# Convention : Reuss Voigt Hill
#
# Bulk Modulus (GPa) = 33.86703 60.23156 47.04929
# Shear Modulus (GPa) = 19.62305 33.10028 26.36167
#
# Velocity S-wave (km/s) = 3.03374 3.94014 3.51627
# Velocity P-wave (km/s) = 5.30620 6.99638 6.20907
#
# Compressibility (1/GPa) = 0.02952724
#
# Stress axis : x y z
#
# Youngs Moduli (GPa) = 89.98602 100.20012 34.77636
#
# Poissons Ratio (x) = 0.15424 0.02774
# Poissons Ratio (y) = 0.13851 0.27207
# Poissons Ratio (z) = 0.07179 0.78390
#
# Static dielectric constant tensor:
#      x y z
#    x 3.834240 0.195790 -0.090440 
#    y 0.195790 4.338950 0.359870 
#    z -0.090440 0.359870 3.731860 
# 
# 
# High freq. dielectric constant tensor:
#      x y z
#    x 1.836290 0.009950 -0.002100 
#    y 0.009950 1.848210 0.032160 
#    z -0.002100 0.032160 1.820170 
# 
# From -- ./inp_files/97443.got.cif
#   From: 2010.06.25/outbox.cif.g09.slc.cpg/sg2_49_cif.got.tgz:97443.got - 2010.06.27 13:26:56.
