data_PCOD8029422
_publ_section_title
;
Structure prediction by ZEFSAII (Michael W. Deem and Ramdas Pophale) SiO2 
 PCOD8029422
Probable space group: P -1
;
_chemical_formula_sum "Si O2"
_cell_formula_units_Z 16
_cell_length_a 7.420934
_cell_length_b 17.212276
_cell_length_c 8.045906
_cell_angle_alpha 121.868833
_cell_angle_beta 105.237852
_cell_angle_gamma 44.760754
_cell_volume 603.688706
_symmetry_space_group_name_H-M "P -1"
_symmetry_group_IT_number 2
_symmetry_cell_setting 'triclinic'
loop_
_space_group_symop_operation_xyz
x,y,z
-x,-y,-z
loop_
_atom_site_type_symbol
_atom_site_label
_atom_site_fract_x
_atom_site_fract_y
_atom_site_fract_z
Si Si1 0.874334 0.802565 0.685517
Si Si2 0.196484 0.446995 0.139341
Si Si3 0.655897 0.393862 0.628253
Si Si4 0.242879 0.971897 0.964107
Si Si5 0.520191 0.814808 0.171523
Si Si6 0.988424 0.249323 0.834819
Si Si7 0.066105 0.593872 0.717672
Si Si8 0.339403 0.956581 0.607326
O O1 0.634187 0.895807 0.601998
O O2 0.150093 0.729804 0.583191
O O3 0.886274 0.694413 0.638206
O O4 0.823261 0.897304 0.920656
O O5 0.282428 0.519732 0.278514
O O6 0.065182 0.450220 0.280371
O O7 0.458299 0.300938 0.988883
O O8 0.000000 0.500000 0.000000
O O9 0.361288 0.470077 0.591666
O O10 0.718720 0.338139 0.766303
O O11 0.325858 0.908689 0.728833
O O12 0.461067 0.884638 0.060026
O O13 0.000000 0.000000 0.000000
O O14 0.806899 0.755381 0.220320
O O15 0.315610 0.901807 0.372320
O O16 0.107064 0.108036 0.719857
O O17 0.907288 0.325525 0.070392
#
# Coordination Sequence:
#
# PCOD8029422 Si02
#       8
#     2   2   2   2   2   2   2   2
#     4  12  24  48  71 103 139 187 243 294 369 427
#     4  11  23  43  68 104 139 185 247 288 352 435
#     4  12  25  45  72 102 145 191 239 298 357 435
#     4  12  28  46  67 110 149 180 238 305 363 432
#     4  11  23  43  72 106 139 184 240 297 357 433
#     4  11  20  41  71 104 129 185 242 286 360 427
#     4  11  25  43  67 104 144 188 231 298 363 421
#     4  12  22  46  80  99 139 189 240 299 361 432
#
# _framework density 26.503727000000001
#
# number of rings (size 3 to 8) (size 9 to 14) (size 15 to 20)
#    0.000    0.500    6.250    3.750    1.750    1.000 
#    4.500    0.000    0.000    0.000    0.000    0.000 
#    0.000    0.000    0.000    0.000    0.000    0.000 
#
# Total GULP energy -198306.508230 kJ/mol
# GULP energy per Si atom -12394.156764 kJ/mol
# Density = 2.644340 g / cm^3
# Si number density = 26.503727 Si / 1000 Ang^3
#
#
#
# Elastic Constant Matrix: (Units=GPa)
#
#
# Indices 1 2 3 4 5 6 
#
# 1 65.8300 23.1875 14.1614 8.1842 -5.9613 3.1043
# 2 23.1875 137.2073 19.4397 15.6344 1.8698 3.4208
# 3 14.1614 19.4397 106.2900 9.8484 -29.6238 6.4070
# 4 8.1842 15.6344 9.8484 39.1371 -0.0027 -8.4321
# 5 -5.9613 1.8698 -29.6238 -0.0027 29.4418 -2.6665
# 6 3.1043 3.4208 6.4070 -8.4321 -2.6665 29.3938
#
#
#
# Elastic Compliance Matrix: (Units=1/GPa)
#
#
# Indices 1 2 3 4 5 6 
#
# 1 0.016875 -0.002427 -0.000671 -0.002802 0.002723 -0.001910
# 2 -0.002427 0.008311 -0.001644 -0.002697 -0.002798 -0.001380
# 3 -0.000671 -0.001644 0.014151 -0.003302 0.013981 -0.002502
# 4 -0.002802 -0.002697 -0.003302 0.030139 -0.002836 0.009718
# 5 0.002723 -0.002798 0.013981 -0.002836 0.048816 0.000606
# 6 -0.001910 -0.001380 -0.002502 0.009718 0.000606 0.037771
#
#
# Mechanical properties :
#
#
# Convention : Reuss Voigt Hill
#
# Bulk Modulus (GPa) = 33.49557 46.98939 40.24248
# Shear Modulus (GPa) = 28.49046 36.43045 32.46046
#
# Velocity S-wave (km/s) = 3.28222 3.71150 3.50344
# Velocity P-wave (km/s) = 5.19898 6.01123 5.61980
#
# Compressibility (1/GPa) = 0.02985470
#
# Stress axis : x y z
#
# Youngs Moduli (GPa) = 59.26005 120.32184 70.66410
#
# Poissons Ratio (x) = 0.29201 0.04740
# Poissons Ratio (y) = 0.14382 0.11614
# Poissons Ratio (z) = 0.03975 0.19775
#
# Static dielectric constant tensor:
#      x y z
#    x 4.239730 -0.008410 -0.146150 
#    y -0.008410 6.429770 -0.093910 
#    z -0.146150 -0.093910 5.173220 
# 
# 
# High freq. dielectric constant tensor:
#      x y z
#    x 2.025840 -0.000460 -0.014750 
#    y -0.000460 2.080290 0.003610 
#    z -0.014750 0.003610 2.077010 
# 
# From -- ./inp_files/218327.got.cif
#   From: 2010.06.25/outbox.cif.g09.slc.cpg/sg2_110_cif.got.tgz:218327.got - 2010.06.27 13:26:56.
