data_PCOD8029002
_publ_section_title
;
Structure prediction by ZEFSAII (Michael W. Deem and Ramdas Pophale) SiO2 
 PCOD8029002
Probable space group: P -1
;
_chemical_formula_sum "Si O2"
_cell_formula_units_Z 16
_cell_length_a 9.130000
_cell_length_b 11.593772
_cell_length_c 14.126266
_cell_angle_alpha 101.343544
_cell_angle_beta 140.274811
_cell_angle_gamma 59.339571
_cell_volume 768.304292
_symmetry_space_group_name_H-M "P -1"
_symmetry_group_IT_number 2
_symmetry_cell_setting 'triclinic'
loop_
_space_group_symop_operation_xyz
x,y,z
-x,-y,-z
loop_
_atom_site_type_symbol
_atom_site_label
_atom_site_fract_x
_atom_site_fract_y
_atom_site_fract_z
Si Si1 0.652672 0.869719 0.484820
Si Si2 0.330587 0.572899 0.593356
Si Si3 0.713866 0.005646 0.354679
Si Si4 0.666786 0.685061 0.725107
Si Si5 0.229380 0.601975 0.758858
Si Si6 0.380505 0.736174 0.392571
Si Si7 0.887248 0.786403 0.255737
Si Si8 0.253096 0.425521 0.910238
O O1 0.445621 0.817479 0.359885
O O2 0.934197 0.747928 0.659008
O O3 0.500000 0.000000 0.500000
O O4 0.730762 0.905821 0.430817
O O5 0.535619 0.622776 0.715313
O O6 0.222751 0.563428 0.640219
O O7 0.505338 0.420805 0.607676
O O8 0.081149 0.677796 0.416769
O O9 0.427572 0.165277 0.246992
O O10 0.683161 0.940184 0.230993
O O11 0.000000 0.000000 0.500000
O O12 0.534835 0.729240 0.563412
O O13 0.997185 0.562006 0.862221
O O14 0.270050 0.473472 0.820850
O O15 0.470263 0.625812 0.902222
O O16 0.053274 0.814281 0.264197
O O17 0.749361 0.715617 0.122780
#
# Coordination Sequence:
#
# PCOD8029002 Si02
#       8
#     2   2   2   2   2   2   2   2
#     4  12  21  37  62  89 121 157 199 252 301 356
#     4  11  20  35  63  91 115 148 214 256 283 347
#     4  12  21  34  61  94 121 155 200 254 297 355
#     4  11  19  38  59  88 121 159 195 245 308 347
#     4  11  24  38  59  92 120 161 202 245 301 364
#     4  11  20  34  61  93 117 148 207 257 297 337
#     4  11  20  37  61  91 117 157 199 254 299 346
#     4  11  23  41  60  83 132 163 192 246 311 362
#
# _framework density 20.825084
#
# number of rings (size 3 to 8) (size 9 to 14) (size 15 to 20)
#    0.000    0.750    8.750    0.750    1.750    1.500 
#    0.000    0.000    2.750    6.000    0.000    0.000 
#    0.000    0.000    0.000    0.000    0.000    0.000 
#
# Total GULP energy -198335.270816 kJ/mol
# GULP energy per Si atom -12395.954426 kJ/mol
# Density = 2.077768 g / cm^3
# Si number density = 20.825084 Si / 1000 Ang^3
#
#
#
# Elastic Constant Matrix: (Units=GPa)
#
#
# Indices 1 2 3 4 5 6 
#
# 1 107.2378 37.9039 15.0874 5.2613 17.2833 7.1241
# 2 37.9039 149.3260 21.3949 8.4256 18.8787 -13.1563
# 3 15.0874 21.3949 40.9263 10.1491 18.0321 1.5118
# 4 5.2613 8.4256 10.1491 11.7014 6.6734 4.8416
# 5 17.2833 18.8787 18.0321 6.6734 27.7501 1.0094
# 6 7.1241 -13.1563 1.5118 4.8416 1.0094 43.6119
#
#
#
# Elastic Compliance Matrix: (Units=1/GPa)
#
#
# Indices 1 2 3 4 5 6 
#
# 1 0.011205 -0.002383 -0.000938 0.001395 -0.004991 -0.002556
# 2 -0.002383 0.008343 -0.001690 -0.003531 -0.002369 0.003411
# 3 -0.000938 -0.001690 0.039316 -0.022427 -0.018464 0.001198
# 4 0.001395 -0.003531 -0.022427 0.119302 -0.012093 -0.013480
# 5 -0.004991 -0.002369 -0.018464 -0.012093 0.055633 0.000796
# 6 -0.002556 0.003411 0.001198 -0.013480 0.000796 0.025813
#
#
# Mechanical properties :
#
#
# Convention : Reuss Voigt Hill
#
# Bulk Modulus (GPa) = 20.47354 49.58472 35.02913
# Shear Modulus (GPa) = 17.48787 31.48629 24.48708
#
# Velocity S-wave (km/s) = 2.90099 3.89259 3.43278
# Velocity P-wave (km/s) = 4.59059 6.63813 5.70694
#
# Compressibility (1/GPa) = 0.04884352
#
# Stress axis : x y z
#
# Youngs Moduli (GPa) = 89.24659 119.86173 25.43511
#
# Poissons Ratio (x) = 0.28560 0.02385
# Poissons Ratio (y) = 0.21265 0.04298
# Poissons Ratio (z) = 0.08367 0.20253
#
# Static dielectric constant tensor:
#      x y z
#    x 4.238700 0.005280 0.184620 
#    y 0.005280 4.012140 -0.016140 
#    z 0.184620 -0.016140 3.299500 
# 
# 
# High freq. dielectric constant tensor:
#      x y z
#    x 1.839080 -0.002500 0.015010 
#    y -0.002500 1.827880 0.001450 
#    z 0.015010 0.001450 1.760650 
# 
# From -- ./inp_files/243420.got.cif
#   From: 2010.06.25/outbox.cif.g09.slc.cpg/sg2_122_cif.got.tgz:243420.got - 2010.06.27 13:26:56.
