data_PCOD8029934
_publ_section_title
;
Structure prediction by ZEFSAII (Michael W. Deem and Ramdas Pophale) SiO2 
 PCOD8029934
Probable space group: P -1
;
_chemical_formula_sum "Si O2"
_cell_formula_units_Z 16
_cell_length_a 22.651328
_cell_length_b 11.613706
_cell_length_c 9.158665
_cell_angle_alpha 79.327874
_cell_angle_beta 136.267591
_cell_angle_gamma 135.088545
_cell_volume 873.945353
_symmetry_space_group_name_H-M "P -1"
_symmetry_group_IT_number 2
_symmetry_cell_setting 'triclinic'
loop_
_space_group_symop_operation_xyz
x,y,z
-x,-y,-z
loop_
_atom_site_type_symbol
_atom_site_label
_atom_site_fract_x
_atom_site_fract_y
_atom_site_fract_z
Si Si1 0.034160 0.223966 0.910477
Si Si2 0.166973 0.216695 0.388228
Si Si3 0.529119 0.534405 0.212960
Si Si4 0.953898 0.312853 0.971199
Si Si5 0.385817 0.176143 0.490639
Si Si6 0.911105 0.694978 0.545348
Si Si7 0.733853 0.525859 0.986850
Si Si8 0.744607 0.809941 0.983965
O O1 0.186311 0.426514 0.032004
O O2 0.978975 0.284246 0.862709
O O3 0.051450 0.163864 0.099600
O O4 0.900404 0.991752 0.640640
O O5 0.324181 0.386443 0.527961
O O6 0.185938 0.308950 0.553078
O O7 0.575466 0.718670 0.308777
O O8 0.369665 0.299883 0.057024
O O9 0.500000 0.500000 0.000000
O O10 0.764417 0.085152 0.718912
O O11 0.000000 0.500000 0.000000
O O12 0.064939 0.384316 0.279557
O O13 0.348372 0.244480 0.307122
O O14 0.542036 0.284610 0.691873
O O15 0.807211 0.539385 0.253485
O O16 0.085718 0.934157 0.744377
O O17 0.775842 0.710722 0.032658
#
# Coordination Sequence:
#
# PCOD8029934 Si02
#       8
#     2   2   2   2   2   2   2   2
#     4  10  19  30  56  74 102 136 173 217 262 309
#     4  10  17  31  46  80 109 135 169 206 260 324
#     4  11  20  27  47  80 116 139 163 205 263 321
#     4  10  22  42  58  71  98 146 193 223 255 309
#     4  10  20  35  53  77 107 147 176 208 261 322
#     4  10  21  33  54  81 110 139 175 216 268 317
#     4  11  19  31  52  83 112 136 168 216 274 319
#     4  10  19  31  49  76 116 149 165 197 262 332
#
# _framework density 18.307780000000001
#
# number of rings (size 3 to 8) (size 9 to 14) (size 15 to 20)
#    0.000    1.750    2.500    4.875    1.750    0.000 
#    0.000    1.875    0.000    0.000    0.000    0.000 
#    0.000    0.000    0.000    0.000    0.000    0.000 
#
# Total GULP energy -198290.071472 kJ/mol
# GULP energy per Si atom -12393.129467 kJ/mol
# Density = 1.826611 g / cm^3
# Si number density = 18.307780 Si / 1000 Ang^3
#
#
#
# Elastic Constant Matrix: (Units=GPa)
#
#
# Indices 1 2 3 4 5 6 
#
# 1 99.9667 50.6079 19.8941 7.8810 12.8565 16.3043
# 2 50.6079 88.4144 28.1905 3.1591 4.7123 -0.7089
# 3 19.8941 28.1905 72.3536 -0.3957 6.8916 4.6432
# 4 7.8810 3.1591 -0.3957 17.3050 10.7779 4.5923
# 5 12.8565 4.7123 6.8916 10.7779 30.8628 4.0503
# 6 16.3043 -0.7089 4.6432 4.5923 4.0503 29.4932
#
#
#
# Elastic Compliance Matrix: (Units=1/GPa)
#
#
# Indices 1 2 3 4 5 6 
#
# 1 0.016827 -0.009448 -0.000003 -0.001092 -0.004030 -0.008806
# 2 -0.009448 0.018397 -0.005215 -0.002304 0.002238 0.006537
# 3 -0.000003 -0.005215 0.016457 0.004664 -0.004129 -0.002874
# 4 -0.001092 -0.002304 0.004664 0.077375 -0.026121 -0.008646
# 5 -0.004030 0.002238 -0.004129 -0.026121 0.043650 0.001004
# 6 -0.008806 0.006537 -0.002874 -0.008646 0.001004 0.040592
#
#
# Mechanical properties :
#
#
# Convention : Reuss Voigt Hill
#
# Bulk Modulus (GPa) = 44.74439 50.90220 47.82329
# Shear Modulus (GPa) = 19.99366 26.33502 23.16434
#
# Velocity S-wave (km/s) = 3.30826 3.79682 3.56093
# Velocity P-wave (km/s) = 6.25187 6.86186 6.56395
#
# Compressibility (1/GPa) = 0.02234917
#
# Stress axis : x y z
#
# Youngs Moduli (GPa) = 59.42720 54.35808 60.76449
#
# Poissons Ratio (x) = 0.51356 0.00017
# Poissons Ratio (y) = 0.56145 0.31690
# Poissons Ratio (z) = 0.00017 0.28349
#
# Static dielectric constant tensor:
#      x y z
#    x 3.151180 0.231550 -0.143840 
#    y 0.231550 2.990280 -0.045620 
#    z -0.143840 -0.045620 3.283510 
# 
# 
# High freq. dielectric constant tensor:
#      x y z
#    x 1.705780 0.038130 0.008930 
#    y 0.038130 1.664430 0.000620 
#    z 0.008930 0.000620 1.717380 
# 
# From -- ./inp_files/221019.got.cif
#   From: 2010.06.25/outbox.cif.g09.slc.cpg/sg2_111_cif.got.tgz:221019.got - 2010.06.27 13:26:56.
