data_PCOD8029354
_publ_section_title
;
Structure prediction by ZEFSAII (Michael W. Deem and Ramdas Pophale) SiO2 
 PCOD8029354
Probable space group: P -1
;
_chemical_formula_sum "Si O2"
_cell_formula_units_Z 14
_cell_length_a 8.773939
_cell_length_b 13.716990
_cell_length_c 19.524474
_cell_angle_alpha 154.058229
_cell_angle_beta 49.029373
_cell_angle_gamma 115.437338
_cell_volume 678.896184
_symmetry_space_group_name_H-M "P -1"
_symmetry_group_IT_number 2
_symmetry_cell_setting 'triclinic'
loop_
_space_group_symop_operation_xyz
x,y,z
-x,-y,-z
loop_
_atom_site_type_symbol
_atom_site_label
_atom_site_fract_x
_atom_site_fract_y
_atom_site_fract_z
Si Si1 0.542568 0.212726 0.039144
Si Si2 0.190523 0.361655 0.414427
Si Si3 0.247447 0.050300 0.591210
Si Si4 0.119200 0.606339 0.348054
Si Si5 0.601811 0.374801 0.541944
Si Si6 0.018114 0.173424 0.867803
Si Si7 0.133808 0.384845 0.707271
O O1 0.765160 0.225516 0.955377
O O2 0.619171 0.918837 0.844976
O O3 0.338129 0.323909 0.112923
O O4 0.440108 0.395304 0.249787
O O5 0.320128 0.534711 0.493220
O O6 0.000000 0.500000 0.500000
O O7 0.081228 0.342373 0.506011
O O8 0.217969 0.801956 0.450778
O O9 0.500000 0.000000 0.500000
O O10 0.101726 0.244202 0.817612
O O11 0.174032 0.164780 0.609888
O O12 0.017777 0.632119 0.319082
O O13 0.375337 0.346066 0.580916
O O14 0.814249 0.117438 0.344550
O O15 0.010838 0.345505 0.042261
#
# Coordination Sequence:
#
# PCOD8029354 Si02
#       7
#     2   2   2   2   2   2   2
#     4  11  20  40  69  97 130 166 226 267 319 388
#     4  12  22  40  72  98 128 170 228 269 318 386
#     4  12  21  47  72  93 127 175 226 267 312 394
#     4  12  26  43  62 106 135 169 213 275 331 381
#     4  11  22  42  68  98 128 175 222 269 316 391
#     4  11  21  44  67  98 125 173 226 262 321 391
#     4  11  27  41  66  97 142 168 213 273 333 380
#
# _framework density 20.62171
#
# number of rings (size 3 to 8) (size 9 to 14) (size 15 to 20)
#    0.000    0.571    7.143    2.143    0.000    1.714 
#    0.000    2.857    0.000    0.000    0.000    0.000 
#    0.000    0.000    0.000    0.000    0.000    0.000 
#
# Total GULP energy -173521.247185 kJ/mol
# GULP energy per Si atom -12394.374799 kJ/mol
# Density = 2.057477 g / cm^3
# Si number density = 20.621710 Si / 1000 Ang^3
#
#
#
# Elastic Constant Matrix: (Units=GPa)
#
#
# Indices 1 2 3 4 5 6 
#
# 1 102.9136 53.5086 39.3099 -2.1773 -11.0109 -9.1414
# 2 53.5086 131.2050 39.9434 4.5161 -2.5035 13.0378
# 3 39.3099 39.9434 116.3724 10.6391 -20.4558 -3.7952
# 4 -2.1773 4.5161 10.6391 34.3226 -1.4284 -6.5753
# 5 -11.0109 -2.5035 -20.4558 -1.4284 24.1622 -0.7582
# 6 -9.1414 13.0378 -3.7952 -6.5753 -0.7582 35.2940
#
#
#
# Elastic Compliance Matrix: (Units=1/GPa)
#
#
# Indices 1 2 3 4 5 6 
#
# 1 0.014948 -0.006122 -0.002262 0.003939 0.004707 0.006725
# 2 -0.006122 0.011595 -0.002632 -0.002559 -0.004178 -0.006718
# 3 -0.002262 -0.002632 0.012124 -0.002932 0.008829 0.001333
# 4 0.003939 -0.002559 -0.002932 0.032149 0.001188 0.007665
# 5 0.004707 -0.004178 0.008829 0.001188 0.050802 0.005025
# 6 0.006725 -0.006718 0.001333 0.007665 0.005025 0.034236
#
#
# Mechanical properties :
#
#
# Convention : Reuss Voigt Hill
#
# Bulk Modulus (GPa) = 60.10574 68.44612 64.27593
# Shear Modulus (GPa) = 27.25842 33.27104 30.26473
#
# Velocity S-wave (km/s) = 3.63964 4.02107 3.83510
# Velocity P-wave (km/s) = 6.84637 7.40419 7.13074
#
# Compressibility (1/GPa) = 0.01663735
#
# Stress axis : x y z
#
# Youngs Moduli (GPa) = 66.89941 86.24144 82.48139
#
# Poissons Ratio (x) = 0.52793 0.18654
# Poissons Ratio (y) = 0.40953 0.21707
# Poissons Ratio (z) = 0.15130 0.22696
#
# Static dielectric constant tensor:
#      x y z
#    x 3.528570 0.266790 -0.216390 
#    y 0.266790 4.292720 -0.093040 
#    z -0.216390 -0.093040 4.298500 
# 
# 
# High freq. dielectric constant tensor:
#      x y z
#    x 1.783480 0.016490 -0.016390 
#    y 0.016490 1.827450 0.000980 
#    z -0.016390 0.000980 1.816450 
# 
# From -- ./inp_files/26896.got.cif
#   From: 2010.06.25/outbox.cif.g09.slc.cpg/sg2_14_cif.got.tgz:26896.got - 2010.06.27 13:26:56.
