data_PCOD8029443
_publ_section_title
;
Structure prediction by ZEFSAII (Michael W. Deem and Ramdas Pophale) SiO2 
 PCOD8029443
Probable space group: P -1
;
_chemical_formula_sum "Si O2"
_cell_formula_units_Z 16
_cell_length_a 19.275568
_cell_length_b 11.917459
_cell_length_c 22.818358
_cell_angle_alpha 140.592130
_cell_angle_beta 162.335850
_cell_angle_gamma 29.769385
_cell_volume 736.321394
_symmetry_space_group_name_H-M "P -1"
_symmetry_group_IT_number 2
_symmetry_cell_setting 'triclinic'
loop_
_space_group_symop_operation_xyz
x,y,z
-x,-y,-z
loop_
_atom_site_type_symbol
_atom_site_label
_atom_site_fract_x
_atom_site_fract_y
_atom_site_fract_z
Si Si1 0.414697 0.012126 0.583243
Si Si2 0.001084 0.330341 0.008187
Si Si3 0.104053 0.899980 0.725727
Si Si4 0.281610 0.161122 0.038536
Si Si5 0.022540 0.112406 0.507556
Si Si6 0.680276 0.439237 0.059488
Si Si7 0.255496 0.900160 0.293385
Si Si8 0.752644 0.619455 0.485873
O O1 0.767118 0.820781 0.812183
O O2 0.389790 0.896217 0.461073
O O3 0.329382 0.259220 0.595707
O O4 0.177302 0.071233 0.465396
O O5 0.186619 0.227704 0.055846
O O6 0.829275 0.607023 0.992268
O O7 0.742895 0.313082 0.792160
O O8 0.022313 0.982758 0.625347
O O9 0.424890 0.618525 0.876565
O O10 0.127007 0.071921 0.848271
O O11 0.653795 0.953595 0.254108
O O12 0.757040 0.405057 0.407070
O O13 0.000000 0.000000 0.500000
O O14 0.906684 0.487429 0.265943
O O15 0.500000 0.500000 0.000000
O O16 0.894615 0.158671 0.099630
O O17 0.486305 0.840842 0.403613
#
# Coordination Sequence:
#
# PCOD8029443 Si02
#       8
#     2   2   2   2   2   2   2   2
#     4  11  23  42  73 109 133 182 234 293 359 409
#     4  11  24  41  73 100 143 180 235 288 347 422
#     4  12  24  44  74 104 137 188 239 290 347 418
#     4  11  24  46  67 102 137 188 235 287 342 420
#     4  12  28  48  67  98 145 191 240 285 350 421
#     4  11  20  41  75 106 140 180 229 290 354 420
#     4  11  24  45  66 106 150 177 228 296 353 414
#     4  11  25  46  70 102 152 182 229 300 353 414
#
# _framework density 21.729642999999999
#
# number of rings (size 3 to 8) (size 9 to 14) (size 15 to 20)
#    0.000    0.750    6.250    2.250    1.750    4.000 
#    6.750    0.000    0.000    0.000    0.000    0.000 
#    0.000    0.000    0.000    0.000    0.000    0.000 
#
# Total GULP energy -198382.437391 kJ/mol
# GULP energy per Si atom -12398.902337 kJ/mol
# Density = 2.168019 g / cm^3
# Si number density = 21.729643 Si / 1000 Ang^3
#
#
#
# Elastic Constant Matrix: (Units=GPa)
#
#
# Indices 1 2 3 4 5 6 
#
# 1 118.6187 43.3363 39.4516 -5.7160 -8.4838 8.9830
# 2 43.3363 131.1582 30.8182 3.3365 -5.6131 16.1768
# 3 39.4516 30.8182 71.2369 -9.1778 -7.0126 6.3490
# 4 -5.7160 3.3365 -9.1778 25.6968 3.2447 7.9888
# 5 -8.4838 -5.6131 -7.0126 3.2447 39.6623 -11.8785
# 6 8.9830 16.1768 6.3490 7.9888 -11.8785 34.7337
#
#
#
# Elastic Compliance Matrix: (Units=1/GPa)
#
#
# Indices 1 2 3 4 5 6 
#
# 1 0.011090 -0.002433 -0.004771 0.001245 0.000823 -0.000868
# 2 -0.002433 0.009474 -0.002751 -0.001760 -0.000427 -0.003021
# 3 -0.004771 -0.002751 0.019004 0.006690 0.000730 -0.002248
# 4 0.001245 -0.001760 0.006690 0.046974 -0.006791 -0.013852
# 5 0.000823 -0.000427 0.000730 -0.006791 0.029453 0.011487
# 6 -0.000868 -0.003021 -0.002248 -0.013852 0.011487 0.037948
#
#
# Mechanical properties :
#
#
# Convention : Reuss Voigt Hill
#
# Bulk Modulus (GPa) = 50.86619 60.91399 55.89009
# Shear Modulus (GPa) = 27.71543 33.84571 30.78057
#
# Velocity S-wave (km/s) = 3.57524 3.95090 3.76776
# Velocity P-wave (km/s) = 6.36417 6.99331 6.68614
#
# Compressibility (1/GPa) = 0.01965942
#
# Stress axis : x y z
#
# Youngs Moduli (GPa) = 90.16739 105.55528 52.62093
#
# Poissons Ratio (x) = 0.25680 0.25104
# Poissons Ratio (y) = 0.21936 0.14474
# Poissons Ratio (z) = 0.43017 0.29035
#
# Static dielectric constant tensor:
#      x y z
#    x 3.918520 0.140220 0.091260 
#    y 0.140220 4.002980 -0.081090 
#    z 0.091260 -0.081090 3.950420 
# 
# 
# High freq. dielectric constant tensor:
#      x y z
#    x 1.852010 0.008750 0.007120 
#    y 0.008750 1.857860 -0.001540 
#    z 0.007120 -0.001540 1.858910 
# 
# From -- ./inp_files/600097.got.cif
#   From: 2010.06.25/outbox.cif.g09.slc.cpg/sg2_301_cif.got.tgz:600097.got - 2010.06.27 13:26:56.
