data_PCOD8029482
_publ_section_title
;
Structure prediction by ZEFSAII (Michael W. Deem and Ramdas Pophale) SiO2 
 PCOD8029482
Probable space group: P -1
;
_chemical_formula_sum "Si O2"
_cell_formula_units_Z 12
_cell_length_a 11.965507
_cell_length_b 5.380283
_cell_length_c 11.322449
_cell_angle_alpha 52.598897
_cell_angle_beta 128.472279
_cell_angle_gamma 119.734218
_cell_volume 445.097110
_symmetry_space_group_name_H-M "P -1"
_symmetry_group_IT_number 2
_symmetry_cell_setting 'triclinic'
loop_
_space_group_symop_operation_xyz
x,y,z
-x,-y,-z
loop_
_atom_site_type_symbol
_atom_site_label
_atom_site_fract_x
_atom_site_fract_y
_atom_site_fract_z
Si Si1 0.890278 0.324571 0.884093
Si Si2 0.628771 0.360618 0.062595
Si Si3 0.929514 0.698713 0.200077
Si Si4 0.793537 0.162556 0.538173
Si Si5 0.645408 0.605482 0.739097
Si Si6 0.338859 0.270720 0.641206
O O1 0.731953 0.407739 0.767199
O O2 0.954439 0.444123 0.763481
O O3 0.000000 0.500000 0.000000
O O4 0.873902 0.952684 0.006331
O O5 0.782951 0.454316 0.210629
O O6 0.600785 0.972489 0.156888
O O7 0.500000 0.500000 0.000000
O O8 0.660497 0.506575 0.912729
O O9 0.030150 0.820175 0.345409
O O10 0.759224 0.520903 0.411339
O O11 0.715448 0.979604 0.657085
O O12 0.737073 0.944012 0.452896
O O13 0.478114 0.521426 0.613544
#
# Coordination Sequence:
#
# PCOD8029482 Si02
#       6
#     2   2   2   2   2   2
#     4  11  20  42  74 114 139 184 258 322 359 414
#     4  12  27  50  76 110 152 199 249 312 376 451
#     4  11  24  43  74 110 150 193 251 310 376 442
#     4  12  27  49  77 110 152 200 251 312 373 446
#     4  12  24  49  82 107 148 196 262 312 363 444
#     4  12  29  48  73 114 158 201 240 305 390 453
#
# _framework density 26.960407
#
# number of rings (size 3 to 8) (size 9 to 14) (size 15 to 20)
#    0.000    0.333    3.333    5.500    0.000    5.333 
#    0.000    0.000    0.000    0.000    0.000    0.000 
#    0.000    0.000    0.000    0.000    0.000    0.000 
#
# Total GULP energy -148746.040612 kJ/mol
# GULP energy per Si atom -12395.503384 kJ/mol
# Density = 2.689904 g / cm^3
# Si number density = 26.960407 Si / 1000 Ang^3
#
#
#
# Elastic Constant Matrix: (Units=GPa)
#
#
# Indices 1 2 3 4 5 6 
#
# 1 132.4118 46.0069 29.4385 -4.7834 24.1299 1.1790
# 2 46.0069 117.6665 32.4694 -4.6173 15.8876 2.9947
# 3 29.4385 32.4694 96.9445 -14.2326 11.8804 -8.1777
# 4 -4.7834 -4.6173 -14.2326 59.0565 7.5192 11.0453
# 5 24.1299 15.8876 11.8804 7.5192 44.9229 0.0492
# 6 1.1790 2.9947 -8.1777 11.0453 0.0492 48.4884
#
#
#
# Elastic Compliance Matrix: (Units=1/GPa)
#
#
# Indices 1 2 3 4 5 6 
#
# 1 0.009582 -0.002781 -0.001420 0.000806 -0.003922 -0.000480
# 2 -0.002781 0.010546 -0.002520 0.000406 -0.001636 -0.001100
# 3 -0.001420 -0.002520 0.012368 0.002616 -0.002057 0.001682
# 4 0.000806 0.000406 0.002616 0.018958 -0.004437 -0.003917
# 5 -0.003922 -0.001636 -0.002057 -0.004437 0.026231 0.000834
# 6 -0.000480 -0.001100 0.001682 -0.003917 0.000834 0.021878
#
#
# Mechanical properties :
#
#
# Convention : Reuss Voigt Hill
#
# Bulk Modulus (GPa) = 52.48205 62.53915 57.51060
# Shear Modulus (GPa) = 41.89021 46.43410 44.16215
#
# Velocity S-wave (km/s) = 3.94606 4.15457 4.05166
# Velocity P-wave (km/s) = 6.34590 6.80154 6.57767
#
# Compressibility (1/GPa) = 0.01905413
#
# Stress axis : x y z
#
# Youngs Moduli (GPa) = 104.35769 94.81894 80.85075
#
# Poissons Ratio (x) = 0.26373 0.11479
# Poissons Ratio (y) = 0.29027 0.20377
# Poissons Ratio (z) = 0.14817 0.23898
#
# Static dielectric constant tensor:
#      x y z
#    x 5.043730 -0.113970 0.297220 
#    y -0.113970 7.290110 -1.556500 
#    z 0.297220 -1.556500 6.444230 
# 
# 
# High freq. dielectric constant tensor:
#      x y z
#    x 2.075250 0.012370 0.003550 
#    y 0.012370 2.095850 0.008310 
#    z 0.003550 0.008310 2.099050 
# 
# From -- ./inp_files/360705.got.cif
#   From: 2010.06.25/outbox.cif.g09.slc.cpg/sg2_181_cif.got.tgz:360705.got - 2010.06.27 13:26:56.
