data_PCOD8029808
_publ_section_title
;
Structure prediction by ZEFSAII (Michael W. Deem and Ramdas Pophale) SiO2 
 PCOD8029808
Probable space group: P -1
;
_chemical_formula_sum "Si O2"
_cell_formula_units_Z 16
_cell_length_a 9.269746
_cell_length_b 12.217204
_cell_length_c 16.067515
_cell_angle_alpha 43.466701
_cell_angle_beta 141.112934
_cell_angle_gamma 141.672535
_cell_volume 676.742877
_symmetry_space_group_name_H-M "P -1"
_symmetry_group_IT_number 2
_symmetry_cell_setting 'triclinic'
loop_
_space_group_symop_operation_xyz
x,y,z
-x,-y,-z
loop_
_atom_site_type_symbol
_atom_site_label
_atom_site_fract_x
_atom_site_fract_y
_atom_site_fract_z
Si Si1 0.894369 0.297061 0.324783
Si Si2 0.122559 0.254605 0.294199
Si Si3 0.865070 0.111384 0.907308
Si Si4 0.569571 0.127320 0.039283
Si Si5 0.080224 0.617230 0.360128
Si Si6 0.420201 0.056972 0.518008
Si Si7 0.545812 0.561347 0.215064
Si Si8 0.736070 0.546327 0.020011
O O1 0.042580 0.435826 0.393519
O O2 0.808660 0.390653 0.161906
O O3 0.083061 0.248305 0.380857
O O4 0.646385 0.106257 0.354995
O O5 0.163588 0.083221 0.380242
O O6 0.386935 0.452939 0.285793
O O7 0.882794 0.241722 0.137115
O O8 0.895670 0.238604 0.775362
O O9 0.021132 0.245829 0.979678
O O10 0.563731 0.981540 0.874561
O O11 0.000000 0.000000 0.000000
O O12 0.425203 0.240064 0.886245
O O13 0.500000 0.000000 0.000000
O O14 0.829165 0.567304 0.335574
O O15 0.349975 0.734437 0.469000
O O16 0.500000 0.000000 0.500000
O O17 0.360643 0.449555 0.117012
O O18 0.500000 0.500000 0.000000
#
# Coordination Sequence:
#
# PCOD8029808 Si02
#       8
#     2   2   2   2   2   2   2   2
#     4  11  25  48  74 104 144 187 236 299 358 422
#     4  12  28  47  71 103 147 193 232 296 362 424
#     4  11  22  39  68 105 142 179 231 289 348 426
#     4  12  26  41  67 108 147 181 231 291 364 424
#     4  11  26  45  75 107 135 190 245 293 354 426
#     4  12  30  51  75 100 141 193 250 295 351 429
#     4  12  24  44  70 107 145 183 234 290 362 425
#     4  11  21  39  71 106 144 180 225 290 360 420
#
# _framework density 23.642657
#
# number of rings (size 3 to 8) (size 9 to 14) (size 15 to 20)
#    0.000    0.500    5.000    3.000    7.000    2.500 
#    0.000    0.000    0.000    0.000    0.000    0.000 
#    0.000    0.000    0.000    0.000    0.000    0.000 
#
# Total GULP energy -198280.328253 kJ/mol
# GULP energy per Si atom -12392.520516 kJ/mol
# Density = 2.358885 g / cm^3
# Si number density = 23.642657 Si / 1000 Ang^3
#
#
#
# Elastic Constant Matrix: (Units=GPa)
#
#
# Indices 1 2 3 4 5 6 
#
# 1 167.1976 54.8307 13.2111 -6.5324 11.7357 4.9458
# 2 54.8307 101.2159 32.0440 -5.5098 5.5379 14.7992
# 3 13.2111 32.0440 31.5689 -3.8938 20.1208 -7.4089
# 4 -6.5324 -5.5098 -3.8938 36.0733 -2.0982 -2.9564
# 5 11.7357 5.5379 20.1208 -2.0982 33.2972 -10.5077
# 6 4.9458 14.7992 -7.4089 -2.9564 -10.5077 44.1718
#
#
#
# Elastic Compliance Matrix: (Units=1/GPa)
#
#
# Indices 1 2 3 4 5 6 
#
# 1 0.007891 -0.006318 0.007051 0.000996 -0.005562 0.001159
# 2 -0.006318 0.025130 -0.035839 -0.001021 0.016528 -0.009860
# 3 0.007051 -0.035839 0.103869 0.005208 -0.053857 0.016177
# 4 0.000996 -0.001021 0.005208 0.028506 -0.000629 0.002862
# 5 -0.005562 0.016528 -0.053857 -0.000629 0.061988 0.000756
# 6 0.001159 -0.009860 0.016177 0.002862 0.000756 0.028897
#
#
# Mechanical properties :
#
#
# Convention : Reuss Voigt Hill
#
# Bulk Modulus (GPa) = 14.99716 55.57267 35.28491
# Shear Modulus (GPa) = 14.33823 36.03492 25.18657
#
# Velocity S-wave (km/s) = 2.46530 3.90827 3.26744
# Velocity P-wave (km/s) = 3.80272 6.62740 5.40292
#
# Compressibility (1/GPa) = 0.06667929
#
# Stress axis : x y z
#
# Youngs Moduli (GPa) = 126.73107 39.79265 9.62751
#
# Poissons Ratio (x) = 0.25140 -0.06788
# Poissons Ratio (y) = 0.80065 0.34504
# Poissons Ratio (z) = -0.89357 1.42611
#
# Static dielectric constant tensor:
#      x y z
#    x 4.581420 0.068750 0.215440 
#    y 0.068750 4.711440 0.214770 
#    z 0.215440 0.214770 4.096900 
# 
# 
# High freq. dielectric constant tensor:
#      x y z
#    x 1.956720 0.001280 0.000230 
#    y 0.001280 1.942700 -0.014870 
#    z 0.000230 -0.014870 1.926400 
# 
# From -- ./inp_files/559725.got.cif
#   From: 2010.06.25/outbox.cif.g09.slc.cpg/sg2_280_cif.got.tgz:559725.got - 2010.06.27 13:26:56.
