data_PCOD8029755
_publ_section_title
;
Structure prediction by ZEFSAII (Michael W. Deem and Ramdas Pophale) SiO2 
 PCOD8029755
Probable space group: P -1
;
_chemical_formula_sum "Si O2"
_cell_formula_units_Z 16
_cell_length_a 16.399150
_cell_length_b 12.100646
_cell_length_c 10.817431
_cell_angle_alpha 105.423566
_cell_angle_beta 134.496533
_cell_angle_gamma 39.390772
_cell_volume 770.660178
_symmetry_space_group_name_H-M "P -1"
_symmetry_group_IT_number 2
_symmetry_cell_setting 'triclinic'
loop_
_space_group_symop_operation_xyz
x,y,z
-x,-y,-z
loop_
_atom_site_type_symbol
_atom_site_label
_atom_site_fract_x
_atom_site_fract_y
_atom_site_fract_z
Si Si1 0.703222 0.692668 0.728951
Si Si2 0.726179 0.937168 0.764695
Si Si3 0.591113 0.074901 0.925590
Si Si4 0.388941 0.456907 0.973890
Si Si5 0.158194 0.355923 0.511116
Si Si6 0.075124 0.629165 0.340339
Si Si7 0.798565 0.257773 0.365576
Si Si8 0.884775 0.425560 0.071142
O O1 0.770836 0.765294 0.795607
O O2 0.863514 0.468739 0.759117
O O3 0.454061 0.889106 0.480675
O O4 0.727604 0.640789 0.884847
O O5 0.957251 0.787518 0.911912
O O6 0.650700 0.067618 0.847331
O O7 0.502496 0.254120 0.966445
O O8 0.415032 0.118340 0.751068
O O9 0.815685 0.838106 0.153150
O O10 0.220740 0.664481 0.765427
O O11 0.257808 0.529095 0.976502
O O12 0.574252 0.384927 0.197469
O O13 0.000000 0.500000 0.500000
O O14 0.188993 0.454626 0.512977
O O15 0.065992 0.344674 0.313711
O O16 0.157869 0.688033 0.463401
O O17 0.000000 0.000000 0.500000
#
# Coordination Sequence:
#
# PCOD8029755 Si02
#       8
#     2   2   2   2   2   2   2   2
#     4  11  22  40  64  93 131 178 215 256 315 392
#     4  11  21  39  65  92 130 182 213 249 316 397
#     4  12  22  40  64  94 127 172 211 255 325 381
#     4  11  25  44  66  99 130 165 216 276 325 375
#     4  12  23  39  59  95 136 166 206 263 321 381
#     4  12  22  41  67  94 126 170 223 260 320 383
#     4  11  23  44  72  91 123 172 225 268 323 382
#     4  12  23  41  63  98 139 166 208 268 322 387
#
# _framework density 20.761420999999999
#
# number of rings (size 3 to 8) (size 9 to 14) (size 15 to 20)
#    0.000    0.500    7.500    1.875    0.000    1.500 
#    4.500    0.625    0.000    7.500    0.000    0.000 
#    0.000    0.000    0.000    0.000    0.000    0.000 
#
# Total GULP energy -198360.795586 kJ/mol
# GULP energy per Si atom -12397.549724 kJ/mol
# Density = 2.071417 g / cm^3
# Si number density = 20.761421 Si / 1000 Ang^3
#
#
#
# Elastic Constant Matrix: (Units=GPa)
#
#
# Indices 1 2 3 4 5 6 
#
# 1 126.4719 35.6799 36.5822 -11.1104 10.1959 -26.7935
# 2 35.6799 63.5187 15.6439 -11.8359 10.7071 -14.3567
# 3 36.5822 15.6439 100.5093 -7.0694 14.8598 -6.9103
# 4 -11.1104 -11.8359 -7.0694 32.9797 0.8138 2.5942
# 5 10.1959 10.7071 14.8598 0.8138 25.0255 -0.3463
# 6 -26.7935 -14.3567 -6.9103 2.5942 -0.3463 33.4699
#
#
#
# Elastic Compliance Matrix: (Units=1/GPa)
#
#
# Indices 1 2 3 4 5 6 
#
# 1 0.011457 -0.003690 -0.002820 0.001423 -0.001365 0.006882
# 2 -0.003690 0.021608 -0.000025 0.006248 -0.007850 0.005744
# 3 -0.002820 -0.000025 0.011994 0.001760 -0.006019 0.000009
# 4 0.001423 0.006248 0.001760 0.033432 -0.005364 0.001536
# 5 -0.001365 -0.007850 -0.006019 -0.005364 0.047556 -0.004795
# 6 0.006882 0.005744 0.000009 0.001536 -0.004795 0.037684
#
#
# Mechanical properties :
#
#
# Convention : Reuss Voigt Hill
#
# Bulk Modulus (GPa) = 31.26201 51.81244 41.53723
# Shear Modulus (GPa) = 26.67157 31.80129 29.23643
#
# Velocity S-wave (km/s) = 3.58812 3.91800 3.75668
# Velocity P-wave (km/s) = 5.67948 6.74373 6.23436
#
# Compressibility (1/GPa) = 0.03198770
#
# Stress axis : x y z
#
# Youngs Moduli (GPa) = 87.28453 46.27851 83.37444
#
# Poissons Ratio (x) = 0.17077 0.23516
# Poissons Ratio (y) = 0.32209 0.00209
# Poissons Ratio (z) = 0.24618 0.00116
#
# Static dielectric constant tensor:
#      x y z
#    x 3.695660 -0.366090 -0.193990 
#    y -0.366090 4.430270 0.424980 
#    z -0.193990 0.424980 4.563540 
# 
# 
# High freq. dielectric constant tensor:
#      x y z
#    x 1.781480 -0.025460 -0.004400 
#    y -0.025460 1.805390 -0.013950 
#    z -0.004400 -0.013950 1.842800 
# 
# From -- ./inp_files/465108.got.cif
#   From: 2010.06.25/outbox.cif.g09.slc.cpg/sg2_233_cif.got.tgz:465108.got - 2010.06.27 13:26:56.
