data_PCOD8029064
_publ_section_title
;
Structure prediction by ZEFSAII (Michael W. Deem and Ramdas Pophale) SiO2 
 PCOD8029064
Probable space group: P -1
;
_chemical_formula_sum "Si O2"
_cell_formula_units_Z 16
_cell_length_a 12.432084
_cell_length_b 15.082562
_cell_length_c 9.361047
_cell_angle_alpha 120.061472
_cell_angle_beta 111.555825
_cell_angle_gamma 120.751218
_cell_volume 711.769316
_symmetry_space_group_name_H-M "P -1"
_symmetry_group_IT_number 2
_symmetry_cell_setting 'triclinic'
loop_
_space_group_symop_operation_xyz
x,y,z
-x,-y,-z
loop_
_atom_site_type_symbol
_atom_site_label
_atom_site_fract_x
_atom_site_fract_y
_atom_site_fract_z
Si Si1 0.043189 0.319043 0.633386
Si Si2 0.767398 0.875590 0.738007
Si Si3 0.832188 0.352450 0.667984
Si Si4 0.976177 0.239256 0.218052
Si Si5 0.466902 0.354915 0.842739
Si Si6 0.418598 0.917868 0.059739
Si Si7 0.612053 0.382162 0.452582
Si Si8 0.374611 0.129637 0.862930
O O1 0.957352 0.370773 0.632683
O O2 0.069684 0.292660 0.466338
O O3 0.290318 0.504186 0.979644
O O4 0.870970 0.113306 0.470385
O O5 0.729036 0.818373 0.508327
O O6 0.531916 0.664273 0.536403
O O7 0.796243 0.018334 0.894518
O O8 0.000000 0.000000 0.000000
O O9 0.767074 0.408681 0.608370
O O10 0.595980 0.115544 0.408189
O O11 0.000000 0.500000 0.000000
O O12 0.200383 0.403685 0.360649
O O13 0.837380 0.240207 0.156548
O O14 0.390545 0.238684 0.855580
O O15 0.500000 0.500000 0.000000
O O16 0.426726 0.803926 0.013802
O O17 0.500000 0.000000 0.000000
O O18 0.411992 0.193142 0.094962
#
# Coordination Sequence:
#
# PCOD8029064 Si02
#       8
#     2   2   2   2   2   2   2   2
#     4  11  22  43  72 107 149 185 235 297 357 427
#     4  12  28  52  72  99 147 187 243 315 356 425
#     4  11  22  39  68 107 153 190 232 295 351 429
#     4  12  23  42  74 109 146 191 241 289 361 439
#     4  12  29  49  73 107 137 189 251 300 360 427
#     4  11  19  41  70 108 152 191 230 287 358 434
#     4  12  24  44  75 107 143 196 239 288 373 430
#     4  11  23  44  78 106 142 191 241 289 359 429
#
# _framework density 22.479192000000001
#
# number of rings (size 3 to 8) (size 9 to 14) (size 15 to 20)
#    0.000    0.500    7.500    1.500    1.750    5.000 
#    0.000    1.250    0.000    0.000    0.000    0.000 
#    0.000    0.000    0.000    0.000    0.000    0.000 
#
# Total GULP energy -198326.227551 kJ/mol
# GULP energy per Si atom -12395.389222 kJ/mol
# Density = 2.242803 g / cm^3
# Si number density = 22.479192 Si / 1000 Ang^3
#
#
#
# Elastic Constant Matrix: (Units=GPa)
#
#
# Indices 1 2 3 4 5 6 
#
# 1 102.2216 50.2517 25.1464 -4.8162 15.0565 -1.6957
# 2 50.2517 109.0903 32.8475 -4.7234 5.0789 -5.0432
# 3 25.1464 32.8475 128.9679 -22.1017 2.1573 1.9189
# 4 -4.8162 -4.7234 -22.1017 31.9692 5.8227 10.5179
# 5 15.0565 5.0789 2.1573 5.8227 46.6999 4.4952
# 6 -1.6957 -5.0432 1.9189 10.5179 4.4952 31.7599
#
#
#
# Elastic Compliance Matrix: (Units=1/GPa)
#
#
# Indices 1 2 3 4 5 6 
#
# 1 0.013416 -0.005680 -0.000888 0.001268 -0.003824 -0.000011
# 2 -0.005680 0.012513 -0.002377 -0.001488 0.000550 0.002242
# 3 -0.000888 -0.002377 0.009893 0.007589 -0.000525 -0.003462
# 4 0.001268 -0.001488 0.007589 0.041875 -0.004485 -0.013860
# 5 -0.003824 0.000550 -0.000525 -0.004485 0.023353 -0.001905
# 6 -0.000011 0.002242 -0.003462 -0.013860 -0.001905 0.036910
#
#
# Mechanical properties :
#
#
# Convention : Reuss Voigt Hill
#
# Bulk Modulus (GPa) = 55.76587 61.86345 58.81466
# Shear Modulus (GPa) = 30.89702 37.55476 34.22589
#
# Velocity S-wave (km/s) = 3.71141 4.09179 3.90623
# Velocity P-wave (km/s) = 6.57478 7.06425 6.82391
#
# Compressibility (1/GPa) = 0.01793212
#
# Stress axis : x y z
#
# Youngs Moduli (GPa) = 74.53618 79.91908 101.07919
#
# Poissons Ratio (x) = 0.45397 0.08973
# Poissons Ratio (y) = 0.42339 0.24026
# Poissons Ratio (z) = 0.06617 0.18996
#
# Static dielectric constant tensor:
#      x y z
#    x 4.037610 -0.064650 0.049990 
#    y -0.064650 3.766530 0.073180 
#    z 0.049990 0.073180 4.364230 
# 
# 
# High freq. dielectric constant tensor:
#      x y z
#    x 1.885540 -0.002560 0.009150 
#    y -0.002560 1.858220 0.008090 
#    z 0.009150 0.008090 1.902250 
# 
# From -- ./inp_files/274112.got.cif
#   From: 2010.06.25/outbox.cif.g09.slc.cpg/sg2_138_cif.got.tgz:274112.got - 2010.06.27 13:26:56.
