data_PCOD8029126
_publ_section_title
;
Structure prediction by ZEFSAII (Michael W. Deem and Ramdas Pophale) SiO2 
 PCOD8029126
Probable space group: P -1
;
_chemical_formula_sum "Si O2"
_cell_formula_units_Z 16
_cell_length_a 16.966454
_cell_length_b 11.141998
_cell_length_c 10.332349
_cell_angle_alpha 82.649821
_cell_angle_beta 42.889949
_cell_angle_gamma 51.252566
_cell_volume 811.081775
_symmetry_space_group_name_H-M "P -1"
_symmetry_group_IT_number 2
_symmetry_cell_setting 'triclinic'
loop_
_space_group_symop_operation_xyz
x,y,z
-x,-y,-z
loop_
_atom_site_type_symbol
_atom_site_label
_atom_site_fract_x
_atom_site_fract_y
_atom_site_fract_z
Si Si1 0.115858 0.675923 0.172473
Si Si2 0.593815 0.536169 0.949704
Si Si3 0.421385 0.795256 0.721911
Si Si4 0.479106 0.276490 0.664296
Si Si5 0.960605 0.005209 0.900307
Si Si6 0.299209 0.071522 0.349824
Si Si7 0.493710 0.157810 0.125240
Si Si8 0.628905 0.371698 0.570410
O O1 0.192779 0.646774 0.227768
O O2 0.090680 0.825104 0.119253
O O3 0.923043 0.761720 0.393719
O O4 0.263636 0.471526 0.942995
O O5 0.604672 0.636923 0.824510
O O6 0.500000 0.500000 0.000000
O O7 0.457304 0.658968 0.221405
O O8 0.520159 0.772665 0.478748
O O9 0.426256 0.888000 0.820326
O O10 0.521834 0.586526 0.670923
O O11 0.201077 0.958172 0.936613
O O12 0.587470 0.318959 0.503684
O O13 0.586544 0.096314 0.655830
O O14 0.151774 0.789775 0.640146
O O15 0.000000 0.000000 0.000000
O O16 0.340444 0.178423 0.309341
O O17 0.349007 0.997310 0.151693
#
# Coordination Sequence:
#
# PCOD8029126 Si02
#       8
#     2   2   2   2   2   2   2   2
#     4  11  21  38  66  87 119 170 205 243 307 367
#     4  11  20  39  62  89 124 153 195 254 311 357
#     4  12  23  39  62  96 129 157 201 259 314 357
#     4  11  21  40  64  92 124 164 202 249 310 370
#     4  12  20  33  60  95 125 158 198 243 310 375
#     4  11  24  45  64  86 121 167 220 246 298 368
#     4  11  24  44  63  89 125 164 206 264 298 355
#     4  11  20  35  61  89 127 157 195 243 308 376
#
# _framework density 19.726742000000002
#
# number of rings (size 3 to 8) (size 9 to 14) (size 15 to 20)
#    0.000    0.750    8.750    1.125    0.000    2.000 
#    0.000    3.125    0.000    0.000    0.000    0.000 
#    0.000    0.000    0.000    0.000    0.000    0.000 
#
# Total GULP energy -198217.639170 kJ/mol
# GULP energy per Si atom -12388.602448 kJ/mol
# Density = 1.968184 g / cm^3
# Si number density = 19.726742 Si / 1000 Ang^3
#
#
#
# Elastic Constant Matrix: (Units=GPa)
#
#
# Indices 1 2 3 4 5 6 
#
# 1 139.5532 41.0022 46.7410 -5.1971 0.6263 -8.2056
# 2 41.0022 63.7435 30.2702 2.5814 -3.2650 5.1560
# 3 46.7410 30.2702 114.5457 10.1745 -15.1024 -9.0777
# 4 -5.1971 2.5814 10.1745 28.2323 -6.1175 -5.3407
# 5 0.6263 -3.2650 -15.1024 -6.1175 27.2127 -4.7972
# 6 -8.2056 5.1560 -9.0777 -5.3407 -4.7972 26.5873
#
#
#
# Elastic Compliance Matrix: (Units=1/GPa)
#
#
# Indices 1 2 3 4 5 6 
#
# 1 0.010169 -0.005740 -0.002789 0.003953 -0.000889 0.003933
# 2 -0.005740 0.022056 -0.004075 -0.003597 -0.001788 -0.008485
# 3 -0.002789 -0.004075 0.012439 -0.002196 0.006862 0.004973
# 4 0.003953 -0.003597 -0.002196 0.041462 0.009558 0.011221
# 5 -0.000889 -0.001788 0.006862 0.009558 0.044696 0.012400
# 6 0.003933 -0.008485 0.004973 0.011221 0.012400 0.046661
#
#
# Mechanical properties :
#
#
# Convention : Reuss Voigt Hill
#
# Bulk Modulus (GPa) = 51.40008 61.54100 56.47054
# Shear Modulus (GPa) = 23.90328 29.72838 26.81583
#
# Velocity S-wave (km/s) = 3.48475 3.88623 3.69096
# Velocity P-wave (km/s) = 6.50415 7.16949 6.84491
#
# Compressibility (1/GPa) = 0.01945522
#
# Stress axis : x y z
#
# Youngs Moduli (GPa) = 98.33845 45.33972 80.39247
#
# Poissons Ratio (x) = 0.26026 0.22423
# Poissons Ratio (y) = 0.56449 0.32758
# Poissons Ratio (z) = 0.27428 0.18475
#
# Static dielectric constant tensor:
#      x y z
#    x 6.039450 -1.479180 1.442520 
#    y -1.479180 4.332440 -0.859710 
#    z 1.442520 -0.859710 4.679510 
# 
# 
# High freq. dielectric constant tensor:
#      x y z
#    x 1.771800 -0.017660 0.002680 
#    y -0.017660 1.764340 -0.005510 
#    z 0.002680 -0.005510 1.766050 
# 
# From -- ./inp_files/456516.got.cif
#   From: 2010.06.25/outbox.cif.g09.slc.cpg/sg2_229_cif.got.tgz:456516.got - 2010.06.27 13:26:56.
