data_PCOD8029009
_publ_section_title
;
Structure prediction by ZEFSAII (Michael W. Deem and Ramdas Pophale) SiO2 
 PCOD8029009
Probable space group: P -1
;
_chemical_formula_sum "Si O2"
_cell_formula_units_Z 16
_cell_length_a 12.214338
_cell_length_b 20.511687
_cell_length_c 20.969340
_cell_angle_alpha 161.022944
_cell_angle_beta 150.425865
_cell_angle_gamma 41.401336
_cell_volume 752.648549
_symmetry_space_group_name_H-M "P -1"
_symmetry_group_IT_number 2
_symmetry_cell_setting 'triclinic'
loop_
_space_group_symop_operation_xyz
x,y,z
-x,-y,-z
loop_
_atom_site_type_symbol
_atom_site_label
_atom_site_fract_x
_atom_site_fract_y
_atom_site_fract_z
Si Si1 0.779534 0.681504 0.319388
Si Si2 0.793704 0.763335 0.704806
Si Si3 0.628578 0.903024 0.548638
Si Si4 0.086689 0.177663 0.622253
Si Si5 0.879996 0.369988 0.169698
Si Si6 0.592065 0.512731 0.247140
Si Si7 0.849154 0.253123 0.769418
Si Si8 0.284480 0.709080 0.400603
O O1 0.740304 0.885800 0.520566
O O2 0.919099 0.751380 0.388054
O O3 0.935580 0.590064 0.358629
O O4 0.500000 0.500000 0.000000
O O5 0.667215 0.556097 0.399110
O O6 0.567480 0.804178 0.656208
O O7 0.885317 0.657662 0.710681
O O8 0.000000 0.000000 0.000000
O O9 0.715036 0.761653 0.509033
O O10 0.327231 0.799289 0.306097
O O11 0.726098 0.160118 0.852886
O O12 0.824936 0.126666 0.475776
O O13 0.111228 0.952130 0.426609
O O14 0.298731 0.376798 0.955669
O O15 0.715900 0.364277 0.142518
O O16 0.712132 0.306501 0.689393
O O17 0.112025 0.460307 0.111173
#
# Coordination Sequence:
#
# PCOD8029009 Si02
#       8
#     2   2   2   2   2   2   2   2
#     4  11  22  38  62  97 130 163 214 261 305 374
#     4  12  24  42  65  91 130 168 207 261 318 382
#     4  11  19  38  63  95 128 163 207 261 314 363
#     4  12  23  40  64  97 131 165 206 263 317 372
#     4  11  23  39  62  96 124 172 209 259 316 363
#     4  11  20  39  63  94 128 156 207 261 315 372
#     4  11  20  39  62  93 128 162 208 262 323 368
#     4  11  23  40  61  92 128 164 208 260 318 379
#
# _framework density 21.258261999999998
#
# number of rings (size 3 to 8) (size 9 to 14) (size 15 to 20)
#    0.000    0.750    7.500    1.500    0.000    3.000 
#    2.250    0.625    0.000    1.500    0.000    0.000 
#    0.000    0.000    0.000    0.000    0.000    0.000 
#
# Total GULP energy -198304.756672 kJ/mol
# GULP energy per Si atom -12394.047292 kJ/mol
# Density = 2.120988 g / cm^3
# Si number density = 21.258262 Si / 1000 Ang^3
#
#
#
# Elastic Constant Matrix: (Units=GPa)
#
#
# Indices 1 2 3 4 5 6 
#
# 1 68.1023 41.2563 28.9388 -7.2092 -2.1924 -12.6032
# 2 41.2563 108.7313 39.3215 -11.8242 7.7497 -7.0443
# 3 28.9388 39.3215 78.0923 0.5401 -3.8621 -10.1722
# 4 -7.2092 -11.8242 0.5401 35.6568 -14.7752 -1.9934
# 5 -2.1924 7.7497 -3.8621 -14.7752 27.0739 0.6672
# 6 -12.6032 -7.0443 -10.1722 -1.9934 0.6672 37.4996
#
#
#
# Elastic Compliance Matrix: (Units=1/GPa)
#
#
# Indices 1 2 3 4 5 6 
#
# 1 0.021937 -0.006403 -0.003976 0.005005 0.005644 0.005257
# 2 -0.006403 0.013830 -0.004910 0.001534 -0.004323 -0.000728
# 3 -0.003976 -0.004910 0.017191 -0.001451 0.002688 0.002280
# 4 0.005005 0.001534 -0.001451 0.038297 0.020579 0.003246
# 5 0.005644 -0.004323 0.002688 0.020579 0.050195 0.002015
# 6 0.005257 -0.000728 0.002280 0.003246 0.002015 0.029052
#
#
# Mechanical properties :
#
#
# Convention : Reuss Voigt Hill
#
# Bulk Modulus (GPa) = 44.68342 52.66214 48.67278
# Shear Modulus (GPa) = 23.97639 29.74001 26.85820
#
# Velocity S-wave (km/s) = 3.36201 3.74436 3.55832
# Velocity P-wave (km/s) = 6.01130 6.59697 6.31093
#
# Compressibility (1/GPa) = 0.02237966
#
# Stress axis : x y z
#
# Youngs Moduli (GPa) = 45.58609 72.30648 58.17034
#
# Poissons Ratio (x) = 0.46299 0.23126
# Poissons Ratio (y) = 0.29189 0.28562
# Poissons Ratio (z) = 0.18123 0.35503
#
# Static dielectric constant tensor:
#      x y z
#    x 4.842300 0.386640 -0.080380 
#    y 0.386640 4.253000 0.236890 
#    z -0.080380 0.236890 3.676840 
# 
# 
# High freq. dielectric constant tensor:
#      x y z
#    x 1.832920 -0.018400 -0.019010 
#    y -0.018400 1.835530 0.025550 
#    z -0.019010 0.025550 1.806440 
# 
# From -- ./inp_files/596276.got.cif
#   From: 2010.06.25/outbox.cif.g09.slc.cpg/sg2_299_cif.got.tgz:596276.got - 2010.06.27 13:26:56.
