data_PCOD8029130
_publ_section_title
;
Structure prediction by ZEFSAII (Michael W. Deem and Ramdas Pophale) SiO2 
 PCOD8029130
Probable space group: P -1
;
_chemical_formula_sum "Si O2"
_cell_formula_units_Z 16
_cell_length_a 10.861365
_cell_length_b 8.168355
_cell_length_c 16.113969
_cell_angle_alpha 78.728454
_cell_angle_beta 51.673548
_cell_angle_gamma 118.252542
_cell_volume 698.028343
_symmetry_space_group_name_H-M "P -1"
_symmetry_group_IT_number 2
_symmetry_cell_setting 'triclinic'
loop_
_space_group_symop_operation_xyz
x,y,z
-x,-y,-z
loop_
_atom_site_type_symbol
_atom_site_label
_atom_site_fract_x
_atom_site_fract_y
_atom_site_fract_z
Si Si1 0.382324 0.225712 0.342056
Si Si2 0.901817 0.342325 0.253843
Si Si3 0.545521 0.346993 0.766489
Si Si4 0.956284 0.325785 0.412210
Si Si5 0.671375 0.503612 0.361423
Si Si6 0.935032 0.946069 0.937138
Si Si7 0.516576 0.211444 0.610099
Si Si8 0.824707 0.478538 0.025404
O O1 0.338580 0.371825 0.309132
O O2 0.481276 0.328860 0.383498
O O3 0.565385 0.270343 0.200920
O O4 0.134748 0.914399 0.477564
O O5 0.961100 0.283600 0.316613
O O6 0.821616 0.455619 0.308280
O O7 0.678695 0.078176 0.318834
O O8 0.155967 0.576653 0.071144
O O9 0.433478 0.207572 0.736202
O O10 0.766304 0.405701 0.697426
O O11 0.326001 0.167346 0.944799
O O12 0.779168 0.336872 0.503063
O O13 0.545301 0.400445 0.517908
O O14 0.865024 0.811601 0.232976
O O15 0.924337 0.745253 0.938039
O O16 0.000000 0.000000 0.000000
O O17 0.000000 0.500000 0.000000
#
# Coordination Sequence:
#
# PCOD8029130 Si02
#       8
#     2   2   2   2   2   2   2   2
#     4  11  21  39  61  88 126 156 197 257 307 358
#     4  11  21  38  65  91 119 161 207 258 291 359
#     4  11  25  39  61  90 124 163 198 250 314 364
#     4  11  22  43  60  88 125 163 201 248 307 366
#     4  11  20  38  60  93 122 151 206 255 304 347
#     4  11  21  38  59  88 128 156 198 256 303 358
#     4  11  22  39  64  90 120 161 210 254 293 357
#     4  11  20  35  61  93 116 157 205 250 300 354
#
# _framework density 22.921703999999998
#
# number of rings (size 3 to 8) (size 9 to 14) (size 15 to 20)
#    0.000    1.000    6.250    2.250    0.000    2.500 
#    0.000    6.250    0.000    0.000    0.000    0.000 
#    0.000    0.000    0.000    0.000    0.000    0.000 
#
# Total GULP energy -198251.101677 kJ/mol
# GULP energy per Si atom -12390.693855 kJ/mol
# Density = 2.286953 g / cm^3
# Si number density = 22.921704 Si / 1000 Ang^3
#
#
#
# Elastic Constant Matrix: (Units=GPa)
#
#
# Indices 1 2 3 4 5 6 
#
# 1 66.1626 12.2418 37.5557 2.4345 -6.0534 4.1439
# 2 12.2418 24.6241 21.0031 -12.9294 3.7669 2.3419
# 3 37.5557 21.0031 131.9892 10.8847 9.6818 7.2743
# 4 2.4345 -12.9294 10.8847 30.5335 -5.0638 4.1138
# 5 -6.0534 3.7669 9.6818 -5.0638 31.0980 -3.2765
# 6 4.1439 2.3419 7.2743 4.1138 -3.2765 20.4956
#
#
#
# Elastic Compliance Matrix: (Units=1/GPa)
#
#
# Indices 1 2 3 4 5 6 
#
# 1 0.019848 -0.008111 -0.004588 -0.002402 0.005880 -0.000036
# 2 -0.008111 0.076882 -0.012390 0.038769 -0.001862 -0.010827
# 3 -0.004588 -0.012390 0.012063 -0.009885 -0.004834 -0.000727
# 4 -0.002402 0.038769 -0.009885 0.055273 0.005797 -0.010603
# 5 0.005880 -0.001862 -0.004834 0.005797 0.036546 0.005419
# 6 -0.000036 -0.010827 -0.000727 -0.010603 0.005419 0.053288
#
#
# Mechanical properties :
#
#
# Convention : Reuss Voigt Hill
#
# Bulk Modulus (GPa) = 17.06045 40.48636 28.77341
# Shear Modulus (GPa) = 15.45035 26.55710 21.00372
#
# Velocity S-wave (km/s) = 2.59906 3.40751 3.03037
# Velocity P-wave (km/s) = 4.05782 5.76045 4.98240
#
# Compressibility (1/GPa) = 0.05861510
#
# Stress axis : x y z
#
# Youngs Moduli (GPa) = 50.38330 13.00688 82.89624
#
# Poissons Ratio (x) = 0.10550 0.38033
# Poissons Ratio (y) = 0.40866 1.02709
# Poissons Ratio (z) = 0.23116 0.16116
#
# Static dielectric constant tensor:
#      x y z
#    x 4.116380 -0.340690 0.002010 
#    y -0.340690 4.109400 0.393120 
#    z 0.002010 0.393120 5.177500 
# 
# 
# High freq. dielectric constant tensor:
#      x y z
#    x 1.890070 -0.033520 0.005610 
#    y -0.033520 1.891650 0.021730 
#    z 0.005610 0.021730 1.926200 
# 
# From -- ./inp_files/566683.got.cif
#   From: 2010.06.25/outbox.cif.g09.slc.cpg/sg2_284_cif.got.tgz:566683.got - 2010.06.27 13:26:56.
