data_PCOD8029511
_publ_section_title
;
Structure prediction by ZEFSAII (Michael W. Deem and Ramdas Pophale) SiO2 
 PCOD8029511
Probable space group: P -1
;
_chemical_formula_sum "Si O2"
_cell_formula_units_Z 16
_cell_length_a 11.305162
_cell_length_b 14.979330
_cell_length_c 9.380702
_cell_angle_alpha 55.485153
_cell_angle_beta 70.780675
_cell_angle_gamma 115.867455
_cell_volume 740.810925
_symmetry_space_group_name_H-M "P -1"
_symmetry_group_IT_number 2
_symmetry_cell_setting 'triclinic'
loop_
_space_group_symop_operation_xyz
x,y,z
-x,-y,-z
loop_
_atom_site_type_symbol
_atom_site_label
_atom_site_fract_x
_atom_site_fract_y
_atom_site_fract_z
Si Si1 0.879045 0.871784 0.797692
Si Si2 0.801703 0.290759 0.272616
Si Si3 0.903871 0.645039 0.423097
Si Si4 0.513635 0.751619 0.982857
Si Si5 0.140059 0.145935 0.689432
Si Si6 0.572641 0.820343 0.561499
Si Si7 0.951297 0.220528 0.060447
Si Si8 0.697438 0.084076 0.773634
O O1 0.901854 0.757693 0.921624
O O2 0.632420 0.724156 0.008824
O O3 0.000000 0.000000 0.500000
O O4 0.981930 0.022336 0.734710
O O5 0.619395 0.251454 0.365045
O O6 0.822971 0.219937 0.201412
O O7 0.785478 0.219972 0.491784
O O8 0.000000 0.500000 0.000000
O O9 0.736128 0.437244 0.726326
O O10 0.801086 0.690143 0.448622
O O11 0.119399 0.793460 0.292030
O O12 0.933761 0.645024 0.241423
O O13 0.555394 0.805918 0.751769
O O14 0.615670 0.915438 0.891643
O O15 0.373456 0.258215 0.461058
O O16 0.000000 0.000000 0.000000
O O17 0.776424 0.023692 0.241225
O O18 0.500000 0.000000 0.000000
#
# Coordination Sequence:
#
# PCOD8029511 Si02
#       8
#     2   2   2   2   2   2   2   2
#     4  11  20  43  72  98 135 184 229 279 356 408
#     4  12  27  46  71 101 140 187 238 286 340 424
#     4  12  27  45  71 110 140 179 237 292 350 412
#     4  12  26  44  73 104 142 184 230 297 348 412
#     4  11  22  43  73 100 138 178 228 291 345 409
#     4  11  23  45  72  99 137 191 227 282 362 404
#     4  11  24  45  71  99 143 184 227 288 347 418
#     4  12  28  47  72 101 141 188 233 289 346 419
#
# _framework density 21.597953
#
# number of rings (size 3 to 8) (size 9 to 14) (size 15 to 20)
#    0.000    0.500    7.500    1.875    3.500    2.500 
#    0.000    0.000    0.000    0.000    0.000    0.000 
#    0.000    0.000    0.000    0.000    0.000    0.000 
#
# Total GULP energy -198228.309202 kJ/mol
# GULP energy per Si atom -12389.269325 kJ/mol
# Density = 2.154880 g / cm^3
# Si number density = 21.597953 Si / 1000 Ang^3
#
#
#
# Elastic Constant Matrix: (Units=GPa)
#
#
# Indices 1 2 3 4 5 6 
#
# 1 128.3942 30.0489 42.3662 4.1058 -7.9047 4.2896
# 2 30.0489 59.3005 47.1857 21.0436 14.1838 6.5053
# 3 42.3662 47.1857 130.1673 8.9647 4.0474 2.5037
# 4 4.1058 21.0436 8.9647 46.1052 0.6775 -2.2976
# 5 -7.9047 14.1838 4.0474 0.6775 25.1120 6.7018
# 6 4.2896 6.5053 2.5037 -2.2976 6.7018 29.1406
#
#
#
# Elastic Compliance Matrix: (Units=1/GPa)
#
#
# Indices 1 2 3 4 5 6 
#
# 1 0.010174 -0.006474 -0.001313 0.002121 0.007407 -0.001476
# 2 -0.006474 0.039160 -0.010324 -0.015138 -0.021226 -0.003214
# 3 -0.001313 -0.010324 0.011555 0.002583 0.003228 0.000966
# 4 0.002121 -0.015138 0.002583 0.027973 0.007137 0.003409
# 5 0.007407 -0.021226 0.003228 0.007137 0.055805 -0.008901
# 6 -0.001476 -0.003214 0.000966 0.003409 -0.008901 0.037484
#
#
# Mechanical properties :
#
#
# Convention : Reuss Voigt Hill
#
# Bulk Modulus (GPa) = 40.53747 61.89594 51.21671
# Shear Modulus (GPa) = 22.06582 33.28897 27.67739
#
# Velocity S-wave (km/s) = 3.19981 3.93020 3.58366
# Velocity P-wave (km/s) = 5.69751 7.02252 6.39443
#
# Compressibility (1/GPa) = 0.02466853
#
# Stress axis : x y z
#
# Youngs Moduli (GPa) = 98.28722 25.53630 86.53981
#
# Poissons Ratio (x) = 0.16531 0.11361
# Poissons Ratio (y) = 0.63627 0.89345
# Poissons Ratio (z) = 0.12904 0.26364
#
# Static dielectric constant tensor:
#      x y z
#    x 4.183050 0.020270 0.001340 
#    y 0.020270 3.745400 0.432320 
#    z 0.001340 0.432320 2.856720 
# 
# 
# High freq. dielectric constant tensor:
#      x y z
#    x 1.861480 -0.002720 -0.003900 
#    y -0.002720 1.847600 0.017330 
#    z -0.003900 0.017330 1.856110 
# 
# From -- ./inp_files/272157.got.cif
#   From: 2010.06.25/outbox.cif.g09.slc.cpg/sg2_137_cif.got.tgz:272157.got - 2010.06.27 13:26:56.
