data_PCOD8029709
_publ_section_title
;
Structure prediction by ZEFSAII (Michael W. Deem and Ramdas Pophale) SiO2 
 PCOD8029709
Probable space group: P -1
;
_chemical_formula_sum "Si O2"
_cell_formula_units_Z 14
_cell_length_a 9.817199
_cell_length_b 9.440184
_cell_length_c 11.154452
_cell_angle_alpha 40.744152
_cell_angle_beta 111.200301
_cell_angle_gamma 113.658367
_cell_volume 615.129400
_symmetry_space_group_name_H-M "P -1"
_symmetry_group_IT_number 2
_symmetry_cell_setting 'triclinic'
loop_
_space_group_symop_operation_xyz
x,y,z
-x,-y,-z
loop_
_atom_site_type_symbol
_atom_site_label
_atom_site_fract_x
_atom_site_fract_y
_atom_site_fract_z
Si Si1 0.020376 0.500622 0.195980
Si Si2 0.329278 0.006659 0.933588
Si Si3 0.092315 0.091446 0.213014
Si Si4 0.585583 0.500482 0.402275
Si Si5 0.821509 0.244246 0.722117
Si Si6 0.165715 0.919256 0.704093
Si Si7 0.710739 0.696121 0.675424
O O1 0.056394 0.546518 0.319891
O O2 0.173074 0.464057 0.206136
O O3 0.881037 0.298483 0.255491
O O4 0.980962 0.721871 0.988960
O O5 0.312737 0.261091 0.750115
O O6 0.257660 0.868436 0.882814
O O7 0.500000 0.000000 0.000000
O O8 0.247128 0.908452 0.090529
O O9 0.257266 0.193701 0.252934
O O10 0.985902 0.001660 0.351648
O O11 0.093978 0.895474 0.247368
O O12 0.500000 0.500000 0.500000
O O13 0.693540 0.326713 0.553816
O O14 0.460469 0.435496 0.300160
O O15 0.270638 0.114946 0.540795
#
# Coordination Sequence:
#
# PCOD8029709 Si02
#       7
#     2   2   2   2   2   2   2
#     4  11  21  38  67  93 128 168 211 261 326 384
#     4  12  23  40  71  98 126 170 228 263 316 392
#     4  11  25  40  65  96 138 166 207 273 334 379
#     4  12  23  43  70  95 126 177 218 271 315 377
#     4  12  25  45  64  99 137 168 214 273 325 386
#     4  11  22  40  67 101 122 173 218 265 325 386
#     4  11  22  44  67  96 128 168 227 266 312 393
#
# _framework density 22.759439
#
# number of rings (size 3 to 8) (size 9 to 14) (size 15 to 20)
#    0.000    0.571    5.714    3.857    2.000    0.571 
#    5.143    4.286    0.000    0.000    0.000    0.000 
#    0.000    0.000    0.000    0.000    0.000    0.000 
#
# Total GULP energy -173586.183457 kJ/mol
# GULP energy per Si atom -12399.013104 kJ/mol
# Density = 2.270764 g / cm^3
# Si number density = 22.759439 Si / 1000 Ang^3
#
#
#
# Elastic Constant Matrix: (Units=GPa)
#
#
# Indices 1 2 3 4 5 6 
#
# 1 49.4096 47.9352 23.9444 -5.1225 15.3258 2.3404
# 2 47.9352 184.9975 21.9573 5.5427 22.9144 9.4622
# 3 23.9444 21.9573 91.4921 -11.9779 24.3914 0.3326
# 4 -5.1225 5.5427 -11.9779 38.3944 7.5852 10.4012
# 5 15.3258 22.9144 24.3914 7.5852 22.1893 5.5975
# 6 2.3404 9.4622 0.3326 10.4012 5.5975 42.6161
#
#
#
# Elastic Compliance Matrix: (Units=1/GPa)
#
#
# Indices 1 2 3 4 5 6 
#
# 1 0.033776 -0.006624 -0.001341 0.008619 -0.017930 -0.000122
# 2 -0.006624 0.007535 0.000782 -0.000841 -0.003618 -0.000635
# 3 -0.001341 0.000782 0.018920 0.010296 -0.024307 0.000432
# 4 0.008619 -0.000841 0.010296 0.037613 -0.027772 -0.005899
# 5 -0.017930 -0.003618 -0.024307 -0.027772 0.098453 -0.004176
# 6 -0.000122 -0.000635 0.000432 -0.005899 -0.004176 0.025598
#
#
# Mechanical properties :
#
#
# Convention : Reuss Voigt Hill
#
# Bulk Modulus (GPa) = 21.80313 57.06365 39.43339
# Shear Modulus (GPa) = 19.87690 36.11080 27.99385
#
# Velocity S-wave (km/s) = 2.95845 3.98757 3.51092
# Velocity P-wave (km/s) = 4.61200 6.80646 5.81371
#
# Compressibility (1/GPa) = 0.04586498
#
# Stress axis : x y z
#
# Youngs Moduli (GPa) = 29.60709 132.71794 52.85509
#
# Poissons Ratio (x) = 0.87909 0.07088
# Poissons Ratio (y) = 0.19611 -0.04134
# Poissons Ratio (z) = 0.03970 -0.10380
#
# Static dielectric constant tensor:
#      x y z
#    x 3.795780 0.419910 0.029410 
#    y 0.419910 4.690650 0.032820 
#    z 0.029410 0.032820 4.379090 
# 
# 
# High freq. dielectric constant tensor:
#      x y z
#    x 1.851800 0.029440 0.012050 
#    y 0.029440 1.917770 0.003740 
#    z 0.012050 0.003740 1.914930 
# 
# From -- ./inp_files/285650.got.cif
#   From: 2010.06.25/outbox.cif.g09.slc.cpg/sg2_143_cif.got.tgz:285650.got - 2010.06.27 13:26:56.
