data_PCOD8029427
_publ_section_title
;
Structure prediction by ZEFSAII (Michael W. Deem and Ramdas Pophale) SiO2 
 PCOD8029427
Probable space group: P -1
;
_chemical_formula_sum "Si O2"
_cell_formula_units_Z 16
_cell_length_a 11.436047
_cell_length_b 26.376711
_cell_length_c 8.023952
_cell_angle_alpha 43.200632
_cell_angle_beta 35.934694
_cell_angle_gamma 28.776999
_cell_volume 682.207496
_symmetry_space_group_name_H-M "P -1"
_symmetry_group_IT_number 2
_symmetry_cell_setting 'triclinic'
loop_
_space_group_symop_operation_xyz
x,y,z
-x,-y,-z
loop_
_atom_site_type_symbol
_atom_site_label
_atom_site_fract_x
_atom_site_fract_y
_atom_site_fract_z
Si Si1 0.029866 0.922997 0.928947
Si Si2 0.681596 0.424990 0.221752
Si Si3 0.395760 0.200520 0.608521
Si Si4 0.683309 0.265868 0.732300
Si Si5 0.696216 0.153447 0.719613
Si Si6 0.178393 0.103277 0.091376
Si Si7 0.199570 0.464150 0.008959
Si Si8 0.913764 0.430260 0.608332
O O1 0.329731 0.881540 0.629556
O O2 0.910696 0.909085 0.947359
O O3 0.062167 0.854342 0.204471
O O4 0.807137 0.047633 0.932320
O O5 0.794697 0.312703 0.404603
O O6 0.350651 0.509638 0.354091
O O7 0.721237 0.470334 0.222911
O O8 0.855187 0.414806 0.894785
O O9 0.492260 0.190145 0.712504
O O10 0.197638 0.316245 0.483675
O O11 0.169817 0.193637 0.878727
O O12 0.531266 0.251508 0.805307
O O13 0.486567 0.341653 0.932641
O O14 0.972958 0.127409 0.412864
O O15 0.500000 0.000000 0.000000
O O16 0.030095 0.484098 0.326115
O O17 0.000000 0.500000 0.000000
#
# Coordination Sequence:
#
# PCOD8029427 Si02
#       8
#     2   2   2   2   2   2   2   2
#     4  11  23  43  68  98 139 180 227 279 333 406
#     4  11  27  48  69 104 139 172 233 292 333 413
#     4  11  22  40  72  99 132 181 229 277 336 406
#     4  12  26  46  67 100 142 183 219 285 347 402
#     4  11  24  43  65 101 139 177 232 277 332 409
#     4  11  20  41  71  97 134 179 229 280 333 392
#     4  12  26  46  72  98 140 181 222 284 352 407
#     4  11  25  45  75 101 133 181 230 281 342 411
#
# _framework density 23.453275000000001
#
# number of rings (size 3 to 8) (size 9 to 14) (size 15 to 20)
#    0.000    0.750    5.000    2.625    3.500    2.000 
#    0.000    0.625    0.000    0.000    0.000    0.000 
#    0.000    0.000    0.000    0.000    0.000    0.000 
#
# Total GULP energy -198219.937830 kJ/mol
# GULP energy per Si atom -12388.746114 kJ/mol
# Density = 2.339989 g / cm^3
# Si number density = 23.453275 Si / 1000 Ang^3
#
#
#
# Elastic Constant Matrix: (Units=GPa)
#
#
# Indices 1 2 3 4 5 6 
#
# 1 62.4256 39.2063 47.7959 -20.8653 -6.8527 22.1491
# 2 39.2063 100.4146 34.2706 -32.8525 -10.3375 7.6369
# 3 47.7959 34.2706 145.6333 -27.1612 -5.3938 3.0669
# 4 -20.8653 -32.8525 -27.1612 42.3988 -1.3007 -2.5367
# 5 -6.8527 -10.3375 -5.3938 -1.3007 34.2455 -6.2505
# 6 22.1491 7.6369 3.0669 -2.5367 -6.2505 38.9927
#
#
#
# Elastic Compliance Matrix: (Units=1/GPa)
#
#
# Indices 1 2 3 4 5 6 
#
# 1 0.035334 -0.007999 -0.008450 0.004741 0.000314 -0.017481
# 2 -0.007999 0.016121 0.000660 0.009262 0.004198 0.002610
# 3 -0.008450 0.000660 0.009999 0.003041 0.000972 0.004238
# 4 0.004741 0.009262 0.003041 0.035108 0.005262 -0.001619
# 5 0.000314 0.004198 0.000972 0.005262 0.031677 0.004343
# 6 -0.017481 0.002610 0.004238 -0.001619 0.004343 0.035322
#
#
# Mechanical properties :
#
#
# Convention : Reuss Voigt Hill
#
# Bulk Modulus (GPa) = 33.47349 61.22434 47.34891
# Shear Modulus (GPa) = 24.37869 35.60744 29.99306
#
# Velocity S-wave (km/s) = 3.22756 3.90067 3.57997
# Velocity P-wave (km/s) = 5.30970 6.81531 6.10907
#
# Compressibility (1/GPa) = 0.02987439
#
# Stress axis : x y z
#
# Youngs Moduli (GPa) = 28.30115 62.03229 100.01450
#
# Poissons Ratio (x) = 0.49620 0.84513
# Poissons Ratio (y) = 0.22638 -0.06597
# Poissons Ratio (z) = 0.23915 -0.04092
#
# Static dielectric constant tensor:
#      x y z
#    x 4.353950 0.529970 -0.500580 
#    y 0.529970 4.902350 -0.837420 
#    z -0.500580 -0.837420 5.664460 
# 
# 
# High freq. dielectric constant tensor:
#      x y z
#    x 1.923990 0.002120 -0.004790 
#    y 0.002120 1.931450 -0.016650 
#    z -0.004790 -0.016650 1.938800 
# 
# From -- ./inp_files/285792.got.cif
#   From: 2010.06.25/outbox.cif.g09.slc.cpg/sg2_143_cif.got.tgz:285792.got - 2010.06.27 13:26:56.
