data_PCOD8029880
_publ_section_title
;
Structure prediction by ZEFSAII (Michael W. Deem and Ramdas Pophale) SiO2 
 PCOD8029880
Probable space group: P -1
;
_chemical_formula_sum "Si O2"
_cell_formula_units_Z 16
_cell_length_a 8.110725
_cell_length_b 9.940055
_cell_length_c 13.358895
_cell_angle_alpha 117.699844
_cell_angle_beta 131.306911
_cell_angle_gamma 79.168893
_cell_volume 704.768937
_symmetry_space_group_name_H-M "P -1"
_symmetry_group_IT_number 2
_symmetry_cell_setting 'triclinic'
loop_
_space_group_symop_operation_xyz
x,y,z
-x,-y,-z
loop_
_atom_site_type_symbol
_atom_site_label
_atom_site_fract_x
_atom_site_fract_y
_atom_site_fract_z
Si Si1 0.555000 0.773091 0.152834
Si Si2 0.652645 0.164119 0.607564
Si Si3 0.448515 0.884366 0.746023
Si Si4 0.966884 0.222377 0.578880
Si Si5 0.508772 0.683578 0.885822
Si Si6 0.251964 0.584270 0.115812
Si Si7 0.015146 0.548491 0.638882
Si Si8 0.388744 0.329139 0.422848
O O1 0.772238 0.793135 0.321769
O O2 0.358928 0.634915 0.066334
O O3 0.461559 0.933406 0.165389
O O4 0.632813 0.736555 0.058893
O O5 0.736594 0.245945 0.772739
O O6 0.505262 0.285214 0.553275
O O7 0.856252 0.146559 0.610083
O O8 0.500000 0.000000 0.500000
O O9 0.505572 0.825881 0.858176
O O10 0.585629 0.795459 0.694447
O O11 0.180367 0.855179 0.602394
O O12 0.937482 0.399811 0.625988
O O13 0.611861 0.543584 0.829037
O O14 0.258784 0.620282 0.795037
O O15 0.000000 0.500000 0.000000
O O16 0.000000 0.500000 0.500000
O O17 0.867869 0.675993 0.652530
O O18 0.500000 0.500000 0.500000
#
# Coordination Sequence:
#
# PCOD8029880 Si02
#       8
#     2   2   2   2   2   2   2   2
#     4  12  27  46  68 104 146 186 234 291 359 419
#     4  11  24  42  67 106 142 183 231 293 359 415
#     4  11  24  46  70 105 141 183 228 296 356 416
#     4  11  23  43  74 102 140 179 236 291 349 415
#     4  12  26  44  71 101 138 186 240 286 352 424
#     4  12  26  44  70  99 143 190 237 289 352 429
#     4  12  22  41  71 107 132 178 237 293 339 406
#     4  11  21  40  69 100 136 175 235 289 340 413
#
# _framework density 22.702476000000001
#
# number of rings (size 3 to 8) (size 9 to 14) (size 15 to 20)
#    0.000    0.500    5.000    4.875    1.750    1.000 
#    0.000    5.000    0.000    0.000    0.000    0.000 
#    0.000    0.000    0.000    0.000    0.000    0.000 
#
# Total GULP energy -198265.326098 kJ/mol
# GULP energy per Si atom -12391.582881 kJ/mol
# Density = 2.265080 g / cm^3
# Si number density = 22.702476 Si / 1000 Ang^3
#
#
#
# Elastic Constant Matrix: (Units=GPa)
#
#
# Indices 1 2 3 4 5 6 
#
# 1 109.8978 47.3947 40.7450 2.2538 14.8877 2.7100
# 2 47.3947 136.8549 38.5707 11.5499 3.4734 3.2125
# 3 40.7450 38.5707 83.8373 -1.1855 7.0498 1.9716
# 4 2.2538 11.5499 -1.1855 35.2665 1.5815 -4.5358
# 5 14.8877 3.4734 7.0498 1.5815 43.0440 -1.0728
# 6 2.7100 3.2125 1.9716 -4.5358 -1.0728 38.6590
#
#
#
# Elastic Compliance Matrix: (Units=1/GPa)
#
#
# Indices 1 2 3 4 5 6 
#
# 1 0.012488 -0.003001 -0.004392 0.000127 -0.003374 -0.000481
# 2 -0.003001 0.009449 -0.002988 -0.003141 0.000861 -0.000767
# 3 -0.004392 -0.002988 0.015535 0.001814 -0.000852 -0.000047
# 4 0.000127 -0.003141 0.001814 0.029955 -0.001097 0.003644
# 5 -0.003374 0.000861 -0.000852 -0.001097 0.024529 0.000760
# 6 -0.000481 -0.000767 -0.000047 0.003644 0.000760 0.026416
#
#
# Mechanical properties :
#
#
# Convention : Reuss Voigt Hill
#
# Bulk Modulus (GPa) = 59.83678 64.89009 62.36343
# Shear Modulus (GPa) = 34.55341 36.98588 35.76965
#
# Velocity S-wave (km/s) = 3.90553 4.04066 3.97367
# Velocity P-wave (km/s) = 6.83752 7.10029 6.97014
#
# Compressibility (1/GPa) = 0.01671213
#
# Stress axis : x y z
#
# Youngs Moduli (GPa) = 80.07567 105.82571 64.36961
#
# Poissons Ratio (x) = 0.31756 0.28270
# Poissons Ratio (y) = 0.24029 0.19232
# Poissons Ratio (z) = 0.35168 0.31618
#
# Static dielectric constant tensor:
#      x y z
#    x 4.151790 -0.008320 -0.020330 
#    y -0.008320 4.584470 -0.136880 
#    z -0.020330 -0.136880 4.068530 
# 
# 
# High freq. dielectric constant tensor:
#      x y z
#    x 1.895580 0.000470 0.000970 
#    y 0.000470 1.911620 -0.000890 
#    z 0.000970 -0.000890 1.878030 
# 
# From -- ./inp_files/495543.got.cif
#   From: 2010.06.25/outbox.cif.g09.slc.cpg/sg2_248_cif.got.tgz:495543.got - 2010.06.27 13:26:56.
