data_PCOD8029363
_publ_section_title
;
Structure prediction by ZEFSAII (Michael W. Deem and Ramdas Pophale) SiO2 
 PCOD8029363
Probable space group: P -1
;
_chemical_formula_sum "Si O2"
_cell_formula_units_Z 14
_cell_length_a 9.933890
_cell_length_b 12.577816
_cell_length_c 9.752329
_cell_angle_alpha 142.689564
_cell_angle_beta 118.324354
_cell_angle_gamma 60.337506
_cell_volume 634.192980
_symmetry_space_group_name_H-M "P -1"
_symmetry_group_IT_number 2
_symmetry_cell_setting 'triclinic'
loop_
_space_group_symop_operation_xyz
x,y,z
-x,-y,-z
loop_
_atom_site_type_symbol
_atom_site_label
_atom_site_fract_x
_atom_site_fract_y
_atom_site_fract_z
Si Si1 0.566954 0.840186 0.609721
Si Si2 0.366618 0.325054 0.254773
Si Si3 0.159089 0.708352 0.540964
Si Si4 0.560857 0.665232 0.143440
Si Si5 0.762386 0.965069 0.252289
Si Si6 0.894682 0.662881 0.197900
Si Si7 0.649270 0.183885 0.048283
O O1 0.598818 0.674902 0.564012
O O2 0.593278 0.783695 0.407782
O O3 0.392484 0.960543 0.657834
O O4 0.683393 0.968159 0.841153
O O5 0.273905 0.519601 0.360266
O O6 0.532463 0.274459 0.206286
O O7 0.270676 0.172132 0.020707
O O8 0.189838 0.757910 0.766158
O O9 0.980834 0.686153 0.408297
O O10 0.180622 0.869188 0.616241
O O11 0.723861 0.617461 0.089567
O O12 0.500000 0.500000 0.000000
O O13 0.416729 0.757092 0.072366
O O14 0.884879 0.847265 0.296855
O O15 0.000000 0.500000 0.000000
#
# Coordination Sequence:
#
# PCOD8029363 Si02
#       7
#     2   2   2   2   2   2   2
#     4  11  22  41  72 102 142 174 241 294 339 406
#     4  11  20  40  70 104 142 175 243 283 328 425
#     4  12  23  39  73 103 139 182 233 285 349 403
#     4  12  27  45  70 103 140 189 233 290 355 409
#     4  11  22  41  71 105 137 183 233 288 343 409
#     4  12  26  47  69 103 147 183 235 287 347 427
#     4  11  21  41  67 103 135 188 234 282 340 420
#
# _framework density 22.075299999999999
#
# number of rings (size 3 to 8) (size 9 to 14) (size 15 to 20)
#    0.000    0.571    7.143    3.000    4.000    0.000 
#    0.000    3.571    0.000    0.000    0.000    0.000 
#    0.000    0.000    0.000    0.000    0.000    0.000 
#
# Total GULP energy -173490.529517 kJ/mol
# GULP energy per Si atom -12392.180680 kJ/mol
# Density = 2.202506 g / cm^3
# Si number density = 22.075300 Si / 1000 Ang^3
#
#
#
# Elastic Constant Matrix: (Units=GPa)
#
#
# Indices 1 2 3 4 5 6 
#
# 1 43.1511 36.4249 34.3132 2.7943 7.7830 1.2849
# 2 36.4249 155.7365 48.4547 -3.2924 4.2518 -2.0053
# 3 34.3132 48.4547 81.6297 -11.1023 8.8253 -13.5668
# 4 2.7943 -3.2924 -11.1023 54.4018 -1.8515 5.4461
# 5 7.7830 4.2518 8.8253 -1.8515 33.5526 -6.9114
# 6 1.2849 -2.0053 -13.5668 5.4461 -6.9114 28.3497
#
#
#
# Elastic Compliance Matrix: (Units=1/GPa)
#
#
# Indices 1 2 3 4 5 6 
#
# 1 0.042551 -0.004777 -0.016785 -0.005038 -0.007423 -0.011141
# 2 -0.004777 0.008507 -0.003192 0.000191 0.000765 -0.000559
# 3 -0.016785 -0.003192 0.023579 0.004388 0.000631 0.011129
# 4 -0.005038 0.000191 0.004388 0.019700 0.000821 -0.001242
# 5 -0.007423 0.000765 0.000631 0.000821 0.033080 0.008599
# 6 -0.011141 -0.000559 0.011129 -0.001242 0.008599 0.043400
#
#
# Mechanical properties :
#
#
# Convention : Reuss Voigt Hill
#
# Bulk Modulus (GPa) = 39.79314 57.65590 48.72452
# Shear Modulus (GPa) = 21.86269 34.01580 27.93924
#
# Velocity S-wave (km/s) = 3.15043 3.92969 3.56143
# Velocity P-wave (km/s) = 5.59453 6.83845 6.24753
#
# Compressibility (1/GPa) = 0.02512996
#
# Stress axis : x y z
#
# Youngs Moduli (GPa) = 23.50137 117.54566 42.41093
#
# Poissons Ratio (x) = 0.56152 0.71186
# Poissons Ratio (y) = 0.11227 0.13535
# Poissons Ratio (z) = 0.39447 0.37515
#
# Static dielectric constant tensor:
#      x y z
#    x 4.452960 0.672980 -0.554780 
#    y 0.672980 5.100020 -0.883770 
#    z -0.554780 -0.883770 5.222410 
# 
# 
# High freq. dielectric constant tensor:
#      x y z
#    x 1.811730 -0.004090 0.020750 
#    y -0.004090 1.893140 -0.004140 
#    z 0.020750 -0.004140 1.887430 
# 
# From -- ./inp_files/261170.got.cif
#   From: 2010.06.25/outbox.cif.g09.slc.cpg/sg2_131_cif.got.tgz:261170.got - 2010.06.27 13:26:56.
