data_PCOD8029014
_publ_section_title
;
Structure prediction by ZEFSAII (Michael W. Deem and Ramdas Pophale) SiO2 
 PCOD8029014
Probable space group: P -1
;
_chemical_formula_sum "Si O2"
_cell_formula_units_Z 16
_cell_length_a 24.809905
_cell_length_b 13.174307
_cell_length_c 9.685302
_cell_angle_alpha 151.624338
_cell_angle_beta 135.745042
_cell_angle_gamma 31.999929
_cell_volume 791.611124
_symmetry_space_group_name_H-M "P -1"
_symmetry_group_IT_number 2
_symmetry_cell_setting 'triclinic'
loop_
_space_group_symop_operation_xyz
x,y,z
-x,-y,-z
loop_
_atom_site_type_symbol
_atom_site_label
_atom_site_fract_x
_atom_site_fract_y
_atom_site_fract_z
Si Si1 0.957213 0.488841 0.552238
Si Si2 0.800656 0.403602 0.178263
Si Si3 0.661616 0.991056 0.519045
Si Si4 0.509865 0.738737 0.661600
Si Si5 0.159450 0.984389 0.451867
Si Si6 0.310574 0.065946 0.803213
Si Si7 0.726878 0.395596 0.564062
Si Si8 0.218394 0.873563 0.952743
O O1 0.898065 0.373610 0.283341
O O2 0.000000 0.500000 0.500000
O O3 0.046149 0.281140 0.577741
O O4 0.882920 0.798274 0.852897
O O5 0.807389 0.297697 0.218158
O O6 0.695997 0.730459 0.366847
O O7 0.799956 0.202724 0.835185
O O8 0.540133 0.203047 0.514956
O O9 0.724541 0.843555 0.313867
O O10 0.690685 0.163193 0.848127
O O11 0.628968 0.457281 0.535591
O O12 0.431463 0.764870 0.659847
O O13 0.500000 0.000000 0.000000
O O14 0.234598 0.038710 0.700989
O O15 0.171971 0.805732 0.393614
O O16 0.299176 0.309279 0.155451
O O17 0.744940 0.248351 0.277593
#
# Coordination Sequence:
#
# PCOD8029014 Si02
#       8
#     2   2   2   2   2   2   2   2
#     4  11  24  38  65  92 115 148 210 252 282 358
#     4  11  19  38  66  87 113 159 200 239 299 355
#     4   9  18  37  61  86 118 155 201 245 276 355
#     4   8  16  37  60  87 121 157 195 249 289 342
#     4  12  21  37  65  88 113 165 203 237 299 356
#     4   9  19  37  61  87 117 153 202 247 279 352
#     4  11  24  38  59  89 128 155 193 248 306 343
#     4  11  24  39  57  93 124 154 196 253 296 346
#
# _framework density 20.211946000000001
#
# number of rings (size 3 to 8) (size 9 to 14) (size 15 to 20)
#    0.750    1.000    3.750    1.125    0.000    3.500 
#    0.000    3.125    0.000    0.000    0.000    0.000 
#    0.000    0.000    0.000    0.000    0.000    0.000 
#
# Total GULP energy -198232.720504 kJ/mol
# GULP energy per Si atom -12389.545032 kJ/mol
# Density = 2.016594 g / cm^3
# Si number density = 20.211946 Si / 1000 Ang^3
#
#
#
# Elastic Constant Matrix: (Units=GPa)
#
#
# Indices 1 2 3 4 5 6 
#
# 1 45.9999 10.6858 25.9210 -4.4542 -4.2209 -7.3124
# 2 10.6858 112.1042 23.4611 0.0803 -1.3312 -8.9941
# 3 25.9210 23.4611 88.4919 -3.4384 -14.3677 -10.0087
# 4 -4.4542 0.0803 -3.4384 24.9040 1.5183 3.5859
# 5 -4.2209 -1.3312 -14.3677 1.5183 33.1664 -5.9245
# 6 -7.3124 -8.9941 -10.0087 3.5859 -5.9245 23.6636
#
#
#
# Elastic Compliance Matrix: (Units=1/GPa)
#
#
# Indices 1 2 3 4 5 6 
#
# 1 0.026957 -0.000729 -0.006823 0.003089 0.001197 0.004999
# 2 -0.000729 0.009640 -0.002090 -0.000826 -0.000099 0.002655
# 3 -0.006823 -0.002090 0.015553 -0.000257 0.006763 0.005407
# 4 0.003089 -0.000826 -0.000257 0.041783 -0.002827 -0.006508
# 5 0.001197 -0.000099 0.006763 -0.002827 0.035597 0.012533
# 6 0.004999 0.002655 0.005407 -0.006508 0.012533 0.051224
#
#
# Mechanical properties :
#
#
# Convention : Reuss Voigt Hill
#
# Bulk Modulus (GPa) = 30.42707 40.74797 35.58752
# Shear Modulus (GPa) = 23.69748 28.78200 26.23974
#
# Velocity S-wave (km/s) = 3.42782 3.77770 3.60700
# Velocity P-wave (km/s) = 5.54556 6.26355 5.91546
#
# Compressibility (1/GPa) = 0.03286547
#
# Stress axis : x y z
#
# Youngs Moduli (GPa) = 37.09625 103.73904 64.29652
#
# Poissons Ratio (x) = 0.07558 0.43871
# Poissons Ratio (y) = 0.02703 0.13439
# Poissons Ratio (z) = 0.25312 0.21683
#
# Static dielectric constant tensor:
#      x y z
#    x 3.476740 -0.186430 0.225720 
#    y -0.186430 3.901770 -0.012330 
#    z 0.225720 -0.012330 3.480380 
# 
# 
# High freq. dielectric constant tensor:
#      x y z
#    x 1.760010 -0.002200 0.021770 
#    y -0.002200 1.795130 0.000450 
#    z 0.021770 0.000450 1.782660 
# 
# From -- ./inp_files/346538.got.cif
#   From: 2010.06.25/outbox.cif.g09.slc.cpg/sg2_174_cif.got.tgz:346538.got - 2010.06.27 13:26:56.
