data_PCOD8029523
_publ_section_title
;
Structure prediction by ZEFSAII (Michael W. Deem and Ramdas Pophale) SiO2 
 PCOD8029523
Probable space group: P -1
;
_chemical_formula_sum "Si O2"
_cell_formula_units_Z 16
_cell_length_a 14.695384
_cell_length_b 9.399035
_cell_length_c 11.430074
_cell_angle_alpha 124.284702
_cell_angle_beta 76.481829
_cell_angle_gamma 59.593497
_cell_volume 771.146653
_symmetry_space_group_name_H-M "P -1"
_symmetry_group_IT_number 2
_symmetry_cell_setting 'triclinic'
loop_
_space_group_symop_operation_xyz
x,y,z
-x,-y,-z
loop_
_atom_site_type_symbol
_atom_site_label
_atom_site_fract_x
_atom_site_fract_y
_atom_site_fract_z
Si Si1 0.349406 0.162810 0.191177
Si Si2 0.811650 0.649926 0.903665
Si Si3 0.596496 0.831432 0.232531
Si Si4 0.859290 0.442120 0.164447
Si Si5 0.809194 0.999962 0.213107
Si Si6 0.591971 0.198969 0.801797
Si Si7 0.851618 0.837151 0.385157
Si Si8 0.679196 0.540386 0.455083
O O1 0.215028 0.311603 0.209291
O O2 0.297125 0.393881 0.399174
O O3 0.369693 0.959458 0.165103
O O4 0.500000 0.000000 0.000000
O O5 0.979978 0.323991 0.726527
O O6 0.687489 0.702379 0.022667
O O7 0.787435 0.874733 0.071680
O O8 0.715419 0.666609 0.224877
O O9 0.501925 0.791754 0.251608
O O10 0.478440 0.166615 0.424758
O O11 0.878115 0.598070 0.291518
O O12 0.822374 0.362806 0.242009
O O13 0.020050 0.163645 0.923127
O O14 0.784977 0.966897 0.336239
O O15 0.680104 0.334269 0.382885
O O16 0.737704 0.064729 0.626483
O O17 0.500000 0.500000 0.000000
#
# Coordination Sequence:
#
# PCOD8029523 Si02
#       8
#     2   2   2   2   2   2   2   2
#     4  11  23  45  64  88 135 176 208 261 331 388
#     4  11  22  42  70  93 129 178 215 257 332 395
#     4  11  21  42  69  91 128 173 214 260 336 376
#     4  11  20  44  65  95 130 174 213 268 329 385
#     4  11  24  40  67 101 134 161 222 278 316 382
#     4  11  26  43  65  97 130 169 220 272 313 390
#     4  11  22  43  68  94 129 170 216 268 327 380
#     4  11  24  39  66  98 130 171 214 273 322 378
#
# _framework density 20.748322999999999
#
# number of rings (size 3 to 8) (size 9 to 14) (size 15 to 20)
#    0.000    1.000    7.500    1.500    1.750    2.000 
#    2.250    1.250    0.000    0.000    0.000    0.000 
#    0.000    0.000    0.000    0.000    0.000    0.000 
#
# Total GULP energy -198352.332668 kJ/mol
# GULP energy per Si atom -12397.020792 kJ/mol
# Density = 2.070110 g / cm^3
# Si number density = 20.748323 Si / 1000 Ang^3
#
#
#
# Elastic Constant Matrix: (Units=GPa)
#
#
# Indices 1 2 3 4 5 6 
#
# 1 51.4339 33.0085 28.9059 4.7457 -0.3604 -6.4222
# 2 33.0085 78.9172 36.1492 -14.0296 14.4891 -4.8912
# 3 28.9059 36.1492 116.4087 -5.6430 1.6137 10.6219
# 4 4.7457 -14.0296 -5.6430 40.8258 7.5752 1.4342
# 5 -0.3604 14.4891 1.6137 7.5752 31.0290 -3.4246
# 6 -6.4222 -4.8912 10.6219 1.4342 -3.4246 36.6260
#
#
#
# Elastic Compliance Matrix: (Units=1/GPa)
#
#
# Indices 1 2 3 4 5 6 
#
# 1 0.034982 -0.016453 -0.005018 -0.012941 0.012287 0.007048
# 2 -0.016453 0.026209 -0.003147 0.013392 -0.015585 -0.000454
# 3 -0.005018 -0.003147 0.011294 0.001223 0.000015 -0.004622
# 4 -0.012941 0.013392 0.001223 0.033694 -0.015087 -0.003565
# 5 0.012287 -0.015585 0.000015 -0.015087 0.043856 0.004760
# 6 0.007048 -0.000454 -0.004622 -0.003565 0.004760 0.030403
#
#
# Mechanical properties :
#
#
# Convention : Reuss Voigt Hill
#
# Bulk Modulus (GPa) = 43.01131 49.20965 46.11048
# Shear Modulus (GPa) = 21.05945 31.60924 26.33435
#
# Velocity S-wave (km/s) = 3.18936 3.90739 3.56649
# Velocity P-wave (km/s) = 5.85984 6.64273 6.26352
#
# Compressibility (1/GPa) = 0.02324970
#
# Stress axis : x y z
#
# Youngs Moduli (GPa) = 28.58648 38.15531 88.53972
#
# Poissons Ratio (x) = 0.62777 0.44428
# Poissons Ratio (y) = 0.47033 0.27860
# Poissons Ratio (z) = 0.14344 0.12006
#
# Static dielectric constant tensor:
#      x y z
#    x 3.828820 -0.017150 -0.359480 
#    y -0.017150 3.896730 -0.195550 
#    z -0.359480 -0.195550 4.013250 
# 
# 
# High freq. dielectric constant tensor:
#      x y z
#    x 1.797810 -0.000720 -0.017970 
#    y -0.000720 1.815590 -0.012420 
#    z -0.017970 -0.012420 1.816390 
# 
# From -- ./inp_files/448047.got.cif
#   From: 2010.06.25/outbox.cif.g09.slc.cpg/sg2_225_cif.got.tgz:448047.got - 2010.06.27 13:26:56.
