data_PCOD8029335
_publ_section_title
;
Structure prediction by ZEFSAII (Michael W. Deem and Ramdas Pophale) SiO2 
 PCOD8029335
Probable space group: P -1
;
_chemical_formula_sum "Si O2"
_cell_formula_units_Z 16
_cell_length_a 13.838990
_cell_length_b 9.772101
_cell_length_c 9.479442
_cell_angle_alpha 134.127845
_cell_angle_beta 81.853252
_cell_angle_gamma 74.039342
_cell_volume 774.779865
_symmetry_space_group_name_H-M "P -1"
_symmetry_group_IT_number 2
_symmetry_cell_setting 'triclinic'
loop_
_space_group_symop_operation_xyz
x,y,z
-x,-y,-z
loop_
_atom_site_type_symbol
_atom_site_label
_atom_site_fract_x
_atom_site_fract_y
_atom_site_fract_z
Si Si1 0.232136 0.086156 0.250843
Si Si2 0.789468 0.314829 0.438611
Si Si3 0.584245 0.565628 0.463213
Si Si4 0.481144 0.969737 0.143542
Si Si5 0.176188 0.145189 0.980618
Si Si6 0.756865 0.343461 0.031900
Si Si7 0.090884 0.586050 0.736006
Si Si8 0.285357 0.413654 0.077388
O O1 0.229709 0.100443 0.092554
O O2 0.146190 0.324314 0.508716
O O3 0.361214 0.987109 0.206768
O O4 0.190590 0.920688 0.192850
O O5 0.681139 0.516601 0.523741
O O6 0.900004 0.287470 0.313916
O O7 0.786660 0.389047 0.652609
O O8 0.788958 0.087145 0.269149
O O9 0.500000 0.500000 0.500000
O O10 0.642612 0.427490 0.210181
O O11 0.518192 0.828849 0.628880
O O12 0.581324 0.733169 0.012717
O O13 0.500000 0.000000 0.000000
O O14 0.231235 0.259499 0.961678
O O15 0.040756 0.310402 0.128345
O O16 0.849663 0.378337 0.116216
O O17 0.722034 0.473638 0.987453
#
# Coordination Sequence:
#
# PCOD8029335 Si02
#       8
#     2   2   2   2   2   2   2   2
#     4  12  22  42  70  97 127 178 218 273 329 383
#     4  11  22  40  65 102 127 169 228 267 322 396
#     4  11  20  40  67  93 130 176 219 267 319 390
#     4  12  20  40  68  97 132 167 220 269 317 399
#     4  12  23  41  76  97 125 177 228 275 324 385
#     4  11  27  44  62 100 140 170 217 274 335 386
#     4  11  23  44  71  99 128 169 237 274 313 397
#     4  12  27  43  63 102 140 170 216 274 336 392
#
# _framework density 20.651026000000002
#
# number of rings (size 3 to 8) (size 9 to 14) (size 15 to 20)
#    0.000    0.500    8.750    2.250    0.000    2.500 
#    0.000    1.250    0.000    0.000    0.000    0.000 
#    0.000    0.000    0.000    0.000    0.000    0.000 
#
# Total GULP energy -198473.739768 kJ/mol
# GULP energy per Si atom -12404.608736 kJ/mol
# Density = 2.060402 g / cm^3
# Si number density = 20.651026 Si / 1000 Ang^3
#
#
#
# Elastic Constant Matrix: (Units=GPa)
#
#
# Indices 1 2 3 4 5 6 
#
# 1 69.2182 40.5648 43.0836 2.7405 3.3830 -2.9538
# 2 40.5648 126.0152 43.3687 -7.2677 11.4133 5.8082
# 3 43.0836 43.3687 100.7101 16.7937 17.0407 1.9479
# 4 2.7405 -7.2677 16.7937 33.4783 10.0483 8.7051
# 5 3.3830 11.4133 17.0407 10.0483 35.5195 9.4315
# 6 -2.9538 5.8082 1.9479 8.7051 9.4315 21.9048
#
#
#
# Elastic Compliance Matrix: (Units=1/GPa)
#
#
# Indices 1 2 3 4 5 6 
#
# 1 0.022269 -0.004969 -0.007712 -0.000847 0.002254 0.004372
# 2 -0.004969 0.011549 -0.003505 0.006635 -0.002060 -0.005170
# 3 -0.007712 -0.003505 0.016845 -0.008068 -0.004926 0.003719
# 4 -0.000847 0.006635 -0.008068 0.041067 -0.005824 -0.014969
# 5 0.002254 -0.002060 -0.004926 -0.005824 0.035741 -0.011786
# 6 0.004372 -0.005170 0.003719 -0.014969 -0.011786 0.058306
#
#
# Mechanical properties :
#
#
# Convention : Reuss Voigt Hill
#
# Bulk Modulus (GPa) = 54.67203 61.10863 57.89033
# Shear Modulus (GPa) = 22.29692 29.44229 25.86960
#
# Velocity S-wave (km/s) = 3.28944 3.77995 3.54319
# Velocity P-wave (km/s) = 6.39992 6.97897 6.69571
#
# Compressibility (1/GPa) = 0.01829089
#
# Stress axis : x y z
#
# Youngs Moduli (GPa) = 44.90551 86.58697 59.36478
#
# Poissons Ratio (x) = 0.43025 0.45780
# Poissons Ratio (y) = 0.22313 0.20810
# Poissons Ratio (z) = 0.34629 0.30353
#
# Static dielectric constant tensor:
#      x y z
#    x 4.667330 0.739310 0.293970 
#    y 0.739310 4.109310 0.495490 
#    z 0.293970 0.495490 4.062910 
# 
# 
# High freq. dielectric constant tensor:
#      x y z
#    x 1.815250 0.010610 0.004620 
#    y 0.010610 1.784040 0.022530 
#    z 0.004620 0.022530 1.817140 
# 
# From -- ./inp_files/188015.got.cif
#   From: 2010.06.25/outbox.cif.g09.slc.cpg/sg2_95_cif.got.tgz:188015.got - 2010.06.27 13:26:56.
