data_PCOD8029888
_publ_section_title
;
Structure prediction by ZEFSAII (Michael W. Deem and Ramdas Pophale) SiO2 
 PCOD8029888
Probable space group: P -1
;
_chemical_formula_sum "Si O2"
_cell_formula_units_Z 16
_cell_length_a 14.976654
_cell_length_b 14.750545
_cell_length_c 14.349334
_cell_angle_alpha 37.202262
_cell_angle_beta 151.585368
_cell_angle_gamma 152.639392
_cell_volume 691.541504
_symmetry_space_group_name_H-M "P -1"
_symmetry_group_IT_number 2
_symmetry_cell_setting 'triclinic'
loop_
_space_group_symop_operation_xyz
x,y,z
-x,-y,-z
loop_
_atom_site_type_symbol
_atom_site_label
_atom_site_fract_x
_atom_site_fract_y
_atom_site_fract_z
Si Si1 0.279335 0.265939 0.989393
Si Si2 0.459333 0.228650 0.999415
Si Si3 0.273821 0.985290 0.335896
Si Si4 0.702952 0.103666 0.019428
Si Si5 0.447842 0.205773 0.595183
Si Si6 0.838835 0.187114 0.431194
Si Si7 0.144264 0.227081 0.428805
Si Si8 0.642607 0.536819 0.380397
O O1 0.286508 0.170832 0.978396
O O2 0.007877 0.202211 0.804656
O O3 0.500000 0.500000 0.000000
O O4 0.328200 0.183649 0.190663
O O5 0.530480 0.423422 0.854503
O O6 0.315402 0.052945 0.935544
O O7 0.710420 0.280751 0.221058
O O8 0.273409 0.962288 0.463993
O O9 0.500000 0.000000 0.500000
O O10 0.972308 0.249375 0.193251
O O11 0.684933 0.242147 0.824813
O O12 0.500000 0.000000 0.000000
O O13 0.382842 0.308883 0.519076
O O14 0.501368 0.307354 0.458854
O O15 0.229478 0.965731 0.589152
O O16 0.130441 0.369150 0.560579
O O17 0.229131 0.352571 0.496096
O O18 0.000000 0.000000 0.500000
#
# Coordination Sequence:
#
# PCOD8029888 Si02
#       8
#     2   2   2   2   2   2   2   2
#     4  11  26  46  71 105 139 178 229 289 347 413
#     4  11  22  42  67  97 136 178 219 279 339 401
#     4  11  24  47  74  99 134 180 232 285 351 413
#     4  11  21  40  69  95 133 176 223 269 333 398
#     4  11  25  39  64  98 126 178 222 272 334 400
#     4  11  23  43  66  94 134 172 222 280 338 401
#     4  12  20  39  65  91 129 179 216 275 333 388
#     4  12  24  41  64  96 137 171 228 277 332 409
#
# _framework density 23.136714999999999
#
# number of rings (size 3 to 8) (size 9 to 14) (size 15 to 20)
#    0.000    0.750    6.250    1.125    1.750    2.000 
#    2.250    0.000    0.000    0.000    0.000    0.000 
#    0.000    0.000    0.000    0.000    0.000    0.000 
#
# Total GULP energy -198298.833057 kJ/mol
# GULP energy per Si atom -12393.677066 kJ/mol
# Density = 2.308405 g / cm^3
# Si number density = 23.136715 Si / 1000 Ang^3
#
#
#
# Elastic Constant Matrix: (Units=GPa)
#
#
# Indices 1 2 3 4 5 6 
#
# 1 90.4864 13.1735 24.4022 -7.9698 9.6867 8.6202
# 2 13.1735 87.6487 44.9820 -13.9489 9.5863 21.8315
# 3 24.4022 44.9820 190.5205 -27.3111 6.7445 12.6118
# 4 -7.9698 -13.9489 -27.3111 34.7181 12.6996 -10.7859
# 5 9.6867 9.5863 6.7445 12.6996 42.4261 -2.5140
# 6 8.6202 21.8315 12.6118 -10.7859 -2.5140 25.8229
#
#
#
# Elastic Compliance Matrix: (Units=1/GPa)
#
#
# Indices 1 2 3 4 5 6 
#
# 1 0.012172 0.000206 -0.000913 0.002522 -0.003618 -0.003090
# 2 0.000206 0.016756 -0.002601 0.002725 -0.004965 -0.012310
# 3 -0.000913 -0.002601 0.006676 0.004972 -0.001685 0.001157
# 4 0.002522 0.002725 0.004972 0.043003 -0.014202 0.011005
# 5 -0.003618 -0.004965 -0.001685 -0.014202 0.030229 0.003239
# 6 -0.003090 -0.012310 0.001157 0.011005 0.003239 0.054511
#
#
# Mechanical properties :
#
#
# Convention : Reuss Voigt Hill
#
# Bulk Modulus (GPa) = 34.49906 59.30790 46.90348
# Shear Modulus (GPa) = 27.83578 39.66661 33.75120
#
# Velocity S-wave (km/s) = 3.47234 4.14508 3.82353
# Velocity P-wave (km/s) = 5.56951 6.97124 6.30943
#
# Compressibility (1/GPa) = 0.02898630
#
# Stress axis : x y z
#
# Youngs Moduli (GPa) = 82.15862 59.68047 149.79480
#
# Poissons Ratio (x) = -0.01231 0.13684
# Poissons Ratio (y) = -0.01695 0.38966
# Poissons Ratio (z) = 0.07505 0.15524
#
# Static dielectric constant tensor:
#      x y z
#    x 4.349240 0.264180 -0.116090 
#    y 0.264180 4.157050 -0.057350 
#    z -0.116090 -0.057350 4.535360 
# 
# 
# High freq. dielectric constant tensor:
#      x y z
#    x 1.916880 0.011850 -0.008690 
#    y 0.011850 1.886500 -0.009730 
#    z -0.008690 -0.009730 1.936730 
# 
# From -- ./inp_files/534286.got.cif
#   From: 2010.06.25/outbox.cif.g09.slc.cpg/sg2_268_cif.got.tgz:534286.got - 2010.06.27 13:26:56.
