data_PCOD8029322
_publ_section_title
;
Structure prediction by ZEFSAII (Michael W. Deem and Ramdas Pophale) SiO2 
 PCOD8029322
Probable space group: P -1
;
_chemical_formula_sum "Si O2"
_cell_formula_units_Z 12
_cell_length_a 8.435729
_cell_length_b 12.949535
_cell_length_c 8.527841
_cell_angle_alpha 49.158312
_cell_angle_beta 62.444899
_cell_angle_gamma 77.609929
_cell_volume 619.412280
_symmetry_space_group_name_H-M "P -1"
_symmetry_group_IT_number 2
_symmetry_cell_setting 'triclinic'
loop_
_space_group_symop_operation_xyz
x,y,z
-x,-y,-z
loop_
_atom_site_type_symbol
_atom_site_label
_atom_site_fract_x
_atom_site_fract_y
_atom_site_fract_z
Si Si1 0.846022 0.390083 0.619767
Si Si2 0.836124 0.126704 0.496660
Si Si3 0.028700 0.884234 0.225601
Si Si4 0.815142 0.426855 0.231603
Si Si5 0.523239 0.584949 0.064844
Si Si6 0.226171 0.141372 0.367883
O O1 0.905544 0.240967 0.776442
O O2 0.835694 0.415651 0.416696
O O3 0.000000 0.500000 0.500000
O O4 0.665400 0.411962 0.769158
O O5 0.826200 0.078284 0.734570
O O6 0.759947 0.269944 0.352083
O O7 0.050543 0.156962 0.323078
O O8 0.724409 0.010187 0.553355
O O9 0.832294 0.846556 0.435208
O O10 0.000000 0.000000 0.000000
O O11 0.653140 0.512365 0.188587
O O12 0.000000 0.500000 0.000000
O O13 0.606214 0.743442 0.848809
O O14 0.500000 0.500000 0.000000
#
# Coordination Sequence:
#
# PCOD8029322 Si02
#       6
#     2   2   2   2   2   2
#     4  11  24  40  59  90 122 160 205 250 301 360
#     4   8  18  36  63  86 113 152 202 234 308 357
#     4   9  18  35  58  85 114 152 196 243 296 350
#     4  11  20  40  65  90 120 162 199 250 305 360
#     4  12  24  40  59  91 125 160 206 251 297 362
#     4   9  18  38  60  83 117 154 198 242 298 355
#
# _framework density 19.373204000000001
#
# number of rings (size 3 to 8) (size 9 to 14) (size 15 to 20)
#    1.000    1.000    1.667    2.500    0.000    4.000 
#    0.000   10.000    0.000    0.000    0.000    0.000 
#    0.000    0.000    0.000    0.000    0.000    0.000 
#
# Total GULP energy -148659.835444 kJ/mol
# GULP energy per Si atom -12388.319620 kJ/mol
# Density = 1.932911 g / cm^3
# Si number density = 19.373204 Si / 1000 Ang^3
#
#
#
# Elastic Constant Matrix: (Units=GPa)
#
#
# Indices 1 2 3 4 5 6 
#
# 1 67.6165 57.9194 52.4346 -13.4419 -18.5564 -3.7025
# 2 57.9194 175.9149 77.8937 -10.2183 -14.4272 -2.0208
# 3 52.4346 77.8937 127.1368 -5.5154 -12.3535 -13.6205
# 4 -13.4419 -10.2183 -5.5154 31.5723 -3.9928 -3.2222
# 5 -18.5564 -14.4272 -12.3535 -3.9928 32.1648 -6.9782
# 6 -3.7025 -2.0208 -13.6205 -3.2222 -6.9782 31.9454
#
#
#
# Elastic Compliance Matrix: (Units=1/GPa)
#
#
# Indices 1 2 3 4 5 6 
#
# 1 0.032482 -0.005201 -0.007489 0.013428 0.016317 0.005161
# 2 -0.005201 0.008878 -0.003572 -0.000247 -0.000804 -0.001765
# 3 -0.007489 -0.003572 0.013576 -0.001495 0.000096 0.004565
# 4 0.013428 -0.000247 -0.001495 0.039585 0.013687 0.007886
# 5 0.016317 -0.000804 0.000096 0.013687 0.044705 0.013027
# 6 0.005161 -0.001765 0.004565 0.007886 0.013027 0.037377
#
#
# Mechanical properties :
#
#
# Convention : Reuss Voigt Hill
#
# Bulk Modulus (GPa) = 44.61912 83.01818 63.81865
# Shear Modulus (GPa) = 23.08416 31.29787 27.19101
#
# Velocity S-wave (km/s) = 3.45563 4.02372 3.75045
# Velocity P-wave (km/s) = 6.24525 8.03319 7.19498
#
# Compressibility (1/GPa) = 0.02241192
#
# Stress axis : x y z
#
# Youngs Moduli (GPa) = 30.78656 112.63461 73.65739
#
# Poissons Ratio (x) = 0.58582 0.55161
# Poissons Ratio (y) = 0.16012 0.26313
# Poissons Ratio (z) = 0.23056 0.40237
#
# Static dielectric constant tensor:
#      x y z
#    x 3.298160 -0.086490 0.049030 
#    y -0.086490 4.530610 0.022090 
#    z 0.049030 0.022090 3.411350 
# 
# 
# High freq. dielectric constant tensor:
#      x y z
#    x 1.726890 0.004510 0.004940 
#    y 0.004510 1.776740 -0.006040 
#    z 0.004940 -0.006040 1.743700 
# 
# From -- ./inp_files/198867.got.cif
#   From: 2010.06.25/outbox.cif.g09.slc.cpg/sg2_100_cif.got.tgz:198867.got - 2010.06.27 13:26:56.
