data_PCOD8029826
_publ_section_title
;
Structure prediction by ZEFSAII (Michael W. Deem and Ramdas Pophale) SiO2 
 PCOD8029826
Probable space group: P -1
;
_chemical_formula_sum "Si O2"
_cell_formula_units_Z 16
_cell_length_a 19.022455
_cell_length_b 8.003816
_cell_length_c 9.174693
_cell_angle_alpha 32.649605
_cell_angle_beta 88.856332
_cell_angle_gamma 83.702118
_cell_volume 742.202526
_symmetry_space_group_name_H-M "P -1"
_symmetry_group_IT_number 2
_symmetry_cell_setting 'triclinic'
loop_
_space_group_symop_operation_xyz
x,y,z
-x,-y,-z
loop_
_atom_site_type_symbol
_atom_site_label
_atom_site_fract_x
_atom_site_fract_y
_atom_site_fract_z
Si Si1 0.605820 0.106328 0.265171
Si Si2 0.168612 0.482266 0.211039
Si Si3 0.186513 0.668264 0.479138
Si Si4 0.949128 0.301120 0.724968
Si Si5 0.625470 0.767736 0.819053
Si Si6 0.510837 0.133589 0.744515
Si Si7 0.245016 0.061071 0.744755
Si Si8 0.783257 0.668022 0.983909
O O1 0.627438 0.946253 0.536180
O O2 0.542916 0.955654 0.308703
O O3 0.670953 0.062029 0.180070
O O4 0.581604 0.480170 0.015382
O O5 0.091575 0.530760 0.256039
O O6 0.215481 0.169009 0.506932
O O7 0.161002 0.412796 0.092130
O O8 0.205228 0.790815 0.010855
O O9 0.107691 0.764212 0.345541
O O10 0.232542 0.367616 0.621437
O O11 0.224360 0.969889 0.232762
O O12 0.184069 0.579672 0.713388
O O13 0.000000 0.500000 0.500000
O O14 0.000000 0.000000 0.000000
O O15 0.705453 0.610893 0.978369
O O16 0.589708 0.003021 0.774322
O O17 0.500000 0.500000 0.500000
O O18 0.500000 0.000000 0.000000
#
# Coordination Sequence:
#
# PCOD8029826 Si02
#       8
#     2   2   2   2   2   2   2   2
#     4  12  23  44  68  94 130 178 230 264 340 400
#     4  11  22  42  66  98 130 167 220 265 317 398
#     4  11  25  39  66  98 136 164 214 276 329 372
#     4  11  23  45  69  94 131 181 219 254 321 407
#     4  12  25  44  68  95 133 183 219 268 342 401
#     4  12  28  45  66  98 138 173 228 285 331 392
#     4  11  21  40  64  96 125 175 220 267 320 398
#     4  12  23  41  64 101 135 163 217 283 331 375
#
# _framework density 21.557456999999999
#
# number of rings (size 3 to 8) (size 9 to 14) (size 15 to 20)
#    0.000    0.500    2.500    7.500    3.500    0.000 
#    0.000    3.750    0.000    0.000    0.000    0.000 
#    0.000    0.000    0.000    0.000    0.000    0.000 
#
# Total GULP energy -198450.410397 kJ/mol
# GULP energy per Si atom -12403.150650 kJ/mol
# Density = 2.150839 g / cm^3
# Si number density = 21.557457 Si / 1000 Ang^3
#
#
#
# Elastic Constant Matrix: (Units=GPa)
#
#
# Indices 1 2 3 4 5 6 
#
# 1 86.2742 41.8576 36.7545 9.4929 -3.7862 -13.8966
# 2 41.8576 102.1301 25.7645 1.8107 -0.6220 -3.5121
# 3 36.7545 25.7645 124.6128 0.4985 -3.2821 -2.3676
# 4 9.4929 1.8107 0.4985 51.5496 7.1532 -4.5300
# 5 -3.7862 -0.6220 -3.2821 7.1532 33.5785 -3.4959
# 6 -13.8966 -3.5121 -2.3676 -4.5300 -3.4959 33.1979
#
#
#
# Elastic Compliance Matrix: (Units=1/GPa)
#
#
# Indices 1 2 3 4 5 6 
#
# 1 0.017522 -0.005955 -0.003733 -0.002807 0.002759 0.006346
# 2 -0.005955 0.012388 -0.000852 0.000672 -0.000797 -0.001235
# 3 -0.003733 -0.000852 0.009290 0.000512 0.000270 -0.000892
# 4 -0.002807 0.000672 0.000512 0.020625 -0.004515 0.001272
# 5 0.002759 -0.000797 0.000270 -0.004515 0.031460 0.003787
# 6 0.006346 -0.001235 -0.000892 0.001272 0.003787 0.033157
#
#
# Mechanical properties :
#
#
# Convention : Reuss Voigt Hill
#
# Bulk Modulus (GPa) = 55.18419 57.97449 56.57934
# Shear Modulus (GPa) = 32.98985 37.57457 35.28221
#
# Velocity S-wave (km/s) = 3.91618 4.17945 4.04995
# Velocity P-wave (km/s) = 6.78991 7.08814 6.94063
#
# Compressibility (1/GPa) = 0.01812113
#
# Stress axis : x y z
#
# Youngs Moduli (GPa) = 57.06975 80.72478 107.64246
#
# Poissons Ratio (x) = 0.48072 0.40178
# Poissons Ratio (y) = 0.33985 0.09171
# Poissons Ratio (z) = 0.21301 0.06877
#
# Static dielectric constant tensor:
#      x y z
#    x 2.336510 0.016170 0.190420 
#    y 0.016170 4.047700 0.050180 
#    z 0.190420 0.050180 4.073850 
# 
# 
# High freq. dielectric constant tensor:
#      x y z
#    x 1.832530 -0.007410 -0.002420 
#    y -0.007410 1.856300 0.000770 
#    z -0.002420 0.000770 1.872110 
# 
# From -- ./inp_files/342344.got.cif
#   From: 2010.06.25/outbox.cif.g09.slc.cpg/sg2_172_cif.got.tgz:342344.got - 2010.06.27 13:26:56.
