data_PCOD8029293
_publ_section_title
;
Structure prediction by ZEFSAII (Michael W. Deem and Ramdas Pophale) SiO2 
 PCOD8029293
Probable space group: P -1
;
_chemical_formula_sum "Si O2"
_cell_formula_units_Z 16
_cell_length_a 11.817580
_cell_length_b 14.026692
_cell_length_c 12.104717
_cell_angle_alpha 148.330152
_cell_angle_beta 120.036503
_cell_angle_gamma 44.564672
_cell_volume 708.081004
_symmetry_space_group_name_H-M "P -1"
_symmetry_group_IT_number 2
_symmetry_cell_setting 'triclinic'
loop_
_space_group_symop_operation_xyz
x,y,z
-x,-y,-z
loop_
_atom_site_type_symbol
_atom_site_label
_atom_site_fract_x
_atom_site_fract_y
_atom_site_fract_z
Si Si1 0.317832 0.170096 0.387509
Si Si2 0.195249 0.986389 0.305509
Si Si3 0.804035 0.743417 0.833440
Si Si4 0.123562 0.560594 0.045902
Si Si5 0.172990 0.600434 0.877764
Si Si6 0.149100 0.653186 0.395765
Si Si7 0.756803 0.037240 0.277468
Si Si8 0.327191 0.042404 0.624307
O O1 0.196309 0.133276 0.353308
O O2 0.275970 0.205301 0.273923
O O3 0.290902 0.394168 0.645515
O O4 0.515610 0.954281 0.290208
O O5 0.343561 0.908237 0.387719
O O6 0.041797 0.131066 0.458519
O O7 0.191938 0.797263 0.054717
O O8 0.797033 0.551827 0.697299
O O9 0.987506 0.675509 0.846690
O O10 0.686924 0.976396 0.082120
O O11 0.182900 0.579865 0.211762
O O12 0.939666 0.793505 0.155721
O O13 0.237651 0.525139 0.962348
O O14 0.150392 0.316045 0.816164
O O15 0.251055 0.750173 0.560256
O O16 0.650839 0.109529 0.409330
#
# Coordination Sequence:
#
# PCOD8029293 Si02
#       8
#     2   2   2   2   2   2   2   2
#     4  12  28  45  59  92 143 183 206 250 320 399
#     4  12  23  41  71  97 126 166 217 274 326 370
#     4  11  24  43  67  94 129 173 222 263 313 378
#     4  11  20  39  69 100 122 159 215 275 329 359
#     4  11  24  41  68  97 126 167 222 270 314 378
#     4  12  21  40  74 101 123 158 220 287 319 363
#     4  11  22  41  69 101 125 160 220 280 321 367
#     4  12  24  43  67  96 138 169 206 267 332 390
#
# _framework density 22.596285000000002
#
# number of rings (size 3 to 8) (size 9 to 14) (size 15 to 20)
#    0.000    0.500    7.500    3.000    0.000    2.500 
#    2.250    0.625    0.000    0.000    0.000    0.000 
#    0.000    0.000    0.000    0.000    0.000    0.000 
#
# Total GULP energy -198226.887006 kJ/mol
# GULP energy per Si atom -12389.180438 kJ/mol
# Density = 2.254485 g / cm^3
# Si number density = 22.596285 Si / 1000 Ang^3
#
#
#
# Elastic Constant Matrix: (Units=GPa)
#
#
# Indices 1 2 3 4 5 6 
#
# 1 62.0644 26.4675 39.0937 -7.1079 19.6855 18.4034
# 2 26.4675 74.6612 49.1758 -28.3189 3.5072 20.4277
# 3 39.0937 49.1758 151.3211 -11.7136 22.5251 26.0981
# 4 -7.1079 -28.3189 -11.7136 28.7934 17.7966 -10.1729
# 5 19.6855 3.5072 22.5251 17.7966 37.1815 -3.0527
# 6 18.4034 20.4277 26.0981 -10.1729 -3.0527 21.7929
#
#
#
# Elastic Compliance Matrix: (Units=1/GPa)
#
#
# Indices 1 2 3 4 5 6 
#
# 1 0.036330 0.007299 0.001272 0.028561 -0.036900 -0.030881
# 2 0.007299 0.039697 -0.002077 0.053519 -0.033660 -0.020619
# 3 0.001272 -0.002077 0.010832 0.005198 -0.010442 -0.011136
# 4 0.028561 0.053519 0.005198 0.146618 -0.095586 -0.025458
# 5 -0.036900 -0.033660 -0.010442 -0.095586 0.105408 0.045363
# 6 -0.030881 -0.020619 -0.011136 -0.025458 0.045363 0.099098
#
#
# Mechanical properties :
#
#
# Convention : Reuss Voigt Hill
#
# Bulk Modulus (GPa) = 10.01533 57.50228 33.75881
# Shear Modulus (GPa) = 10.91044 29.10752 20.00898
#
# Velocity S-wave (km/s) = 2.19975 3.59298 2.97896
# Velocity P-wave (km/s) = 3.30057 6.53572 5.17733
#
# Compressibility (1/GPa) = 0.09984695
#
# Stress axis : x y z
#
# Youngs Moduli (GPa) = 27.52528 25.19106 92.31940
#
# Poissons Ratio (x) = -0.18387 -0.11741
# Poissons Ratio (y) = -0.20090 0.19171
# Poissons Ratio (z) = -0.03501 0.05231
#
# Static dielectric constant tensor:
#      x y z
#    x 4.228680 0.320100 -0.120300 
#    y 0.320100 3.766940 -0.129930 
#    z -0.120300 -0.129930 4.489910 
# 
# 
# High freq. dielectric constant tensor:
#      x y z
#    x 1.893180 0.025550 -0.004030 
#    y 0.025550 1.854510 -0.013080 
#    z -0.004030 -0.013080 1.904290 
# 
# From -- ./inp_files/433531.got.cif
#   From: 2010.06.25/outbox.cif.g09.slc.cpg/sg2_217_cif.got.tgz:433531.got - 2010.06.27 13:26:56.
