data_PCOD8029320
_publ_section_title
;
Structure prediction by ZEFSAII (Michael W. Deem and Ramdas Pophale) SiO2 
 PCOD8029320
Probable space group: P -1
;
_chemical_formula_sum "Si O2"
_cell_formula_units_Z 16
_cell_length_a 12.868221
_cell_length_b 8.529516
_cell_length_c 18.872441
_cell_angle_alpha 59.118624
_cell_angle_beta 34.574630
_cell_angle_gamma 84.843158
_cell_volume 736.704688
_symmetry_space_group_name_H-M "P -1"
_symmetry_group_IT_number 2
_symmetry_cell_setting 'triclinic'
loop_
_space_group_symop_operation_xyz
x,y,z
-x,-y,-z
loop_
_atom_site_type_symbol
_atom_site_label
_atom_site_fract_x
_atom_site_fract_y
_atom_site_fract_z
Si Si1 0.708916 0.761600 0.911126
Si Si2 0.296389 0.188540 0.480955
Si Si3 0.298536 0.259310 0.623199
Si Si4 0.494785 0.765288 0.890877
Si Si5 0.337633 0.567281 0.276564
Si Si6 0.848693 0.296089 0.531214
Si Si7 0.466503 0.927358 0.455171
Si Si8 0.964300 0.572291 0.258275
O O1 0.570116 0.473137 0.050212
O O2 0.602046 0.781439 0.038379
O O3 0.644293 0.846544 0.861770
O O4 0.004218 0.935981 0.710277
O O5 0.446751 0.111140 0.384992
O O6 0.386443 0.312814 0.479305
O O7 0.344569 0.376978 0.354016
O O8 0.500000 0.500000 0.500000
O O9 0.296019 0.045928 0.704052
O O10 0.048526 0.212746 0.783359
O O11 0.680477 0.001352 0.678921
O O12 0.248665 0.716351 0.052709
O O13 0.290593 0.693806 0.329550
O O14 0.125959 0.423681 0.367876
O O15 0.860531 0.429075 0.424859
O O16 0.210735 0.637068 0.655053
O O17 0.500000 0.000000 0.500000
#
# Coordination Sequence:
#
# PCOD8029320 Si02
#       8
#     2   2   2   2   2   2   2   2
#     4  11  24  38  59  93 131 168 201 242 301 374
#     4  11  20  40  64  92 124 165 201 253 313 356
#     4   9  20  38  66  90 112 161 217 259 306 357
#     4  11  24  38  59  93 131 167 203 241 300 376
#     4  11  24  38  59  93 131 167 203 241 300 376
#     4  11  24  38  59  93 131 168 201 242 301 374
#     4   9  20  38  66  90 112 161 217 259 306 357
#     4  11  20  40  64  92 124 165 201 253 313 356
#
# _framework density 21.718335
#
# number of rings (size 3 to 8) (size 9 to 14) (size 15 to 20)
#    0.000    1.500    5.000    0.000    3.500    1.000 
#    0.000    0.000    0.000   30.000    0.000    0.000 
#    0.000    0.000    0.000    0.000    0.000    0.000 
#
# Total GULP energy -198264.226999 kJ/mol
# GULP energy per Si atom -12391.514187 kJ/mol
# Density = 2.166890 g / cm^3
# Si number density = 21.718335 Si / 1000 Ang^3
#
#
#
# Elastic Constant Matrix: (Units=GPa)
#
#
# Indices 1 2 3 4 5 6 
#
# 1 113.2470 48.9657 23.0931 1.4049 -10.6335 -11.3095
# 2 48.9657 95.0405 -5.8011 4.3766 -8.6507 -29.8956
# 3 23.0931 -5.8011 48.7644 0.5456 0.2170 -2.3196
# 4 1.4049 4.3766 0.5456 29.0630 -0.5687 -3.2992
# 5 -10.6335 -8.6507 0.2170 -0.5687 13.8555 1.0290
# 6 -11.3095 -29.8956 -2.3196 -3.2992 1.0290 50.8455
#
#
#
# Elastic Compliance Matrix: (Units=1/GPa)
#
#
# Indices 1 2 3 4 5 6 
#
# 1 0.014202 -0.007842 -0.007783 0.000548 0.006289 -0.001899
# 2 -0.007842 0.018296 0.006319 -0.001370 0.004572 0.009120
# 3 -0.007783 0.006319 0.025114 -0.000743 -0.002685 0.003136
# 4 0.000548 -0.001370 -0.000743 0.034792 0.000892 0.001522
# 5 0.006289 0.004572 -0.002685 0.000892 0.079754 0.002408
# 6 -0.001899 0.009120 0.003136 0.001522 0.002408 0.024800
#
#
# Mechanical properties :
#
#
# Convention : Reuss Voigt Hill
#
# Bulk Modulus (GPa) = 25.64141 43.28526 34.46334
# Shear Modulus (GPa) = 21.87507 31.47242 26.67374
#
# Velocity S-wave (km/s) = 3.17711 3.81086 3.50832
# Velocity P-wave (km/s) = 5.02898 6.27193 5.68453
#
# Compressibility (1/GPa) = 0.03899941
#
# Stress axis : x y z
#
# Youngs Moduli (GPa) = 70.41113 54.65701 39.81883
#
# Poissons Ratio (x) = 0.42864 0.30991
# Poissons Ratio (y) = 0.55219 -0.25162
# Poissons Ratio (z) = 0.54802 -0.34539
#
# Static dielectric constant tensor:
#      x y z
#    x 4.522440 -0.585930 -0.156760 
#    y -0.585930 4.794010 0.080710 
#    z -0.156760 0.080710 3.524330 
# 
# 
# High freq. dielectric constant tensor:
#      x y z
#    x 1.872590 -0.010920 -0.011320 
#    y -0.010920 1.880920 0.001020 
#    z -0.011320 0.001020 1.802340 
# 
# From -- ./inp_files/306325.got.cif
#   From: 2010.06.25/outbox.cif.g09.slc.cpg/sg2_154_cif.got.tgz:306325.got - 2010.06.27 13:26:56.
