data_PCOD8029950
_publ_section_title
;
Structure prediction by ZEFSAII (Michael W. Deem and Ramdas Pophale) SiO2 
 PCOD8029950
Probable space group: P -1
;
_chemical_formula_sum "Si O2"
_cell_formula_units_Z 16
_cell_length_a 8.033441
_cell_length_b 16.082402
_cell_length_c 8.942877
_cell_angle_alpha 102.332749
_cell_angle_beta 110.145307
_cell_angle_gamma 127.309712
_cell_volume 711.489728
_symmetry_space_group_name_H-M "P -1"
_symmetry_group_IT_number 2
_symmetry_cell_setting 'triclinic'
loop_
_space_group_symop_operation_xyz
x,y,z
-x,-y,-z
loop_
_atom_site_type_symbol
_atom_site_label
_atom_site_fract_x
_atom_site_fract_y
_atom_site_fract_z
Si Si1 0.691972 0.252980 0.177202
Si Si2 0.745909 0.280381 0.699730
Si Si3 0.905470 0.041812 0.583774
Si Si4 0.718387 0.582820 0.469590
Si Si5 0.396075 0.079299 0.281151
Si Si6 0.387730 0.302217 0.726157
Si Si7 0.393473 0.887206 0.179768
Si Si8 0.734140 0.459990 0.161873
O O1 0.465604 0.168596 0.202919
O O2 0.712794 0.355634 0.166261
O O3 0.983395 0.324083 0.341969
O O4 0.562580 0.145795 0.973127
O O5 0.649737 0.180553 0.505267
O O6 0.517538 0.262309 0.685007
O O7 0.831123 0.247941 0.851290
O O8 0.968062 0.417508 0.749636
O O9 0.130321 0.193061 0.705628
O O10 0.000000 0.000000 0.500000
O O11 0.859154 0.991747 0.720857
O O12 0.640315 0.982140 0.404258
O O13 0.500000 0.500000 0.500000
O O14 0.693972 0.667931 0.426049
O O15 0.649365 0.489270 0.284377
O O16 0.331192 0.962471 0.152402
O O17 0.571065 0.418267 0.944172
#
# Coordination Sequence:
#
# PCOD8029950 Si02
#       8
#     2   2   2   2   2   2   2   2
#     4  12  25  49  70 102 141 186 231 284 346 420
#     4  11  22  44  74 102 133 187 236 279 334 430
#     4  11  21  41  66 102 133 180 230 281 339 397
#     4  12  29  43  68 105 145 176 222 294 352 403
#     4  11  24  41  71 100 137 185 232 284 336 404
#     4  12  25  45  70 104 144 177 230 291 345 407
#     4  11  24  43  72 101 135 181 244 274 340 414
#     4  12  26  47  73 103 137 190 235 271 352 425
#
# _framework density 22.488028
#
# number of rings (size 3 to 8) (size 9 to 14) (size 15 to 20)
#    0.000    0.500    5.000    4.500    5.250    1.000 
#    0.000    2.500    0.000    0.000    0.000    0.000 
#    0.000    0.000    0.000    0.000    0.000    0.000 
#
# Total GULP energy -198216.697223 kJ/mol
# GULP energy per Si atom -12388.543576 kJ/mol
# Density = 2.243684 g / cm^3
# Si number density = 22.488028 Si / 1000 Ang^3
#
#
#
# Elastic Constant Matrix: (Units=GPa)
#
#
# Indices 1 2 3 4 5 6 
#
# 1 72.0270 54.9026 26.4366 4.7969 -13.6943 20.5780
# 2 54.9026 172.9350 31.8523 3.3775 -5.4090 29.4709
# 3 26.4366 31.8523 76.5991 1.0585 -22.2494 3.9285
# 4 4.7969 3.3775 1.0585 32.4018 -4.8565 -8.4903
# 5 -13.6943 -5.4090 -22.2494 -4.8565 34.7436 -6.5791
# 6 20.5780 29.4709 3.9285 -8.4903 -6.5791 47.6101
#
#
#
# Elastic Compliance Matrix: (Units=1/GPa)
#
#
# Indices 1 2 3 4 5 6 
#
# 1 0.021842 -0.004940 -0.004089 -0.003685 0.003529 -0.006215
# 2 -0.004940 0.008332 -0.002457 -0.001437 -0.003088 -0.003503
# 3 -0.004089 -0.002457 0.018428 0.002892 0.010929 0.003794
# 4 -0.003685 -0.001437 0.002892 0.034959 0.006847 0.009424
# 5 0.003529 -0.003088 0.010929 0.006847 0.038798 0.006066
# 6 -0.006215 -0.003503 0.003794 0.009424 0.006066 0.028064
#
#
# Mechanical properties :
#
#
# Convention : Reuss Voigt Hill
#
# Bulk Modulus (GPa) = 39.01754 60.88268 49.95011
# Shear Modulus (GPa) = 27.48194 36.84242 32.16218
#
# Velocity S-wave (km/s) = 3.49960 4.05200 3.78589
# Velocity P-wave (km/s) = 5.80669 7.00170 6.43201
#
# Compressibility (1/GPa) = 0.02562950
#
# Stress axis : x y z
#
# Youngs Moduli (GPa) = 45.78373 120.02372 54.26467
#
# Poissons Ratio (x) = 0.59287 0.22191
# Poissons Ratio (y) = 0.22615 0.13333
# Poissons Ratio (z) = 0.18723 0.29491
#
# Static dielectric constant tensor:
#      x y z
#    x 4.674490 1.300880 0.493080 
#    y 1.300880 6.018250 1.028950 
#    z 0.493080 1.028950 4.867440 
# 
# 
# High freq. dielectric constant tensor:
#      x y z
#    x 1.873640 0.009550 -0.025120 
#    y 0.009550 1.914490 0.004860 
#    z -0.025120 0.004860 1.885000 
# 
# From -- ./inp_files/207921.got.cif
#   From: 2010.06.25/outbox.cif.g09.slc.cpg/sg2_104_cif.got.tgz:207921.got - 2010.06.27 13:26:56.
