data_PCOD8029292
_publ_section_title
;
Structure prediction by ZEFSAII (Michael W. Deem and Ramdas Pophale) SiO2 
 PCOD8029292
Probable space group: P -1
;
_chemical_formula_sum "Si O2"
_cell_formula_units_Z 16
_cell_length_a 9.427042
_cell_length_b 14.596300
_cell_length_c 12.261739
_cell_angle_alpha 131.338060
_cell_angle_beta 129.592807
_cell_angle_gamma 39.142581
_cell_volume 771.333848
_symmetry_space_group_name_H-M "P -1"
_symmetry_group_IT_number 2
_symmetry_cell_setting 'triclinic'
loop_
_space_group_symop_operation_xyz
x,y,z
-x,-y,-z
loop_
_atom_site_type_symbol
_atom_site_label
_atom_site_fract_x
_atom_site_fract_y
_atom_site_fract_z
Si Si1 0.251522 0.932894 0.106241
Si Si2 0.282872 0.191984 0.273202
Si Si3 0.165640 0.544661 0.835932
Si Si4 0.494874 0.411040 0.086484
Si Si5 0.731816 0.131387 0.494082
Si Si6 0.052000 0.343723 0.511958
Si Si7 0.731073 0.981724 0.588144
Si Si8 0.522011 0.529419 0.408144
O O1 0.328724 0.029560 0.169375
O O2 0.230203 0.946321 0.235535
O O3 0.433737 0.757747 0.022521
O O4 0.000000 0.000000 0.000000
O O5 0.536888 0.145367 0.333253
O O6 0.169111 0.286725 0.405369
O O7 0.102287 0.300831 0.174641
O O8 0.313838 0.571455 0.849929
O O9 0.179974 0.398505 0.685949
O O10 0.257260 0.520945 0.986312
O O11 0.470148 0.440757 0.228078
O O12 0.680323 0.294673 0.587078
O O13 0.695183 0.092461 0.563832
O O14 0.000000 0.000000 0.500000
O O15 0.069088 0.204266 0.471989
O O16 0.777163 0.485176 0.478452
O O17 0.500000 0.000000 0.500000
O O18 0.500000 0.500000 0.500000
#
# Coordination Sequence:
#
# PCOD8029292 Si02
#       8
#     2   2   2   2   2   2   2   2
#     4  11  21  36  63 101 143 169 214 284 344 399
#     4  11  21  39  68 103 135 178 225 283 339 401
#     4  11  21  36  65 103 135 162 218 293 338 390
#     4  11  24  37  65 105 135 171 218 280 353 402
#     4  12  26  44  69  99 135 180 239 282 339 401
#     4  11  20  39  68  99 131 174 229 280 333 398
#     4  11  22  38  67 103 135 175 227 286 336 397
#     4  12  26  46  68  93 137 185 230 276 341 418
#
# _framework density 20.743288
#
# number of rings (size 3 to 8) (size 9 to 14) (size 15 to 20)
#    0.000    0.750    6.250    3.375    3.500    0.000 
#    0.000    0.625    0.000    2.250    0.000    0.000 
#    0.000    0.000    0.000    0.000    0.000    0.000 
#
# Total GULP energy -198312.803296 kJ/mol
# GULP energy per Si atom -12394.550206 kJ/mol
# Density = 2.069608 g / cm^3
# Si number density = 20.743288 Si / 1000 Ang^3
#
#
#
# Elastic Constant Matrix: (Units=GPa)
#
#
# Indices 1 2 3 4 5 6 
#
# 1 77.6824 50.8208 49.1877 -2.6057 0.0734 -0.1354
# 2 50.8208 159.1857 59.7487 -6.8330 -0.0409 0.6130
# 3 49.1877 59.7487 152.1410 -8.6554 2.5184 3.3490
# 4 -2.6057 -6.8330 -8.6554 46.7498 3.8077 10.9239
# 5 0.0734 -0.0409 2.5184 3.8077 26.8207 -11.6619
# 6 -0.1354 0.6130 3.3490 10.9239 -11.6619 39.6385
#
#
#
# Elastic Compliance Matrix: (Units=1/GPa)
#
#
# Indices 1 2 3 4 5 6 
#
# 1 0.018398 -0.004277 -0.004343 -0.000693 0.000858 0.000939
# 2 -0.004277 0.008377 -0.001866 0.000676 0.000033 -0.000163
# 3 -0.004343 -0.001866 0.008874 0.001681 -0.001817 -0.001733
# 4 -0.000693 0.000676 0.001681 0.024521 -0.007616 -0.009153
# 5 0.000858 0.000033 -0.001817 -0.007616 0.045311 0.015586
# 6 0.000939 -0.000163 -0.001733 -0.009153 0.015586 0.032488
#
#
# Mechanical properties :
#
#
# Convention : Reuss Voigt Hill
#
# Bulk Modulus (GPa) = 68.12822 78.72483 73.42653
# Shear Modulus (GPa) = 30.51890 37.92526 34.22208
#
# Velocity S-wave (km/s) = 3.83987 4.28052 4.06617
# Velocity P-wave (km/s) = 7.25081 7.90347 7.58416
#
# Compressibility (1/GPa) = 0.01467820
#
# Stress axis : x y z
#
# Youngs Moduli (GPa) = 54.35261 119.37015 112.69504
#
# Poissons Ratio (x) = 0.51053 0.48943
# Poissons Ratio (y) = 0.23246 0.21026
# Poissons Ratio (z) = 0.23605 0.22271
#
# Static dielectric constant tensor:
#      x y z
#    x 3.228190 0.032780 0.146730 
#    y 0.032780 4.605550 -0.145670 
#    z 0.146730 -0.145670 3.942220 
# 
# 
# High freq. dielectric constant tensor:
#      x y z
#    x 1.771170 0.016720 0.023000 
#    y 0.016720 1.840100 -0.012740 
#    z 0.023000 -0.012740 1.816190 
# 
# From -- ./inp_files/399669.got.cif
#   From: 2010.06.25/outbox.cif.g09.slc.cpg/sg2_200_cif.got.tgz:399669.got - 2010.06.27 13:26:56.
