data_PCOD8029662
_publ_section_title
;
Structure prediction by ZEFSAII (Michael W. Deem and Ramdas Pophale) SiO2 
 PCOD8029662
Probable space group: P -1
;
_chemical_formula_sum "Si O2"
_cell_formula_units_Z 16
_cell_length_a 20.684911
_cell_length_b 12.014706
_cell_length_c 18.232246
_cell_angle_alpha 148.328970
_cell_angle_beta 19.701046
_cell_angle_gamma 153.412630
_cell_volume 682.388102
_symmetry_space_group_name_H-M "P -1"
_symmetry_group_IT_number 2
_symmetry_cell_setting 'triclinic'
loop_
_space_group_symop_operation_xyz
x,y,z
-x,-y,-z
loop_
_atom_site_type_symbol
_atom_site_label
_atom_site_fract_x
_atom_site_fract_y
_atom_site_fract_z
Si Si1 0.393475 0.274245 0.428129
Si Si2 0.194055 0.995103 0.618891
Si Si3 0.026451 0.419087 0.648484
Si Si4 0.355737 0.334489 0.339299
Si Si5 0.623011 0.296071 0.688284
Si Si6 0.719068 0.568165 0.883841
Si Si7 0.838553 0.743125 0.069642
Si Si8 0.438647 0.881132 0.093924
O O1 0.500000 0.500000 0.500000
O O2 0.311383 0.335567 0.474958
O O3 0.191433 0.050469 0.566322
O O4 0.543222 0.156467 0.173815
O O5 0.402226 0.959103 0.397072
O O6 0.974732 0.733373 0.731290
O O7 0.211962 0.220255 0.772362
O O8 0.135902 0.302877 0.518070
O O9 0.219537 0.616643 0.500829
O O10 0.813149 0.200708 0.710188
O O11 0.947883 0.576407 0.867160
O O12 0.593184 0.587132 0.204361
O O13 0.396181 0.111046 0.143653
O O14 0.729879 0.511713 0.755957
O O15 0.381951 0.253503 0.899719
O O16 0.576731 0.315277 0.939890
O O17 0.000000 0.000000 0.000000
#
# Coordination Sequence:
#
# PCOD8029662 Si02
#       8
#     2   2   2   2   2   2   2   2
#     4  12  26  47  71  94 140 193 221 268 343 411
#     4  12  22  43  67  95 140 175 219 278 340 393
#     4  11  23  40  70 101 133 175 226 282 341 393
#     4  11  25  46  67 100 136 179 235 273 330 407
#     4  11  21  37  67 106 134 163 222 283 347 398
#     4  11  22  38  68 110 128 166 228 285 342 392
#     4  11  23  40  66 100 134 173 219 282 338 396
#     4  11  22  44  75 100 135 173 229 289 330 399
#
# _framework density 23.447067000000001
#
# number of rings (size 3 to 8) (size 9 to 14) (size 15 to 20)
#    0.000    0.750    6.250    2.250    0.000    2.000 
#    0.000    3.125    0.000    0.000    0.000    0.000 
#    0.000    0.000    0.000    0.000    0.000    0.000 
#
# Total GULP energy -198277.042807 kJ/mol
# GULP energy per Si atom -12392.315175 kJ/mol
# Density = 2.339370 g / cm^3
# Si number density = 23.447067 Si / 1000 Ang^3
#
#
#
# Elastic Constant Matrix: (Units=GPa)
#
#
# Indices 1 2 3 4 5 6 
#
# 1 126.7231 21.4536 67.7273 12.1593 -0.4153 -10.9369
# 2 21.4536 64.9387 37.8692 23.1311 2.0525 -3.5716
# 3 67.7273 37.8692 151.6184 29.4585 2.4147 6.0988
# 4 12.1593 23.1311 29.4585 30.4554 3.1387 12.9648
# 5 -0.4153 2.0525 2.4147 3.1387 47.1146 2.8123
# 6 -10.9369 -3.5716 6.0988 12.9648 2.8123 24.6014
#
#
#
# Elastic Compliance Matrix: (Units=1/GPa)
#
#
# Indices 1 2 3 4 5 6 
#
# 1 0.011523 0.001150 -0.004918 -0.004502 0.000074 0.008873
# 2 0.001150 0.027193 -0.002946 -0.026365 -0.000409 0.019131
# 3 -0.004918 -0.002946 0.010590 -0.004916 0.000028 -0.002652
# 4 -0.004502 -0.026365 -0.004916 0.079206 -0.001157 -0.046219
# 5 0.000074 -0.000409 0.000028 -0.001157 0.021431 -0.001874
# 6 0.008873 0.019131 -0.002652 -0.046219 -0.001874 0.072599
#
#
# Mechanical properties :
#
#
# Convention : Reuss Voigt Hill
#
# Bulk Modulus (GPa) = 27.87219 66.37559 47.12389
# Shear Modulus (GPa) = 20.16708 34.84962 27.50835
#
# Velocity S-wave (km/s) = 2.93595 3.85945 3.42893
# Velocity P-wave (km/s) = 4.83799 6.94483 5.98485
#
# Compressibility (1/GPa) = 0.03587806
#
# Stress axis : x y z
#
# Youngs Moduli (GPa) = 86.78406 36.77360 94.43305
#
# Poissons Ratio (x) = -0.04231 0.46441
# Poissons Ratio (y) = -0.09984 0.27824
# Poissons Ratio (z) = 0.42680 0.10835
#
# Static dielectric constant tensor:
#      x y z
#    x 4.306830 -0.091920 0.225600 
#    y -0.091920 4.157910 0.130960 
#    z 0.225600 0.130960 4.592250 
# 
# 
# High freq. dielectric constant tensor:
#      x y z
#    x 1.927610 -0.020350 0.025090 
#    y -0.020350 1.917870 0.014270 
#    z 0.025090 0.014270 1.934960 
# 
# From -- ./inp_files/578027.got.cif
#   From: 2010.06.25/outbox.cif.g09.slc.cpg/sg2_290_cif.got.tgz:578027.got - 2010.06.27 13:26:56.
