data_PCOD8029220
_publ_section_title
;
Structure prediction by ZEFSAII (Michael W. Deem and Ramdas Pophale) SiO2 
 PCOD8029220
Probable space group: P -1
;
_chemical_formula_sum "Si O2"
_cell_formula_units_Z 14
_cell_length_a 16.353166
_cell_length_b 16.336238
_cell_length_c 11.837646
_cell_angle_alpha 58.951075
_cell_angle_beta 52.706135
_cell_angle_gamma 17.242153
_cell_volume 718.694280
_symmetry_space_group_name_H-M "P -1"
_symmetry_group_IT_number 2
_symmetry_cell_setting 'triclinic'
loop_
_space_group_symop_operation_xyz
x,y,z
-x,-y,-z
loop_
_atom_site_type_symbol
_atom_site_label
_atom_site_fract_x
_atom_site_fract_y
_atom_site_fract_z
Si Si1 0.543425 0.750592 0.601855
Si Si2 0.427578 0.954155 0.117778
Si Si3 0.778910 0.856193 0.594203
Si Si4 0.037860 0.644010 0.966421
Si Si5 0.623335 0.586866 0.961326
Si Si6 0.524165 0.875860 0.749744
Si Si7 0.116582 0.003298 0.920093
O O1 0.495848 0.879632 0.637636
O O2 0.362571 0.815539 0.751462
O O3 0.886450 0.411434 0.541433
O O4 0.449527 0.873119 0.472045
O O5 0.266564 0.079950 0.282375
O O6 0.766533 0.611196 0.073168
O O7 0.500000 0.000000 0.000000
O O8 0.192992 0.112252 0.109625
O O9 0.731663 0.785779 0.661102
O O10 0.292367 0.493817 0.916937
O O11 0.814159 0.807484 0.140044
O O12 0.694170 0.634956 0.834174
O O13 0.272527 0.874171 0.007707
O O14 0.838978 0.320780 0.909108
O O15 0.000000 0.000000 0.000000
#
# Coordination Sequence:
#
# PCOD8029220 Si02
#       7
#     2   2   2   2   2   2   2
#     4  11  24  39  57  88 127 151 204 237 310 380
#     4  12  24  37  56  82 121 171 224 239 271 332
#     4  12  25  37  56  87 128 175 192 243 289 343
#     4  12  21  37  60  83 121 161 210 255 269 335
#     4  11  20  38  60  94 120 146 202 247 298 358
#     4  11  23  36  61  85 130 164 201 234 298 349
#     4  11  23  41  66  91 120 151 191 257 318 368
#
# _framework density 19.479771
#
# number of rings (size 3 to 8) (size 9 to 14) (size 15 to 20)
#    0.000    0.571    5.714    4.286    4.000    0.000 
#    0.000    0.000    0.000    0.000    0.000   20.000 
#    0.000    0.000    0.000    0.000    0.000    0.000 
#
# Total GULP energy -173474.724648 kJ/mol
# GULP energy per Si atom -12391.051761 kJ/mol
# Density = 1.943543 g / cm^3
# Si number density = 19.479771 Si / 1000 Ang^3
#
#
#
# Elastic Constant Matrix: (Units=GPa)
#
#
# Indices 1 2 3 4 5 6 
#
# 1 83.5310 25.7045 43.3144 -15.4461 -6.0990 -12.4377
# 2 25.7045 102.1659 22.6247 7.4975 -4.2304 -2.5263
# 3 43.3144 22.6247 82.6248 9.2648 17.7891 4.0972
# 4 -15.4461 7.4975 9.2648 32.5409 -0.3241 13.7329
# 5 -6.0990 -4.2304 17.7891 -0.3241 34.0227 -9.8175
# 6 -12.4377 -2.5263 4.0972 13.7329 -9.8175 36.8584
#
#
#
# Elastic Compliance Matrix: (Units=1/GPa)
#
#
# Indices 1 2 3 4 5 6 
#
# 1 0.030638 -0.002922 -0.022074 0.016749 0.020217 0.011736
# 2 -0.002922 0.011388 -0.001718 -0.004464 0.002409 0.002290
# 3 -0.022074 -0.001718 0.031586 -0.014124 -0.024372 -0.012307
# 4 0.016749 -0.004464 -0.014124 0.047482 0.007773 -0.008705
# 5 0.020217 0.002409 -0.024372 0.007773 0.052099 0.020677
# 6 0.011736 0.002290 -0.012307 -0.008705 0.020677 0.041367
#
#
# Mechanical properties :
#
#
# Convention : Reuss Voigt Hill
#
# Bulk Modulus (GPa) = 49.54415 50.17878 49.86146
# Shear Modulus (GPa) = 18.20065 32.46294 25.33180
#
# Velocity S-wave (km/s) = 3.06001 4.08670 3.61004
# Velocity P-wave (km/s) = 6.16228 6.93423 6.55962
#
# Compressibility (1/GPa) = 0.02018402
#
# Stress axis : x y z
#
# Youngs Moduli (GPa) = 32.63939 87.81497 31.65925
#
# Poissons Ratio (x) = 0.25659 0.69884
# Poissons Ratio (y) = 0.09537 0.05439
# Poissons Ratio (z) = 0.72048 0.15087
#
# Static dielectric constant tensor:
#      x y z
#    x 3.688330 -0.277120 0.333630 
#    y -0.277120 3.848740 0.046740 
#    z 0.333630 0.046740 3.382850 
# 
# 
# High freq. dielectric constant tensor:
#      x y z
#    x 1.742500 -0.015560 0.029000 
#    y -0.015560 1.787320 0.012250 
#    z 0.029000 0.012250 1.721490 
# 
# From -- ./inp_files/117895.got.cif
#   From: 2010.06.25/outbox.cif.g09.slc.cpg/sg2_59_cif.got.tgz:117895.got - 2010.06.27 13:26:56.
