data_PCOD8029571
_publ_section_title
;
Structure prediction by ZEFSAII (Michael W. Deem and Ramdas Pophale) SiO2 
 PCOD8029571
Probable space group: P -1
;
_chemical_formula_sum "Si O2"
_cell_formula_units_Z 16
_cell_length_a 8.921115
_cell_length_b 8.856712
_cell_length_c 14.267382
_cell_angle_alpha 61.397587
_cell_angle_beta 118.588437
_cell_angle_gamma 107.627727
_cell_volume 865.066286
_symmetry_space_group_name_H-M "P -1"
_symmetry_group_IT_number 2
_symmetry_cell_setting 'triclinic'
loop_
_space_group_symop_operation_xyz
x,y,z
-x,-y,-z
loop_
_atom_site_type_symbol
_atom_site_label
_atom_site_fract_x
_atom_site_fract_y
_atom_site_fract_z
Si Si1 0.604733 0.008839 0.266564
Si Si2 0.753318 0.037548 0.114997
Si Si3 0.082695 0.873304 0.304894
Si Si4 0.918267 0.838501 0.464688
Si Si5 0.444462 0.795939 0.134821
Si Si6 0.778675 0.476972 0.577297
Si Si7 0.522445 0.530331 0.648843
Si Si8 0.426279 0.103517 0.363253
O O1 0.552965 0.122614 0.304734
O O2 0.721180 0.113553 0.188828
O O3 0.718307 0.859767 0.381431
O O4 0.437842 0.905740 0.197925
O O5 0.612130 0.873871 0.103144
O O6 0.937540 0.966892 0.178715
O O7 0.725660 0.183849 0.984860
O O8 0.114265 0.687683 0.326429
O O9 0.030646 0.835426 0.406998
O O10 0.249312 0.006269 0.306189
O O11 0.913163 0.649919 0.568015
O O12 0.000000 0.000000 0.500000
O O13 0.470938 0.599166 0.223356
O O14 0.647295 0.474393 0.623301
O O15 0.670139 0.461131 0.451773
O O16 0.600241 0.710151 0.661560
O O17 0.500000 0.000000 0.500000
#
# Coordination Sequence:
#
# PCOD8029571 Si02
#       8
#     2   2   2   2   2   2   2   2
#     4   9  18  36  56  79 107 152 184 222 277 340
#     4   8  19  38  65  79 106 144 199 238 276 325
#     4  11  21  35  56  85 112 146 190 233 276 332
#     4  11  21  34  53  83 119 144 176 230 292 335
#     4   9  17  39  65  77 106 150 197 228 282 328
#     4  11  21  35  54  81 118 148 186 227 278 342
#     4  11  21  34  56  83 112 152 191 225 274 342
#     4  12  22  34  54  85 120 154 181 224 288 341
#
# _framework density 18.495694
#
# number of rings (size 3 to 8) (size 9 to 14) (size 15 to 20)
#    0.750    1.000    2.500    3.375    0.000    0.000 
#    0.000    3.750    0.000    0.000    0.000    0.000 
#    0.000    0.000    0.000    0.000    0.000    0.000 
#
# Total GULP energy -198255.030716 kJ/mol
# GULP energy per Si atom -12390.939420 kJ/mol
# Density = 1.845360 g / cm^3
# Si number density = 18.495694 Si / 1000 Ang^3
#
#
#
# Elastic Constant Matrix: (Units=GPa)
#
#
# Indices 1 2 3 4 5 6 
#
# 1 73.2118 30.5115 34.7506 -0.4520 9.5321 -15.3586
# 2 30.5115 98.3186 38.6042 -8.1019 7.1913 -0.4345
# 3 34.7506 38.6042 119.2577 -9.3556 17.7192 -5.6342
# 4 -0.4520 -8.1019 -9.3556 22.7168 -0.5193 -5.1362
# 5 9.5321 7.1913 17.7192 -0.5193 22.1242 -2.7639
# 6 -15.3586 -0.4345 -5.6342 -5.1362 -2.7639 26.7787
#
#
#
# Elastic Compliance Matrix: (Units=1/GPa)
#
#
# Indices 1 2 3 4 5 6 
#
# 1 0.019663 -0.004549 -0.003358 -0.000399 -0.003051 0.010106
# 2 -0.004549 0.012886 -0.002693 0.002834 -0.000312 -0.002455
# 3 -0.003358 -0.002693 0.011555 0.003682 -0.006787 0.000467
# 4 -0.000399 0.002834 0.003682 0.048725 -0.001330 0.009800
# 5 -0.003051 -0.000312 -0.006787 -0.001330 0.052264 0.001956
# 6 0.010106 -0.002455 0.000467 0.009800 0.001956 0.045279
#
#
# Mechanical properties :
#
#
# Convention : Reuss Voigt Hill
#
# Bulk Modulus (GPa) = 43.65954 55.39120 49.52537
# Shear Modulus (GPa) = 22.80958 26.78539 24.79748
#
# Velocity S-wave (km/s) = 3.51556 3.80965 3.66555
# Velocity P-wave (km/s) = 6.33525 7.02598 6.68953
#
# Compressibility (1/GPa) = 0.02290450
#
# Stress axis : x y z
#
# Youngs Moduli (GPa) = 50.85589 77.60652 86.54484
#
# Poissons Ratio (x) = 0.35302 0.29060
# Poissons Ratio (y) = 0.23134 0.23306
# Poissons Ratio (z) = 0.17076 0.20899
#
# Static dielectric constant tensor:
#      x y z
#    x 3.262310 -0.130300 0.007070 
#    y -0.130300 3.141200 0.026130 
#    z 0.007070 0.026130 3.476310 
# 
# 
# High freq. dielectric constant tensor:
#      x y z
#    x 1.710670 -0.003780 -0.000840 
#    y -0.003780 1.698320 -0.002880 
#    z -0.000840 -0.002880 1.705600 
# 
# From -- ./inp_files/319382.got.cif
#   From: 2010.06.25/outbox.cif.g09.slc.cpg/sg2_160_cif.got.tgz:319382.got - 2010.06.27 13:26:56.
