data_PCOD8029346
_publ_section_title
;
Structure prediction by ZEFSAII (Michael W. Deem and Ramdas Pophale) SiO2 
 PCOD8029346
Probable space group: P -1
;
_chemical_formula_sum "Si O2"
_cell_formula_units_Z 16
_cell_length_a 15.075245
_cell_length_b 11.452584
_cell_length_c 13.380275
_cell_angle_alpha 135.483179
_cell_angle_beta 134.592577
_cell_angle_gamma 28.325975
_cell_volume 749.046456
_symmetry_space_group_name_H-M "P -1"
_symmetry_group_IT_number 2
_symmetry_cell_setting 'triclinic'
loop_
_space_group_symop_operation_xyz
x,y,z
-x,-y,-z
loop_
_atom_site_type_symbol
_atom_site_label
_atom_site_fract_x
_atom_site_fract_y
_atom_site_fract_z
Si Si1 0.950328 0.674353 0.861812
Si Si2 0.122824 0.725889 0.191496
Si Si3 0.474335 0.596095 0.650413
Si Si4 0.875841 0.594692 0.360394
Si Si5 0.998941 0.813884 0.555653
Si Si6 0.453084 0.952421 0.294503
Si Si7 0.418415 0.340079 0.593038
Si Si8 0.076394 0.178008 0.706832
O O1 0.001967 0.640027 0.764166
O O2 0.042116 0.410457 0.813386
O O3 0.717696 0.926056 0.842347
O O4 0.041834 0.733289 0.030229
O O5 0.348113 0.462157 0.219553
O O6 0.004289 0.782642 0.225741
O O7 0.101374 0.947272 0.309744
O O8 0.500000 0.500000 0.500000
O O9 0.471631 0.450387 0.641045
O O10 0.297549 0.900057 0.707773
O O11 0.668341 0.719125 0.279756
O O12 0.000000 0.500000 0.500000
O O13 0.851842 0.807653 0.431058
O O14 0.208162 0.568311 0.617304
O O15 0.031102 0.818867 0.464763
O O16 0.436217 0.851497 0.318133
O O17 0.410020 0.189443 0.423412
#
# Coordination Sequence:
#
# PCOD8029346 Si02
#       8
#     2   2   2   2   2   2   2   2
#     4  11  27  43  63 102 137 175 219 274 341 396
#     4  12  25  43  65  96 140 175 216 280 339 391
#     4  12  25  40  70 103 129 173 230 277 331 392
#     4  11  21  41  70  96 125 174 226 271 321 389
#     4  11  20  40  68  98 128 166 225 278 321 394
#     4  11  22  41  70  93 137 172 221 274 328 394
#     4  11  21  41  68 101 125 172 228 275 323 388
#     4  11  23  43  67  96 131 177 223 274 329 397
#
# _framework density 21.360491
#
# number of rings (size 3 to 8) (size 9 to 14) (size 15 to 20)
#    0.000    0.750    6.250    3.000    1.750    1.500 
#    0.000    3.125    0.000    0.000    0.000    0.000 
#    0.000    0.000    0.000    0.000    0.000    0.000 
#
# Total GULP energy -198279.695798 kJ/mol
# GULP energy per Si atom -12392.480987 kJ/mol
# Density = 2.131187 g / cm^3
# Si number density = 21.360491 Si / 1000 Ang^3
#
#
#
# Elastic Constant Matrix: (Units=GPa)
#
#
# Indices 1 2 3 4 5 6 
#
# 1 80.4195 33.4345 31.3142 -10.2029 -10.8727 -13.3072
# 2 33.4345 111.7939 34.8077 -20.2359 -5.1175 -20.0391
# 3 31.3142 34.8077 130.9776 -21.9609 -16.9482 -6.7834
# 4 -10.2029 -20.2359 -21.9609 34.0030 -2.3208 6.2451
# 5 -10.8727 -5.1175 -16.9482 -2.3208 18.2176 -4.9784
# 6 -13.3072 -20.0391 -6.7834 6.2451 -4.9784 32.9186
#
#
#
# Elastic Compliance Matrix: (Units=1/GPa)
#
#
# Indices 1 2 3 4 5 6 
#
# 1 0.016640 -0.002666 -0.001335 0.002129 0.009827 0.005911
# 2 -0.002666 0.012099 -0.001092 0.004870 0.002938 0.005583
# 3 -0.001335 -0.001092 0.010652 0.006269 0.009963 0.001308
# 4 0.002129 0.004870 0.006269 0.037914 0.013283 -0.000067
# 5 0.009827 0.002938 0.009963 0.013283 0.077179 0.016966
# 6 0.005911 0.005583 0.001308 -0.000067 0.016966 0.039014
#
#
# Mechanical properties :
#
#
# Convention : Reuss Voigt Hill
#
# Bulk Modulus (GPa) = 34.24108 58.03374 46.13741
# Shear Modulus (GPa) = 23.42803 31.93681 27.68242
#
# Velocity S-wave (km/s) = 3.31538 3.87089 3.60386
# Velocity P-wave (km/s) = 5.54261 6.87067 6.24206
#
# Compressibility (1/GPa) = 0.02920469
#
# Stress axis : x y z
#
# Youngs Moduli (GPa) = 60.09676 82.65004 93.87633
#
# Poissons Ratio (x) = 0.22036 0.12533
# Poissons Ratio (y) = 0.16023 0.10252
# Poissons Ratio (z) = 0.08023 0.09026
#
# Static dielectric constant tensor:
#      x y z
#    x 4.291330 0.027070 -0.049950 
#    y 0.027070 4.233110 -0.016750 
#    z -0.049950 -0.016750 3.718270 
# 
# 
# High freq. dielectric constant tensor:
#      x y z
#    x 1.843860 -0.000690 -0.000270 
#    y -0.000690 1.857290 -0.004640 
#    z -0.000270 -0.004640 1.801620 
# 
# From -- ./inp_files/532066.got.cif
#   From: 2010.06.25/outbox.cif.g09.slc.cpg/sg2_267_cif.got.tgz:532066.got - 2010.06.27 13:26:56.
