data_PCOD8029593
_publ_section_title
;
Structure prediction by ZEFSAII (Michael W. Deem and Ramdas Pophale) SiO2 
 PCOD8029593
Probable space group: P -1
;
_chemical_formula_sum "Si O2"
_cell_formula_units_Z 14
_cell_length_a 13.629523
_cell_length_b 11.098019
_cell_length_c 11.723766
_cell_angle_alpha 118.773265
_cell_angle_beta 30.710798
_cell_angle_gamma 98.881578
_cell_volume 646.911747
_symmetry_space_group_name_H-M "P -1"
_symmetry_group_IT_number 2
_symmetry_cell_setting 'triclinic'
loop_
_space_group_symop_operation_xyz
x,y,z
-x,-y,-z
loop_
_atom_site_type_symbol
_atom_site_label
_atom_site_fract_x
_atom_site_fract_y
_atom_site_fract_z
Si Si1 0.614434 0.644636 0.654027
Si Si2 0.858658 0.070707 0.289037
Si Si3 0.310469 0.850928 0.869241
Si Si4 0.494140 0.457214 0.857084
Si Si5 0.281363 0.168410 0.667286
Si Si6 0.189503 0.596313 0.864983
Si Si7 0.879673 0.526621 0.894313
O O1 0.406500 0.831908 0.896245
O O2 0.496682 0.589148 0.834153
O O3 0.735467 0.533768 0.369944
O O4 0.842512 0.620302 0.474818
O O5 0.716295 0.270087 0.521469
O O6 0.686481 0.009140 0.431163
O O7 0.000000 0.000000 0.000000
O O8 0.036803 0.002098 0.189366
O O9 0.466242 0.873381 0.635918
O O10 0.337898 0.675285 0.739166
O O11 0.500000 0.500000 0.000000
O O12 0.255209 0.470160 0.081671
O O13 0.178440 0.287394 0.938228
O O14 0.092066 0.264868 0.798899
O O15 0.233988 0.509356 0.902716
#
# Coordination Sequence:
#
# PCOD8029593 Si02
#       7
#     2   2   2   2   2   2   2
#     4  11  20  36  65  95 122 161 221 267 310 372
#     4  11  25  41  62  97 135 168 205 265 328 377
#     4  11  19  33  62  94 127 157 203 268 321 368
#     4  12  28  46  62  87 134 185 215 248 314 398
#     4  10  19  33  61 100 130 151 202 269 336 363
#     4  10  17  30  60 105 126 150 202 274 324 363
#     4  11  19  35  66  96 128 159 214 268 317 372
#
# _framework density 21.641283999999999
#
# number of rings (size 3 to 8) (size 9 to 14) (size 15 to 20)
#    0.000    1.143    4.286    5.571    0.000    4.000 
#    0.000    0.714    0.000    1.714    0.000    0.000 
#    0.000    0.000    0.000    0.000    0.000    0.000 
#
# Total GULP energy -173492.809148 kJ/mol
# GULP energy per Si atom -12392.343511 kJ/mol
# Density = 2.159203 g / cm^3
# Si number density = 21.641284 Si / 1000 Ang^3
#
#
#
# Elastic Constant Matrix: (Units=GPa)
#
#
# Indices 1 2 3 4 5 6 
#
# 1 122.3470 20.7129 38.7982 1.9145 -22.8180 -2.5059
# 2 20.7129 68.1392 21.0870 -11.3562 -8.1960 -2.9772
# 3 38.7982 21.0870 45.9856 -7.7920 -20.6220 6.7495
# 4 1.9145 -11.3562 -7.7920 24.4782 3.4560 -13.8838
# 5 -22.8180 -8.1960 -20.6220 3.4560 39.4451 -3.9279
# 6 -2.5059 -2.9772 6.7495 -13.8838 -3.9279 29.2557
#
#
#
# Elastic Compliance Matrix: (Units=1/GPa)
#
#
# Indices 1 2 3 4 5 6 
#
# 1 0.011828 -0.000979 -0.009416 -0.003790 0.002206 0.001584
# 2 -0.000979 0.019770 -0.007875 0.012194 -0.000704 0.009437
# 3 -0.009416 -0.007875 0.041028 0.004104 0.013275 -0.007343
# 4 -0.003790 0.012194 0.004104 0.065825 -0.000175 0.031184
# 5 0.002206 -0.000704 0.013275 -0.000175 0.033585 0.001481
# 6 0.001584 0.009437 -0.007343 0.031184 0.001481 0.051969
#
#
# Mechanical properties :
#
#
# Convention : Reuss Voigt Hill
#
# Bulk Modulus (GPa) = 27.71040 44.18532 35.94786
# Shear Modulus (GPa) = 18.34367 29.02738 23.68553
#
# Velocity S-wave (km/s) = 2.91456 3.66634 3.31185
# Velocity P-wave (km/s) = 4.91512 6.19550 5.59208
#
# Compressibility (1/GPa) = 0.03608754
#
# Stress axis : x y z
#
# Youngs Moduli (GPa) = 84.54285 50.58111 24.37371
#
# Poissons Ratio (x) = 0.04950 0.22951
# Poissons Ratio (y) = 0.08273 0.19193
# Poissons Ratio (z) = 0.79607 0.39831
#
# Static dielectric constant tensor:
#      x y z
#    x 4.412810 -0.149920 -0.913780 
#    y -0.149920 3.900000 -0.104180 
#    z -0.913780 -0.104180 3.714990 
# 
# 
# High freq. dielectric constant tensor:
#      x y z
#    x 1.843310 -0.010130 -0.063090 
#    y -0.010130 1.852390 -0.015210 
#    z -0.063090 -0.015210 1.813840 
# 
# From -- ./inp_files/450374.got.cif
#   From: 2010.06.25/outbox.cif.g09.slc.cpg/sg2_226_cif.got.tgz:450374.got - 2010.06.27 13:26:56.
