data_PCOD8029917
_publ_section_title
;
Structure prediction by ZEFSAII (Michael W. Deem and Ramdas Pophale) SiO2 
 PCOD8029917
Probable space group: P -1
;
_chemical_formula_sum "Si O2"
_cell_formula_units_Z 16
_cell_length_a 26.990817
_cell_length_b 11.538162
_cell_length_c 21.902428
_cell_angle_alpha 146.840642
_cell_angle_beta 168.262373
_cell_angle_gamma 31.570482
_cell_volume 726.184918
_symmetry_space_group_name_H-M "P -1"
_symmetry_group_IT_number 2
_symmetry_cell_setting 'triclinic'
loop_
_space_group_symop_operation_xyz
x,y,z
-x,-y,-z
loop_
_atom_site_type_symbol
_atom_site_label
_atom_site_fract_x
_atom_site_fract_y
_atom_site_fract_z
Si Si1 0.477875 0.239700 0.603804
Si Si2 0.790784 0.053690 0.106183
Si Si3 0.725059 0.042709 0.428236
Si Si4 0.733077 0.133828 0.210326
Si Si5 0.062065 0.154791 0.278911
Si Si6 0.380306 0.372773 0.678144
Si Si7 0.459333 0.748329 0.539032
Si Si8 0.278104 0.480600 0.352188
O O1 0.342192 0.287818 0.526948
O O2 0.306246 0.425190 0.433303
O O3 0.500000 0.000000 0.500000
O O4 0.762229 0.257250 0.959057
O O5 0.763248 0.163090 0.187503
O O6 0.658139 0.238950 0.978489
O O7 0.084618 0.964466 0.401851
O O8 0.656219 0.856948 0.858498
O O9 0.656674 0.290559 0.482898
O O10 0.848692 0.865110 0.551717
O O11 0.471429 0.995460 0.076762
O O12 0.641845 0.370048 0.237114
O O13 0.000000 0.000000 0.500000
O O14 0.170663 0.329775 0.451685
O O15 0.172118 0.909389 0.272391
O O16 0.500000 0.500000 0.500000
O O17 0.524395 0.725460 0.535245
O O18 0.000000 0.500000 0.000000
#
# Coordination Sequence:
#
# PCOD8029917 Si02
#       8
#     2   2   2   2   2   2   2   2
#     4  12  27  46  72 107 145 183 239 297 350 436
#     4  11  23  45  73 100 140 184 244 291 354 423
#     4  12  24  45  75 102 141 191 239 296 357 420
#     4  12  29  47  69 105 146 187 244 297 353 429
#     4  11  24  46  72 104 139 183 245 289 360 429
#     4  11  26  48  73 101 139 190 237 297 358 415
#     4  11  21  40  73 103 142 190 230 289 360 425
#     4  12  25  43  71 106 147 187 231 290 361 428
#
# _framework density 22.032954
#
# number of rings (size 3 to 8) (size 9 to 14) (size 15 to 20)
#    0.000    0.500    6.250    2.625    3.500    4.000 
#    0.000    0.000    0.000    0.000    0.000    0.000 
#    0.000    0.000    0.000    0.000    0.000    0.000 
#
# Total GULP energy -198443.715831 kJ/mol
# GULP energy per Si atom -12402.732239 kJ/mol
# Density = 2.198281 g / cm^3
# Si number density = 22.032954 Si / 1000 Ang^3
#
#
#
# Elastic Constant Matrix: (Units=GPa)
#
#
# Indices 1 2 3 4 5 6 
#
# 1 111.3625 21.1038 28.9428 3.4851 -11.9713 -1.1158
# 2 21.1038 118.5081 52.9099 16.7708 -9.6496 0.9569
# 3 28.9428 52.9099 131.3300 3.0107 -1.3729 13.7558
# 4 3.4851 16.7708 3.0107 37.7045 1.1109 -5.9910
# 5 -11.9713 -9.6496 -1.3729 1.1109 37.6828 -4.1664
# 6 -1.1158 0.9569 13.7558 -5.9910 -4.1664 40.2290
#
#
#
# Elastic Compliance Matrix: (Units=1/GPa)
#
#
# Indices 1 2 3 4 5 6 
#
# 1 0.009981 -0.000556 -0.002066 -0.000402 0.003104 0.001258
# 2 -0.000556 0.011382 -0.004415 -0.004610 0.002805 0.000827
# 3 -0.002066 -0.004415 0.010176 0.000840 -0.001827 -0.003496
# 4 -0.000402 -0.004610 0.000840 0.029226 -0.001698 0.003988
# 5 0.003104 0.002805 -0.001827 -0.001698 0.028596 0.003353
# 6 0.001258 0.000827 -0.003496 0.003988 0.003353 0.027009
#
#
# Mechanical properties :
#
#
# Convention : Reuss Voigt Hill
#
# Bulk Modulus (GPa) = 57.25195 63.01264 60.13230
# Shear Modulus (GPa) = 36.69296 40.33953 38.51624
#
# Velocity S-wave (km/s) = 4.08532 4.28351 4.18559
# Velocity P-wave (km/s) = 6.94940 7.28876 7.12110
#
# Compressibility (1/GPa) = 0.01746665
#
# Stress axis : x y z
#
# Youngs Moduli (GPa) = 100.19278 87.85491 98.26873
#
# Poissons Ratio (x) = 0.04880 0.20301
# Poissons Ratio (y) = 0.05566 0.43385
# Poissons Ratio (z) = 0.20699 0.38787
#
# Static dielectric constant tensor:
#      x y z
#    x 4.500150 -0.178930 -0.048690 
#    y -0.178930 4.056630 -0.045860 
#    z -0.048690 -0.045860 4.029310 
# 
# 
# High freq. dielectric constant tensor:
#      x y z
#    x 1.880190 -0.003120 0.009410 
#    y -0.003120 1.864980 0.001500 
#    z 0.009410 0.001500 1.858390 
# 
# From -- ./inp_files/357078.got.cif
#   From: 2010.06.25/outbox.cif.g09.slc.cpg/sg2_179_cif.got.tgz:357078.got - 2010.06.27 13:26:56.
