data_PCOD8029034
_publ_section_title
;
Structure prediction by ZEFSAII (Michael W. Deem and Ramdas Pophale) SiO2 
 PCOD8029034
Probable space group: P -1
;
_chemical_formula_sum "Si O2"
_cell_formula_units_Z 12
_cell_length_a 9.146555
_cell_length_b 11.927718
_cell_length_c 19.517065
_cell_angle_alpha 150.240536
_cell_angle_beta 50.270817
_cell_angle_gamma 140.040302
_cell_volume 676.475469
_symmetry_space_group_name_H-M "P -1"
_symmetry_group_IT_number 2
_symmetry_cell_setting 'triclinic'
loop_
_space_group_symop_operation_xyz
x,y,z
-x,-y,-z
loop_
_atom_site_type_symbol
_atom_site_label
_atom_site_fract_x
_atom_site_fract_y
_atom_site_fract_z
Si Si1 0.395129 0.791916 0.194729
Si Si2 0.819904 0.083478 0.851999
Si Si3 0.449212 0.681807 0.657268
Si Si4 0.791240 0.527257 0.147835
Si Si5 0.709648 0.694512 0.129653
Si Si6 0.942568 0.709901 0.342728
O O1 0.573522 0.825616 0.217166
O O2 0.170757 0.722049 0.265223
O O3 0.521898 0.073220 0.265141
O O4 0.339573 0.549809 0.033427
O O5 0.939286 0.280511 0.853684
O O6 0.015093 0.074591 0.831113
O O7 0.621642 0.790241 0.728262
O O8 0.714373 0.214049 0.999925
O O9 0.500000 0.500000 0.500000
O O10 0.191180 0.499387 0.666188
O O11 0.640798 0.580687 0.168536
O O12 0.774224 0.605362 0.271633
O O13 0.000000 0.000000 0.500000
#
# Coordination Sequence:
#
# PCOD8029034 Si02
#       6
#     2   2   2   2   2   2
#     4  11  19  40  57  90 116 148 186 225 300 327
#     4   9  15  35  58  85 106 147 190 227 278 329
#     4  12  22  36  61  82 111 153 197 235 275 340
#     4   9  15  35  58  85 106 147 190 227 278 329
#     4   9  18  35  68  79 122 148 170 250 283 334
#     4  12  22  36  61  82 111 153 197 235 275 340
#
# _framework density 17.739001999999999
#
# number of rings (size 3 to 8) (size 9 to 14) (size 15 to 20)
#    1.000    0.667    6.667    0.000    0.000    0.667 
#    0.000    6.667    0.000    0.000    0.000    0.000 
#    0.000    0.000    0.000    0.000    0.000    0.000 
#
# Total GULP energy -148692.591778 kJ/mol
# GULP energy per Si atom -12391.049315 kJ/mol
# Density = 1.769863 g / cm^3
# Si number density = 17.739002 Si / 1000 Ang^3
#
#
#
# Elastic Constant Matrix: (Units=GPa)
#
#
# Indices 1 2 3 4 5 6 
#
# 1 143.1249 45.6220 50.5287 0.0445 -2.6011 0.8850
# 2 45.6220 113.9442 39.4094 -1.7146 -8.4657 0.1663
# 3 50.5287 39.4094 122.0064 2.2824 10.1896 -0.1343
# 4 0.0445 -1.7146 2.2824 22.8057 0.6488 8.2720
# 5 -2.6011 -8.4657 10.1896 0.6488 23.3647 0.7043
# 6 0.8850 0.1663 -0.1343 8.2720 0.7043 10.8377
#
#
#
# Elastic Compliance Matrix: (Units=1/GPa)
#
#
# Indices 1 2 3 4 5 6 
#
# 1 0.008848 -0.002376 -0.003030 0.000501 0.001468 -0.001202
# 2 -0.002376 0.011207 -0.003097 0.001574 0.005150 -0.001552
# 3 -0.003030 -0.003097 0.011016 -0.002012 -0.006280 0.002376
# 4 0.000501 0.001574 -0.002012 0.061113 0.001218 -0.046814
# 5 0.001468 0.005150 -0.006280 0.001218 0.047663 -0.004303
# 6 -0.001202 -0.001552 0.002376 -0.046814 -0.004303 0.128432
#
#
# Mechanical properties :
#
#
# Convention : Reuss Voigt Hill
#
# Bulk Modulus (GPa) = 71.10073 72.24395 71.67234
# Shear Modulus (GPa) = 17.24280 27.63599 22.43940
#
# Velocity S-wave (km/s) = 3.12112 3.95134 3.56051
# Velocity P-wave (km/s) = 7.29089 7.85060 7.57591
#
# Compressibility (1/GPa) = 0.01406455
#
# Stress axis : x y z
#
# Youngs Moduli (GPa) = 113.01902 89.22611 90.77392
#
# Poissons Ratio (x) = 0.21203 0.27506
# Poissons Ratio (y) = 0.26857 0.28115
# Poissons Ratio (z) = 0.34246 0.27636
#
# Static dielectric constant tensor:
#      x y z
#    x 3.439860 0.012190 0.166230 
#    y 0.012190 3.291750 0.000240 
#    z 0.166230 0.000240 3.256430 
# 
# 
# High freq. dielectric constant tensor:
#      x y z
#    x 1.674600 0.001300 0.018340 
#    y 0.001300 1.663180 0.001590 
#    z 0.018340 0.001590 1.686900 
# 
# From -- ./inp_files/261318.got.cif
#   From: 2010.06.25/outbox.cif.g09.slc.cpg/sg2_131_cif.got.tgz:261318.got - 2010.06.27 13:26:56.
