data_PCOD8029426
_publ_section_title
;
Structure prediction by ZEFSAII (Michael W. Deem and Ramdas Pophale) SiO2 
 PCOD8029426
Probable space group: P -1
;
_chemical_formula_sum "Si O2"
_cell_formula_units_Z 16
_cell_length_a 15.255309
_cell_length_b 15.091649
_cell_length_c 8.922810
_cell_angle_alpha 91.819094
_cell_angle_beta 108.740469
_cell_angle_gamma 26.912559
_cell_volume 708.153352
_symmetry_space_group_name_H-M "P -1"
_symmetry_group_IT_number 2
_symmetry_cell_setting 'triclinic'
loop_
_space_group_symop_operation_xyz
x,y,z
-x,-y,-z
loop_
_atom_site_type_symbol
_atom_site_label
_atom_site_fract_x
_atom_site_fract_y
_atom_site_fract_z
Si Si1 0.221392 0.370388 0.569747
Si Si2 0.384789 0.608104 0.109766
Si Si3 0.780398 0.070997 0.055487
Si Si4 0.217265 0.402986 0.222119
Si Si5 0.101828 0.812392 0.509604
Si Si6 0.627243 0.891591 0.901546
Si Si7 0.188420 0.575376 0.745323
Si Si8 0.117665 0.663215 0.031768
O O1 0.268268 0.342409 0.419739
O O2 0.149137 0.527780 0.613087
O O3 0.000000 0.500000 0.500000
O O4 0.489549 0.094675 0.755310
O O5 0.591975 0.451486 0.341971
O O6 0.277918 0.610100 0.102889
O O7 0.500000 0.500000 0.000000
O O8 0.174591 0.874149 0.999215
O O9 0.482525 0.327841 0.940898
O O10 0.967078 0.897448 0.291130
O O11 0.853557 0.924273 0.980343
O O12 0.397096 0.178944 0.207752
O O13 0.277127 0.450252 0.206507
O O14 0.920459 0.652820 0.048641
O O15 0.053472 0.781920 0.610341
O O16 0.000000 0.000000 0.500000
O O17 0.500000 0.000000 0.000000
O O18 0.049788 0.681690 0.833539
#
# Coordination Sequence:
#
# PCOD8029426 Si02
#       8
#     2   2   2   2   2   2   2   2
#     4  12  25  48  73 101 139 185 233 291 355 418
#     4  11  21  43  66  98 139 181 226 277 341 408
#     4  11  23  43  69  96 137 182 230 278 342 405
#     4  11  26  44  70 107 134 177 237 283 352 421
#     4  11  20  41  71  97 133 182 227 274 338 408
#     4  11  23  48  74  97 140 181 223 293 354 414
#     4  11  25  45  66  99 142 177 231 287 341 411
#     4  12  23  43  69  99 140 179 226 286 341 408
#
# _framework density 22.593975
#
# number of rings (size 3 to 8) (size 9 to 14) (size 15 to 20)
#    0.000    0.750    5.000    3.000    1.750    0.500 
#    6.750    6.250    0.000    0.000    0.000    0.000 
#    0.000    0.000    0.000    0.000    0.000    0.000 
#
# Total GULP energy -198312.346998 kJ/mol
# GULP energy per Si atom -12394.521687 kJ/mol
# Density = 2.254255 g / cm^3
# Si number density = 22.593975 Si / 1000 Ang^3
#
#
#
# Elastic Constant Matrix: (Units=GPa)
#
#
# Indices 1 2 3 4 5 6 
#
# 1 114.8578 34.8794 40.5046 14.9395 -32.8636 21.3542
# 2 34.8794 140.7423 54.7876 30.7386 -25.3279 23.3868
# 3 40.5046 54.7876 144.6416 11.3355 -28.9366 3.5869
# 4 14.9395 30.7386 11.3355 37.8835 3.0840 -1.5021
# 5 -32.8636 -25.3279 -28.9366 3.0840 44.4189 -3.3839
# 6 21.3542 23.3868 3.5869 -1.5021 -3.3839 37.2936
#
#
#
# Elastic Compliance Matrix: (Units=1/GPa)
#
#
# Indices 1 2 3 4 5 6 
#
# 1 0.014473 0.002400 -0.001949 -0.008298 0.010700 -0.008968
# 2 0.002400 0.013044 -0.003005 -0.011590 0.007370 -0.009063
# 3 -0.001949 -0.003005 0.009098 0.000342 0.002931 0.002405
# 4 -0.008298 -0.011590 0.000342 0.040633 -0.014409 0.012316
# 5 0.010700 0.007370 0.002931 -0.014409 0.036912 -0.008261
# 6 -0.008968 -0.009063 0.002405 0.012316 -0.008261 0.037148
#
#
# Mechanical properties :
#
#
# Convention : Reuss Voigt Hill
#
# Bulk Modulus (GPa) = 31.73963 73.39832 52.56898
# Shear Modulus (GPa) = 29.95489 41.92387 35.93938
#
# Velocity S-wave (km/s) = 3.64509 4.31226 3.99264
# Velocity P-wave (km/s) = 5.63861 7.57301 6.67624
#
# Compressibility (1/GPa) = 0.03150635
#
# Stress axis : x y z
#
# Youngs Moduli (GPa) = 69.09402 76.66371 109.91883
#
# Poissons Ratio (x) = -0.18399 0.21420
# Poissons Ratio (y) = -0.16582 0.33035
# Poissons Ratio (z) = 0.13464 0.23041
#
# Static dielectric constant tensor:
#      x y z
#    x 4.254440 0.319830 -0.168930 
#    y 0.319830 4.351950 -0.024160 
#    z -0.168930 -0.024160 4.275620 
# 
# 
# High freq. dielectric constant tensor:
#      x y z
#    x 1.899260 0.019810 -0.012800 
#    y 0.019810 1.898220 0.002000 
#    z -0.012800 0.002000 1.891020 
# 
# From -- ./inp_files/315285.got.cif
#   From: 2010.06.25/outbox.cif.g09.slc.cpg/sg2_158_cif.got.tgz:315285.got - 2010.06.27 13:26:56.
