data_PCOD8029438
_publ_section_title
;
Structure prediction by ZEFSAII (Michael W. Deem and Ramdas Pophale) SiO2 
 PCOD8029438
Probable space group: P -1
;
_chemical_formula_sum "Si O2"
_cell_formula_units_Z 14
_cell_length_a 13.365606
_cell_length_b 8.606352
_cell_length_c 13.138652
_cell_angle_alpha 131.765628
_cell_angle_beta 31.679862
_cell_angle_gamma 111.696754
_cell_volume 511.567435
_symmetry_space_group_name_H-M "P -1"
_symmetry_group_IT_number 2
_symmetry_cell_setting 'triclinic'
loop_
_space_group_symop_operation_xyz
x,y,z
-x,-y,-z
loop_
_atom_site_type_symbol
_atom_site_label
_atom_site_fract_x
_atom_site_fract_y
_atom_site_fract_z
Si Si1 0.218465 0.606879 0.556127
Si Si2 0.582402 0.809059 0.934321
Si Si3 0.831437 0.230140 0.683685
Si Si4 0.199093 0.339974 0.980219
Si Si5 0.484017 0.064023 0.332177
Si Si6 0.920350 0.995764 0.304675
Si Si7 0.639902 0.481013 0.260319
O O1 0.213111 0.433081 0.395450
O O2 0.456720 0.471181 0.344553
O O3 0.033611 0.653319 0.819896
O O4 0.164660 0.863394 0.667008
O O5 0.411336 0.727206 0.079832
O O6 0.500000 0.000000 0.000000
O O7 0.626100 0.925879 0.048254
O O8 0.819467 0.469352 0.837354
O O9 0.915812 0.182917 0.473909
O O10 0.000000 0.000000 0.500000
O O11 0.247248 0.397058 0.851273
O O12 0.388018 0.078473 0.739963
O O13 0.239176 0.100318 0.558228
O O14 0.463227 0.331551 0.472020
O O15 0.170818 0.780551 0.981630
#
# Coordination Sequence:
#
# PCOD8029438 Si02
#       7
#     2   2   2   2   2   2   2
#     4  12  27  47  79 114 150 197 257 311 372 447
#     4  11  24  45  77 114 150 193 256 315 372 444
#     4  11  20  41  73 109 146 195 247 311 370 437
#     4  12  25  46  80 110 153 200 250 309 379 445
#     4  11  26  48  79 110 152 203 251 310 381 449
#     4  11  24  47  78 110 150 200 255 308 378 447
#     4  12  26  53  77 108 160 201 246 310 379 454
#
# _framework density 27.366872000000001
#
# number of rings (size 3 to 8) (size 9 to 14) (size 15 to 20)
#    0.000    0.571    4.286    2.571    2.000    7.429 
#    0.000    1.429    0.000    0.000    0.000    0.000 
#    0.000    0.000    0.000    0.000    0.000    0.000 
#
# Total GULP energy -173665.032113 kJ/mol
# GULP energy per Si atom -12404.645151 kJ/mol
# Density = 2.730458 g / cm^3
# Si number density = 27.366872 Si / 1000 Ang^3
#
#
#
# Elastic Constant Matrix: (Units=GPa)
#
#
# Indices 1 2 3 4 5 6 
#
# 1 95.4829 6.4522 35.3739 12.7226 12.8885 -2.0253
# 2 6.4522 57.1809 9.3555 14.3489 -5.0737 -3.8754
# 3 35.3739 9.3555 126.4745 8.5576 -9.1561 -0.3568
# 4 12.7226 14.3489 8.5576 55.3788 -3.7056 2.8083
# 5 12.8885 -5.0737 -9.1561 -3.7056 43.5207 11.4049
# 6 -2.0253 -3.8754 -0.3568 2.8083 11.4049 40.1662
#
#
#
# Elastic Compliance Matrix: (Units=1/GPa)
#
#
# Indices 1 2 3 4 5 6 
#
# 1 0.013107 -0.000488 -0.003840 -0.002786 -0.005603 0.002365
# 2 -0.000488 0.019102 -0.000857 -0.004705 0.001329 0.001762
# 3 -0.003840 -0.000857 0.009282 -0.000054 0.003279 -0.001121
# 4 -0.002786 -0.004705 -0.000054 0.020248 0.002718 -0.002782
# 5 -0.005603 0.001329 0.003279 0.002718 0.027870 -0.008229
# 6 0.002365 0.001762 -0.001121 -0.002782 -0.008229 0.027707
#
#
# Mechanical properties :
#
#
# Convention : Reuss Voigt Hill
#
# Bulk Modulus (GPa) = 32.13412 42.38905 37.26158
# Shear Modulus (GPa) = 36.21644 43.01024 39.61334
#
# Velocity S-wave (km/s) = 3.64176 3.96866 3.80872
# Velocity P-wave (km/s) = 5.42685 6.04344 5.74343
#
# Compressibility (1/GPa) = 0.03111957
#
# Stress axis : x y z
#
# Youngs Moduli (GPa) = 76.29799 52.35128 107.73467
#
# Poissons Ratio (x) = 0.02557 0.41372
# Poissons Ratio (y) = 0.03726 0.09231
# Poissons Ratio (z) = 0.29299 0.04486
#
# Static dielectric constant tensor:
#      x y z
#    x 4.951110 0.043790 0.379430 
#    y 0.043790 4.917700 -0.184600 
#    z 0.379430 -0.184600 5.193630 
# 
# 
# High freq. dielectric constant tensor:
#      x y z
#    x 2.096900 -0.000610 0.014170 
#    y -0.000610 2.117500 -0.002380 
#    z 0.014170 -0.002380 2.116240 
# 
# From -- ./inp_files/530087.got.cif
#   From: 2010.06.25/outbox.cif.g09.slc.cpg/sg2_266_cif.got.tgz:530087.got - 2010.06.27 13:26:56.
