data_PCOD8029453
_publ_section_title
;
Structure prediction by ZEFSAII (Michael W. Deem and Ramdas Pophale) SiO2 
 PCOD8029453
Probable space group: P -1
;
_chemical_formula_sum "Si O2"
_cell_formula_units_Z 16
_cell_length_a 22.020628
_cell_length_b 15.336935
_cell_length_c 8.787963
_cell_angle_alpha 50.848687
_cell_angle_beta 127.099872
_cell_angle_gamma 160.854001
_cell_volume 754.600391
_symmetry_space_group_name_H-M "P -1"
_symmetry_group_IT_number 2
_symmetry_cell_setting 'triclinic'
loop_
_space_group_symop_operation_xyz
x,y,z
-x,-y,-z
loop_
_atom_site_type_symbol
_atom_site_label
_atom_site_fract_x
_atom_site_fract_y
_atom_site_fract_z
Si Si1 0.253236 0.614090 0.808366
Si Si2 0.851055 0.138308 0.809276
Si Si3 0.150870 0.083830 0.429858
Si Si4 0.691169 0.716781 0.869924
Si Si5 0.577917 0.927457 0.475017
Si Si6 0.765109 0.581325 0.271552
Si Si7 0.423972 0.652887 0.222469
Si Si8 0.680603 0.862167 0.155230
O O1 0.206776 0.484948 0.726607
O O2 0.070193 0.427501 0.801569
O O3 0.401548 0.910631 0.668409
O O4 0.336901 0.648214 0.027615
O O5 0.754513 0.889494 0.901181
O O6 0.770561 0.128654 0.592903
O O7 0.802086 0.095300 0.959939
O O8 0.221372 0.127932 0.328982
O O9 0.259970 0.344343 0.348118
O O10 0.181292 0.031297 0.661239
O O11 0.931808 0.812107 0.390166
O O12 0.469283 0.418557 0.847951
O O13 0.766516 0.694597 0.046944
O O14 0.424971 0.683975 0.633093
O O15 0.527810 0.819011 0.351482
O O16 0.573521 0.805686 0.162357
#
# Coordination Sequence:
#
# PCOD8029453 Si02
#       8
#     2   2   2   2   2   2   2   2
#     4  12  25  47  68  92 134 177 225 267 313 388
#     4  12  24  42  69 100 130 167 227 269 326 388
#     4  11  22  39  68 101 132 166 206 276 335 380
#     4  11  20  42  67  99 132 171 208 278 335 386
#     4  12  27  45  67  95 132 183 219 264 320 391
#     4  12  24  43  69  98 131 173 221 268 328 387
#     4  11  24  45  66  97 135 171 217 268 333 388
#     4  11  23  40  66 100 136 167 207 269 341 391
#
# _framework density 21.203275000000001
#
# number of rings (size 3 to 8) (size 9 to 14) (size 15 to 20)
#    0.000    0.500    5.000    5.625    3.500    0.500 
#    0.000    0.625    0.000    0.000    0.000    0.000 
#    0.000    0.000    0.000    0.000    0.000    0.000 
#
# Total GULP energy -198504.770553 kJ/mol
# GULP energy per Si atom -12406.548160 kJ/mol
# Density = 2.115501 g / cm^3
# Si number density = 21.203275 Si / 1000 Ang^3
#
#
#
# Elastic Constant Matrix: (Units=GPa)
#
#
# Indices 1 2 3 4 5 6 
#
# 1 58.5250 21.4167 37.2724 -7.4445 4.4555 -4.7695
# 2 21.4167 55.2937 46.3178 14.7891 1.7005 3.8849
# 3 37.2724 46.3178 131.7067 24.7954 10.6178 -5.9776
# 4 -7.4445 14.7891 24.7954 30.7506 4.1190 3.0160
# 5 4.4555 1.7005 10.6178 4.1190 27.8813 3.4052
# 6 -4.7695 3.8849 -5.9776 3.0160 3.4052 28.6699
#
#
#
# Elastic Compliance Matrix: (Units=1/GPa)
#
#
# Indices 1 2 3 4 5 6 
#
# 1 0.028095 -0.009398 -0.007500 0.017614 -0.004030 0.003009
# 2 -0.009398 0.030690 -0.006595 -0.011711 0.004656 -0.006418
# 3 -0.007500 -0.006595 0.014380 -0.010255 -0.002856 0.004062
# 4 0.017614 -0.011711 -0.010255 0.051661 -0.005535 -0.002398
# 5 -0.004030 0.004656 -0.002856 -0.005535 0.038856 -0.005930
# 6 0.003009 -0.006418 0.004062 -0.002398 -0.005930 0.038054
#
#
# Mechanical properties :
#
#
# Convention : Reuss Voigt Hill
#
# Bulk Modulus (GPa) = 38.19976 50.61547 44.40762
# Shear Modulus (GPa) = 19.42140 26.82827 23.12483
#
# Velocity S-wave (km/s) = 3.02977 3.56095 3.30604
# Velocity P-wave (km/s) = 5.50404 6.38987 5.96343
#
# Compressibility (1/GPa) = 0.02617817
#
# Stress axis : x y z
#
# Youngs Moduli (GPa) = 35.59358 32.58410 69.54221
#
# Poissons Ratio (x) = 0.30621 0.52159
# Poissons Ratio (y) = 0.33449 0.45864
# Poissons Ratio (z) = 0.26697 0.21490
#
# Static dielectric constant tensor:
#      x y z
#    x 3.764480 0.028170 -0.057500 
#    y 0.028170 3.832290 0.115160 
#    z -0.057500 0.115160 3.906140 
# 
# 
# High freq. dielectric constant tensor:
#      x y z
#    x 1.829090 0.008210 -0.003970 
#    y 0.008210 1.827190 0.010590 
#    z -0.003970 0.010590 1.844030 
# 
# From -- ./inp_files/185354.got.cif
#   From: 2010.06.25/outbox.cif.g09.slc.cpg/sg2_93_cif.got.tgz:185354.got - 2010.06.27 13:26:56.
