data_PCOD8029423
_publ_section_title
;
Structure prediction by ZEFSAII (Michael W. Deem and Ramdas Pophale) SiO2 
 PCOD8029423
Probable space group: P -1
;
_chemical_formula_sum "Si O2"
_cell_formula_units_Z 16
_cell_length_a 22.252472
_cell_length_b 17.703527
_cell_length_c 13.666386
_cell_angle_alpha 32.140433
_cell_angle_beta 158.243355
_cell_angle_gamma 158.651610
_cell_volume 719.768392
_symmetry_space_group_name_H-M "P -1"
_symmetry_group_IT_number 2
_symmetry_cell_setting 'triclinic'
loop_
_space_group_symop_operation_xyz
x,y,z
-x,-y,-z
loop_
_atom_site_type_symbol
_atom_site_label
_atom_site_fract_x
_atom_site_fract_y
_atom_site_fract_z
Si Si1 0.066409 0.473488 0.982019
Si Si2 0.643350 0.596829 0.010201
Si Si3 0.745561 0.415203 0.220014
Si Si4 0.908176 0.963323 0.719195
Si Si5 0.596005 0.053376 0.813210
Si Si6 0.722177 0.569431 0.815927
Si Si7 0.259767 0.888509 0.817316
Si Si8 0.520393 0.299488 0.496776
O O1 0.192355 0.502176 0.043635
O O2 0.218140 0.544729 0.231685
O O3 0.055200 0.636294 0.772585
O O4 0.813003 0.234664 0.871203
O O5 0.731929 0.503702 0.200839
O O6 0.500000 0.500000 0.000000
O O7 0.461248 0.556988 0.705784
O O8 0.869762 0.847409 0.087053
O O9 0.000000 0.500000 0.500000
O O10 0.559222 0.168299 0.229078
O O11 0.671604 0.464446 0.960633
O O12 0.936933 0.824448 0.869174
O O13 0.671664 0.788994 0.615500
O O14 0.861223 0.046533 0.473033
O O15 0.446812 0.102694 0.550745
O O16 0.679778 0.044241 0.052991
O O17 0.500000 0.500000 0.500000
O O18 0.500000 0.000000 0.000000
#
# Coordination Sequence:
#
# PCOD8029423 Si02
#       8
#     2   2   2   2   2   2   2   2
#     4  11  24  41  72 106 141 171 229 297 351 404
#     4  12  30  46  68 100 143 188 233 286 355 417
#     4  12  28  49  72 103 140 190 242 286 344 430
#     4  12  24  42  72  94 137 181 233 273 344 416
#     4  11  25  41  72 102 144 172 228 298 354 400
#     4  12  24  47  71 103 136 182 237 287 344 420
#     4  11  20  41  71 105 130 182 229 276 344 423
#     4  11  22  47  69 100 138 184 230 279 347 425
#
# _framework density 22.229372000000001
#
# number of rings (size 3 to 8) (size 9 to 14) (size 15 to 20)
#    0.000    0.500    5.000    4.125    8.750    0.000 
#    0.000    3.125    0.000    0.000    0.000    0.000 
#    0.000    0.000    0.000    0.000    0.000    0.000 
#
# Total GULP energy -198353.547584 kJ/mol
# GULP energy per Si atom -12397.096724 kJ/mol
# Density = 2.217878 g / cm^3
# Si number density = 22.229372 Si / 1000 Ang^3
#
#
#
# Elastic Constant Matrix: (Units=GPa)
#
#
# Indices 1 2 3 4 5 6 
#
# 1 101.6238 34.8945 25.7417 -9.8590 3.0752 -1.3519
# 2 34.8945 173.6004 30.8950 -1.0655 4.5398 -11.7565
# 3 25.7417 30.8950 72.1931 -16.9935 -0.8227 4.9974
# 4 -9.8590 -1.0655 -16.9935 35.7298 1.3371 2.5873
# 5 3.0752 4.5398 -0.8227 1.3371 18.7794 -8.1885
# 6 -1.3519 -11.7565 4.9974 2.5873 -8.1885 47.3844
#
#
#
# Elastic Compliance Matrix: (Units=1/GPa)
#
#
# Indices 1 2 3 4 5 6 
#
# 1 0.011396 -0.001729 -0.002908 0.001792 -0.001792 -0.000205
# 2 -0.001729 0.006742 -0.002817 -0.001736 -0.000506 0.001928
# 3 -0.002908 -0.002817 0.018193 0.007992 0.000019 -0.003134
# 4 0.001792 -0.001736 0.007992 0.032620 -0.003413 -0.003593
# 5 -0.001792 -0.000506 0.000019 -0.003413 0.058306 0.010084
# 6 -0.000205 0.001928 -0.003134 -0.003593 0.010084 0.023846
#
#
# Mechanical properties :
#
#
# Convention : Reuss Voigt Hill
#
# Bulk Modulus (GPa) = 46.67863 58.94219 52.81041
# Shear Modulus (GPa) = 28.87651 37.43780 33.15716
#
# Velocity S-wave (km/s) = 3.60811 4.10830 3.86630
# Velocity P-wave (km/s) = 6.19695 7.00551 6.61360
#
# Compressibility (1/GPa) = 0.02142308
#
# Stress axis : x y z
#
# Youngs Moduli (GPa) = 87.75112 148.31636 54.96769
#
# Poissons Ratio (x) = 0.25646 0.15984
# Poissons Ratio (y) = 0.15173 0.15483
# Poissons Ratio (z) = 0.25517 0.41778
#
# Static dielectric constant tensor:
#      x y z
#    x 3.885000 -0.451780 0.187890 
#    y -0.451780 3.727130 0.291490 
#    z 0.187890 0.291490 3.681950 
# 
# 
# High freq. dielectric constant tensor:
#      x y z
#    x 1.876040 -0.004790 -0.003990 
#    y -0.004790 1.888500 -0.015520 
#    z -0.003990 -0.015520 1.868400 
# 
# From -- ./inp_files/543167.got.cif
#   From: 2010.06.25/outbox.cif.g09.slc.cpg/sg2_272_cif.got.tgz:543167.got - 2010.06.27 13:26:56.
