data_PCOD8029676
_publ_section_title
;
Structure prediction by ZEFSAII (Michael W. Deem and Ramdas Pophale) SiO2 
 PCOD8029676
Probable space group: P -1
;
_chemical_formula_sum "Si O2"
_cell_formula_units_Z 16
_cell_length_a 7.466785
_cell_length_b 11.554567
_cell_length_c 11.820291
_cell_angle_alpha 51.791607
_cell_angle_beta 58.946768
_cell_angle_gamma 84.243254
_cell_volume 649.228555
_symmetry_space_group_name_H-M "P -1"
_symmetry_group_IT_number 2
_symmetry_cell_setting 'triclinic'
loop_
_space_group_symop_operation_xyz
x,y,z
-x,-y,-z
loop_
_atom_site_type_symbol
_atom_site_label
_atom_site_fract_x
_atom_site_fract_y
_atom_site_fract_z
Si Si1 0.963800 0.121768 0.523472
Si Si2 0.674483 0.365775 0.943736
Si Si3 0.636136 0.035836 0.048702
Si Si4 0.938889 0.951445 0.853226
Si Si5 0.079621 0.610678 0.747583
Si Si6 0.446883 0.221138 0.322053
Si Si7 0.542071 0.934611 0.373759
Si Si8 0.252520 0.385504 0.955188
O O1 0.814270 0.224339 0.457790
O O2 0.208694 0.246912 0.390046
O O3 0.000000 0.000000 0.500000
O O4 0.851877 0.031824 0.727253
O O5 0.672694 0.206568 0.983105
O O6 0.920985 0.486965 0.785932
O O7 0.498883 0.430678 0.899004
O O8 0.617002 0.347609 0.109406
O O9 0.876594 0.024036 0.944613
O O10 0.500000 0.000000 0.000000
O O11 0.521039 0.908476 0.260594
O O12 0.802302 0.768032 0.010759
O O13 0.196986 0.979897 0.738595
O O14 0.254217 0.534834 0.789264
O O15 0.935000 0.656055 0.863277
O O16 0.538510 0.217755 0.423945
O O17 0.409176 0.050954 0.381583
#
# Coordination Sequence:
#
# PCOD8029676 Si02
#       8
#     2   2   2   2   2   2   2   2
#     4  11  21  38  61  91 132 165 209 264 318 380
#     4  11  21  41  64  91 133 169 213 263 320 388
#     4  11  22  38  63  92 128 171 221 260 312 379
#     4  11  21  40  64  93 126 170 218 266 312 377
#     4  11  24  38  61  97 132 173 202 265 333 382
#     4   9  18  35  57  91 123 163 198 261 325 364
#     4   9  20  34  58  92 127 159 208 265 315 371
#     4  11  21  38  62  97 130 161 214 259 327 390
#
# _framework density 24.644634
#
# number of rings (size 3 to 8) (size 9 to 14) (size 15 to 20)
#    0.000    1.500    3.750    2.250    1.750    0.000 
#    0.000    0.625    0.000    0.750    0.000    0.000 
#    0.000    0.000    0.000    0.000    0.000    0.000 
#
# Total GULP energy -198347.741189 kJ/mol
# GULP energy per Si atom -12396.733824 kJ/mol
# Density = 2.458854 g / cm^3
# Si number density = 24.644634 Si / 1000 Ang^3
#
#
#
# Elastic Constant Matrix: (Units=GPa)
#
#
# Indices 1 2 3 4 5 6 
#
# 1 136.3237 29.2107 47.4483 1.7234 45.1851 -11.9120
# 2 29.2107 113.3651 61.8074 2.5150 14.1389 -5.5674
# 3 47.4483 61.8074 144.2433 -7.8698 28.1131 -1.0949
# 4 1.7234 2.5150 -7.8698 43.7632 0.4206 3.6944
# 5 45.1851 14.1389 28.1131 0.4206 39.1527 1.9905
# 6 -11.9120 -5.5674 -1.0949 3.6944 1.9905 33.5751
#
#
#
# Elastic Compliance Matrix: (Units=1/GPa)
#
#
# Indices 1 2 3 4 5 6 
#
# 1 0.013144 -0.000607 -0.001294 -0.001041 -0.014288 0.005482
# 2 -0.000607 0.011793 -0.004912 -0.001686 -0.000103 0.001772
# 3 -0.001294 -0.004912 0.010396 0.002322 -0.004175 -0.000943
# 4 -0.001041 -0.001686 0.002322 0.023674 0.000050 -0.003181
# 5 -0.014288 -0.000103 -0.004175 0.000050 0.045468 -0.007924
# 6 0.005482 0.001772 -0.000943 -0.003181 -0.007924 0.032812
#
#
# Mechanical properties :
#
#
# Convention : Reuss Voigt Hill
#
# Bulk Modulus (GPa) = 46.06697 74.54054 60.30375
# Shear Modulus (GPa) = 31.61590 40.32924 35.97257
#
# Velocity S-wave (km/s) = 3.58561 4.04967 3.82468
# Velocity P-wave (km/s) = 5.98959 7.22345 6.63526
#
# Compressibility (1/GPa) = 0.02170753
#
# Stress axis : x y z
#
# Youngs Moduli (GPa) = 76.07997 84.79822 96.18790
#
# Poissons Ratio (x) = 0.05147 0.12446
# Poissons Ratio (y) = 0.04618 0.47246
# Poissons Ratio (z) = 0.09844 0.41652
#
# Static dielectric constant tensor:
#      x y z
#    x 5.309180 -0.131480 0.062920 
#    y -0.131480 4.405100 0.117860 
#    z 0.062920 0.117860 4.984600 
# 
# 
# High freq. dielectric constant tensor:
#      x y z
#    x 2.027390 0.002130 0.007020 
#    y 0.002130 1.951010 -0.022330 
#    z 0.007020 -0.022330 1.976400 
# 
# From -- ./inp_files/392014.got.cif
#   From: 2010.06.25/outbox.cif.g09.slc.cpg/sg2_197_cif.got.tgz:392014.got - 2010.06.27 13:26:56.
