data_PCOD8029353
_publ_section_title
;
Structure prediction by ZEFSAII (Michael W. Deem and Ramdas Pophale) SiO2 
 PCOD8029353
Probable space group: P -1
;
_chemical_formula_sum "Si O2"
_cell_formula_units_Z 14
_cell_length_a 12.458985
_cell_length_b 10.173955
_cell_length_c 12.842933
_cell_angle_alpha 60.535482
_cell_angle_beta 32.311734
_cell_angle_gamma 83.233695
_cell_volume 582.074931
_symmetry_space_group_name_H-M "P -1"
_symmetry_group_IT_number 2
_symmetry_cell_setting 'triclinic'
loop_
_space_group_symop_operation_xyz
x,y,z
-x,-y,-z
loop_
_atom_site_type_symbol
_atom_site_label
_atom_site_fract_x
_atom_site_fract_y
_atom_site_fract_z
Si Si1 0.377000 0.547509 0.669336
Si Si2 0.434317 0.827553 0.879355
Si Si3 0.905946 0.158689 0.708690
Si Si4 0.039047 0.574303 0.624248
Si Si5 0.283423 0.159512 0.161677
Si Si6 0.368418 0.435250 0.348486
Si Si7 0.177358 0.754785 0.666053
O O1 0.500000 0.500000 0.500000
O O2 0.570366 0.640429 0.573795
O O3 0.354741 0.709072 0.588031
O O4 0.087705 0.347394 0.012517
O O5 0.515213 0.807664 0.933826
O O6 0.664925 0.010538 0.549551
O O7 0.227874 0.857913 0.067436
O O8 0.268884 0.621229 0.032718
O O9 0.926417 0.294422 0.550015
O O10 0.205794 0.263565 0.459896
O O11 0.727689 0.934809 0.902118
O O12 0.216185 0.514675 0.475932
O O13 0.128623 0.694573 0.609344
O O14 0.354180 0.369042 0.001477
O O15 0.000000 0.000000 0.500000
#
# Coordination Sequence:
#
# PCOD8029353 Si02
#       7
#     2   2   2   2   2   2   2
#     4  11  25  46  70  89 129 177 222 273 319 380
#     4  11  21  40  64  98 128 165 216 255 325 393
#     4  11  22  38  65  97 134 172 199 259 336 387
#     4  11  20  40  69  96 133 168 206 267 326 390
#     4  12  23  34  59  95 132 166 209 264 318 392
#     4  11  22  41  62  95 130 167 216 262 323 385
#     4  11  24  44  70  94 127 177 216 270 327 366
#
# _framework density 24.051888999999999
#
# number of rings (size 3 to 8) (size 9 to 14) (size 15 to 20)
#    0.000    0.857    5.714    3.000    0.000    1.714 
#    0.000    7.143    0.000    0.000    0.000    0.000 
#    0.000    0.000    0.000    0.000    0.000    0.000 
#
# Total GULP energy -173561.427046 kJ/mol
# GULP energy per Si atom -12397.244789 kJ/mol
# Density = 2.399715 g / cm^3
# Si number density = 24.051889 Si / 1000 Ang^3
#
#
#
# Elastic Constant Matrix: (Units=GPa)
#
#
# Indices 1 2 3 4 5 6 
#
# 1 165.7557 28.1947 32.4890 -14.7571 -5.5673 -4.0681
# 2 28.1947 58.3284 20.0897 -21.2878 2.5042 6.6297
# 3 32.4890 20.0897 98.4488 -16.7463 9.2066 10.2813
# 4 -14.7571 -21.2878 -16.7463 40.1606 5.0611 -3.2406
# 5 -5.5673 2.5042 9.2066 5.0611 32.3789 -4.1061
# 6 -4.0681 6.6297 10.2813 -3.2406 -4.1061 18.4503
#
#
#
# Elastic Compliance Matrix: (Units=1/GPa)
#
#
# Indices 1 2 3 4 5 6 
#
# 1 0.007306 -0.003386 -0.002516 -0.000130 0.002868 0.004845
# 2 -0.003386 0.024289 -0.000556 0.011375 -0.005134 -0.008309
# 3 -0.002516 -0.000556 0.013265 0.004386 -0.005898 -0.008289
# 4 -0.000130 0.011375 0.004386 0.033487 -0.007687 -0.002389
# 5 0.002868 -0.005134 -0.005898 -0.007687 0.036236 0.012478
# 6 0.004845 -0.008309 -0.008289 -0.002389 0.012478 0.065230
#
#
# Mechanical properties :
#
#
# Convention : Reuss Voigt Hill
#
# Bulk Modulus (GPa) = 31.30650 53.78665 42.54658
# Shear Modulus (GPa) = 24.58492 34.31526 29.45009
#
# Velocity S-wave (km/s) = 3.20059 3.78129 3.50300
# Velocity P-wave (km/s) = 5.16748 6.44015 5.83860
#
# Compressibility (1/GPa) = 0.03194224
#
# Stress axis : x y z
#
# Youngs Moduli (GPa) = 136.87652 41.17075 75.38752
#
# Poissons Ratio (x) = 0.13941 0.18971
# Poissons Ratio (y) = 0.46349 0.04193
# Poissons Ratio (z) = 0.34444 0.02290
#
# Static dielectric constant tensor:
#      x y z
#    x 4.351540 -0.290490 -0.140890 
#    y -0.290490 4.069080 0.262330 
#    z -0.140890 0.262330 4.556830 
# 
# 
# High freq. dielectric constant tensor:
#      x y z
#    x 1.953710 -0.001140 -0.020760 
#    y -0.001140 1.947230 0.003250 
#    z -0.020760 0.003250 1.967750 
# 
# From -- ./inp_files/203883.got.cif
#   From: 2010.06.25/outbox.cif.g09.slc.cpg/sg2_102_cif.got.tgz:203883.got - 2010.06.27 13:26:56.
