data_PCOD8029348
_publ_section_title
;
Structure prediction by ZEFSAII (Michael W. Deem and Ramdas Pophale) SiO2 
 PCOD8029348
Probable space group: P -1
;
_chemical_formula_sum "Si O2"
_cell_formula_units_Z 16
_cell_length_a 14.615323
_cell_length_b 10.264448
_cell_length_c 9.254845
_cell_angle_alpha 75.577213
_cell_angle_beta 62.920814
_cell_angle_gamma 125.583886
_cell_volume 708.188743
_symmetry_space_group_name_H-M "P -1"
_symmetry_group_IT_number 2
_symmetry_cell_setting 'triclinic'
loop_
_space_group_symop_operation_xyz
x,y,z
-x,-y,-z
loop_
_atom_site_type_symbol
_atom_site_label
_atom_site_fract_x
_atom_site_fract_y
_atom_site_fract_z
Si Si1 0.524176 0.119984 0.590467
Si Si2 0.188783 0.194939 0.071045
Si Si3 0.304277 0.117668 0.236102
Si Si4 0.814042 0.287695 0.532307
Si Si5 0.208653 0.718036 0.113155
Si Si6 0.803574 0.763711 0.522096
Si Si7 0.351926 0.451435 0.611197
Si Si8 0.314893 0.541754 0.081453
O O1 0.673957 0.210597 0.553588
O O2 0.585493 0.334379 0.442398
O O3 0.500000 0.000000 0.500000
O O4 0.344830 0.952179 0.858493
O O5 0.241195 0.105193 0.127055
O O6 0.318143 0.442898 0.973237
O O7 0.204825 0.228053 0.879105
O O8 0.992531 0.024903 0.296555
O O9 0.312746 0.245777 0.312962
O O10 0.179266 0.866813 0.452338
O O11 0.493324 0.251215 0.044446
O O12 0.755852 0.249277 0.750289
O O13 0.006777 0.547659 0.281201
O O14 0.250051 0.614771 0.048850
O O15 0.721053 0.619586 0.476963
O O16 0.818605 0.650652 0.646932
O O17 0.500000 0.500000 0.500000
#
# Coordination Sequence:
#
# PCOD8029348 Si02
#       8
#     2   2   2   2   2   2   2   2
#     4  12  28  48  72 101 145 190 230 283 349 421
#     4  11  23  41  64  99 135 177 226 281 340 407
#     4  11  22  39  72 100 132 178 223 288 343 403
#     4  11  25  44  74 103 137 180 236 290 349 410
#     4  11  24  45  71 105 135 181 234 293 345 413
#     4  11  23  40  65  99 135 176 228 283 339 406
#     4  12  27  45  67  96 137 184 227 278 343 409
#     4  11  20  40  68  99 134 172 226 284 345 402
#
# _framework density 22.592846999999999
#
# number of rings (size 3 to 8) (size 9 to 14) (size 15 to 20)
#    0.000    0.750    1.250    8.250    5.250    1.500 
#    2.250    0.000    0.000    0.000    0.000    0.000 
#    0.000    0.000    0.000    0.000    0.000    0.000 
#
# Total GULP energy -198349.271514 kJ/mol
# GULP energy per Si atom -12396.829470 kJ/mol
# Density = 2.254142 g / cm^3
# Si number density = 22.592847 Si / 1000 Ang^3
#
#
#
# Elastic Constant Matrix: (Units=GPa)
#
#
# Indices 1 2 3 4 5 6 
#
# 1 88.4615 30.3740 32.3198 -6.9957 4.4318 -6.8599
# 2 30.3740 87.7816 21.7064 -1.7586 1.0999 9.4064
# 3 32.3198 21.7064 139.6027 -2.5462 -2.4120 10.6875
# 4 -6.9957 -1.7586 -2.5462 31.3875 1.5261 3.8706
# 5 4.4318 1.0999 -2.4120 1.5261 32.2459 -3.5043
# 6 -6.8599 9.4064 10.6875 3.8706 -3.5043 27.2043
#
#
#
# Elastic Compliance Matrix: (Units=1/GPa)
#
#
# Indices 1 2 3 4 5 6 
#
# 1 0.014883 -0.004979 -0.003135 0.002093 -0.001534 0.006211
# 2 -0.004979 0.013905 -0.000554 0.000384 -0.000498 -0.005964
# 3 -0.003135 -0.000554 0.008286 0.000383 0.000636 -0.003827
# 4 0.002093 0.000384 0.000383 0.033081 -0.002356 -0.004766
# 5 -0.001534 -0.000498 0.000636 -0.002356 0.031830 0.003971
# 6 0.006211 -0.005964 -0.003827 -0.004766 0.003971 0.043081
#
#
# Mechanical properties :
#
#
# Convention : Reuss Voigt Hill
#
# Bulk Modulus (GPa) = 50.66596 53.84958 52.25777
# Shear Modulus (GPa) = 29.58882 33.59724 31.59303
#
# Velocity S-wave (km/s) = 3.62284 3.86044 3.74353
# Velocity P-wave (km/s) = 6.32252 6.61493 6.47038
#
# Compressibility (1/GPa) = 0.01973712
#
# Stress axis : x y z
#
# Youngs Moduli (GPa) = 67.18859 71.91719 120.68262
#
# Poissons Ratio (x) = 0.35808 0.37839
# Poissons Ratio (y) = 0.33454 0.06689
# Poissons Ratio (z) = 0.21066 0.03986
#
# Static dielectric constant tensor:
#      x y z
#    x 3.825550 -0.218220 0.074600 
#    y -0.218220 3.945720 -0.238690 
#    z 0.074600 -0.238690 4.178020 
# 
# 
# High freq. dielectric constant tensor:
#      x y z
#    x 1.885400 -0.003020 -0.000390 
#    y -0.003020 1.891870 -0.007970 
#    z -0.000390 -0.007970 1.900580 
# 
# From -- ./inp_files/306988.got.cif
#   From: 2010.06.25/outbox.cif.g09.slc.cpg/sg2_154_cif.got.tgz:306988.got - 2010.06.27 13:26:56.
