data_PCOD8029922
_publ_section_title
;
Structure prediction by ZEFSAII (Michael W. Deem and Ramdas Pophale) SiO2 
 PCOD8029922
Probable space group: P -1
;
_chemical_formula_sum "Si O2"
_cell_formula_units_Z 14
_cell_length_a 8.262657
_cell_length_b 21.711445
_cell_length_c 9.465318
_cell_angle_alpha 126.766904
_cell_angle_beta 148.724400
_cell_angle_gamma 46.455722
_cell_volume 638.760759
_symmetry_space_group_name_H-M "P -1"
_symmetry_group_IT_number 2
_symmetry_cell_setting 'triclinic'
loop_
_space_group_symop_operation_xyz
x,y,z
-x,-y,-z
loop_
_atom_site_type_symbol
_atom_site_label
_atom_site_fract_x
_atom_site_fract_y
_atom_site_fract_z
Si Si1 0.318668 0.488397 0.624670
Si Si2 0.353520 0.938468 0.744949
Si Si3 0.472626 0.748221 0.088620
Si Si4 0.479079 0.206868 0.119826
Si Si5 0.139622 0.446547 0.890169
Si Si6 0.710431 0.787048 0.602366
Si Si7 0.680082 0.293610 0.618071
O O1 0.529598 0.541189 0.907228
O O2 0.599840 0.391516 0.700012
O O3 0.000000 0.500000 0.500000
O O4 0.176618 0.520105 0.407303
O O5 0.317293 0.882312 0.769948
O O6 0.577477 0.878566 0.703128
O O7 0.000000 0.000000 0.500000
O O8 0.500000 0.000000 0.000000
O O9 0.424679 0.803488 0.987114
O O10 0.758835 0.652709 0.143584
O O11 0.120639 0.743398 0.861898
O O12 0.593249 0.795303 0.363317
O O13 0.608782 0.272992 0.376564
O O14 0.071327 0.237628 0.881056
O O15 0.000000 0.500000 0.000000
O O16 0.570980 0.725592 0.490229
#
# Coordination Sequence:
#
# PCOD8029922 Si02
#       7
#     2   2   2   2   2   2   2
#     4  12  24  38  59  89 122 165 219 272 308 345
#     4  11  23  45  70  96 123 157 202 251 310 388
#     4  12  23  42  61  94 131 165 212 258 308 372
#     4  11  24  41  67  91 122 166 203 249 311 381
#     4  12  25  40  60  89 129 175 213 263 315 353
#     4  11  24  41  67  93 125 167 204 258 317 368
#     4  11  21  41  61  88 122 169 219 253 301 377
#
# _framework density 21.917439000000002
#
# number of rings (size 3 to 8) (size 9 to 14) (size 15 to 20)
#    0.000    0.571    0.000   11.143    0.000    0.000 
#    0.000    4.286    0.000    0.000    0.000    0.000 
#    0.000    0.000    0.000    0.000    0.000    0.000 
#
# Total GULP energy -173669.228067 kJ/mol
# GULP energy per Si atom -12404.944862 kJ/mol
# Density = 2.186755 g / cm^3
# Si number density = 21.917439 Si / 1000 Ang^3
#
#
#
# Elastic Constant Matrix: (Units=GPa)
#
#
# Indices 1 2 3 4 5 6 
#
# 1 71.8299 45.4023 11.7982 -4.1446 -15.8438 -2.7121
# 2 45.4023 130.1095 55.5725 -3.0122 -15.8415 3.1585
# 3 11.7982 55.5725 124.1056 -2.5264 -9.0903 -0.9611
# 4 -4.1446 -3.0122 -2.5264 47.8586 -5.2432 -0.9283
# 5 -15.8438 -15.8415 -9.0903 -5.2432 48.4444 1.9659
# 6 -2.7121 3.1585 -0.9611 -0.9283 1.9659 24.3232
#
#
#
# Elastic Compliance Matrix: (Units=1/GPa)
#
#
# Indices 1 2 3 4 5 6 
#
# 1 0.019193 -0.006886 0.001642 0.001854 0.004420 0.002813
# 2 -0.006886 0.012328 -0.004815 -0.000018 0.000981 -0.002639
# 3 0.001642 -0.004815 0.010140 0.000492 0.000872 0.001157
# 4 0.001854 -0.000018 0.000492 0.021422 0.002979 0.000805
# 5 0.004420 0.000981 0.000872 0.002979 0.022949 -0.001341
# 6 0.002813 -0.002639 0.001157 0.000805 -0.001341 0.041954
#
#
# Mechanical properties :
#
#
# Convention : Reuss Voigt Hill
#
# Bulk Modulus (GPa) = 46.41640 61.28789 53.85215
# Shear Modulus (GPa) = 32.19885 38.34339 35.27112
#
# Velocity S-wave (km/s) = 3.83704 4.18718 4.01593
# Velocity P-wave (km/s) = 6.39174 7.16940 6.79171
#
# Compressibility (1/GPa) = 0.02154411
#
# Stress axis : x y z
#
# Youngs Moduli (GPa) = 52.10336 81.11436 98.61593
#
# Poissons Ratio (x) = 0.55855 -0.16194
# Poissons Ratio (y) = 0.35878 0.47481
# Poissons Ratio (z) = -0.08556 0.39054
#
# Static dielectric constant tensor:
#      x y z
#    x 3.915370 -0.130040 -0.032270 
#    y -0.130040 4.835890 -0.035440 
#    z -0.032270 -0.035440 4.219330 
# 
# 
# High freq. dielectric constant tensor:
#      x y z
#    x 1.861010 -0.001120 -0.003290 
#    y -0.001120 1.852500 -0.000650 
#    z -0.003290 -0.000650 1.890350 
# 
# From -- ./inp_files/48532.got.cif
#   From: 2010.06.25/outbox.cif.g09.slc.cpg/sg2_25_cif.got.tgz:48532.got - 2010.06.27 13:26:56.
