data_PCOD8029615
_publ_section_title
;
Structure prediction by ZEFSAII (Michael W. Deem and Ramdas Pophale) SiO2 
 PCOD8029615
Probable space group: P -1
;
_chemical_formula_sum "Si O2"
_cell_formula_units_Z 16
_cell_length_a 14.164848
_cell_length_b 9.379593
_cell_length_c 13.062055
_cell_angle_alpha 137.891761
_cell_angle_beta 46.220065
_cell_angle_gamma 112.780468
_cell_volume 811.168953
_symmetry_space_group_name_H-M "P -1"
_symmetry_group_IT_number 2
_symmetry_cell_setting 'triclinic'
loop_
_space_group_symop_operation_xyz
x,y,z
-x,-y,-z
loop_
_atom_site_type_symbol
_atom_site_label
_atom_site_fract_x
_atom_site_fract_y
_atom_site_fract_z
Si Si1 0.484625 0.768148 0.345978
Si Si2 0.637293 0.283184 0.389524
Si Si3 0.040837 0.017340 0.805209
Si Si4 0.118447 0.609223 0.000818
Si Si5 0.344162 0.335115 0.554699
Si Si6 0.722284 0.103082 0.598496
Si Si7 0.236236 0.542776 0.087499
Si Si8 0.867157 0.841005 0.983080
O O1 0.387711 0.684591 0.453279
O O2 0.420055 0.794670 0.296057
O O3 0.500000 0.000000 0.500000
O O4 0.625919 0.589041 0.139237
O O5 0.502972 0.257390 0.419076
O O6 0.681884 0.498796 0.433682
O O7 0.753038 0.063310 0.162221
O O8 0.161899 0.916843 0.583768
O O9 0.089126 0.167007 0.934386
O O10 0.914903 0.156727 0.907161
O O11 0.992253 0.829803 0.805529
O O12 0.126385 0.642016 0.134365
O O13 0.264941 0.461869 0.778976
O O14 0.000000 0.500000 0.000000
O O15 0.282803 0.127787 0.468488
O O16 0.743281 0.255853 0.755552
O O17 0.184418 0.376086 0.111988
#
# Coordination Sequence:
#
# PCOD8029615 Si02
#       8
#     2   2   2   2   2   2   2   2
#     4  12  20  41  68  92 116 159 214 252 294 360
#     4  11  21  36  69  92 114 150 216 263 289 340
#     4  11  23  38  65  90 121 160 211 254 291 362
#     4  12  21  40  64  88 117 164 218 246 288 365
#     4  11  22  39  63  92 119 158 205 259 299 354
#     4  12  24  41  60  93 132 160 194 249 321 369
#     4  12  25  39  63  93 127 162 196 252 317 367
#     4  11  21  40  64  95 115 158 212 256 297 349
#
# _framework density 19.724620000000002
#
# number of rings (size 3 to 8) (size 9 to 14) (size 15 to 20)
#    0.000    0.500    8.750    0.375    0.000    1.000 
#    0.000    1.875    0.000    0.000    0.000    0.000 
#    0.000    0.000    0.000    0.000    0.000    0.000 
#
# Total GULP energy -198400.025109 kJ/mol
# GULP energy per Si atom -12400.001569 kJ/mol
# Density = 1.967973 g / cm^3
# Si number density = 19.724620 Si / 1000 Ang^3
#
#
#
# Elastic Constant Matrix: (Units=GPa)
#
#
# Indices 1 2 3 4 5 6 
#
# 1 112.5317 46.3389 40.5646 10.2047 11.7250 -11.3678
# 2 46.3389 136.2632 50.5825 -0.6180 12.2309 -3.2059
# 3 40.5646 50.5825 75.1913 0.6378 7.9215 3.3407
# 4 10.2047 -0.6180 0.6378 28.5312 2.3940 -6.5287
# 5 11.7250 12.2309 7.9215 2.3940 31.9869 -0.6781
# 6 -11.3678 -3.2059 3.3407 -6.5287 -0.6781 31.0536
#
#
#
# Elastic Compliance Matrix: (Units=1/GPa)
#
#
# Indices 1 2 3 4 5 6 
#
# 1 0.012607 -0.002009 -0.005381 -0.003277 -0.002185 0.004250
# 2 -0.002009 0.010364 -0.005757 0.001512 -0.001888 0.001231
# 3 -0.005381 -0.005757 0.020387 0.000352 -0.001001 -0.004705
# 4 -0.003277 0.001512 0.000352 0.037997 -0.002162 0.006860
# 5 -0.002185 -0.001888 -0.001001 -0.002162 0.033182 -0.000617
# 6 0.004250 0.001231 -0.004705 0.006860 -0.000617 0.035820
#
#
# Mechanical properties :
#
#
# Convention : Reuss Voigt Hill
#
# Bulk Modulus (GPa) = 58.60018 66.55092 62.57555
# Shear Modulus (GPa) = 27.42121 30.74769 29.08445
#
# Velocity S-wave (km/s) = 3.73259 3.95251 3.84412
# Velocity P-wave (km/s) = 6.95341 7.39209 7.17610
#
# Compressibility (1/GPa) = 0.01706479
#
# Stress axis : x y z
#
# Youngs Moduli (GPa) = 79.31843 96.48600 49.05103
#
# Poissons Ratio (x) = 0.19380 0.26395
# Poissons Ratio (y) = 0.15932 0.28240
# Poissons Ratio (z) = 0.42682 0.55549
#
# Static dielectric constant tensor:
#      x y z
#    x 4.877660 0.039070 2.228560 
#    y 0.039070 4.029220 0.364410 
#    z 2.228560 0.364410 8.461600 
# 
# 
# High freq. dielectric constant tensor:
#      x y z
#    x 1.767500 -0.010470 -0.027460 
#    y -0.010470 1.786160 -0.011640 
#    z -0.027460 -0.011640 1.741100 
# 
# From -- ./inp_files/175024.got.cif
#   From: 2010.06.25/outbox.cif.g09.slc.cpg/sg2_88_cif.got.tgz:175024.got - 2010.06.27 13:26:56.
