data_PCOD8029152
_publ_section_title
;
Structure prediction by ZEFSAII (Michael W. Deem and Ramdas Pophale) SiO2 
 PCOD8029152
Probable space group: P -1
;
_chemical_formula_sum "Si O2"
_cell_formula_units_Z 14
_cell_length_a 8.924103
_cell_length_b 9.609111
_cell_length_c 11.469060
_cell_angle_alpha 131.529102
_cell_angle_beta 87.248821
_cell_angle_gamma 89.027338
_cell_volume 733.852640
_symmetry_space_group_name_H-M "P -1"
_symmetry_group_IT_number 2
_symmetry_cell_setting 'triclinic'
loop_
_space_group_symop_operation_xyz
x,y,z
-x,-y,-z
loop_
_atom_site_type_symbol
_atom_site_label
_atom_site_fract_x
_atom_site_fract_y
_atom_site_fract_z
Si Si1 0.365048 0.732412 0.575321
Si Si2 0.789306 0.543703 0.710715
Si Si3 0.673394 0.245606 0.963752
Si Si4 0.842771 0.936805 0.928291
Si Si5 0.456961 0.561772 0.716858
Si Si6 0.842199 0.503339 0.943938
Si Si7 0.657108 0.875503 0.128589
O O1 0.219279 0.623132 0.476214
O O2 0.395290 0.692386 0.687329
O O3 0.512273 0.652275 0.449764
O O4 0.335181 0.953091 0.684283
O O5 0.869990 0.723900 0.759618
O O6 0.618049 0.625815 0.792949
O O7 0.868107 0.470045 0.786277
O O8 0.658403 0.406799 0.154392
O O9 0.743957 0.338178 0.900319
O O10 0.515515 0.168368 0.895916
O O11 0.783393 0.072321 0.903156
O O12 0.724094 0.941481 0.040720
O O13 0.000000 0.000000 0.000000
O O14 0.756189 0.702721 0.082522
O O15 0.000000 0.500000 0.000000
#
# Coordination Sequence:
#
# PCOD8029152 Si02
#       7
#     2   2   2   2   2   2   2
#     4   9  18  34  58  88 118 140 183 245 291 328
#     4   9  19  38  57  78 120 144 185 233 289 328
#     4  12  20  35  62  88 110 147 202 237 280 330
#     4  11  21  34  57  86 116 149 191 237 282 335
#     4   9  17  32  60  87 115 135 187 243 285 314
#     4  11  24  40  57  81 120 154 189 239 288 336
#     4  11  20  36  62  86 106 154 198 236 277 341
#
# _framework density 19.077400000000001
#
# number of rings (size 3 to 8) (size 9 to 14) (size 15 to 20)
#    0.857    0.857    4.286    3.429    0.000    0.000 
#    0.000    4.286    0.000    0.000    0.000    0.000 
#    0.000    0.000    0.000    0.000    0.000    0.000 
#
# Total GULP energy -173464.841797 kJ/mol
# GULP energy per Si atom -12390.345843 kJ/mol
# Density = 1.903398 g / cm^3
# Si number density = 19.077400 Si / 1000 Ang^3
#
#
#
# Elastic Constant Matrix: (Units=GPa)
#
#
# Indices 1 2 3 4 5 6 
#
# 1 85.2910 29.6278 21.2078 11.9260 24.2902 -15.4913
# 2 29.6278 108.8338 33.5352 20.4777 3.3025 -16.5675
# 3 21.2078 33.5352 79.9525 20.9956 11.2552 -8.7570
# 4 11.9260 20.4777 20.9956 30.9209 -2.9983 5.8068
# 5 24.2902 3.3025 11.2552 -2.9983 25.1954 -5.2162
# 6 -15.4913 -16.5675 -8.7570 5.8068 -5.2162 32.2545
#
#
#
# Elastic Compliance Matrix: (Units=1/GPa)
#
#
# Indices 1 2 3 4 5 6 
#
# 1 0.020959 -0.002340 0.002277 -0.011625 -0.020593 0.008245
# 2 -0.002340 0.012795 -0.002585 -0.006788 0.002236 0.006330
# 3 0.002277 -0.002585 0.018811 -0.014045 -0.010758 0.005661
# 4 -0.011625 -0.006788 -0.014045 0.056590 0.021034 -0.019670
# 5 -0.020593 0.002236 -0.010758 0.021034 0.065555 -0.004848
# 6 0.008245 0.006330 0.005661 -0.019670 -0.004848 0.042509
#
#
# Mechanical properties :
#
#
# Convention : Reuss Voigt Hill
#
# Bulk Modulus (GPa) = 21.15590 49.20210 35.17900
# Shear Modulus (GPa) = 20.98458 30.32127 25.65292
#
# Velocity S-wave (km/s) = 3.32018 3.99103 3.67096
# Velocity P-wave (km/s) = 5.08052 6.86182 6.03723
#
# Compressibility (1/GPa) = 0.04726814
#
# Stress axis : x y z
#
# Youngs Moduli (GPa) = 47.71221 78.15741 53.16152
#
# Poissons Ratio (x) = 0.18287 -0.12103
# Poissons Ratio (y) = 0.11164 0.13742
# Poissons Ratio (z) = -0.10863 0.20204
#
# Static dielectric constant tensor:
#      x y z
#    x 3.270320 0.028260 0.105830 
#    y 0.028260 3.058160 0.133360 
#    z 0.105830 0.133360 3.544840 
# 
# 
# High freq. dielectric constant tensor:
#      x y z
#    x 1.726240 -0.014160 0.014830 
#    y -0.014160 1.729850 0.013310 
#    z 0.014830 0.013310 1.735480 
# 
# From -- ./inp_files/203662.got.cif
#   From: 2010.06.25/outbox.cif.g09.slc.cpg/sg2_102_cif.got.tgz:203662.got - 2010.06.27 13:26:56.
