data_PCOD8029223
_publ_section_title
;
Structure prediction by ZEFSAII (Michael W. Deem and Ramdas Pophale) SiO2 
 PCOD8029223
Probable space group: P -1
;
_chemical_formula_sum "Si O2"
_cell_formula_units_Z 16
_cell_length_a 20.420905
_cell_length_b 18.225266
_cell_length_c 11.862646
_cell_angle_alpha 28.989697
_cell_angle_beta 30.047913
_cell_angle_gamma 20.336033
_cell_volume 716.064972
_symmetry_space_group_name_H-M "P -1"
_symmetry_group_IT_number 2
_symmetry_cell_setting 'triclinic'
loop_
_space_group_symop_operation_xyz
x,y,z
-x,-y,-z
loop_
_atom_site_type_symbol
_atom_site_label
_atom_site_fract_x
_atom_site_fract_y
_atom_site_fract_z
Si Si1 0.434771 0.328319 0.742614
Si Si2 0.832827 0.858711 0.057642
Si Si3 0.148385 0.825275 0.418409
Si Si4 0.877723 0.806690 0.475862
Si Si5 0.834780 0.060777 0.394776
Si Si6 0.067328 0.485333 0.040568
Si Si7 0.883039 0.365991 0.869174
Si Si8 0.417583 0.174065 0.202490
O O1 0.327893 0.577849 0.535976
O O2 0.652048 0.141164 0.622147
O O3 0.299967 0.311634 0.912937
O O4 0.442371 0.284651 0.922466
O O5 0.960583 0.726163 0.929147
O O6 0.962749 0.693337 0.192168
O O7 0.630502 0.938740 0.245934
O O8 0.766452 0.088836 0.868274
O O9 0.000000 0.000000 0.500000
O O10 0.032146 0.844799 0.460832
O O11 0.986211 0.601140 0.676652
O O12 0.683571 0.892892 0.600881
O O13 0.025725 0.725390 0.266862
O O14 0.831468 0.999355 0.355166
O O15 0.814022 0.259799 0.155182
O O16 0.000000 0.500000 0.000000
O O17 0.705165 0.638913 0.766487
#
# Coordination Sequence:
#
# PCOD8029223 Si02
#       8
#     2   2   2   2   2   2   2   2
#     4  11  22  39  64  99 130 163 217 262 329 384
#     4  11  23  40  64  96 126 175 215 265 322 383
#     4  11  20  38  61  93 132 169 205 262 324 377
#     4  11  25  44  67  93 133 177 212 270 318 383
#     4  11  25  40  68  96 129 174 214 269 323 384
#     4  11  24  41  63  97 137 169 209 269 330 386
#     4  11  23  49  64  93 132 171 227 259 318 386
#     4  11  24  40  68  98 127 171 218 269 322 385
#
# _framework density 22.344341
#
# number of rings (size 3 to 8) (size 9 to 14) (size 15 to 20)
#    0.000    1.000    3.750    3.750    3.500    3.000 
#    0.000    0.000    0.000    5.250    0.000    0.000 
#    0.000    0.000    0.000    0.000    0.000    0.000 
#
# Total GULP energy -198357.664175 kJ/mol
# GULP energy per Si atom -12397.354011 kJ/mol
# Density = 2.229348 g / cm^3
# Si number density = 22.344341 Si / 1000 Ang^3
#
#
#
# Elastic Constant Matrix: (Units=GPa)
#
#
# Indices 1 2 3 4 5 6 
#
# 1 120.4085 50.8600 27.5793 16.2819 -13.2092 12.4390
# 2 50.8600 78.5782 10.4080 17.8936 -8.3716 -4.1537
# 3 27.5793 10.4080 60.8259 15.0983 -0.6579 -0.6671
# 4 16.2819 17.8936 15.0983 34.0681 4.4385 -0.7902
# 5 -13.2092 -8.3716 -0.6579 4.4385 29.2678 3.4415
# 6 12.4390 -4.1537 -0.6671 -0.7902 3.4415 35.9704
#
#
#
# Elastic Compliance Matrix: (Units=1/GPa)
#
#
# Indices 1 2 3 4 5 6 
#
# 1 0.014178 -0.008086 -0.004762 -0.001208 0.004917 -0.006422
# 2 -0.008086 0.020001 0.002288 -0.007906 0.002768 0.004710
# 3 -0.004762 0.002288 0.020166 -0.007800 -0.000108 0.002124
# 4 -0.001208 -0.007906 -0.007800 0.038734 -0.008982 0.001070
# 5 0.004917 0.002768 -0.000108 -0.008982 0.039164 -0.005327
# 6 -0.006422 0.004710 0.002124 0.001070 -0.005327 0.031138
#
#
# Mechanical properties :
#
#
# Convention : Reuss Voigt Hill
#
# Bulk Modulus (GPa) = 30.09848 48.61192 39.35520
# Shear Modulus (GPa) = 25.56538 31.25894 28.41216
#
# Velocity S-wave (km/s) = 3.38621 3.74433 3.56976
# Velocity P-wave (km/s) = 5.36545 6.36368 5.88576
#
# Compressibility (1/GPa) = 0.03322427
#
# Stress axis : x y z
#
# Youngs Moduli (GPa) = 70.53398 49.99692 49.58782
#
# Poissons Ratio (x) = 0.40429 0.23614
# Poissons Ratio (y) = 0.57036 -0.11346
# Poissons Ratio (z) = 0.33589 -0.11440
#
# Static dielectric constant tensor:
#      x y z
#    x 4.187160 -0.044640 -0.145950 
#    y -0.044640 4.080140 -0.049280 
#    z -0.145950 -0.049280 4.205830 
# 
# 
# High freq. dielectric constant tensor:
#      x y z
#    x 1.883350 -0.005140 -0.010250 
#    y -0.005140 1.863380 0.001980 
#    z -0.010250 0.001980 1.882750 
# 
# From -- ./inp_files/272960.got.cif
#   From: 2010.06.25/outbox.cif.g09.slc.cpg/sg2_137_cif.got.tgz:272960.got - 2010.06.27 13:26:56.
