data_PCOD8029010
_publ_section_title
;
Structure prediction by ZEFSAII (Michael W. Deem and Ramdas Pophale) SiO2 
 PCOD8029010
Probable space group: P -1
;
_chemical_formula_sum "Si O2"
_cell_formula_units_Z 16
_cell_length_a 11.553033
_cell_length_b 9.077820
_cell_length_c 11.609417
_cell_angle_alpha 53.342868
_cell_angle_beta 54.326822
_cell_angle_gamma 77.968117
_cell_volume 775.021412
_symmetry_space_group_name_H-M "P -1"
_symmetry_group_IT_number 2
_symmetry_cell_setting 'triclinic'
loop_
_space_group_symop_operation_xyz
x,y,z
-x,-y,-z
loop_
_atom_site_type_symbol
_atom_site_label
_atom_site_fract_x
_atom_site_fract_y
_atom_site_fract_z
Si Si1 0.472862 0.797777 0.745725
Si Si2 0.709381 0.200088 0.920872
Si Si3 0.704861 0.791204 0.060409
Si Si4 0.022710 0.719614 0.893601
Si Si5 0.295278 0.445836 0.614355
Si Si6 0.434769 0.531875 0.253026
Si Si7 0.984813 0.211068 0.887829
Si Si8 0.320143 0.811042 0.585251
O O1 0.569405 0.639280 0.753486
O O2 0.377430 0.771985 0.696614
O O3 0.583038 0.996654 0.606685
O O4 0.374942 0.769380 0.928644
O O5 0.684412 0.351310 0.770795
O O6 0.880801 0.229755 0.833308
O O7 0.664435 0.994250 0.986680
O O8 0.669790 0.712756 0.246549
O O9 0.597071 0.663843 0.092121
O O10 0.872621 0.791622 0.928547
O O11 0.150024 0.826992 0.684848
O O12 0.087399 0.748443 0.970385
O O13 0.000000 0.500000 0.000000
O O14 0.399965 0.457617 0.438134
O O15 0.323869 0.644101 0.571434
O O16 0.130460 0.367504 0.704363
O O17 0.000000 0.000000 0.000000
#
# Coordination Sequence:
#
# PCOD8029010 Si02
#       8
#     2   2   2   2   2   2   2   2
#     4  11  25  38  64  93 130 163 211 266 310 371
#     4  12  25  43  63  94 132 167 205 256 325 382
#     4  11  23  40  67  93 126 170 209 257 308 382
#     4  11  19  38  64  97 122 156 211 264 309 356
#     4  11  23  41  66  93 126 162 215 257 309 368
#     4  12  26  42  63  92 132 169 207 260 318 374
#     4  11  22  38  67  96 123 162 209 261 309 375
#     4  11  22  38  66  99 121 161 217 269 304 361
#
# _framework density 20.644590000000001
#
# number of rings (size 3 to 8) (size 9 to 14) (size 15 to 20)
#    0.000    0.750    7.500    1.875    5.250    0.500 
#    0.000    0.000    0.000    2.250    0.000    0.000 
#    0.000    0.000    0.000    0.000    0.000    0.000 
#
# Total GULP energy -198312.580770 kJ/mol
# GULP energy per Si atom -12394.536298 kJ/mol
# Density = 2.059760 g / cm^3
# Si number density = 20.644590 Si / 1000 Ang^3
#
#
#
# Elastic Constant Matrix: (Units=GPa)
#
#
# Indices 1 2 3 4 5 6 
#
# 1 86.0086 8.2424 22.1355 -16.0759 -12.4315 -11.0514
# 2 8.2424 122.6144 30.1363 -16.2353 -9.4955 -4.6010
# 3 22.1355 30.1363 59.1679 -7.6572 -15.5023 -2.5730
# 4 -16.0759 -16.2353 -7.6572 35.9163 -3.3846 -2.0154
# 5 -12.4315 -9.4955 -15.5023 -3.3846 32.1495 -9.5386
# 6 -11.0514 -4.6010 -2.5730 -2.0154 -9.5386 34.9727
#
#
#
# Elastic Compliance Matrix: (Units=1/GPa)
#
#
# Indices 1 2 3 4 5 6 
#
# 1 0.016136 0.001810 -0.003298 0.008574 0.008426 0.007887
# 2 0.001810 0.010057 -0.004296 0.004862 0.002896 0.002649
# 3 -0.003298 -0.004296 0.023390 0.002667 0.009895 0.002966
# 4 0.008574 0.004862 0.002667 0.036134 0.012525 0.009044
# 5 0.008426 0.002896 0.009895 0.012525 0.046396 0.017148
# 6 0.007887 0.002649 0.002966 0.009044 0.017148 0.036851
#
#
# Mechanical properties :
#
#
# Convention : Reuss Voigt Hill
#
# Bulk Modulus (GPa) = 26.30643 43.20215 34.75429
# Shear Modulus (GPa) = 25.87926 34.42615 30.15271
#
# Velocity S-wave (km/s) = 3.54441 4.08801 3.82588
# Velocity P-wave (km/s) = 5.43329 6.57681 6.03221
#
# Compressibility (1/GPa) = 0.03801353
#
# Stress axis : x y z
#
# Youngs Moduli (GPa) = 61.97348 99.42907 42.75349
#
# Poissons Ratio (x) = -0.17993 0.14101
# Poissons Ratio (y) = -0.11215 0.18368
# Poissons Ratio (z) = 0.20440 0.42718
#
# Static dielectric constant tensor:
#      x y z
#    x 3.983830 0.004620 -0.346140 
#    y 0.004620 3.988160 0.046090 
#    z -0.346140 0.046090 3.723420 
# 
# 
# High freq. dielectric constant tensor:
#      x y z
#    x 1.802120 0.005300 -0.025600 
#    y 0.005300 1.828750 -0.005800 
#    z -0.025600 -0.005800 1.785880 
# 
# From -- ./inp_files/260395.got.cif
#   From: 2010.06.25/outbox.cif.g09.slc.cpg/sg2_131_cif.got.tgz:260395.got - 2010.06.27 13:26:56.
