data_PCOD8029158
_publ_section_title
;
Structure prediction by ZEFSAII (Michael W. Deem and Ramdas Pophale) SiO2 
 PCOD8029158
Probable space group: P -1
;
_chemical_formula_sum "Si O2"
_cell_formula_units_Z 12
_cell_length_a 12.222461
_cell_length_b 9.872052
_cell_length_c 9.952194
_cell_angle_alpha 40.148616
_cell_angle_beta 129.999453
_cell_angle_gamma 127.759063
_cell_volume 575.050318
_symmetry_space_group_name_H-M "P -1"
_symmetry_group_IT_number 2
_symmetry_cell_setting 'triclinic'
loop_
_space_group_symop_operation_xyz
x,y,z
-x,-y,-z
loop_
_atom_site_type_symbol
_atom_site_label
_atom_site_fract_x
_atom_site_fract_y
_atom_site_fract_z
Si Si1 0.734579 0.094389 0.470231
Si Si2 0.320733 0.478822 0.496876
Si Si3 0.540918 0.861337 0.257595
Si Si4 0.634981 0.493129 0.201342
Si Si5 0.135742 0.184027 0.019673
Si Si6 0.001579 0.549444 0.624422
O O1 0.682984 0.269013 0.389789
O O2 0.892624 0.214174 0.440169
O O3 0.610848 0.012424 0.322512
O O4 0.759233 0.897979 0.730317
O O5 0.386378 0.695668 0.299601
O O6 0.336945 0.267894 0.588723
O O7 0.417067 0.494136 0.696855
O O8 0.154578 0.460571 0.425123
O O9 0.500000 0.000000 0.000000
O O10 0.500000 0.500000 0.000000
O O11 0.766280 0.705115 0.113479
O O12 0.068048 0.370835 0.890701
O O13 0.000000 0.000000 0.000000
O O14 0.000000 0.500000 0.500000
#
# Coordination Sequence:
#
# PCOD8029158 Si02
#       6
#     2   2   2   2   2   2
#     4  11  23  41  64  99 127 166 219 260 321 383
#     4  11  23  44  64  91 132 169 212 266 316 381
#     4  11  27  45  63  90 133 177 218 256 314 383
#     4  11  22  37  63  95 125 160 214 269 316 371
#     4  11  20  36  64  95 129 158 200 268 324 373
#     4  11  21  42  64  98 131 159 208 270 321 379
#
# _framework density 20.867739
#
# number of rings (size 3 to 8) (size 9 to 14) (size 15 to 20)
#    0.000    1.000    5.000    2.000    0.000   12.667 
#    0.000    1.667    0.000    0.000    0.000    0.000 
#    0.000    0.000    0.000    0.000    0.000    0.000 
#
# Total GULP energy -148763.443553 kJ/mol
# GULP energy per Si atom -12396.953629 kJ/mol
# Density = 2.082024 g / cm^3
# Si number density = 20.867739 Si / 1000 Ang^3
#
#
#
# Elastic Constant Matrix: (Units=GPa)
#
#
# Indices 1 2 3 4 5 6 
#
# 1 109.6689 6.9458 21.2814 -17.9303 -4.4284 6.7598
# 2 6.9458 75.2911 21.9872 -11.8437 -9.9786 0.5343
# 3 21.2814 21.9872 141.7340 -11.0008 -6.4608 3.1889
# 4 -17.9303 -11.8437 -11.0008 34.7158 4.6675 -1.8008
# 5 -4.4284 -9.9786 -6.4608 4.6675 26.4997 5.0877
# 6 6.7598 0.5343 3.1889 -1.8008 5.0877 21.5713
#
#
#
# Elastic Compliance Matrix: (Units=1/GPa)
#
#
# Indices 1 2 3 4 5 6 
#
# 1 0.010328 0.000313 -0.001103 0.004760 0.001311 -0.002993
# 2 0.000313 0.015059 -0.001831 0.004028 0.004756 -0.000986
# 3 -0.001103 -0.001831 0.007651 0.001053 0.000975 -0.000882
# 4 0.004760 0.004028 0.001053 0.033572 -0.003715 0.001931
# 5 0.001311 0.004756 0.000975 -0.003715 0.042763 -0.011069
# 6 -0.002993 -0.000986 -0.000882 0.001931 -0.011069 0.050223
#
#
# Mechanical properties :
#
#
# Convention : Reuss Voigt Hill
#
# Bulk Modulus (GPa) = 35.97654 47.45809 41.71732
# Shear Modulus (GPa) = 28.71859 34.98936 31.85397
#
# Velocity S-wave (km/s) = 3.71377 4.09922 3.91124
# Velocity P-wave (km/s) = 5.97220 6.72283 6.35860
#
# Compressibility (1/GPa) = 0.02779589
#
# Stress axis : x y z
#
# Youngs Moduli (GPa) = 96.82202 66.40669 130.69810
#
# Poissons Ratio (x) = -0.02079 0.14413
# Poissons Ratio (y) = -0.03031 0.23936
# Poissons Ratio (z) = 0.10677 0.12162
#
# Static dielectric constant tensor:
#      x y z
#    x 3.768830 0.189770 -0.160700 
#    y 0.189770 3.792900 -0.097790 
#    z -0.160700 -0.097790 4.048700 
# 
# 
# High freq. dielectric constant tensor:
#      x y z
#    x 1.814660 0.020030 0.006080 
#    y 0.020030 1.809660 -0.012290 
#    z 0.006080 -0.012290 1.833320 
# 
# From -- ./inp_files/60237.got.cif
#   From: 2010.06.25/outbox.cif.g09.slc.cpg/sg2_31_cif.got.tgz:60237.got - 2010.06.27 13:26:56.
