data_PCOD8029120
_publ_section_title
;
Structure prediction by ZEFSAII (Michael W. Deem and Ramdas Pophale) SiO2 
 PCOD8029120
Probable space group: P -1
;
_chemical_formula_sum "Si O2"
_cell_formula_units_Z 12
_cell_length_a 23.461341
_cell_length_b 12.010105
_cell_length_c 12.182091
_cell_angle_alpha 23.895154
_cell_angle_beta 29.593982
_cell_angle_gamma 28.184170
_cell_volume 619.279727
_symmetry_space_group_name_H-M "P -1"
_symmetry_group_IT_number 2
_symmetry_cell_setting 'triclinic'
loop_
_space_group_symop_operation_xyz
x,y,z
-x,-y,-z
loop_
_atom_site_type_symbol
_atom_site_label
_atom_site_fract_x
_atom_site_fract_y
_atom_site_fract_z
Si Si1 0.005824 0.791384 0.279487
Si Si2 0.717463 0.554002 0.815270
Si Si3 0.638876 0.800284 0.159785
Si Si4 0.488987 0.214962 0.225134
Si Si5 0.249610 0.849782 0.490606
Si Si6 0.374570 0.801399 0.545258
O O1 0.137947 0.703869 0.204232
O O2 0.000000 0.500000 0.500000
O O3 0.895753 0.969564 0.390529
O O4 0.000000 0.000000 0.000000
O O5 0.648362 0.659316 0.718604
O O6 0.729254 0.847135 0.583404
O O7 0.633863 0.428011 0.142128
O O8 0.732294 0.443568 0.350118
O O9 0.509810 0.812388 0.313532
O O10 0.605502 0.015539 0.128485
O O11 0.711397 0.916802 0.847626
O O12 0.500000 0.000000 0.500000
O O13 0.500000 0.500000 0.000000
O O14 0.346368 0.699174 0.566468
#
# Coordination Sequence:
#
# PCOD8029120 Si02
#       6
#     2   2   2   2   2   2
#     4  12  22  38  58  85 127 167 194 220 273 362
#     4  11  21  38  60  90 115 156 206 235 281 348
#     4  11  23  36  56  90 115 154 198 240 302 348
#     4  11  23  42  65  83 110 150 202 265 299 329
#     4  12  21  35  57  85 130 159 182 232 289 357
#     4  11  20  35  57  85 128 155 188 232 287 360
#
# _framework density 19.37735
#
# number of rings (size 3 to 8) (size 9 to 14) (size 15 to 20)
#    0.000    0.667    3.333    8.000    0.000    0.000 
#    0.000    0.000    0.000    6.000    0.000    0.000 
#    0.000    0.000    0.000    0.000    0.000    0.000 
#
# Total GULP energy -148779.773550 kJ/mol
# GULP energy per Si atom -12398.314462 kJ/mol
# Density = 1.933325 g / cm^3
# Si number density = 19.377350 Si / 1000 Ang^3
#
#
#
# Elastic Constant Matrix: (Units=GPa)
#
#
# Indices 1 2 3 4 5 6 
#
# 1 78.3111 39.2094 41.5227 -1.6599 8.1778 4.0208
# 2 39.2094 133.0186 44.9826 -5.8568 -6.5809 9.7478
# 3 41.5227 44.9826 142.4272 -8.1922 12.4350 -2.9692
# 4 -1.6599 -5.8568 -8.1922 41.0116 7.1071 -4.1054
# 5 8.1778 -6.5809 12.4350 7.1071 29.6640 -10.5012
# 6 4.0208 9.7478 -2.9692 -4.1054 -10.5012 25.2292
#
#
#
# Elastic Compliance Matrix: (Units=1/GPa)
#
#
# Indices 1 2 3 4 5 6 
#
# 1 0.017344 -0.003950 -0.003396 0.000041 -0.005654 -0.003985
# 2 -0.003950 0.009771 -0.002285 -0.000028 0.003531 -0.001949
# 3 -0.003396 -0.002285 0.009182 0.002106 -0.003420 0.001424
# 4 0.000041 -0.000028 0.002106 0.026111 -0.006524 0.001786
# 5 -0.005654 0.003531 -0.003420 -0.006524 0.044998 0.016802
# 6 -0.003985 -0.001949 0.001424 0.001786 0.016802 0.048477
#
#
# Mechanical properties :
#
#
# Convention : Reuss Voigt Hill
#
# Bulk Modulus (GPa) = 58.70107 67.24293 62.97200
# Shear Modulus (GPa) = 27.65137 34.38377 31.01757
#
# Velocity S-wave (km/s) = 3.78166 4.21697 4.00523
# Velocity P-wave (km/s) = 7.03046 7.64772 7.34557
#
# Compressibility (1/GPa) = 0.01703547
#
# Stress axis : x y z
#
# Youngs Moduli (GPa) = 57.65759 102.34281 108.90590
#
# Poissons Ratio (x) = 0.40425 0.36983
# Poissons Ratio (y) = 0.22774 0.24885
# Poissons Ratio (z) = 0.19580 0.23385
#
# Static dielectric constant tensor:
#      x y z
#    x 3.517480 0.079090 0.005820 
#    y 0.079090 3.986120 -0.230030 
#    z 0.005820 -0.230030 3.750660 
# 
# 
# High freq. dielectric constant tensor:
#      x y z
#    x 1.717510 0.000610 -0.000320 
#    y 0.000610 1.767500 -0.017560 
#    z -0.000320 -0.017560 1.778050 
# 
# From -- ./inp_files/64804.got.cif
#   From: 2010.06.25/outbox.cif.g09.slc.cpg/sg2_33_cif.got.tgz:64804.got - 2010.06.27 13:26:56.
