data_PCOD8029998
_publ_section_title
;
Structure prediction by ZEFSAII (Michael W. Deem and Ramdas Pophale) SiO2 
 PCOD8029998
Probable space group: P -1
;
_chemical_formula_sum "Si O2"
_cell_formula_units_Z 14
_cell_length_a 10.757688
_cell_length_b 16.153819
_cell_length_c 9.429851
_cell_angle_alpha 104.703873
_cell_angle_beta 75.398719
_cell_angle_gamma 155.519086
_cell_volume 655.911945
_symmetry_space_group_name_H-M "P -1"
_symmetry_group_IT_number 2
_symmetry_cell_setting 'triclinic'
loop_
_space_group_symop_operation_xyz
x,y,z
-x,-y,-z
loop_
_atom_site_type_symbol
_atom_site_label
_atom_site_fract_x
_atom_site_fract_y
_atom_site_fract_z
Si Si1 0.256613 0.221012 0.767635
Si Si2 0.656912 0.442003 0.218601
Si Si3 0.036363 0.822970 0.362260
Si Si4 0.851534 0.567013 0.906868
Si Si5 0.142569 0.923687 0.969298
Si Si6 0.403508 0.783943 0.804736
Si Si7 0.994831 0.884267 0.688988
O O1 0.606990 0.430283 0.794327
O O2 0.206392 0.259917 0.675859
O O3 0.147243 0.063972 0.672705
O O4 0.063867 0.127481 0.922508
O O5 0.636058 0.340999 0.268162
O O6 0.356083 0.316022 0.266547
O O7 0.935668 0.664680 0.295545
O O8 0.700463 0.444471 0.042243
O O9 0.043490 0.842917 0.536469
O O10 0.365018 0.036671 0.296191
O O11 0.003940 0.749191 0.972806
O O12 0.086995 0.639445 0.814779
O O13 0.167420 0.953911 0.808467
O O14 0.473326 0.127184 0.031888
#
# Coordination Sequence:
#
# PCOD8029998 Si02
#       7
#     2   2   2   2   2   2   2
#     4  11  21  41  69  95 129 166 218 274 311 373
#     4  12  22  40  70  98 128 166 222 266 326 376
#     4  11  25  44  68  96 132 172 214 268 324 387
#     4  12  23  41  69 100 130 167 221 270 321 380
#     4  11  21  41  69  95 129 166 218 274 311 373
#     4  11  25  44  68  96 132 172 214 268 324 387
#     4  12  23  41  69 100 130 167 221 270 321 380
#
# _framework density 21.344328000000001
#
# number of rings (size 3 to 8) (size 9 to 14) (size 15 to 20)
#    0.000    0.571    7.143    4.286    0.000    0.000 
#    0.000    1.429    3.143    0.000    0.000    0.000 
#    0.000    0.000    0.000    0.000    0.000    0.000 
#
# Total GULP energy -173702.145109 kJ/mol
# GULP energy per Si atom -12407.296079 kJ/mol
# Density = 2.129575 g / cm^3
# Si number density = 21.344328 Si / 1000 Ang^3
#
#
#
# Elastic Constant Matrix: (Units=GPa)
#
#
# Indices 1 2 3 4 5 6 
#
# 1 39.2468 26.4841 10.0646 4.8298 0.0783 11.3498
# 2 26.4841 77.9946 23.0378 2.8821 -1.5540 -12.3477
# 3 10.0646 23.0378 104.9116 2.0218 6.9453 12.7612
# 4 4.8298 2.8821 2.0218 25.4130 0.5738 -6.4082
# 5 0.0783 -1.5540 6.9453 0.5738 22.0456 4.8298
# 6 11.3498 -12.3477 12.7612 -6.4082 4.8298 46.5078
#
#
#
# Elastic Compliance Matrix: (Units=1/GPa)
#
#
# Indices 1 2 3 4 5 6 
#
# 1 0.043204 -0.017549 0.001898 -0.010815 0.002112 -0.017433
# 2 -0.017549 0.021903 -0.004682 0.004223 0.000358 0.011927
# 3 0.001898 -0.004682 0.011173 -0.001851 -0.002770 -0.004740
# 4 -0.010815 0.004223 -0.001851 0.043795 -0.002535 0.010566
# 5 0.002112 0.000358 -0.002770 -0.002535 0.047398 -0.004932
# 6 -0.017433 0.011927 -0.004740 0.010566 -0.004932 0.032191
#
#
# Mechanical properties :
#
#
# Convention : Reuss Voigt Hill
#
# Bulk Modulus (GPa) = 28.07918 37.92510 33.00214
# Shear Modulus (GPa) = 19.82539 29.63102 24.72820
#
# Velocity S-wave (km/s) = 3.05099 3.72995 3.40742
# Velocity P-wave (km/s) = 5.05918 6.02966 5.56561
#
# Compressibility (1/GPa) = 0.03561358
#
# Stress axis : x y z
#
# Youngs Moduli (GPa) = 23.14619 45.65633 89.49777
#
# Poissons Ratio (x) = 0.80123 -0.16987
# Poissons Ratio (y) = 0.40620 0.41903
# Poissons Ratio (z) = -0.04393 0.21376
#
# Static dielectric constant tensor:
#      x y z
#    x 3.723930 -0.124540 -0.024600 
#    y -0.124540 3.893600 0.106390 
#    z -0.024600 0.106390 3.662120 
# 
# 
# High freq. dielectric constant tensor:
#      x y z
#    x 1.827680 -0.016110 -0.002320 
#    y -0.016110 1.846890 0.007140 
#    z -0.002320 0.007140 1.820520 
# 
# From -- ./inp_files/153784.got.cif
#   From: 2010.06.25/outbox.cif.g09.slc.cpg/sg2_77_cif.got.tgz:153784.got - 2010.06.27 13:26:56.
