data_PCOD8029534
_publ_section_title
;
Structure prediction by ZEFSAII (Michael W. Deem and Ramdas Pophale) SiO2 
 PCOD8029534
Probable space group: P -1
;
_chemical_formula_sum "Si O2"
_cell_formula_units_Z 16
_cell_length_a 23.416694
_cell_length_b 9.071854
_cell_length_c 9.529907
_cell_angle_alpha 128.794148
_cell_angle_beta 27.544824
_cell_angle_gamma 127.959139
_cell_volume 719.632564
_symmetry_space_group_name_H-M "P -1"
_symmetry_group_IT_number 2
_symmetry_cell_setting 'triclinic'
loop_
_space_group_symop_operation_xyz
x,y,z
-x,-y,-z
loop_
_atom_site_type_symbol
_atom_site_label
_atom_site_fract_x
_atom_site_fract_y
_atom_site_fract_z
Si Si1 0.601270 0.965332 0.544994
Si Si2 0.616210 0.829726 0.916640
Si Si3 0.674756 0.674314 0.421900
Si Si4 0.959444 0.675010 0.775580
Si Si5 0.134696 0.995370 0.427809
Si Si6 0.477066 0.711240 0.418393
Si Si7 0.765164 0.211253 0.148237
Si Si8 0.919688 0.600425 0.127281
O O1 0.622955 0.848498 0.565358
O O2 0.564840 0.834308 0.411408
O O3 0.732693 0.101597 0.301057
O O4 0.493077 0.091106 0.883309
O O5 0.684223 0.703920 0.586549
O O6 0.723690 0.007666 0.829863
O O7 0.563645 0.695412 0.083032
O O8 0.572869 0.485280 0.508803
O O9 0.811701 0.658070 0.056944
O O10 0.000000 0.500000 0.500000
O O11 0.031930 0.876568 0.681382
O O12 0.992663 0.671844 0.867036
O O13 0.118153 0.219626 0.596570
O O14 0.130140 0.889528 0.221943
O O15 0.362144 0.813322 0.681058
O O16 0.807187 0.436230 0.221422
O O17 0.000000 0.500000 0.000000
#
# Coordination Sequence:
#
# PCOD8029534 Si02
#       8
#     2   2   2   2   2   2   2   2
#     4  11  24  40  71 106 135 181 223 295 350 412
#     4  11  22  42  70  97 133 188 226 280 358 414
#     4  12  25  41  66 105 141 173 235 289 349 410
#     4  12  26  47  71  98 143 196 228 290 353 414
#     4  12  23  46  76  98 141 192 235 282 360 418
#     4  11  20  44  70  97 137 183 227 275 353 425
#     4  11  22  47  71  99 145 179 236 288 352 420
#     4  12  28  45  70 104 133 185 245 291 340 418
#
# _framework density 22.23357
#
# number of rings (size 3 to 8) (size 9 to 14) (size 15 to 20)
#    0.000    0.500    6.250    2.250    1.750    2.500 
#    0.000    0.000    0.000    0.000    0.000    0.000 
#    0.000    0.000    0.000    0.000    0.000    0.000 
#
# Total GULP energy -198335.541334 kJ/mol
# GULP energy per Si atom -12395.971333 kJ/mol
# Density = 2.218296 g / cm^3
# Si number density = 22.233570 Si / 1000 Ang^3
#
#
#
# Elastic Constant Matrix: (Units=GPa)
#
#
# Indices 1 2 3 4 5 6 
#
# 1 57.4650 21.4214 26.6024 -2.6417 1.6430 -7.9975
# 2 21.4214 153.9316 67.5379 -11.7368 5.5511 -5.4276
# 3 26.6024 67.5379 134.9027 -6.1942 7.2356 -0.8319
# 4 -2.6417 -11.7368 -6.1942 46.9444 5.7189 4.9926
# 5 1.6430 5.5511 7.2356 5.7189 23.0806 0.4552
# 6 -7.9975 -5.4276 -0.8319 4.9926 0.4552 32.4160
#
#
#
# Elastic Compliance Matrix: (Units=1/GPa)
#
#
# Indices 1 2 3 4 5 6 
#
# 1 0.020030 -0.001159 -0.003335 -0.000079 -0.000174 0.004677
# 2 -0.001159 0.008572 -0.003921 0.001616 -0.001166 0.000816
# 3 -0.003335 -0.003921 0.010166 0.000567 -0.002122 -0.001276
# 4 -0.000079 0.001616 0.000567 0.022864 -0.006164 -0.003169
# 5 -0.000174 -0.001166 -0.002122 -0.006164 0.045812 0.000013
# 6 0.004677 0.000816 -0.001276 -0.003169 0.000013 0.032595
#
#
# Mechanical properties :
#
#
# Convention : Reuss Voigt Hill
#
# Bulk Modulus (GPa) = 45.58470 64.15808 54.87139
# Shear Modulus (GPa) = 30.45418 35.87070 33.16244
#
# Velocity S-wave (km/s) = 3.70501 4.02102 3.86625
# Velocity P-wave (km/s) = 6.23298 7.10473 6.68308
#
# Compressibility (1/GPa) = 0.02193719
#
# Stress axis : x y z
#
# Youngs Moduli (GPa) = 49.92497 116.65639 98.37144
#
# Poissons Ratio (x) = 0.13520 0.32808
# Poissons Ratio (y) = 0.05786 0.38574
# Poissons Ratio (z) = 0.16650 0.45744
#
# Static dielectric constant tensor:
#      x y z
#    x 3.887170 0.043560 0.039380 
#    y 0.043560 4.285530 -0.155840 
#    z 0.039380 -0.155840 4.092440 
# 
# 
# High freq. dielectric constant tensor:
#      x y z
#    x 1.852690 0.002100 0.007920 
#    y 0.002100 1.890640 -0.003670 
#    z 0.007920 -0.003670 1.886340 
# 
# From -- ./inp_files/352374.got.cif
#   From: 2010.06.25/outbox.cif.g09.slc.cpg/sg2_177_cif.got.tgz:352374.got - 2010.06.27 13:26:56.
