data_PCOD8029330
_publ_section_title
;
Structure prediction by ZEFSAII (Michael W. Deem and Ramdas Pophale) SiO2 
 PCOD8029330
Probable space group: P -1
;
_chemical_formula_sum "Si O2"
_cell_formula_units_Z 16
_cell_length_a 23.017025
_cell_length_b 11.747215
_cell_length_c 19.378442
_cell_angle_alpha 30.030488
_cell_angle_beta 17.142629
_cell_angle_gamma 39.149875
_cell_volume 723.687946
_symmetry_space_group_name_H-M "P -1"
_symmetry_group_IT_number 2
_symmetry_cell_setting 'triclinic'
loop_
_space_group_symop_operation_xyz
x,y,z
-x,-y,-z
loop_
_atom_site_type_symbol
_atom_site_label
_atom_site_fract_x
_atom_site_fract_y
_atom_site_fract_z
Si Si1 0.561191 0.553767 0.589607
Si Si2 0.019904 0.630227 0.981101
Si Si3 0.127654 0.390284 0.546897
Si Si4 0.291842 0.902395 0.881999
Si Si5 0.685020 0.618557 0.174238
Si Si6 0.240188 0.892719 0.101358
Si Si7 0.677298 0.845875 0.656999
Si Si8 0.497374 0.491805 0.166057
O O1 0.407550 0.385692 0.794904
O O2 0.477883 0.434849 0.820357
O O3 0.555811 0.826595 0.451272
O O4 0.796465 0.564152 0.305319
O O5 0.161013 0.535075 0.921843
O O6 0.114493 0.916911 0.708488
O O7 0.000000 0.500000 0.000000
O O8 0.295018 0.353455 0.321878
O O9 0.247471 0.413198 0.471869
O O10 0.092953 0.640218 0.434692
O O11 0.897548 0.183281 0.914676
O O12 0.184019 0.896634 0.082337
O O13 0.432635 0.735890 0.809188
O O14 0.500000 0.500000 0.500000
O O15 0.807198 0.894269 0.915343
O O16 0.485189 0.928930 0.810221
O O17 0.639674 0.729134 0.837495
#
# Coordination Sequence:
#
# PCOD8029330 Si02
#       8
#     2   2   2   2   2   2   2   2
#     4  12  26  43  64  99 133 170 215 268 327 379
#     4  12  23  42  70  96 122 173 227 264 309 377
#     4  11  23  39  67  99 129 169 217 262 321 387
#     4  12  21  38  68  97 130 167 212 264 326 386
#     4  12  23  41  69  94 127 171 223 267 309 378
#     4  11  20  40  66  99 127 162 220 273 306 376
#     4  11  20  42  68  93 132 169 215 268 315 385
#     4  11  26  42  61  99 139 168 204 268 339 382
#
# _framework density 22.108979000000001
#
# number of rings (size 3 to 8) (size 9 to 14) (size 15 to 20)
#    0.000    0.500    7.500    1.500    0.000    1.500 
#    0.000    5.625    0.000    4.500    0.000    0.000 
#    0.000    0.000    0.000    0.000    0.000    0.000 
#
# Total GULP energy -198469.576086 kJ/mol
# GULP energy per Si atom -12404.348505 kJ/mol
# Density = 2.205866 g / cm^3
# Si number density = 22.108979 Si / 1000 Ang^3
#
#
#
# Elastic Constant Matrix: (Units=GPa)
#
#
# Indices 1 2 3 4 5 6 
#
# 1 144.3005 27.2689 18.8905 -0.9019 6.4243 3.4036
# 2 27.2689 104.4050 24.1331 -10.1807 4.7737 -6.5512
# 3 18.8905 24.1331 34.3802 -0.6500 1.9852 3.7301
# 4 -0.9019 -10.1807 -0.6500 23.8204 0.6424 -9.9967
# 5 6.4243 4.7737 1.9852 0.6424 30.6719 1.5579
# 6 3.4036 -6.5512 3.7301 -9.9967 1.5579 32.8199
#
#
#
# Elastic Compliance Matrix: (Units=1/GPa)
#
#
# Indices 1 2 3 4 5 6 
#
# 1 0.007660 -0.001353 -0.003112 -0.000709 -0.001133 -0.000873
# 2 -0.001353 0.013282 -0.009019 0.008095 -0.001693 0.006363
# 3 -0.003112 -0.009019 0.037835 -0.006158 0.000125 -0.007659
# 4 -0.000709 0.008095 -0.006158 0.053176 -0.002777 0.018718
# 5 -0.001133 -0.001693 0.000125 -0.002777 0.033289 -0.002661
# 6 -0.000873 0.006363 -0.007659 0.018718 -0.002661 0.038528
#
#
# Mechanical properties :
#
#
# Convention : Reuss Voigt Hill
#
# Bulk Modulus (GPa) = 31.43919 47.07453 39.25686
# Shear Modulus (GPa) = 22.58936 31.64866 27.11901
#
# Velocity S-wave (km/s) = 3.19992 3.78760 3.50609
# Velocity P-wave (km/s) = 5.28238 6.36130 5.84678
#
# Compressibility (1/GPa) = 0.03180744
#
# Stress axis : x y z
#
# Youngs Moduli (GPa) = 130.55283 75.28717 26.43060
#
# Poissons Ratio (x) = 0.10189 0.08225
# Poissons Ratio (y) = 0.17669 0.23839
# Poissons Ratio (z) = 0.40627 0.67905
#
# Static dielectric constant tensor:
#      x y z
#    x 3.964900 -0.083760 -0.121600 
#    y -0.083760 4.391720 -0.139240 
#    z -0.121600 -0.139240 3.619440 
# 
# 
# High freq. dielectric constant tensor:
#      x y z
#    x 1.866690 -0.012250 -0.020320 
#    y -0.012250 1.881620 -0.004170 
#    z -0.020320 -0.004170 1.847710 
# 
# From -- ./inp_files/272845.got.cif
#   From: 2010.06.25/outbox.cif.g09.slc.cpg/sg2_137_cif.got.tgz:272845.got - 2010.06.27 13:26:56.
