data_PCOD8029385
_publ_section_title
;
Structure prediction by ZEFSAII (Michael W. Deem and Ramdas Pophale) SiO2 
 PCOD8029385
Probable space group: P -1
;
_chemical_formula_sum "Si O2"
_cell_formula_units_Z 16
_cell_length_a 8.468191
_cell_length_b 15.135380
_cell_length_c 9.294544
_cell_angle_alpha 40.218320
_cell_angle_beta 90.157360
_cell_angle_gamma 78.357257
_cell_volume 729.844574
_symmetry_space_group_name_H-M "P -1"
_symmetry_group_IT_number 2
_symmetry_cell_setting 'triclinic'
loop_
_space_group_symop_operation_xyz
x,y,z
-x,-y,-z
loop_
_atom_site_type_symbol
_atom_site_label
_atom_site_fract_x
_atom_site_fract_y
_atom_site_fract_z
Si Si1 0.356094 0.147330 0.331424
Si Si2 0.987107 0.858770 0.752097
Si Si3 0.681530 0.339620 0.452303
Si Si4 0.185750 0.435379 0.520688
Si Si5 0.140257 0.580713 0.910006
Si Si6 0.437985 0.340515 0.872386
Si Si7 0.347757 0.316078 0.388319
Si Si8 0.219135 0.736179 0.149199
O O1 0.204348 0.129917 0.260903
O O2 0.313879 0.191199 0.444018
O O3 0.500000 0.000000 0.500000
O O4 0.408763 0.278555 0.102682
O O5 0.089500 0.715432 0.847804
O O6 0.000000 0.000000 0.500000
O O7 0.059132 0.846464 0.931185
O O8 0.816935 0.359369 0.315788
O O9 0.569064 0.493938 0.320163
O O10 0.545910 0.266644 0.486170
O O11 0.789895 0.243613 0.702506
O O12 0.294414 0.333106 0.770962
O O13 0.220542 0.337805 0.496970
O O14 0.241796 0.571927 0.312267
O O15 0.000000 0.500000 0.500000
O O16 0.306097 0.466196 0.114621
O O17 0.000000 0.500000 0.000000
O O18 0.613737 0.238070 0.940824
#
# Coordination Sequence:
#
# PCOD8029385 Si02
#       8
#     2   2   2   2   2   2   2   2
#     4  12  28  44  68  97 137 190 235 288 353 416
#     4  12  26  46  69  98 138 183 232 288 356 426
#     4  11  22  39  68 105 136 180 221 291 352 413
#     4  11  22  36  68 105 141 177 224 293 355 410
#     4  12  24  42  69 108 139 175 239 294 346 410
#     4  11  20  41  63 102 137 173 231 283 351 416
#     4  12  23  42  69 102 141 174 240 283 345 414
#     4  11  22  40  65  98 140 176 229 280 356 421
#
# _framework density 21.922474000000001
#
# number of rings (size 3 to 8) (size 9 to 14) (size 15 to 20)
#    0.000    0.500    6.250    2.625    7.000    0.000 
#    0.000    1.250    0.000    0.000    0.000    0.000 
#    0.000    0.000    0.000    0.000    0.000    0.000 
#
# Total GULP energy -198342.977133 kJ/mol
# GULP energy per Si atom -12396.436071 kJ/mol
# Density = 2.187258 g / cm^3
# Si number density = 21.922474 Si / 1000 Ang^3
#
#
#
# Elastic Constant Matrix: (Units=GPa)
#
#
# Indices 1 2 3 4 5 6 
#
# 1 147.5332 41.5858 46.2707 22.2292 18.2154 -5.6843
# 2 41.5858 92.4218 41.7698 17.0811 13.5034 -7.6251
# 3 46.2707 41.7698 101.0662 16.3829 22.7276 8.1594
# 4 22.2292 17.0811 16.3829 42.1765 -0.1195 -2.6157
# 5 18.2154 13.5034 22.7276 -0.1195 42.5305 7.7899
# 6 -5.6843 -7.6251 8.1594 -2.6157 7.7899 31.9603
#
#
#
# Elastic Compliance Matrix: (Units=1/GPa)
#
#
# Indices 1 2 3 4 5 6 
#
# 1 0.008868 -0.001829 -0.002502 -0.002837 -0.002273 0.002101
# 2 -0.001829 0.015098 -0.004777 -0.003002 -0.002349 0.004823
# 3 -0.002502 -0.004777 0.014852 -0.002808 -0.004532 -0.004502
# 4 -0.002837 -0.003002 -0.002808 0.027576 0.003585 0.000879
# 5 -0.002273 -0.002349 -0.004532 0.003585 0.028863 -0.006549
# 6 0.002101 0.004823 -0.004502 0.000879 -0.006549 0.035631
#
#
# Mechanical properties :
#
#
# Convention : Reuss Voigt Hill
#
# Bulk Modulus (GPa) = 48.54244 66.69707 57.61975
# Shear Modulus (GPa) = 32.05711 37.42646 34.74179
#
# Velocity S-wave (km/s) = 3.82814 4.13633 3.98522
# Velocity P-wave (km/s) = 6.45991 7.30085 6.89322
#
# Compressibility (1/GPa) = 0.02060053
#
# Stress axis : x y z
#
# Youngs Moduli (GPa) = 112.76960 66.23405 67.33097
#
# Poissons Ratio (x) = 0.12116 0.16850
# Poissons Ratio (y) = 0.20629 0.32162
# Poissons Ratio (z) = 0.28220 0.31638
#
# Static dielectric constant tensor:
#      x y z
#    x 4.107540 0.160820 0.215480 
#    y 0.160820 3.863100 0.357360 
#    z 0.215480 0.357360 3.991660 
# 
# 
# High freq. dielectric constant tensor:
#      x y z
#    x 1.871210 0.000200 0.012040 
#    y 0.000200 1.844380 0.029930 
#    z 0.012040 0.029930 1.849750 
# 
# From -- ./inp_files/180383.got.cif
#   From: 2010.06.25/outbox.cif.g09.slc.cpg/sg2_91_cif.got.tgz:180383.got - 2010.06.27 13:26:56.
