data_PCOD8029227
_publ_section_title
;
Structure prediction by ZEFSAII (Michael W. Deem and Ramdas Pophale) SiO2 
 PCOD8029227
Probable space group: P -1
;
_chemical_formula_sum "Si O2"
_cell_formula_units_Z 16
_cell_length_a 13.848149
_cell_length_b 21.491326
_cell_length_c 14.067933
_cell_angle_alpha 20.641496
_cell_angle_beta 31.420889
_cell_angle_gamma 31.539013
_cell_volume 735.849436
_symmetry_space_group_name_H-M "P -1"
_symmetry_group_IT_number 2
_symmetry_cell_setting 'triclinic'
loop_
_space_group_symop_operation_xyz
x,y,z
-x,-y,-z
loop_
_atom_site_type_symbol
_atom_site_label
_atom_site_fract_x
_atom_site_fract_y
_atom_site_fract_z
Si Si1 0.504512 0.986560 0.257223
Si Si2 0.576204 0.441687 0.416844
Si Si3 0.872214 0.105379 0.720713
Si Si4 0.985575 0.139903 0.225498
Si Si5 0.506170 0.700862 0.943034
Si Si6 0.556701 0.381476 0.214728
Si Si7 0.263469 0.049911 0.565642
Si Si8 0.636837 0.828755 0.072463
O O1 0.550027 0.777835 0.475245
O O2 0.402340 0.003733 0.420990
O O3 0.703186 0.045371 0.004128
O O4 0.352644 0.116085 0.125961
O O5 0.500000 0.500000 0.500000
O O6 0.789730 0.298390 0.456618
O O7 0.448317 0.342387 0.604525
O O8 0.558393 0.633439 0.104241
O O9 0.035136 0.123137 0.632642
O O10 0.980205 0.955688 0.768200
O O11 0.783992 0.294373 0.165820
O O12 0.000000 0.000000 0.500000
O O13 0.150969 0.239040 0.963612
O O14 0.678526 0.794476 0.642069
O O15 0.305903 0.862949 0.860842
O O16 0.492142 0.523134 0.152281
O O17 0.500000 0.500000 0.000000
O O18 0.500000 0.000000 0.000000
#
# Coordination Sequence:
#
# PCOD8029227 Si02
#       8
#     2   2   2   2   2   2   2   2
#     4  11  21  41  69  92 134 171 216 274 329 386
#     4  11  24  41  66 101 134 166 221 280 328 381
#     4  11  23  42  70  96 129 179 220 265 334 399
#     4  12  21  36  65  97 126 177 219 264 336 392
#     4  11  24  43  67  94 135 177 211 283 329 381
#     4  12  23  41  65  99 135 168 223 277 325 385
#     4  11  24  47  67  91 133 184 218 256 344 403
#     4  11  20  38  63  94 128 167 217 274 323 387
#
# _framework density 21.743577999999999
#
# number of rings (size 3 to 8) (size 9 to 14) (size 15 to 20)
#    0.000    0.750    6.250    3.000    0.000    1.500 
#    2.250    6.875    0.000    0.000    0.000    0.000 
#    0.000    0.000    0.000    0.000    0.000    0.000 
#
# Total GULP energy -198267.055467 kJ/mol
# GULP energy per Si atom -12391.690967 kJ/mol
# Density = 2.169409 g / cm^3
# Si number density = 21.743578 Si / 1000 Ang^3
#
#
#
# Elastic Constant Matrix: (Units=GPa)
#
#
# Indices 1 2 3 4 5 6 
#
# 1 101.6490 22.3877 32.9942 -3.9592 -0.4849 -32.7191
# 2 22.3877 44.0930 36.5115 -7.5406 5.1889 -16.2319
# 3 32.9942 36.5115 96.9899 -17.7312 10.4415 -21.6363
# 4 -3.9592 -7.5406 -17.7312 30.2863 -4.6006 0.6191
# 5 -0.4849 5.1889 10.4415 -4.6006 45.0666 -8.3030
# 6 -32.7191 -16.2319 -21.6363 0.6191 -8.3030 51.9481
#
#
#
# Elastic Compliance Matrix: (Units=1/GPa)
#
#
# Indices 1 2 3 4 5 6 
#
# 1 0.013431 -0.002623 -0.002253 -0.000016 0.002268 0.007064
# 2 -0.002623 0.035134 -0.010896 0.001855 -0.000496 0.004686
# 3 -0.002253 -0.010896 0.017001 0.006652 -0.001678 0.001910
# 4 -0.000016 0.001855 0.006652 0.037716 0.002708 0.003323
# 5 0.002268 -0.000496 -0.001678 0.002708 0.023735 0.004336
# 6 0.007064 0.004686 0.001910 0.003323 0.004336 0.026613
#
#
# Mechanical properties :
#
#
# Convention : Reuss Voigt Hill
#
# Bulk Modulus (GPa) = 29.39202 47.39097 38.39150
# Shear Modulus (GPa) = 25.44344 35.51610 30.47977
#
# Velocity S-wave (km/s) = 3.42447 4.04593 3.74810
# Velocity P-wave (km/s) = 5.40212 6.60823 6.03538
#
# Compressibility (1/GPa) = 0.03402284
#
# Stress axis : x y z
#
# Youngs Moduli (GPa) = 74.45621 28.46210 58.81912
#
# Poissons Ratio (x) = 0.07466 0.13250
# Poissons Ratio (y) = 0.19531 0.64089
# Poissons Ratio (z) = 0.16773 0.31012
#
# Static dielectric constant tensor:
#      x y z
#    x -2.642280 4.188680 -1.697770 
#    y 4.188680 1.792980 0.252740 
#    z -1.697770 0.252740 4.295600 
# 
# 
# High freq. dielectric constant tensor:
#      x y z
#    x 1.879920 0.001150 -0.001140 
#    y 0.001150 1.829470 -0.016500 
#    z -0.001140 -0.016500 1.855470 
# 
# From -- ./inp_files/535371.got.cif
#   From: 2010.06.25/outbox.cif.g09.slc.cpg/sg2_268_cif.got.tgz:535371.got - 2010.06.27 13:26:56.
