data_PCOD8029255
_publ_section_title
;
Structure prediction by ZEFSAII (Michael W. Deem and Ramdas Pophale) SiO2 
 PCOD8029255
Probable space group: P -1
;
_chemical_formula_sum "Si O2"
_cell_formula_units_Z 14
_cell_length_a 9.098741
_cell_length_b 20.339353
_cell_length_c 11.234019
_cell_angle_alpha 30.134311
_cell_angle_beta 65.577661
_cell_angle_gamma 43.234392
_cell_volume 555.229569
_symmetry_space_group_name_H-M "P -1"
_symmetry_group_IT_number 2
_symmetry_cell_setting 'triclinic'
loop_
_space_group_symop_operation_xyz
x,y,z
-x,-y,-z
loop_
_atom_site_type_symbol
_atom_site_label
_atom_site_fract_x
_atom_site_fract_y
_atom_site_fract_z
Si Si1 0.865470 0.131928 0.692972
Si Si2 0.572936 0.085551 0.776563
Si Si3 0.252854 0.598522 0.501082
Si Si4 0.756341 0.889958 0.763538
Si Si5 0.644946 0.167742 0.188720
Si Si6 0.015822 0.508499 0.620828
Si Si7 0.647240 0.401451 0.980112
O O1 0.802496 0.017885 0.880582
O O2 0.921475 0.162973 0.756572
O O3 0.570569 0.393628 0.358815
O O4 0.115060 0.005011 0.720410
O O5 0.275459 0.352145 0.447882
O O6 0.667609 0.011239 0.726741
O O7 0.500000 0.000000 0.000000
O O8 0.500000 0.500000 0.500000
O O9 0.056682 0.638493 0.421172
O O10 0.365885 0.414251 0.843854
O O11 0.079123 0.696945 0.940674
O O12 0.593141 0.059772 0.438875
O O13 0.733907 0.744736 0.008450
O O14 0.740363 0.197640 0.219096
O O15 0.000000 0.500000 0.500000
O O16 0.500000 0.500000 0.000000
#
# Coordination Sequence:
#
# PCOD8029255 Si02
#       7
#     2   2   2   2   2   2   2
#     4  11  23  44  72 104 146 186 241 297 360 431
#     4  12  25  41  73 108 145 194 242 292 358 425
#     4  11  29  48  71 102 147 190 239 302 364 436
#     4  12  24  41  74 109 148 183 245 299 351 432
#     4  11  25  43  71 110 143 191 239 293 371 424
#     4  12  27  49  71 102 143 188 243 301 362 427
#     4  11  20  38  70 110 145 181 236 295 355 419
#
# _framework density 25.214796
#
# number of rings (size 3 to 8) (size 9 to 14) (size 15 to 20)
#    0.000    0.571    5.714    2.143    4.000    2.286 
#    0.000    1.429    0.000    0.000    0.000    0.000 
#    0.000    0.000    0.000    0.000    0.000    0.000 
#
# Total GULP energy -173462.633066 kJ/mol
# GULP energy per Si atom -12390.188076 kJ/mol
# Density = 2.515741 g / cm^3
# Si number density = 25.214796 Si / 1000 Ang^3
#
#
#
# Elastic Constant Matrix: (Units=GPa)
#
#
# Indices 1 2 3 4 5 6 
#
# 1 123.8811 56.5185 14.7727 2.2973 -32.2483 20.6206
# 2 56.5185 183.8025 11.4784 -11.3126 -21.6984 22.5244
# 3 14.7727 11.4784 93.9280 9.7635 -38.5134 10.9693
# 4 2.2973 -11.3126 9.7635 36.8757 -3.7267 -8.1388
# 5 -32.2483 -21.6984 -38.5134 -3.7267 38.9140 -11.3632
# 6 20.6206 22.5244 10.9693 -8.1388 -11.3632 35.1070
#
#
#
# Elastic Compliance Matrix: (Units=1/GPa)
#
#
# Indices 1 2 3 4 5 6 
#
# 1 0.012268 -0.002363 0.003559 -0.002129 0.011084 -0.003708
# 2 -0.002363 0.006706 0.000264 0.001848 0.001623 -0.002044
# 3 0.003559 0.000264 0.019442 -0.003635 0.021326 -0.002274
# 4 -0.002129 0.001848 -0.003635 0.030824 0.001168 0.008725
# 5 0.011084 0.001623 0.021326 0.001168 0.058460 0.004977
# 6 -0.003708 -0.002044 -0.002274 0.008725 0.004977 0.036318
#
#
# Mechanical properties :
#
#
# Convention : Reuss Voigt Hill
#
# Bulk Modulus (GPa) = 24.19153 63.01674 43.60414
# Shear Modulus (GPa) = 28.59148 43.43548 36.01348
#
# Velocity S-wave (km/s) = 3.37102 4.15495 3.78334
# Velocity P-wave (km/s) = 4.97662 6.93284 6.03453
#
# Compressibility (1/GPa) = 0.04133678
#
# Stress axis : x y z
#
# Youngs Moduli (GPa) = 81.51329 149.11020 51.43412
#
# Poissons Ratio (x) = 0.35231 -0.18303
# Poissons Ratio (y) = 0.19259 -0.01359
# Poissons Ratio (z) = -0.29007 -0.03940
#
# Static dielectric constant tensor:
#      x y z
#    x 4.801240 0.310840 -0.034000 
#    y 0.310840 4.582530 -0.283480 
#    z -0.034000 -0.283480 5.569190 
# 
# 
# High freq. dielectric constant tensor:
#      x y z
#    x 2.002320 0.014530 -0.014210 
#    y 0.014530 2.002690 -0.008870 
#    z -0.014210 -0.008870 2.042130 
# 
# From -- ./inp_files/365067.got.cif
#   From: 2010.06.25/outbox.cif.g09.slc.cpg/sg2_183_cif.got.tgz:365067.got - 2010.06.27 13:26:56.
