data_PCOD8029334
_publ_section_title
;
Structure prediction by ZEFSAII (Michael W. Deem and Ramdas Pophale) SiO2 
 PCOD8029334
Probable space group: P -1
;
_chemical_formula_sum "Si O2"
_cell_formula_units_Z 12
_cell_length_a 11.892235
_cell_length_b 9.432249
_cell_length_c 9.094798
_cell_angle_alpha 133.875567
_cell_angle_beta 96.094987
_cell_angle_gamma 61.191824
_cell_volume 601.002035
_symmetry_space_group_name_H-M "P -1"
_symmetry_group_IT_number 2
_symmetry_cell_setting 'triclinic'
loop_
_space_group_symop_operation_xyz
x,y,z
-x,-y,-z
loop_
_atom_site_type_symbol
_atom_site_label
_atom_site_fract_x
_atom_site_fract_y
_atom_site_fract_z
Si Si1 0.204340 0.329469 0.295999
Si Si2 0.664645 0.406224 0.603852
Si Si3 0.356682 0.806050 0.839294
Si Si4 0.104758 0.414340 0.659879
Si Si5 0.871860 0.175059 0.002959
Si Si6 0.869907 0.029108 0.576161
O O1 0.242743 0.512803 0.392233
O O2 0.205601 0.305031 0.454441
O O3 0.054168 0.425869 0.288898
O O4 0.311313 0.074928 0.052272
O O5 0.514191 0.632198 0.786632
O O6 0.658372 0.233006 0.362694
O O7 0.731859 0.260973 0.659157
O O8 0.268495 0.742220 0.876905
O O9 0.134659 0.201594 0.619492
O O10 0.133893 0.590014 0.874010
O O11 0.884508 0.035920 0.757855
O O12 0.000000 0.000000 0.000000
O O13 0.000000 0.000000 0.500000
#
# Coordination Sequence:
#
# PCOD8029334 Si02
#       6
#     2   2   2   2   2   2
#     4  11  20  40  67  93 122 166 213 256 306 379
#     4  11  25  42  63  96 129 162 216 257 309 368
#     4  11  23  42  68  89 126 175 207 253 312 381
#     4  11  22  37  67  96 122 161 214 257 312 376
#     4  12  22  41  68  92 125 169 208 254 318 374
#     4  12  25  41  63  97 130 159 207 273 310 361
#
# _framework density 19.966654999999999
#
# number of rings (size 3 to 8) (size 9 to 14) (size 15 to 20)
#    0.000    0.667    6.667    2.500    0.000    2.667 
#    0.000    0.833    0.000    0.000    0.000    0.000 
#    0.000    0.000    0.000    0.000    0.000    0.000 
#
# Total GULP energy -148846.897559 kJ/mol
# GULP energy per Si atom -12403.908130 kJ/mol
# Density = 1.992121 g / cm^3
# Si number density = 19.966655 Si / 1000 Ang^3
#
#
#
# Elastic Constant Matrix: (Units=GPa)
#
#
# Indices 1 2 3 4 5 6 
#
# 1 62.2211 24.5382 4.5834 2.4922 0.2636 9.4081
# 2 24.5382 109.4420 27.3046 9.8475 2.1688 1.3678
# 3 4.5834 27.3046 86.9223 15.2116 -2.1044 -6.7566
# 4 2.4922 9.8475 15.2116 28.0767 10.5789 8.2090
# 5 0.2636 2.1688 -2.1044 10.5789 37.9091 7.5610
# 6 9.4081 1.3678 -6.7566 8.2090 7.5610 36.7135
#
#
#
# Elastic Compliance Matrix: (Units=1/GPa)
#
#
# Indices 1 2 3 4 5 6 
#
# 1 0.018428 -0.004124 -0.000243 0.001116 0.000785 -0.005024
# 2 -0.004124 0.010946 -0.002827 -0.002008 -0.000323 0.000644
# 3 -0.000243 -0.002827 0.014381 -0.009022 0.002623 0.004291
# 4 0.001116 -0.002008 -0.009022 0.048603 -0.011905 -0.010287
# 5 0.000785 -0.000323 0.002623 -0.011905 0.030524 -0.003331
# 6 -0.005024 0.000644 0.004291 -0.010287 -0.003331 0.032277
#
#
# Mechanical properties :
#
#
# Convention : Reuss Voigt Hill
#
# Bulk Modulus (GPa) = 34.05253 41.27084 37.66169
# Shear Modulus (GPa) = 27.88027 34.01714 30.94871
#
# Velocity S-wave (km/s) = 3.74082 4.13207 3.94130
# Velocity P-wave (km/s) = 5.97913 6.59394 6.29405
#
# Compressibility (1/GPa) = 0.02936639
#
# Stress axis : x y z
#
# Youngs Moduli (GPa) = 54.26575 91.35414 69.53443
#
# Poissons Ratio (x) = 0.37677 0.01689
# Poissons Ratio (y) = 0.22381 0.19660
# Poissons Ratio (z) = 0.01318 0.25829
#
# Static dielectric constant tensor:
#      x y z
#    x 3.903980 0.203500 0.084750 
#    y 0.203500 3.707800 -0.014580 
#    z 0.084750 -0.014580 3.843690 
# 
# 
# High freq. dielectric constant tensor:
#      x y z
#    x 1.789490 0.012750 0.003800 
#    y 0.012750 1.761590 0.012170 
#    z 0.003800 0.012170 1.788040 
# 
# From -- ./inp_files/147577.got.cif
#   From: 2010.06.25/outbox.cif.g09.slc.cpg/sg2_74_cif.got.tgz:147577.got - 2010.06.27 13:26:56.
