data_PCOD8029742
_publ_section_title
;
Structure prediction by ZEFSAII (Michael W. Deem and Ramdas Pophale) SiO2 
 PCOD8029742
Probable space group: P -1
;
_chemical_formula_sum "Si O2"
_cell_formula_units_Z 16
_cell_length_a 9.066774
_cell_length_b 7.787953
_cell_length_c 13.427976
_cell_angle_alpha 53.821714
_cell_angle_beta 104.735364
_cell_angle_gamma 109.669711
_cell_volume 718.754362
_symmetry_space_group_name_H-M "P -1"
_symmetry_group_IT_number 2
_symmetry_cell_setting 'triclinic'
loop_
_space_group_symop_operation_xyz
x,y,z
-x,-y,-z
loop_
_atom_site_type_symbol
_atom_site_label
_atom_site_fract_x
_atom_site_fract_y
_atom_site_fract_z
Si Si1 0.813969 0.384590 0.883392
Si Si2 0.426479 0.772118 0.267470
Si Si3 0.922791 0.872503 0.759617
Si Si4 0.101535 0.206801 0.997530
Si Si5 0.724520 0.140215 0.154311
Si Si6 0.312184 0.895746 0.417980
Si Si7 0.493126 0.642186 0.644014
Si Si8 0.606030 0.487771 0.116847
O O1 0.720878 0.235536 0.829492
O O2 0.825866 0.641258 0.774668
O O3 0.997485 0.385337 0.922551
O O4 0.732457 0.291203 0.005563
O O5 0.391794 0.869026 0.334195
O O6 0.449728 0.523460 0.365048
O O7 0.585873 0.921486 0.195992
O O8 0.111232 0.923142 0.771776
O O9 0.867886 0.080865 0.631464
O O10 0.853676 0.854391 0.864767
O O11 0.257639 0.290744 0.931297
O O12 0.000000 0.000000 0.000000
O O13 0.682823 0.280182 0.191172
O O14 0.327337 0.687416 0.559413
O O15 0.392628 0.119066 0.412870
O O16 0.484870 0.526589 0.790055
O O17 0.500000 0.500000 0.000000
#
# Coordination Sequence:
#
# PCOD8029742 Si02
#       8
#     2   2   2   2   2   2   2   2
#     4  11  21  39  63  97 133 175 214 269 330 393
#     4  12  24  42  69  98 127 174 228 273 329 389
#     4  11  21  44  63  94 134 179 216 267 329 395
#     4  11  23  36  62  97 139 172 216 266 330 400
#     4  11  23  39  64 100 140 165 217 279 328 392
#     4  11  24  46  70  90 130 183 227 267 332 384
#     4  11  25  43  68  99 132 170 226 281 318 394
#     4  12  23  40  67 101 136 174 211 272 343 389
#
# _framework density 22.260736999999999
#
# number of rings (size 3 to 8) (size 9 to 14) (size 15 to 20)
#    0.000    0.750    5.000    3.750    5.250    0.000 
#    0.000    1.250    2.750    0.000    0.000    0.000 
#    0.000    0.000    0.000    0.000    0.000    0.000 
#
# Total GULP energy -198308.531380 kJ/mol
# GULP energy per Si atom -12394.283211 kJ/mol
# Density = 2.221007 g / cm^3
# Si number density = 22.260737 Si / 1000 Ang^3
#
#
#
# Elastic Constant Matrix: (Units=GPa)
#
#
# Indices 1 2 3 4 5 6 
#
# 1 66.1958 13.0785 23.6914 -1.0691 12.9895 7.9411
# 2 13.0785 94.0047 7.7274 -4.2552 1.4330 6.7668
# 3 23.6914 7.7274 85.9508 4.6510 29.4444 2.1911
# 4 -1.0691 -4.2552 4.6510 18.3571 -0.9715 4.8894
# 5 12.9895 1.4330 29.4444 -0.9715 38.6090 -5.7273
# 6 7.9411 6.7668 2.1911 4.8894 -5.7273 40.7533
#
#
#
# Elastic Compliance Matrix: (Units=1/GPa)
#
#
# Indices 1 2 3 4 5 6 
#
# 1 0.017959 -0.001769 -0.003518 0.002347 -0.003803 -0.003833
# 2 -0.001769 0.011219 -0.000880 0.003226 0.000669 -0.001764
# 3 -0.003518 -0.000880 0.017160 -0.005083 -0.012175 -0.001192
# 4 0.002347 0.003226 -0.005083 0.058769 0.003364 -0.007298
# 5 -0.003803 0.000669 -0.012175 0.003364 0.037436 0.006142
# 6 -0.003833 -0.001764 -0.001192 -0.007298 0.006142 0.027380
#
#
# Mechanical properties :
#
#
# Convention : Reuss Voigt Hill
#
# Bulk Modulus (GPa) = 29.40805 37.23843 33.32324
# Shear Modulus (GPa) = 25.82761 32.98750 29.40756
#
# Velocity S-wave (km/s) = 3.40991 3.85368 3.63857
# Velocity P-wave (km/s) = 5.36123 6.04696 5.71439
#
# Compressibility (1/GPa) = 0.03400429
#
# Stress axis : x y z
#
# Youngs Moduli (GPa) = 55.68177 89.13439 58.27668
#
# Poissons Ratio (x) = 0.15771 0.20499
# Poissons Ratio (y) = 0.09852 0.05127
# Poissons Ratio (z) = 0.19586 0.07842
#
# Static dielectric constant tensor:
#      x y z
#    x 3.236160 0.006970 0.204980 
#    y 0.006970 4.004840 0.022940 
#    z 0.204980 0.022940 4.049530 
# 
# 
# High freq. dielectric constant tensor:
#      x y z
#    x 1.875020 -0.007590 0.032410 
#    y -0.007590 1.887670 0.002000 
#    z 0.032410 0.002000 1.856300 
# 
# From -- ./inp_files/272535.got.cif
#   From: 2010.06.25/outbox.cif.g09.slc.cpg/sg2_137_cif.got.tgz:272535.got - 2010.06.27 13:26:56.
