data_PCOD8029041
_publ_section_title
;
Structure prediction by ZEFSAII (Michael W. Deem and Ramdas Pophale) SiO2 
 PCOD8029041
Probable space group: P -1
;
_chemical_formula_sum "Si O2"
_cell_formula_units_Z 16
_cell_length_a 9.526745
_cell_length_b 9.636108
_cell_length_c 12.532245
_cell_angle_alpha 82.893117
_cell_angle_beta 83.131828
_cell_angle_gamma 134.454438
_cell_volume 779.599405
_symmetry_space_group_name_H-M "P -1"
_symmetry_group_IT_number 2
_symmetry_cell_setting 'triclinic'
loop_
_space_group_symop_operation_xyz
x,y,z
-x,-y,-z
loop_
_atom_site_type_symbol
_atom_site_label
_atom_site_fract_x
_atom_site_fract_y
_atom_site_fract_z
Si Si1 0.707008 0.555742 0.488345
Si Si2 0.990921 0.858075 0.251560
Si Si3 0.855210 0.529377 0.130438
Si Si4 0.957200 0.627840 0.877013
Si Si5 0.449857 0.126728 0.499399
Si Si6 0.411183 0.218306 0.270778
Si Si7 0.731837 0.937300 0.254146
Si Si8 0.656168 0.510106 0.731753
O O1 0.500000 0.500000 0.500000
O O2 0.891795 0.746690 0.384214
O O3 0.661871 0.364943 0.472506
O O4 0.779794 0.604694 0.599760
O O5 0.936587 0.710725 0.179524
O O6 0.909120 0.951054 0.219498
O O7 0.236382 0.043697 0.221411
O O8 0.013776 0.515914 0.129835
O O9 0.629027 0.313585 0.204263
O O10 0.850730 0.580802 0.004545
O O11 0.811388 0.583243 0.803257
O O12 0.181711 0.862287 0.830290
O O13 0.346897 0.109294 0.401819
O O14 0.300350 0.053311 0.618727
O O15 0.500000 0.000000 0.500000
O O16 0.441255 0.407266 0.249794
O O17 0.523434 0.734928 0.236019
#
# Coordination Sequence:
#
# PCOD8029041 Si02
#       8
#     2   2   2   2   2   2   2   2
#     4  11  19  40  65  96 142 170 207 276 328 388
#     4  12  23  40  70 101 129 179 219 271 337 388
#     4  11  26  50  63  94 142 168 223 284 330 391
#     4  11  27  45  71  93 129 184 216 278 343 385
#     4  11  22  38  65  97 138 175 208 272 331 390
#     4  12  23  42  68  98 133 178 219 271 331 396
#     4  11  22  41  66 102 132 168 222 276 323 393
#     4  11  22  42  70 100 130 171 226 270 324 401
#
# _framework density 20.52336
#
# number of rings (size 3 to 8) (size 9 to 14) (size 15 to 20)
#    0.000    0.750    7.500    0.750    1.750    6.000 
#    0.000    3.750    0.000    0.000    0.000    0.000 
#    0.000    0.000    0.000    0.000    0.000    0.000 
#
# Total GULP energy -198430.079556 kJ/mol
# GULP energy per Si atom -12401.879972 kJ/mol
# Density = 2.047665 g / cm^3
# Si number density = 20.523360 Si / 1000 Ang^3
#
#
#
# Elastic Constant Matrix: (Units=GPa)
#
#
# Indices 1 2 3 4 5 6 
#
# 1 75.6225 41.1406 36.7185 14.3109 3.2212 -11.0971
# 2 41.1406 111.1617 45.8328 10.3000 -3.3309 -1.7781
# 3 36.7185 45.8328 113.6349 10.9549 3.0926 -0.8548
# 4 14.3109 10.3000 10.9549 25.2213 -1.3336 2.9131
# 5 3.2212 -3.3309 3.0926 -1.3336 31.7563 -3.6735
# 6 -11.0971 -1.7781 -0.8548 2.9131 -3.6735 32.4694
#
#
#
# Elastic Compliance Matrix: (Units=1/GPa)
#
#
# Indices 1 2 3 4 5 6 
#
# 1 0.020680 -0.005285 -0.003582 -0.008958 -0.001837 0.007280
# 2 -0.005285 0.012404 -0.003318 -0.000408 0.002033 -0.000948
# 3 -0.003582 -0.003318 0.011471 -0.001535 -0.001295 -0.001113
# 4 -0.008958 -0.000408 -0.001535 0.046493 0.002152 -0.007052
# 5 -0.001837 0.002033 -0.001295 0.002152 0.032445 0.002927
# 6 0.007280 -0.000948 -0.001113 -0.007052 0.002927 0.034169
#
#
# Mechanical properties :
#
#
# Convention : Reuss Voigt Hill
#
# Bulk Modulus (GPa) = 49.54607 60.86698 55.20653
# Shear Modulus (GPa) = 26.48865 29.67120 28.07993
#
# Velocity S-wave (km/s) = 3.59647 3.80640 3.70292
# Velocity P-wave (km/s) = 6.43738 7.00286 6.72606
#
# Compressibility (1/GPa) = 0.02018323
#
# Stress axis : x y z
#
# Youngs Moduli (GPa) = 48.35610 80.62158 87.17829
#
# Poissons Ratio (x) = 0.42610 0.31229
# Poissons Ratio (y) = 0.25557 0.28927
# Poissons Ratio (z) = 0.17322 0.26751
#
# Static dielectric constant tensor:
#      x y z
#    x 3.528760 -0.170900 -0.014490 
#    y -0.170900 3.947460 -0.081620 
#    z -0.014490 -0.081620 3.845190 
# 
# 
# High freq. dielectric constant tensor:
#      x y z
#    x 1.787890 -0.011880 0.000200 
#    y -0.011880 1.814460 0.001110 
#    z 0.000200 0.001110 1.803480 
# 
# From -- ./inp_files/382283.got.cif
#   From: 2010.06.25/outbox.cif.g09.slc.cpg/sg2_192_cif.got.tgz:382283.got - 2010.06.27 13:26:56.
