data_PCOD8029749
_publ_section_title
;
Structure prediction by ZEFSAII (Michael W. Deem and Ramdas Pophale) SiO2 
 PCOD8029749
Probable space group: P -1
;
_chemical_formula_sum "Si O2"
_cell_formula_units_Z 16
_cell_length_a 9.771471
_cell_length_b 12.807798
_cell_length_c 11.416421
_cell_angle_alpha 54.265151
_cell_angle_beta 59.771113
_cell_angle_gamma 97.744579
_cell_volume 792.976484
_symmetry_space_group_name_H-M "P -1"
_symmetry_group_IT_number 2
_symmetry_cell_setting 'triclinic'
loop_
_space_group_symop_operation_xyz
x,y,z
-x,-y,-z
loop_
_atom_site_type_symbol
_atom_site_label
_atom_site_fract_x
_atom_site_fract_y
_atom_site_fract_z
Si Si1 0.501484 0.860490 0.152510
Si Si2 0.900944 0.715111 0.812961
Si Si3 0.825957 0.941557 0.806617
Si Si4 0.789320 0.412204 0.703145
Si Si5 0.588277 0.357991 0.231366
Si Si6 0.203592 0.303351 0.383662
Si Si7 0.346559 0.839372 0.491062
Si Si8 0.526566 0.180657 0.146923
O O1 0.360597 0.680362 0.278328
O O2 0.426367 0.832624 0.335285
O O3 0.720369 0.905405 0.003569
O O4 0.500000 0.000000 0.000000
O O5 0.925893 0.851187 0.798935
O O6 0.768680 0.688901 0.774059
O O7 0.113525 0.764642 0.645062
O O8 0.776822 0.545821 0.048446
O O9 0.667186 0.887985 0.805752
O O10 0.992179 0.133644 0.612286
O O11 0.781922 0.544919 0.679952
O O12 0.000000 0.500000 0.500000
O O13 0.724609 0.271883 0.919452
O O14 0.376133 0.318945 0.373615
O O15 0.614332 0.250150 0.373779
O O16 0.575853 0.315688 0.128566
O O17 0.486574 0.030927 0.335263
#
# Coordination Sequence:
#
# PCOD8029749 Si02
#       8
#     2   2   2   2   2   2   2   2
#     4  11  21  41  64  92 127 168 210 257 317 386
#     4  12  22  42  66  94 125 170 217 260 312 378
#     4  11  22  39  70  95 120 164 222 263 315 371
#     4  11  22  36  65 101 121 160 222 266 306 367
#     4  12  25  40  62 100 131 162 210 270 320 370
#     4  12  22  40  69  93 126 163 219 266 309 374
#     4  12  25  42  65  93 134 172 206 257 327 385
#     4  11  21  39  64  95 128 164 207 269 313 380
#
# _framework density 20.177143999999998
#
# number of rings (size 3 to 8) (size 9 to 14) (size 15 to 20)
#    0.000    0.500    6.250    5.250    0.000    0.000 
#    0.000    3.125    0.000    0.000    0.000    0.000 
#    0.000    0.000    0.000    0.000    0.000    0.000 
#
# Total GULP energy -198230.103302 kJ/mol
# GULP energy per Si atom -12389.381456 kJ/mol
# Density = 2.013122 g / cm^3
# Si number density = 20.177144 Si / 1000 Ang^3
#
#
#
# Elastic Constant Matrix: (Units=GPa)
#
#
# Indices 1 2 3 4 5 6 
#
# 1 74.3281 21.6019 56.1944 4.7429 0.3814 -15.8421
# 2 21.6019 94.3615 34.4131 3.3232 -13.8819 -5.8483
# 3 56.1944 34.4131 144.8805 -2.8418 -13.9867 -8.7149
# 4 4.7429 3.3232 -2.8418 44.0966 -2.8306 -6.9801
# 5 0.3814 -13.8819 -13.9867 -2.8306 17.2973 -2.7938
# 6 -15.8421 -5.8483 -8.7149 -6.9801 -2.7938 23.2739
#
#
#
# Elastic Compliance Matrix: (Units=1/GPa)
#
#
# Indices 1 2 3 4 5 6 
#
# 1 0.022989 -0.002664 -0.008480 -0.001706 -0.008115 0.010318
# 2 -0.002664 0.013221 -0.000953 0.000285 0.010345 0.002479
# 3 -0.008480 -0.000953 0.011326 0.002287 0.008953 -0.000010
# 4 -0.001706 0.000285 0.002287 0.024746 0.007471 0.008085
# 5 -0.008115 0.010345 0.008953 0.007471 0.076674 0.011873
# 6 0.010318 0.002479 -0.000010 0.008085 0.011873 0.054459
#
#
# Mechanical properties :
#
#
# Convention : Reuss Voigt Hill
#
# Bulk Modulus (GPa) = 42.84445 59.77656 51.31050
# Shear Modulus (GPa) = 21.24123 30.35758 25.79940
#
# Velocity S-wave (km/s) = 3.24811 3.88306 3.57969
# Velocity P-wave (km/s) = 5.94535 7.05652 6.52463
#
# Compressibility (1/GPa) = 0.02334025
#
# Stress axis : x y z
#
# Youngs Moduli (GPa) = 43.49907 75.63882 88.28918
#
# Poissons Ratio (x) = 0.20154 0.74870
# Poissons Ratio (y) = 0.11590 0.08418
# Poissons Ratio (z) = 0.36887 0.07211
#
# Static dielectric constant tensor:
#      x y z
#    x 3.359500 -0.057540 -0.150590 
#    y -0.057540 4.203510 0.289760 
#    z -0.150590 0.289760 4.602530 
# 
# 
# High freq. dielectric constant tensor:
#      x y z
#    x 1.741490 -0.007350 -0.019040 
#    y -0.007350 1.807470 -0.009930 
#    z -0.019040 -0.009930 1.810890 
# 
# From -- ./inp_files/243116.got.cif
#   From: 2010.06.25/outbox.cif.g09.slc.cpg/sg2_122_cif.got.tgz:243116.got - 2010.06.27 13:26:56.
