data_PCOD8029824
_publ_section_title
;
Structure prediction by ZEFSAII (Michael W. Deem and Ramdas Pophale) SiO2 
 PCOD8029824
Probable space group: P -1
;
_chemical_formula_sum "Si O2"
_cell_formula_units_Z 16
_cell_length_a 21.175013
_cell_length_b 9.248080
_cell_length_c 8.436391
_cell_angle_alpha 148.065253
_cell_angle_beta 57.218128
_cell_angle_gamma 123.952118
_cell_volume 716.261434
_symmetry_space_group_name_H-M "P -1"
_symmetry_group_IT_number 2
_symmetry_cell_setting 'triclinic'
loop_
_space_group_symop_operation_xyz
x,y,z
-x,-y,-z
loop_
_atom_site_type_symbol
_atom_site_label
_atom_site_fract_x
_atom_site_fract_y
_atom_site_fract_z
Si Si1 0.299075 0.115585 0.699778
Si Si2 0.156099 0.225537 0.828085
Si Si3 0.912809 0.339287 0.480327
Si Si4 0.393215 0.667210 0.181928
Si Si5 0.538475 0.910067 0.019904
Si Si6 0.372339 0.540023 0.459289
Si Si7 0.196124 0.398453 0.590723
Si Si8 0.177890 0.937885 0.953324
O O1 0.239155 0.155078 0.682381
O O2 0.328168 0.831993 0.371392
O O3 0.256805 0.092935 0.905914
O O4 0.372226 0.376618 0.842593
O O5 0.153563 0.338124 0.759929
O O6 0.093006 0.931563 0.651078
O O7 0.138837 0.452199 0.189422
O O8 0.884539 0.215801 0.231512
O O9 0.000000 0.500000 0.500000
O O10 0.476541 0.845547 0.186124
O O11 0.392617 0.589833 0.294089
O O12 0.609952 0.157098 0.201509
O O13 0.573187 0.637647 0.694030
O O14 0.500000 0.000000 0.000000
O O15 0.284903 0.377970 0.458063
O O16 0.193948 0.713064 0.845764
O O17 0.150654 0.178443 0.316845
#
# Coordination Sequence:
#
# PCOD8029824 Si02
#       8
#     2   2   2   2   2   2   2   2
#     4  11  21  40  64  95 122 172 220 271 321 401
#     4  11  25  41  68 104 138 170 221 275 332 383
#     4  11  24  47  72  99 140 184 218 255 324 410
#     4  12  23  41  65  90 124 171 229 270 339 394
#     4  12  28  42  62  90 131 173 227 279 342 406
#     4  12  24  45  63  90 128 177 218 277 345 396
#     4  12  24  41  70 100 138 165 225 288 336 377
#     4  11  21  43  66 101 129 174 221 269 324 400
#
# _framework density 22.338213
#
# number of rings (size 3 to 8) (size 9 to 14) (size 15 to 20)
#    0.000    0.500    2.500    7.500    3.500    0.000 
#    0.000    3.750    0.000    0.000    0.000    0.000 
#    0.000    0.000    0.000    0.000    0.000    0.000 
#
# Total GULP energy -198445.570262 kJ/mol
# GULP energy per Si atom -12402.848141 kJ/mol
# Density = 2.228737 g / cm^3
# Si number density = 22.338213 Si / 1000 Ang^3
#
#
#
# Elastic Constant Matrix: (Units=GPa)
#
#
# Indices 1 2 3 4 5 6 
#
# 1 72.2729 38.6677 18.9818 2.9569 9.8859 9.6811
# 2 38.6677 103.6142 29.6188 6.4326 11.2462 -9.5302
# 3 18.9818 29.6188 83.6256 20.0872 10.9613 4.1591
# 4 2.9569 6.4326 20.0872 31.0272 -1.6930 -0.4805
# 5 9.8859 11.2462 10.9613 -1.6930 36.8775 10.8171
# 6 9.6811 -9.5302 4.1591 -0.4805 10.8171 28.1025
#
#
#
# Elastic Compliance Matrix: (Units=1/GPa)
#
#
# Indices 1 2 3 4 5 6 
#
# 1 0.019570 -0.007833 -0.001369 0.000518 0.000302 -0.009303
# 2 -0.007833 0.014946 -0.003375 -0.000252 -0.004385 0.009950
# 3 -0.001369 -0.003375 0.016406 -0.010005 -0.003359 -0.001979
# 4 0.000518 -0.000252 -0.010005 0.038967 0.004677 0.000083
# 5 0.000302 -0.004385 -0.003359 0.004677 0.033687 -0.013981
# 6 -0.009303 0.009950 -0.001979 0.000083 -0.013981 0.047839
#
#
# Mechanical properties :
#
#
# Convention : Reuss Voigt Hill
#
# Bulk Modulus (GPa) = 38.80716 48.22770 43.51743
# Shear Modulus (GPa) = 24.37142 30.68440 27.52791
#
# Velocity S-wave (km/s) = 3.30664 3.71027 3.51426
# Velocity P-wave (km/s) = 5.65586 6.32388 5.99918
#
# Compressibility (1/GPa) = 0.02576844
#
# Stress axis : x y z
#
# Youngs Moduli (GPa) = 51.09777 66.90845 60.95219
#
# Poissons Ratio (x) = 0.52406 0.08346
# Poissons Ratio (y) = 0.40023 0.20572
# Poissons Ratio (z) = 0.06997 0.22583
#
# Static dielectric constant tensor:
#      x y z
#    x 3.812920 -0.018040 0.065280 
#    y -0.018040 4.164050 0.304250 
#    z 0.065280 0.304250 4.147370 
# 
# 
# High freq. dielectric constant tensor:
#      x y z
#    x 1.865980 -0.008360 0.005120 
#    y -0.008360 1.885160 0.023560 
#    z 0.005120 0.023560 1.889130 
# 
# From -- ./inp_files/223741.got.cif
#   From: 2010.06.25/outbox.cif.g09.slc.cpg/sg2_112_cif.got.tgz:223741.got - 2010.06.27 13:26:56.
