data_PCOD8029688
_publ_section_title
;
Structure prediction by ZEFSAII (Michael W. Deem and Ramdas Pophale) SiO2 
 PCOD8029688
Probable space group: P -1
;
_chemical_formula_sum "Si O2"
_cell_formula_units_Z 16
_cell_length_a 20.497186
_cell_length_b 17.707927
_cell_length_c 9.476921
_cell_angle_alpha 49.861110
_cell_angle_beta 57.882936
_cell_angle_gamma 19.124991
_cell_volume 819.370224
_symmetry_space_group_name_H-M "P -1"
_symmetry_group_IT_number 2
_symmetry_cell_setting 'triclinic'
loop_
_space_group_symop_operation_xyz
x,y,z
-x,-y,-z
loop_
_atom_site_type_symbol
_atom_site_label
_atom_site_fract_x
_atom_site_fract_y
_atom_site_fract_z
Si Si1 0.984023 0.651565 0.038223
Si Si2 0.006548 0.076076 0.017811
Si Si3 0.436549 0.438299 0.035950
Si Si4 0.678155 0.705916 0.142777
Si Si5 0.373959 0.892695 0.307367
Si Si6 0.024829 0.372259 0.340083
Si Si7 0.121173 0.155751 0.772417
Si Si8 0.434912 0.507856 0.270363
O O1 0.961979 0.560327 0.167709
O O2 0.000392 0.671552 0.153771
O O3 0.194328 0.436486 0.978111
O O4 0.775136 0.943281 0.853850
O O5 0.780144 0.353479 0.018572
O O6 0.195154 0.820790 0.214065
O O7 0.062620 0.115114 0.837265
O O8 0.000000 0.000000 0.000000
O O9 0.438072 0.542504 0.833317
O O10 0.439522 0.442926 0.196404
O O11 0.628904 0.138296 0.132477
O O12 0.573687 0.723077 0.250169
O O13 0.839207 0.527061 0.302664
O O14 0.500000 0.000000 0.000000
O O15 0.459360 0.682427 0.500107
O O16 0.242958 0.094007 0.345086
O O17 0.051384 0.316147 0.541140
#
# Coordination Sequence:
#
# PCOD8029688 Si02
#       8
#     2   2   2   2   2   2   2   2
#     4  11  24  41  57  87 130 161 195 247 299 359
#     4   9  20  35  57  90 122 150 194 249 296 355
#     4   9  18  36  57  86 123 146 189 254 298 344
#     4  11  21  40  62  83 119 161 207 246 286 348
#     4  11  21  38  64  88 116 160 206 243 295 354
#     4  11  22  38  63  89 117 161 207 244 288 359
#     4  11  23  38  60  93 124 157 196 246 311 352
#     4   9  18  33  60  89 110 148 204 245 291 349
#
# _framework density 19.527191999999999
#
# number of rings (size 3 to 8) (size 9 to 14) (size 15 to 20)
#    0.000    1.750    3.750    1.875    3.500    2.000 
#    0.000    3.125    0.000    4.500    0.000    0.000 
#    0.000    0.000    0.000    0.000    0.000    0.000 
#
# Total GULP energy -198388.188123 kJ/mol
# GULP energy per Si atom -12399.261758 kJ/mol
# Density = 1.948275 g / cm^3
# Si number density = 19.527192 Si / 1000 Ang^3
#
#
#
# Elastic Constant Matrix: (Units=GPa)
#
#
# Indices 1 2 3 4 5 6 
#
# 1 36.7345 26.8562 19.7881 10.0926 6.1018 -11.5072
# 2 26.8562 127.6700 46.5567 -0.6066 11.4372 -22.2077
# 3 19.7881 46.5567 132.4389 1.6147 -1.2421 -7.0545
# 4 10.0926 -0.6066 1.6147 28.5029 5.9585 4.1678
# 5 6.1018 11.4372 -1.2421 5.9585 20.5706 7.2567
# 6 -11.5072 -22.2077 -7.0545 4.1678 7.2567 31.3371
#
#
#
# Elastic Compliance Matrix: (Units=1/GPa)
#
#
# Indices 1 2 3 4 5 6 
#
# 1 0.044107 -0.003459 -0.004360 -0.015277 -0.013304 0.017876
# 2 -0.003459 0.012162 -0.003427 0.002454 -0.009646 0.008484
# 3 -0.004360 -0.003427 0.009282 0.000408 0.004731 -0.003090
# 4 -0.015277 0.002454 0.000408 0.043042 -0.006450 -0.008010
# 5 -0.013304 -0.009646 0.004731 -0.006450 0.069185 -0.025820
# 6 0.017876 0.008484 -0.003090 -0.008010 -0.025820 0.050836
#
#
# Mechanical properties :
#
#
# Convention : Reuss Voigt Hill
#
# Bulk Modulus (GPa) = 23.22500 53.69393 38.45946
# Shear Modulus (GPa) = 18.83522 29.65830 24.24676
#
# Velocity S-wave (km/s) = 3.10911 3.90143 3.52759
# Velocity P-wave (km/s) = 4.98079 6.91749 6.02743
#
# Compressibility (1/GPa) = 0.04305706
#
# Stress axis : x y z
#
# Youngs Moduli (GPa) = 22.67205 82.22542 107.74003
#
# Poissons Ratio (x) = 0.28446 0.46979
# Poissons Ratio (y) = 0.07843 0.36921
# Poissons Ratio (z) = 0.09886 0.28177
#
# Static dielectric constant tensor:
#      x y z
#    x 3.310370 -0.263070 -0.109410 
#    y -0.263070 4.020780 -0.179140 
#    z -0.109410 -0.179140 3.525560 
# 
# 
# High freq. dielectric constant tensor:
#      x y z
#    x 1.736590 -0.017080 -0.014140 
#    y -0.017080 1.769800 -0.013590 
#    z -0.014140 -0.013590 1.757200 
# 
# From -- ./inp_files/335407.got.cif
#   From: 2010.06.25/outbox.cif.g09.slc.cpg/sg2_168_cif.got.tgz:335407.got - 2010.06.27 13:26:56.
