data_PCOD8029935
_publ_section_title
;
Structure prediction by ZEFSAII (Michael W. Deem and Ramdas Pophale) SiO2 
 PCOD8029935
Probable space group: P -1
;
_chemical_formula_sum "Si O2"
_cell_formula_units_Z 16
_cell_length_a 5.486337
_cell_length_b 8.830300
_cell_length_c 14.911243
_cell_angle_alpha 83.318617
_cell_angle_beta 66.585741
_cell_angle_gamma 80.630319
_cell_volume 652.996005
_symmetry_space_group_name_H-M "P -1"
_symmetry_group_IT_number 2
_symmetry_cell_setting 'triclinic'
loop_
_space_group_symop_operation_xyz
x,y,z
-x,-y,-z
loop_
_atom_site_type_symbol
_atom_site_label
_atom_site_fract_x
_atom_site_fract_y
_atom_site_fract_z
Si Si1 0.625980 0.911976 0.340601
Si Si2 0.224990 0.639426 0.008011
Si Si3 0.479209 0.550135 0.153452
Si Si4 0.162605 0.400779 0.352742
Si Si5 0.895953 0.911196 0.698333
Si Si6 0.310479 0.371237 0.531455
Si Si7 0.461778 0.096812 0.089258
Si Si8 0.744296 0.822478 0.147063
O O1 0.555179 0.786424 0.431690
O O2 0.805330 0.811992 0.244813
O O3 0.346838 0.998903 0.333702
O O4 0.823636 0.017795 0.353359
O O5 0.265419 0.551439 0.103392
O O6 0.967336 0.762913 0.045791
O O7 0.231541 0.524717 0.928382
O O8 0.481669 0.730546 0.946888
O O9 0.406328 0.444575 0.252999
O O10 0.499032 0.722741 0.172036
O O11 0.031949 0.263411 0.334226
O O12 0.266785 0.332890 0.437183
O O13 0.962501 0.557983 0.383617
O O14 0.817613 0.905072 0.816130
O O15 0.500000 0.500000 0.500000
O O16 0.678942 0.004323 0.129653
O O17 0.500000 0.000000 0.000000
#
# Coordination Sequence:
#
# PCOD8029935 Si02
#       8
#     2   2   2   2   2   2   2   2
#     4  11  27  48  77 106 151 190 245 294 371 433
#     4  11  22  39  61 102 137 190 237 292 349 423
#     4  11  23  42  65 100 141 183 236 296 361 421
#     4  11  26  47  74 104 148 186 244 308 367 438
#     4  11  27  49  72 111 147 198 239 305 358 438
#     4  11  27  48  78 109 138 189 242 306 376 443
#     4  11  21  41  64  97 145 185 248 281 353 416
#     4  11  23  39  68  97 140 190 237 292 351 426
#
# _framework density 24.502448000000001
#
# number of rings (size 3 to 8) (size 9 to 14) (size 15 to 20)
#    0.000    1.000    2.500    3.000   10.500    2.000 
#    0.000    0.000    0.000    0.000    0.000    0.000 
#    0.000    0.000    0.000    0.000    0.000    0.000 
#
# Total GULP energy -198260.261342 kJ/mol
# GULP energy per Si atom -12391.266334 kJ/mol
# Density = 2.444668 g / cm^3
# Si number density = 24.502448 Si / 1000 Ang^3
#
#
#
# Elastic Constant Matrix: (Units=GPa)
#
#
# Indices 1 2 3 4 5 6 
#
# 1 73.5052 7.6267 15.6386 -4.6974 4.6828 9.1465
# 2 7.6267 85.5859 33.0219 -4.9223 11.2116 14.4758
# 3 15.6386 33.0219 125.4387 -3.2649 12.0479 2.7505
# 4 -4.6974 -4.9223 -3.2649 42.4440 3.6767 0.6894
# 5 4.6828 11.2116 12.0479 3.6767 29.0620 1.5301
# 6 9.1465 14.4758 2.7505 0.6894 1.5301 32.1663
#
#
#
# Elastic Compliance Matrix: (Units=1/GPa)
#
#
# Indices 1 2 3 4 5 6 
#
# 1 0.014655 0.000357 -0.001608 0.001766 -0.001838 -0.004141
# 2 0.000357 0.014656 -0.003306 0.001955 -0.004259 -0.006254
# 3 -0.001608 -0.003306 0.009256 0.000339 -0.002412 0.001261
# 4 0.001766 0.001955 0.000339 0.024399 -0.004175 -0.001736
# 5 -0.001838 -0.004259 -0.002412 -0.004175 0.037827 0.000936
# 6 -0.004141 -0.006254 0.001261 -0.001736 0.000936 0.034965
#
#
# Mechanical properties :
#
#
# Convention : Reuss Voigt Hill
#
# Bulk Modulus (GPa) = 33.95161 44.12268 39.03715
# Shear Modulus (GPa) = 32.32323 35.95062 34.13692
#
# Velocity S-wave (km/s) = 3.63600 3.83459 3.73661
# Velocity P-wave (km/s) = 5.61371 6.13613 5.88072
#
# Compressibility (1/GPa) = 0.02945368
#
# Stress axis : x y z
#
# Youngs Moduli (GPa) = 68.23754 68.23175 108.04382
#
# Poissons Ratio (x) = -0.02437 0.17370
# Poissons Ratio (y) = -0.02437 0.35715
# Poissons Ratio (z) = 0.10971 0.22555
#
# Static dielectric constant tensor:
#      x y z
#    x 4.322710 -0.178020 0.407850 
#    y -0.178020 4.876330 -0.161500 
#    z 0.407850 -0.161500 5.641270 
# 
# 
# High freq. dielectric constant tensor:
#      x y z
#    x 1.945250 0.006490 0.003060 
#    y 0.006490 1.988780 0.005220 
#    z 0.003060 0.005220 1.989750 
# 
# From -- ./inp_files/49340.got.cif
#   From: 2010.06.25/outbox.cif.g09.slc.cpg/sg2_25_cif.got.tgz:49340.got - 2010.06.27 13:26:56.
