data_PCOD8029366
_publ_section_title
;
Structure prediction by ZEFSAII (Michael W. Deem and Ramdas Pophale) SiO2 
 PCOD8029366
Probable space group: P -1
;
_chemical_formula_sum "Si O2"
_cell_formula_units_Z 16
_cell_length_a 9.100001
_cell_length_b 14.478809
_cell_length_c 9.573133
_cell_angle_alpha 85.071009
_cell_angle_beta 47.948314
_cell_angle_gamma 115.764870
_cell_volume 696.599915
_symmetry_space_group_name_H-M "P -1"
_symmetry_group_IT_number 2
_symmetry_cell_setting 'triclinic'
loop_
_space_group_symop_operation_xyz
x,y,z
-x,-y,-z
loop_
_atom_site_type_symbol
_atom_site_label
_atom_site_fract_x
_atom_site_fract_y
_atom_site_fract_z
Si Si1 0.559928 0.250659 0.063652
Si Si2 0.096033 0.745638 0.933072
Si Si3 0.329341 0.522623 0.678736
Si Si4 0.792399 0.774576 0.500565
Si Si5 0.855499 0.864993 0.164791
Si Si6 0.657428 0.131540 0.811945
Si Si7 0.307450 0.777691 0.501504
Si Si8 0.984380 0.516104 0.671666
O O1 0.276310 0.187887 0.321024
O O2 0.713807 0.223840 0.065152
O O3 0.534674 0.189662 0.940294
O O4 0.703166 0.393547 0.925579
O O5 0.266432 0.809602 0.675244
O O6 0.886613 0.595540 0.069010
O O7 0.955885 0.800148 0.042509
O O8 0.500000 0.500000 0.500000
O O9 0.514527 0.643906 0.642253
O O10 0.202342 0.536634 0.628765
O O11 0.905854 0.878958 0.297157
O O12 0.024376 0.772599 0.378900
O O13 0.542352 0.775368 0.350691
O O14 0.000000 0.000000 0.000000
O O15 0.616438 0.117927 0.671894
O O16 0.500000 0.000000 0.000000
O O17 0.035815 0.642133 0.641479
O O18 0.000000 0.500000 0.500000
#
# Coordination Sequence:
#
# PCOD8029366 Si02
#       8
#     2   2   2   2   2   2   2   2
#     4  11  23  43  74  98 136 178 220 273 345 409
#     4  11  23  43  73 103 131 178 222 276 342 403
#     4  11  20  40  71 100 135 175 220 274 338 410
#     4  12  23  45  69 101 130 181 230 273 337 405
#     4  12  25  42  69  99 131 175 235 282 319 394
#     4  12  28  47  66  95 141 184 225 283 338 390
#     4  12  25  44  68 102 137 173 227 285 336 394
#     4  11  21  40  68 103 139 173 211 281 349 394
#
# _framework density 22.968710000000002
#
# number of rings (size 3 to 8) (size 9 to 14) (size 15 to 20)
#    0.000    0.500    6.250    2.250    0.000    5.000 
#    2.250    1.250    0.000    0.000    0.000    0.000 
#    0.000    0.000    0.000    0.000    0.000    0.000 
#
# Total GULP energy -198307.356551 kJ/mol
# GULP energy per Si atom -12394.209784 kJ/mol
# Density = 2.291643 g / cm^3
# Si number density = 22.968710 Si / 1000 Ang^3
#
#
#
# Elastic Constant Matrix: (Units=GPa)
#
#
# Indices 1 2 3 4 5 6 
#
# 1 70.6651 13.4365 43.0245 9.1435 15.8455 -4.5318
# 2 13.4365 68.6831 44.7745 -4.3027 -2.6171 -12.7158
# 3 43.0245 44.7745 155.1435 18.4359 19.3020 -13.4631
# 4 9.1435 -4.3027 18.4359 32.1253 -6.3347 5.4196
# 5 15.8455 -2.6171 19.3020 -6.3347 40.3330 -2.1403
# 6 -4.5318 -12.7158 -13.4631 5.4196 -2.1403 30.0682
#
#
#
# Elastic Compliance Matrix: (Units=1/GPa)
#
#
# Indices 1 2 3 4 5 6 
#
# 1 0.018671 -0.002110 -0.002981 -0.005416 -0.006839 0.001076
# 2 -0.002110 0.021110 -0.006939 0.008026 0.007022 0.004555
# 3 -0.002981 -0.006939 0.011184 -0.008086 -0.005760 0.002671
# 4 -0.005416 0.008026 -0.008086 0.042202 0.012736 -0.007743
# 5 -0.006839 0.007022 -0.005760 0.012736 0.032660 -0.000611
# 6 0.001076 0.004555 0.002671 -0.007743 -0.000611 0.037895
#
#
# Mechanical properties :
#
#
# Convention : Reuss Voigt Hill
#
# Bulk Modulus (GPa) = 37.16841 55.21807 46.19324
# Shear Modulus (GPa) = 25.41289 33.38904 29.40096
#
# Velocity S-wave (km/s) = 3.32989 3.81685 3.58165
# Velocity P-wave (km/s) = 5.56790 6.59675 6.10404
#
# Compressibility (1/GPa) = 0.02690457
#
# Stress axis : x y z
#
# Youngs Moduli (GPa) = 53.55964 47.37134 89.41137
#
# Poissons Ratio (x) = 0.09995 0.26654
# Poissons Ratio (y) = 0.11300 0.62045
# Poissons Ratio (z) = 0.15966 0.32872
#
# Static dielectric constant tensor:
#      x y z
#    x 4.182680 -0.031430 0.093720 
#    y -0.031430 3.690160 -0.008610 
#    z 0.093720 -0.008610 4.344930 
# 
# 
# High freq. dielectric constant tensor:
#      x y z
#    x 1.899540 -0.005650 0.013930 
#    y -0.005650 1.892560 -0.005190 
#    z 0.013930 -0.005190 1.927910 
# 
# From -- ./inp_files/187967.got.cif
#   From: 2010.06.25/outbox.cif.g09.slc.cpg/sg2_94_cif.got.tgz:187967.got - 2010.06.27 13:26:56.
