data_PCOD8029265
_publ_section_title
;
Structure prediction by ZEFSAII (Michael W. Deem and Ramdas Pophale) SiO2 
 PCOD8029265
Probable space group: P -1
;
_chemical_formula_sum "Si O2"
_cell_formula_units_Z 16
_cell_length_a 11.762073
_cell_length_b 11.439085
_cell_length_c 16.829891
_cell_angle_alpha 32.441545
_cell_angle_beta 131.989227
_cell_angle_gamma 108.594515
_cell_volume 711.038592
_symmetry_space_group_name_H-M "P -1"
_symmetry_group_IT_number 2
_symmetry_cell_setting 'triclinic'
loop_
_space_group_symop_operation_xyz
x,y,z
-x,-y,-z
loop_
_atom_site_type_symbol
_atom_site_label
_atom_site_fract_x
_atom_site_fract_y
_atom_site_fract_z
Si Si1 0.696696 0.687752 0.589563
Si Si2 0.253661 0.826092 0.032113
Si Si3 0.530358 0.647522 0.133005
Si Si4 0.815368 0.295978 0.267097
Si Si5 0.525172 0.265119 0.237171
Si Si6 0.110922 0.588024 0.454562
Si Si7 0.997224 0.534351 0.270783
Si Si8 0.599893 0.015793 0.856365
O O1 0.719835 0.454908 0.787159
O O2 0.902070 0.557870 0.715962
O O3 0.616067 0.941472 0.467888
O O4 0.549242 0.775054 0.398969
O O5 0.319241 0.844328 0.963803
O O6 0.399687 0.821458 0.162910
O O7 0.028478 0.078533 0.798383
O O8 0.556226 0.379290 0.265574
O O9 0.685647 0.541820 0.336050
O O10 0.546049 0.816244 0.974854
O O11 0.653849 0.263602 0.230937
O O12 0.895961 0.385558 0.322324
O O13 0.704308 0.537401 0.008250
O O14 0.000000 0.000000 0.500000
O O15 0.145651 0.470986 0.447375
O O16 0.000000 0.500000 0.500000
O O17 0.811854 0.855925 0.006078
#
# Coordination Sequence:
#
# PCOD8029265 Si02
#       8
#     2   2   2   2   2   2   2   2
#     4  12  25  42  64 100 136 172 215 266 336 396
#     4  11  27  42  64  97 135 178 215 263 335 395
#     4  12  24  43  68  95 132 176 218 274 319 384
#     4  11  20  39  63  99 127 167 219 281 317 366
#     4  11  23  39  64  96 131 169 222 265 322 391
#     4  11  23  43  66  99 131 165 225 271 325 383
#     4  11  22  38  70  96 131 168 213 281 324 375
#     4  11  22  42  69  97 127 167 229 275 319 379
#
# _framework density 22.502295
#
# number of rings (size 3 to 8) (size 9 to 14) (size 15 to 20)
#    0.000    0.750    6.250    2.250    1.750    4.500 
#    0.000    0.625    0.000    0.000    0.000    0.000 
#    0.000    0.000    0.000    0.000    0.000    0.000 
#
# Total GULP energy -198255.008223 kJ/mol
# GULP energy per Si atom -12390.938014 kJ/mol
# Density = 2.245108 g / cm^3
# Si number density = 22.502295 Si / 1000 Ang^3
#
#
#
# Elastic Constant Matrix: (Units=GPa)
#
#
# Indices 1 2 3 4 5 6 
#
# 1 53.2192 5.8493 19.5657 -4.8550 12.7438 -3.1876
# 2 5.8493 99.8007 22.7133 -15.3887 5.6864 4.1595
# 3 19.5657 22.7133 94.6077 -9.9549 4.5237 9.7190
# 4 -4.8550 -15.3887 -9.9549 42.1816 2.2228 2.0816
# 5 12.7438 5.6864 4.5237 2.2228 28.1661 -7.3144
# 6 -3.1876 4.1595 9.7190 2.0816 -7.3144 19.7094
#
#
#
# Elastic Compliance Matrix: (Units=1/GPa)
#
#
# Indices 1 2 3 4 5 6 
#
# 1 0.022922 0.000435 -0.004381 0.002156 -0.009390 0.002063
# 2 0.000435 0.011374 -0.001923 0.004069 -0.003293 -0.003033
# 3 -0.004381 -0.001923 0.013070 0.002360 -0.001916 -0.007708
# 4 0.002156 0.004069 0.002360 0.026646 -0.006025 -0.006724
# 5 -0.009390 -0.003293 -0.001916 -0.006025 0.045812 0.017759
# 6 0.002063 -0.003033 -0.007708 -0.006724 0.017759 0.062813
#
#
# Mechanical properties :
#
#
# Convention : Reuss Voigt Hill
#
# Bulk Modulus (GPa) = 28.06921 38.20937 33.13929
# Shear Modulus (GPa) = 24.24251 31.31136 27.77694
#
# Velocity S-wave (km/s) = 3.28584 3.73429 3.51722
# Velocity P-wave (km/s) = 5.18620 5.96744 5.59048
#
# Compressibility (1/GPa) = 0.03562623
#
# Stress axis : x y z
#
# Youngs Moduli (GPa) = 43.62679 87.92280 76.51384
#
# Poissons Ratio (x) = -0.03825 0.33521
# Poissons Ratio (y) = -0.01898 0.14716
# Poissons Ratio (z) = 0.19113 0.16911
#
# Static dielectric constant tensor:
#      x y z
#    x -5.283080 -11.134840 -11.830400 
#    y -11.134840 -8.917330 -14.809700 
#    z -11.830400 -14.809700 -11.990310 
# 
# 
# High freq. dielectric constant tensor:
#      x y z
#    x 1.862970 -0.000550 0.033490 
#    y -0.000550 1.895530 -0.012850 
#    z 0.033490 -0.012850 1.883780 
# 
# From -- ./inp_files/568499.got.cif
#   From: 2010.06.25/outbox.cif.g09.slc.cpg/sg2_285_cif.got.tgz:568499.got - 2010.06.27 13:26:56.
