data_PCOD8029049
_publ_section_title
;
Structure prediction by ZEFSAII (Michael W. Deem and Ramdas Pophale) SiO2 
 PCOD8029049
Probable space group: P -1
;
_chemical_formula_sum "Si O2"
_cell_formula_units_Z 14
_cell_length_a 8.712880
_cell_length_b 12.024625
_cell_length_c 9.713738
_cell_angle_alpha 142.468083
_cell_angle_beta 87.965200
_cell_angle_gamma 84.974028
_cell_volume 608.291088
_symmetry_space_group_name_H-M "P -1"
_symmetry_group_IT_number 2
_symmetry_cell_setting 'triclinic'
loop_
_space_group_symop_operation_xyz
x,y,z
-x,-y,-z
loop_
_atom_site_type_symbol
_atom_site_label
_atom_site_fract_x
_atom_site_fract_y
_atom_site_fract_z
Si Si1 0.281309 0.697889 0.381542
Si Si2 0.915115 0.350374 0.426260
Si Si3 0.180085 0.416158 0.934366
Si Si4 0.766487 0.856585 0.798233
Si Si5 0.212896 0.781350 0.954017
Si Si6 0.849928 0.881374 0.134834
Si Si7 0.637629 0.609686 0.357506
O O1 0.183101 0.579225 0.366200
O O2 0.457595 0.684807 0.409365
O O3 0.197092 0.912938 0.596745
O O4 0.268691 0.590145 0.133550
O O5 0.792094 0.283845 0.266476
O O6 0.000000 0.500000 0.500000
O O7 0.052012 0.177191 0.287861
O O8 0.210455 0.257647 0.894121
O O9 0.257234 0.322334 0.698979
O O10 0.000000 0.500000 0.000000
O O11 0.681254 0.692781 0.585164
O O12 0.762881 0.871022 0.979385
O O13 0.699032 0.043776 0.896613
O O14 0.323987 0.615299 0.867160
O O15 0.038132 0.822721 0.062998
#
# Coordination Sequence:
#
# PCOD8029049 Si02
#       7
#     2   2   2   2   2   2   2
#     4  12  26  46  71 104 145 179 232 293 356 402
#     4  11  19  40  69 101 132 183 226 283 330 414
#     4  12  27  48  73  99 136 193 244 280 338 426
#     4  11  22  43  73 103 138 180 238 282 344 423
#     4  11  21  41  71 102 139 180 234 281 346 410
#     4  11  24  44  76 104 133 187 240 286 338 417
#     4  12  28  44  68 108 146 183 225 294 355 410
#
# _framework density 23.015297
#
# number of rings (size 3 to 8) (size 9 to 14) (size 15 to 20)
#    0.000    0.571    5.714    3.857    0.000    4.571 
#    0.000    0.000    0.000    0.000    0.000    0.000 
#    0.000    0.000    0.000    0.000    0.000    0.000 
#
# Total GULP energy -173490.586972 kJ/mol
# GULP energy per Si atom -12392.184784 kJ/mol
# Density = 2.296291 g / cm^3
# Si number density = 23.015297 Si / 1000 Ang^3
#
#
#
# Elastic Constant Matrix: (Units=GPa)
#
#
# Indices 1 2 3 4 5 6 
#
# 1 65.2663 23.1639 12.5843 4.2275 -1.5523 -6.3729
# 2 23.1639 128.7263 40.0582 18.8762 -7.2354 10.4379
# 3 12.5843 40.0582 97.0353 15.0939 9.1809 -2.6254
# 4 4.2275 18.8762 15.0939 35.7246 -7.1612 -0.6494
# 5 -1.5523 -7.2354 9.1809 -7.1612 25.1099 2.2540
# 6 -6.3729 10.4379 -2.6254 -0.6494 2.2540 27.1547
#
#
#
# Elastic Compliance Matrix: (Units=1/GPa)
#
#
# Indices 1 2 3 4 5 6 
#
# 1 0.017136 -0.003300 -0.000729 0.000106 -0.000064 0.005227
# 2 -0.003300 0.010751 -0.004112 -0.002834 0.004102 -0.005713
# 3 -0.000729 -0.004112 0.013734 -0.005087 -0.007997 0.003280
# 4 0.000106 -0.002834 -0.005087 0.033767 0.010631 0.000548
# 5 -0.000064 0.004102 -0.007997 0.010631 0.047502 -0.006054
# 6 0.005227 -0.005713 0.003280 0.000548 -0.006054 0.041081
#
#
# Mechanical properties :
#
#
# Convention : Reuss Voigt Hill
#
# Bulk Modulus (GPa) = 39.46442 49.18232 44.32337
# Shear Modulus (GPa) = 26.49703 31.94593 29.22148
#
# Velocity S-wave (km/s) = 3.39673 3.72967 3.56709
# Velocity P-wave (km/s) = 5.70684 6.32163 6.02209
#
# Compressibility (1/GPa) = 0.02533928
#
# Stress axis : x y z
#
# Youngs Moduli (GPa) = 58.35837 93.01221 72.81005
#
# Poissons Ratio (x) = 0.30690 0.05309
# Poissons Ratio (y) = 0.19256 0.29941
# Poissons Ratio (z) = 0.04255 0.38249
#
# Static dielectric constant tensor:
#      x y z
#    x 3.794590 -0.219080 -0.336150 
#    y -0.219080 3.615700 -0.348710 
#    z -0.336150 -0.348710 4.138800 
# 
# 
# High freq. dielectric constant tensor:
#      x y z
#    x 1.884520 0.001520 -0.004770 
#    y 0.001520 1.914880 0.009090 
#    z -0.004770 0.009090 1.918420 
# 
# From -- ./inp_files/191153.got.cif
#   From: 2010.06.25/outbox.cif.g09.slc.cpg/sg2_96_cif.got.tgz:191153.got - 2010.06.27 13:26:56.
