data_PCOD8029827
_publ_section_title
;
Structure prediction by ZEFSAII (Michael W. Deem and Ramdas Pophale) SiO2 
 PCOD8029827
Probable space group: P -1
;
_chemical_formula_sum "Si O2"
_cell_formula_units_Z 16
_cell_length_a 17.495394
_cell_length_b 29.187928
_cell_length_c 23.471362
_cell_angle_alpha 169.085753
_cell_angle_beta 160.722121
_cell_angle_gamma 18.261517
_cell_volume 697.705609
_symmetry_space_group_name_H-M "P -1"
_symmetry_group_IT_number 2
_symmetry_cell_setting 'triclinic'
loop_
_space_group_symop_operation_xyz
x,y,z
-x,-y,-z
loop_
_atom_site_type_symbol
_atom_site_label
_atom_site_fract_x
_atom_site_fract_y
_atom_site_fract_z
Si Si1 0.482122 0.847859 0.858863
Si Si2 0.123798 0.619740 0.377563
Si Si3 0.481092 0.131383 0.375738
Si Si4 0.984432 0.029619 0.873089
Si Si5 0.657034 0.546340 0.219556
Si Si6 0.975433 0.233291 0.308401
Si Si7 0.490769 0.318888 0.498454
Si Si8 0.001346 0.324803 0.838994
O O1 0.280793 0.708473 0.548529
O O2 0.733548 0.607713 0.755426
O O3 0.500000 0.000000 0.000000
O O4 0.411191 0.068521 0.127169
O O5 0.979372 0.873846 0.622110
O O6 0.952176 0.504271 0.080104
O O7 0.498872 0.217347 0.558922
O O8 0.458156 0.365012 0.600256
O O9 0.737394 0.911244 0.266888
O O10 0.247330 0.041093 0.092856
O O11 0.772377 0.307587 0.052515
O O12 0.903960 0.880678 0.685413
O O13 0.884779 0.593821 0.408767
O O14 0.500000 0.500000 0.000000
O O15 0.686372 0.422970 0.343320
O O16 0.000000 0.000000 0.000000
O O17 0.768113 0.232297 0.561850
O O18 0.000000 0.500000 0.000000
#
# Coordination Sequence:
#
# PCOD8029827 Si02
#       8
#     2   2   2   2   2   2   2   2
#     4  11  21  40  64  97 139 185 236 283 354 427
#     4  11  23  41  68 103 142 182 237 297 352 426
#     4  12  23  48  74 102 147 196 238 296 365 433
#     4  12  24  47  78 108 146 191 245 302 363 435
#     4  12  29  49  76 109 147 189 246 310 361 425
#     4  12  25  46  79 107 139 197 249 293 368 434
#     4  12  24  45  72 106 145 196 240 296 368 437
#     4  12  27  43  69 109 151 191 239 300 368 431
#
# _framework density 22.932307000000002
#
# number of rings (size 3 to 8) (size 9 to 14) (size 15 to 20)
#    0.000    0.250    5.000    4.500    1.750    1.500 
#    2.250    0.000    0.000    0.000    0.000    0.000 
#    0.000    0.000    0.000    0.000    0.000    0.000 
#
# Total GULP energy -198315.384959 kJ/mol
# GULP energy per Si atom -12394.711560 kJ/mol
# Density = 2.288011 g / cm^3
# Si number density = 22.932307 Si / 1000 Ang^3
#
#
#
# Elastic Constant Matrix: (Units=GPa)
#
#
# Indices 1 2 3 4 5 6 
#
# 1 127.3111 25.0102 28.0893 3.2528 1.3221 21.6599
# 2 25.0102 96.8216 38.8448 5.0500 1.7571 3.7385
# 3 28.0893 38.8448 95.8321 6.4379 -14.9574 2.8257
# 4 3.2528 5.0500 6.4379 27.7283 11.0193 3.0725
# 5 1.3221 1.7571 -14.9574 11.0193 50.7127 12.5837
# 6 21.6599 3.7385 2.8257 3.0725 12.5837 35.5922
#
#
#
# Elastic Compliance Matrix: (Units=1/GPa)
#
#
# Indices 1 2 3 4 5 6 
#
# 1 0.009538 -0.001483 -0.001920 -0.000033 0.000665 -0.005729
# 2 -0.001483 0.012763 -0.005056 -0.000254 -0.002013 0.000697
# 3 -0.001920 -0.005056 0.014242 -0.004276 0.005615 -0.001047
# 4 -0.000033 -0.000254 -0.004276 0.041152 -0.010312 0.000479
# 5 0.000665 -0.002013 0.005615 -0.010312 0.025876 -0.008897
# 6 -0.005729 0.000697 -0.001047 0.000479 -0.008897 0.034697
#
#
# Mechanical properties :
#
#
# Convention : Reuss Voigt Hill
#
# Bulk Modulus (GPa) = 50.95576 55.98370 53.46973
# Shear Modulus (GPa) = 30.91644 38.00799 34.46221
#
# Velocity S-wave (km/s) = 3.67571 4.07553 3.88078
# Velocity P-wave (km/s) = 6.34687 6.82731 6.59147
#
# Compressibility (1/GPa) = 0.01962487
#
# Stress axis : x y z
#
# Youngs Moduli (GPa) = 104.84147 78.35310 70.21687
#
# Poissons Ratio (x) = 0.11618 0.13480
# Poissons Ratio (y) = 0.15546 0.35504
# Poissons Ratio (z) = 0.20127 0.39617
#
# Static dielectric constant tensor:
#      x y z
#    x 4.316650 0.010880 0.107610 
#    y 0.010880 6.758450 -1.196960 
#    z 0.107610 -1.196960 4.989460 
# 
# 
# High freq. dielectric constant tensor:
#      x y z
#    x 1.922400 0.013500 0.002900 
#    y 0.013500 1.891350 0.013260 
#    z 0.002900 0.013260 1.912810 
# 
# From -- ./inp_files/613353.got.cif
#   From: 2010.06.25/outbox.cif.g09.slc.cpg/sg2_307_cif.got.tgz:613353.got - 2010.06.27 13:26:56.
