data_PCOD8029357
_publ_section_title
;
Structure prediction by ZEFSAII (Michael W. Deem and Ramdas Pophale) SiO2 
 PCOD8029357
Probable space group: P -1
;
_chemical_formula_sum "Si O2"
_cell_formula_units_Z 16
_cell_length_a 9.190558
_cell_length_b 15.071326
_cell_length_c 24.321679
_cell_angle_alpha 18.762849
_cell_angle_beta 128.934057
_cell_angle_gamma 127.029247
_cell_volume 842.558851
_symmetry_space_group_name_H-M "P -1"
_symmetry_group_IT_number 2
_symmetry_cell_setting 'triclinic'
loop_
_space_group_symop_operation_xyz
x,y,z
-x,-y,-z
loop_
_atom_site_type_symbol
_atom_site_label
_atom_site_fract_x
_atom_site_fract_y
_atom_site_fract_z
Si Si1 0.811722 0.020377 0.478429
Si Si2 0.979803 0.001819 0.906575
Si Si3 0.117933 0.507596 0.578845
Si Si4 0.804347 0.316053 0.767998
Si Si5 0.471487 0.317150 0.460843
Si Si6 0.293055 0.459512 0.910827
Si Si7 0.379377 0.856549 0.792557
Si Si8 0.982313 0.835865 0.456376
O O1 0.667286 0.776863 0.567026
O O2 0.718961 0.317810 0.271599
O O3 0.000000 0.000000 0.500000
O O4 0.860412 0.987486 0.574668
O O5 0.807394 0.167013 0.796577
O O6 0.892304 0.733817 0.013832
O O7 0.097642 0.198446 0.778481
O O8 0.126600 0.907496 0.041740
O O9 0.331367 0.589178 0.571307
O O10 0.000000 0.500000 0.500000
O O11 0.050169 0.735559 0.472333
O O12 0.602616 0.416304 0.680402
O O13 0.939843 0.587063 0.635317
O O14 0.492530 0.069059 0.654719
O O15 0.296033 0.605137 0.884773
O O16 0.475649 0.272308 0.054101
O O17 0.206059 0.998328 0.698129
#
# Coordination Sequence:
#
# PCOD8029357 Si02
#       8
#     2   2   2   2   2   2   2   2
#     4  11  17  34  65  89 108 139 186 254 282 321
#     4  10  19  33  57  80 113 146 182 233 279 328
#     4  11  25  39  53  76 121 163 184 220 280 350
#     4   9  18  33  57  87 104 137 193 241 271 323
#     4  10  20  36  58  83 114 146 193 225 287 337
#     4  10  17  30  56  89 110 134 187 235 289 314
#     4   9  19  32  58  87 107 142 187 244 272 331
#     4  10  19  37  60  86 110 145 194 232 288 326
#
# _framework density 18.98977
#
# number of rings (size 3 to 8) (size 9 to 14) (size 15 to 20)
#    0.000    2.000    5.000    0.750    0.000    2.000 
#    0.000    3.750    2.750   10.500    0.000    0.000 
#    0.000    0.000    0.000    0.000    0.000    0.000 
#
# Total GULP energy -198288.161913 kJ/mol
# GULP energy per Si atom -12393.010120 kJ/mol
# Density = 1.894655 g / cm^3
# Si number density = 18.989770 Si / 1000 Ang^3
#
#
#
# Elastic Constant Matrix: (Units=GPa)
#
#
# Indices 1 2 3 4 5 6 
#
# 1 124.3563 48.1195 44.4598 -2.0756 3.9168 6.4433
# 2 48.1195 83.8965 20.8473 -0.6378 -7.0646 4.4203
# 3 44.4598 20.8473 91.6652 2.4427 7.2053 4.2627
# 4 -2.0756 -0.6378 2.4427 30.9419 3.9754 -2.5919
# 5 3.9168 -7.0646 7.2053 3.9754 20.8606 -4.3633
# 6 6.4433 4.4203 4.2627 -2.5919 -4.3633 28.5574
#
#
#
# Elastic Compliance Matrix: (Units=1/GPa)
#
#
# Indices 1 2 3 4 5 6 
#
# 1 0.012111 -0.006110 -0.004173 0.001332 -0.003485 -0.001576
# 2 -0.006110 0.016356 -0.001312 -0.000904 0.007329 0.000080
# 3 -0.004173 -0.001312 0.013694 -0.000943 -0.004563 -0.001682
# 4 0.001332 -0.000904 -0.000943 0.033430 -0.006168 0.002072
# 5 -0.003485 0.007329 -0.004563 -0.006168 0.055553 0.008261
# 6 -0.001576 0.000080 -0.001682 0.002072 0.008261 0.037062
#
#
# Mechanical properties :
#
#
# Convention : Reuss Voigt Hill
#
# Bulk Modulus (GPa) = 52.71217 58.53013 55.62115
# Shear Modulus (GPa) = 25.28853 28.50475 26.89664
#
# Velocity S-wave (km/s) = 3.65320 3.87855 3.76756
# Velocity P-wave (km/s) = 6.75373 7.13767 6.94836
#
# Compressibility (1/GPa) = 0.01897095
#
# Stress axis : x y z
#
# Youngs Moduli (GPa) = 82.56863 61.14022 73.02669
#
# Poissons Ratio (x) = 0.37356 0.30473
# Poissons Ratio (y) = 0.50448 0.09582
# Poissons Ratio (z) = 0.34455 0.08022
#
# Static dielectric constant tensor:
#      x y z
#    x 3.282470 -0.033690 0.315130 
#    y -0.033690 3.626350 -0.071650 
#    z 0.315130 -0.071650 3.709100 
# 
# 
# High freq. dielectric constant tensor:
#      x y z
#    x 1.703540 -0.000860 0.024740 
#    y -0.000860 1.743310 -0.006130 
#    z 0.024740 -0.006130 1.739890 
# 
# From -- ./inp_files/452549.got.cif
#   From: 2010.06.25/outbox.cif.g09.slc.cpg/sg2_227_cif.got.tgz:452549.got - 2010.06.27 13:26:56.
