data_PCOD8029025
_publ_section_title
;
Structure prediction by ZEFSAII (Michael W. Deem and Ramdas Pophale) SiO2 
 PCOD8029025
Probable space group: P -1
;
_chemical_formula_sum "Si O2"
_cell_formula_units_Z 14
_cell_length_a 11.322445
_cell_length_b 9.076677
_cell_length_c 11.277140
_cell_angle_alpha 89.477466
_cell_angle_beta 142.131857
_cell_angle_gamma 76.080865
_cell_volume 650.868989
_symmetry_space_group_name_H-M "P -1"
_symmetry_group_IT_number 2
_symmetry_cell_setting 'triclinic'
loop_
_space_group_symop_operation_xyz
x,y,z
-x,-y,-z
loop_
_atom_site_type_symbol
_atom_site_label
_atom_site_fract_x
_atom_site_fract_y
_atom_site_fract_z
Si Si1 0.382584 0.691234 0.663475
Si Si2 0.564894 0.650473 0.049878
Si Si3 0.596449 0.764110 0.317820
Si Si4 0.617977 0.395827 0.705492
Si Si5 0.034669 0.562318 0.366271
Si Si6 0.041326 0.340434 0.962933
Si Si7 0.503250 0.926194 0.632289
O O1 0.572532 0.521524 0.778406
O O2 0.360437 0.822637 0.541068
O O3 0.169133 0.663474 0.517411
O O4 0.458684 0.748039 0.845440
O O5 0.482355 0.759995 0.101680
O O6 0.816381 0.601054 0.260298
O O7 0.500000 0.500000 0.000000
O O8 0.471161 0.734577 0.329850
O O9 0.833196 0.628348 0.511848
O O10 0.585078 0.940164 0.335095
O O11 0.500000 0.500000 0.500000
O O12 0.858960 0.289239 0.865859
O O13 0.982399 0.610737 0.190835
O O14 0.258115 0.192883 0.156267
O O15 0.000000 0.500000 0.000000
O O16 0.500000 0.000000 0.500000
#
# Coordination Sequence:
#
# PCOD8029025 Si02
#       7
#     2   2   2   2   2   2   2
#     4  11  23  43  68  98 139 182 227 282 338 408
#     4  12  23  45  74 102 134 178 245 278 332 416
#     4  11  25  41  69 102 142 175 229 294 337 399
#     4  11  19  39  67  98 130 177 230 281 332 405
#     4  11  23  44  72 100 129 185 240 276 336 415
#     4  12  22  39  71  96 135 184 230 275 346 415
#     4  12  26  45  64 105 147 178 224 291 354 403
#
# _framework density 21.509703999999999
#
# number of rings (size 3 to 8) (size 9 to 14) (size 15 to 20)
#    0.000    0.571    8.571    2.143    0.000    1.143 
#    0.000    0.714    0.000    0.000    0.000    0.000 
#    0.000    0.000    0.000    0.000    0.000    0.000 
#
# Total GULP energy -173476.538799 kJ/mol
# GULP energy per Si atom -12391.181343 kJ/mol
# Density = 2.146075 g / cm^3
# Si number density = 21.509704 Si / 1000 Ang^3
#
#
#
# Elastic Constant Matrix: (Units=GPa)
#
#
# Indices 1 2 3 4 5 6 
#
# 1 112.4290 30.2637 40.6249 4.3244 13.0135 12.8024
# 2 30.2637 103.3757 36.8577 4.2073 7.2652 4.8265
# 3 40.6249 36.8577 119.2046 4.2732 0.2184 -5.2342
# 4 4.3244 4.2073 4.2732 11.7200 10.2123 -7.0220
# 5 13.0135 7.2652 0.2184 10.2123 38.6671 12.0991
# 6 12.8024 4.8265 -5.2342 -7.0220 12.0991 31.9337
#
#
#
# Elastic Compliance Matrix: (Units=1/GPa)
#
#
# Indices 1 2 3 4 5 6 
#
# 1 0.011545 -0.001583 -0.003499 -0.006347 0.000111 -0.006400
# 2 -0.001583 0.011474 -0.002969 -0.004454 0.000423 -0.002726
# 3 -0.003499 -0.002969 0.010648 -0.000123 0.000670 0.003316
# 4 -0.006347 -0.004454 -0.000123 0.195775 -0.071704 0.073414
# 5 0.000111 0.000423 0.000670 -0.071704 0.056285 -0.037091
# 6 -0.006400 -0.002726 0.003316 0.073414 -0.037091 0.065033
#
#
# Mechanical properties :
#
#
# Convention : Reuss Voigt Hill
#
# Bulk Modulus (GPa) = 56.92943 61.16687 59.04815
# Shear Modulus (GPa) = 13.41499 31.61502 22.51501
#
# Velocity S-wave (km/s) = 2.50005 3.83796 3.23884
# Velocity P-wave (km/s) = 5.90407 6.93819 6.44191
#
# Compressibility (1/GPa) = 0.01756561
#
# Stress axis : x y z
#
# Youngs Moduli (GPa) = 86.61770 87.15095 93.91310
#
# Poissons Ratio (x) = 0.13796 0.32858
# Poissons Ratio (y) = 0.13712 0.27884
# Poissons Ratio (z) = 0.30306 0.25876
#
# Static dielectric constant tensor:
#      x y z
#    x 4.401480 0.051770 0.026360 
#    y 0.051770 3.945960 0.175320 
#    z 0.026360 0.175320 4.372010 
# 
# 
# High freq. dielectric constant tensor:
#      x y z
#    x 1.870980 0.004800 -0.013800 
#    y 0.004800 1.824350 0.018450 
#    z -0.013800 0.018450 1.835240 
# 
# From -- ./inp_files/417445.got.cif
#   From: 2010.06.25/outbox.cif.g09.slc.cpg/sg2_209_cif.got.tgz:417445.got - 2010.06.27 13:26:56.
