data_PCOD8029538
_publ_section_title
;
Structure prediction by ZEFSAII (Michael W. Deem and Ramdas Pophale) SiO2 
 PCOD8029538
Probable space group: P -1
;
_chemical_formula_sum "Si O2"
_cell_formula_units_Z 16
_cell_length_a 11.262699
_cell_length_b 13.356648
_cell_length_c 14.146134
_cell_angle_alpha 43.815476
_cell_angle_beta 113.623780
_cell_angle_gamma 147.107132
_cell_volume 670.493592
_symmetry_space_group_name_H-M "P -1"
_symmetry_group_IT_number 2
_symmetry_cell_setting 'triclinic'
loop_
_space_group_symop_operation_xyz
x,y,z
-x,-y,-z
loop_
_atom_site_type_symbol
_atom_site_label
_atom_site_fract_x
_atom_site_fract_y
_atom_site_fract_z
Si Si1 0.074672 0.810685 0.025330
Si Si2 0.229858 0.417460 0.620437
Si Si3 0.286605 0.858649 0.891598
Si Si4 0.841935 0.502589 0.638224
Si Si5 0.932531 0.645267 0.785599
Si Si6 0.248148 0.676990 0.597364
Si Si7 0.513967 0.587295 0.195257
Si Si8 0.238858 0.221576 0.051071
O O1 0.876805 0.558581 0.210718
O O2 0.095832 0.716964 0.012950
O O3 0.953120 0.841821 0.929423
O O4 0.366914 0.140205 0.925035
O O5 0.236361 0.438918 0.493474
O O6 0.306529 0.643845 0.542544
O O7 0.446283 0.502660 0.654470
O O8 0.927589 0.086150 0.776944
O O9 0.219969 0.899875 0.751429
O O10 0.587027 0.160535 0.810493
O O11 0.228328 0.632348 0.016759
O O12 0.960761 0.660269 0.670495
O O13 0.039525 0.602596 0.567799
O O14 0.791294 0.665058 0.747642
O O15 0.500000 0.000000 0.500000
O O16 0.680551 0.686554 0.094311
O O17 0.500000 0.500000 0.000000
#
# Coordination Sequence:
#
# PCOD8029538 Si02
#       8
#     2   2   2   2   2   2   2   2
#     4  11  20  44  71  99 134 180 241 289 343 406
#     4  11  26  45  67 103 143 186 232 290 360 416
#     4  11  24  44  71 102 137 186 242 290 346 422
#     4  12  26  45  68 101 148 186 228 296 356 415
#     4  11  24  42  72 102 135 188 242 288 346 421
#     4  12  26  44  73 103 141 186 230 295 359 419
#     4  11  21  45  73  98 139 185 235 297 345 412
#     4  11  23  41  72  99 137 185 239 290 344 418
#
# _framework density 23.863018
#
# number of rings (size 3 to 8) (size 9 to 14) (size 15 to 20)
#    0.000    0.750    5.000    3.000    3.500    0.500 
#    0.000    0.625    0.000    0.000    0.000    0.000 
#    0.000    0.000    0.000    0.000    0.000    0.000 
#
# Total GULP energy -198241.176555 kJ/mol
# GULP energy per Si atom -12390.073535 kJ/mol
# Density = 2.380870 g / cm^3
# Si number density = 23.863018 Si / 1000 Ang^3
#
#
#
# Elastic Constant Matrix: (Units=GPa)
#
#
# Indices 1 2 3 4 5 6 
#
# 1 88.2393 19.7654 4.0774 4.4988 2.7281 20.9861
# 2 19.7654 93.5981 5.0970 8.7060 2.0381 5.6892
# 3 4.0774 5.0970 51.3122 20.3529 6.6697 0.7176
# 4 4.4988 8.7060 20.3529 43.2641 -3.3645 4.6382
# 5 2.7281 2.0381 6.6697 -3.3645 25.9850 1.5919
# 6 20.9861 5.6892 0.7176 4.6382 1.5919 32.5178
#
#
#
# Elastic Compliance Matrix: (Units=1/GPa)
#
#
# Indices 1 2 3 4 5 6 
#
# 1 0.013948 -0.002396 -0.000798 0.000288 -0.000509 -0.008581
# 2 -0.002396 0.011412 0.000016 -0.002115 -0.000915 -0.000104
# 3 -0.000798 0.000016 0.025719 -0.012902 -0.008324 0.002193
# 4 0.000288 -0.002115 -0.012902 0.030634 0.007676 -0.004276
# 5 -0.000509 -0.000915 -0.008324 0.007676 0.041891 -0.002474
# 6 -0.008581 -0.000104 0.002193 -0.004276 -0.002474 0.036991
#
#
# Mechanical properties :
#
#
# Convention : Reuss Voigt Hill
#
# Bulk Modulus (GPa) = 22.36004 32.33659 27.34831
# Shear Modulus (GPa) = 27.49362 33.96737 30.73049
#
# Velocity S-wave (km/s) = 3.39801 3.77693 3.59247
# Velocity P-wave (km/s) = 4.97853 5.70970 5.35660
#
# Compressibility (1/GPa) = 0.04472264
#
# Stress axis : x y z
#
# Youngs Moduli (GPa) = 71.69301 87.62657 38.88156
#
# Poissons Ratio (x) = 0.20997 0.03104
# Poissons Ratio (y) = 0.17179 -0.00062
# Poissons Ratio (z) = 0.05724 -0.00141
#
# Static dielectric constant tensor:
#      x y z
#    x 3.911960 -0.043810 0.441290 
#    y -0.043810 4.068650 0.360560 
#    z 0.441290 0.360560 3.538490 
# 
# 
# High freq. dielectric constant tensor:
#      x y z
#    x 1.944370 0.011600 0.001930 
#    y 0.011600 1.953410 0.005730 
#    z 0.001930 0.005730 1.931690 
# 
# From -- ./inp_files/455390.got.cif
#   From: 2010.06.25/outbox.cif.g09.slc.cpg/sg2_228_cif.got.tgz:455390.got - 2010.06.27 13:26:56.
