data_PCOD8029082
_publ_section_title
;
Structure prediction by ZEFSAII (Michael W. Deem and Ramdas Pophale) SiO2 
 PCOD8029082
Probable space group: P -1
;
_chemical_formula_sum "Si O2"
_cell_formula_units_Z 16
_cell_length_a 11.923245
_cell_length_b 14.627759
_cell_length_c 11.576019
_cell_angle_alpha 125.751101
_cell_angle_beta 34.339698
_cell_angle_gamma 117.312415
_cell_volume 923.062334
_symmetry_space_group_name_H-M "P -1"
_symmetry_group_IT_number 2
_symmetry_cell_setting 'triclinic'
loop_
_space_group_symop_operation_xyz
x,y,z
-x,-y,-z
loop_
_atom_site_type_symbol
_atom_site_label
_atom_site_fract_x
_atom_site_fract_y
_atom_site_fract_z
Si Si1 0.804543 0.918900 0.400538
Si Si2 0.000397 0.322136 0.337950
Si Si3 0.307121 0.492215 0.232432
Si Si4 0.621248 0.833550 0.703290
Si Si5 0.241520 0.965570 0.118355
Si Si6 0.696181 0.702774 0.758318
Si Si7 0.443484 0.090147 0.840811
Si Si8 0.121303 0.108462 0.945830
O O1 0.698382 0.823511 0.497603
O O2 0.011642 0.941730 0.302388
O O3 0.663894 0.033336 0.598436
O O4 0.845209 0.873540 0.204587
O O5 0.779668 0.380607 0.576930
O O6 0.148969 0.419146 0.241695
O O7 0.083881 0.276347 0.358435
O O8 0.992824 0.219222 0.179683
O O9 0.359289 0.425762 0.260206
O O10 0.500000 0.500000 0.000000
O O11 0.694818 0.725790 0.638815
O O12 0.713688 0.948731 0.753904
O O13 0.380894 0.850240 0.929303
O O14 0.295861 0.016519 0.986151
O O15 0.538415 0.789618 0.021748
O O16 0.340153 0.103768 0.813773
O O17 0.000000 0.000000 0.000000
#
# Coordination Sequence:
#
# PCOD8029082 Si02
#       8
#     2   2   2   2   2   2   2   2
#     4  11  20  29  48  68 105 144 170 195 245 309
#     4   8  19  36  51  77 108 124 161 220 254 294
#     4   9  17  35  57  77  96 125 169 214 265 294
#     4   9  18  31  45  68 102 134 171 211 245 288
#     4   9  17  32  44  67 102 138 171 210 242 288
#     4   8  16  33  51  71 102 124 159 219 251 286
#     4   9  18  33  46  72 106 133 168 206 243 298
#     4  11  20  34  51  75 110 141 166 200 256 307
#
# _framework density 17.333606
#
# number of rings (size 3 to 8) (size 9 to 14) (size 15 to 20)
#    0.750    2.000    1.250    1.500    0.000    1.000 
#    4.500    0.000    0.000    0.750    0.000    1.750 
#    0.000    0.000    0.000    0.000    0.000    0.000 
#
# Total GULP energy -198234.344658 kJ/mol
# GULP energy per Si atom -12389.646541 kJ/mol
# Density = 1.729415 g / cm^3
# Si number density = 17.333606 Si / 1000 Ang^3
#
#
#
# Elastic Constant Matrix: (Units=GPa)
#
#
# Indices 1 2 3 4 5 6 
#
# 1 82.8372 28.0760 48.6912 1.9297 0.9256 -21.9093
# 2 28.0760 58.4708 50.2611 11.1028 -0.2572 -16.2933
# 3 48.6912 50.2611 122.1062 5.9148 -12.3160 -13.1718
# 4 1.9297 11.1028 5.9148 27.1299 -2.3647 -3.1101
# 5 0.9256 -0.2572 -12.3160 -2.3647 32.3357 -2.7885
# 6 -21.9093 -16.2933 -13.1718 -3.1101 -2.7885 30.8460
#
#
#
# Elastic Compliance Matrix: (Units=1/GPa)
#
#
# Indices 1 2 3 4 5 6 
#
# 1 0.018738 -0.001196 -0.006164 0.001482 -0.001921 0.010021
# 2 -0.001196 0.032329 -0.011696 -0.009814 -0.004029 0.009879
# 3 -0.006164 -0.011696 0.015622 0.001972 0.005906 -0.003153
# 4 0.001482 -0.009814 0.001972 0.040798 0.003714 0.001160
# 5 -0.001921 -0.004029 0.005906 0.003714 0.033681 0.002449
# 6 0.010021 0.009879 -0.003153 0.001160 0.002449 0.043747
#
#
# Mechanical properties :
#
#
# Convention : Reuss Voigt Hill
#
# Bulk Modulus (GPa) = 34.99314 57.49675 46.24494
# Shear Modulus (GPa) = 21.50060 27.15470 24.32765
#
# Velocity S-wave (km/s) = 3.52575 3.96231 3.75039
# Velocity P-wave (km/s) = 6.06683 7.36043 6.74472
#
# Compressibility (1/GPa) = 0.02857703
#
# Stress axis : x y z
#
# Youngs Moduli (GPa) = 53.36780 30.93188 64.01316
#
# Poissons Ratio (x) = 0.03700 0.39459
# Poissons Ratio (y) = 0.06384 0.74867
# Poissons Ratio (z) = 0.32897 0.36176
#
# Static dielectric constant tensor:
#      x y z
#    x 3.283390 -0.263080 -0.122200 
#    y -0.263080 2.942990 0.072480 
#    z -0.122200 0.072480 3.168990 
# 
# 
# High freq. dielectric constant tensor:
#      x y z
#    x 1.662200 -0.023960 -0.013160 
#    y -0.023960 1.628920 -0.002790 
#    z -0.013160 -0.002790 1.665080 
# 
# From -- ./inp_files/436847.got.cif
#   From: 2010.06.25/outbox.cif.g09.slc.cpg/sg2_219_cif.got.tgz:436847.got - 2010.06.27 13:26:56.
