data_PCOD8029470
_publ_section_title
;
Structure prediction by ZEFSAII (Michael W. Deem and Ramdas Pophale) SiO2 
 PCOD8029470
Probable space group: P -1
;
_chemical_formula_sum "Si O2"
_cell_formula_units_Z 14
_cell_length_a 11.367152
_cell_length_b 7.103249
_cell_length_c 15.197703
_cell_angle_alpha 119.510746
_cell_angle_beta 43.469321
_cell_angle_gamma 87.265579
_cell_volume 540.866251
_symmetry_space_group_name_H-M "P -1"
_symmetry_group_IT_number 2
_symmetry_cell_setting 'triclinic'
loop_
_space_group_symop_operation_xyz
x,y,z
-x,-y,-z
loop_
_atom_site_type_symbol
_atom_site_label
_atom_site_fract_x
_atom_site_fract_y
_atom_site_fract_z
Si Si1 0.659467 0.071381 0.918895
Si Si2 0.738968 0.726782 0.265482
Si Si3 0.266847 0.828095 0.724096
Si Si4 0.026754 0.949221 0.578927
Si Si5 0.684662 0.591063 0.954471
Si Si6 0.102378 0.180165 0.059265
Si Si7 0.442813 0.460437 0.808214
O O1 0.483737 0.361006 0.018484
O O2 0.686505 0.197117 0.021493
O O3 0.500000 0.000000 0.000000
O O4 0.894282 0.858529 0.680667
O O5 0.949868 0.490455 0.160680
O O6 0.696866 0.543764 0.191736
O O7 0.500000 0.000000 0.500000
O O8 0.805617 0.881197 0.210608
O O9 0.500000 0.500000 0.500000
O O10 0.072810 0.826319 0.796239
O O11 0.264539 0.885683 0.843024
O O12 0.295920 0.708820 0.403364
O O13 0.921514 0.252718 0.750853
O O14 0.000000 0.000000 0.500000
O O15 0.752042 0.790248 0.945045
O O16 0.556451 0.695340 0.142397
#
# Coordination Sequence:
#
# PCOD8029470 Si02
#       7
#     2   2   2   2   2   2   2
#     4  11  25  44  66 105 139 173 231 295 354 419
#     4  12  24  46  72 102 144 188 244 289 349 431
#     4  11  24  44  65  99 140 180 240 290 347 417
#     4  11  20  42  71  93 128 179 230 272 344 416
#     4  11  22  43  70  95 135 181 228 283 350 425
#     4  11  25  44  70  97 140 193 227 292 359 415
#     4  11  23  44  71  95 134 185 228 283 349 425
#
# _framework density 25.884404
#
# number of rings (size 3 to 8) (size 9 to 14) (size 15 to 20)
#    0.000    0.857    5.714    2.143    0.000    2.857 
#    5.143    0.000    0.000    0.000    0.000    0.000 
#    0.000    0.000    0.000    0.000    0.000    0.000 
#
# Total GULP energy -173434.448784 kJ/mol
# GULP energy per Si atom -12388.174913 kJ/mol
# Density = 2.582549 g / cm^3
# Si number density = 25.884404 Si / 1000 Ang^3
#
#
#
# Elastic Constant Matrix: (Units=GPa)
#
#
# Indices 1 2 3 4 5 6 
#
# 1 95.7022 3.4142 27.8298 8.1828 5.6804 21.1772
# 2 3.4142 140.4631 29.7797 -8.5648 -3.7417 32.2206
# 3 27.8298 29.7797 156.5914 -14.1029 -8.9292 13.8079
# 4 8.1828 -8.5648 -14.1029 49.9990 2.9594 -10.7948
# 5 5.6804 -3.7417 -8.9292 2.9594 38.4192 3.8412
# 6 21.1772 32.2206 13.8079 -10.7948 3.8412 25.6396
#
#
#
# Elastic Compliance Matrix: (Units=1/GPa)
#
#
# Indices 1 2 3 4 5 6 
#
# 1 0.016167 0.004423 -0.002537 -0.007035 0.000044 -0.020514
# 2 0.004423 0.011583 -0.001472 -0.003440 0.002318 -0.019211
# 3 -0.002537 -0.001472 0.007359 0.002287 0.001697 0.000691
# 4 -0.007035 -0.003440 0.002287 0.025720 -0.002758 0.020144
# 5 0.000044 0.002318 0.001697 -0.002758 0.027773 -0.009185
# 6 -0.020514 -0.019211 0.000691 0.020144 -0.009185 0.089573
#
#
# Mechanical properties :
#
#
# Convention : Reuss Voigt Hill
#
# Bulk Modulus (GPa) = 27.82726 57.20045 42.51386
# Shear Modulus (GPa) = 26.40947 44.92710 35.66828
#
# Velocity S-wave (km/s) = 3.19766 4.17067 3.71615
# Velocity P-wave (km/s) = 4.94037 6.73343 5.90535
#
# Compressibility (1/GPa) = 0.03593598
#
# Stress axis : x y z
#
# Youngs Moduli (GPa) = 61.85354 86.33484 135.89452
#
# Poissons Ratio (x) = -0.38183 0.34471
# Poissons Ratio (y) = -0.27356 0.20009
# Poissons Ratio (z) = 0.15690 0.12712
#
# Static dielectric constant tensor:
#      x y z
#    x 4.987590 -0.213370 0.097720 
#    y -0.213370 4.182670 0.061460 
#    z 0.097720 0.061460 4.704140 
# 
# 
# High freq. dielectric constant tensor:
#      x y z
#    x 2.048170 0.003330 -0.005190 
#    y 0.003330 2.068210 -0.009340 
#    z -0.005190 -0.009340 2.033090 
# 
# From -- ./inp_files/567025.got.cif
#   From: 2010.06.25/outbox.cif.g09.slc.cpg/sg2_284_cif.got.tgz:567025.got - 2010.06.27 13:26:56.
