data_PCOD8029413
_publ_section_title
;
Structure prediction by ZEFSAII (Michael W. Deem and Ramdas Pophale) SiO2 
 PCOD8029413
Probable space group: P -1
;
_chemical_formula_sum "Si O2"
_cell_formula_units_Z 16
_cell_length_a 20.567563
_cell_length_b 23.586621
_cell_length_c 10.040832
_cell_angle_alpha 148.745440
_cell_angle_beta 31.498462
_cell_angle_gamma 163.374236
_cell_volume 704.425005
_symmetry_space_group_name_H-M "P -1"
_symmetry_group_IT_number 2
_symmetry_cell_setting 'triclinic'
loop_
_space_group_symop_operation_xyz
x,y,z
-x,-y,-z
loop_
_atom_site_type_symbol
_atom_site_label
_atom_site_fract_x
_atom_site_fract_y
_atom_site_fract_z
Si Si1 0.539790 0.335088 0.422081
Si Si2 0.757053 0.085896 0.304995
Si Si3 0.982636 0.035841 0.453582
Si Si4 0.582645 0.739773 0.991615
Si Si5 0.784994 0.571397 0.214905
Si Si6 0.467181 0.055370 0.855809
Si Si7 0.101604 0.615146 0.694577
Si Si8 0.742098 0.492115 0.672957
O O1 0.670648 0.508031 0.431795
O O2 0.668777 0.450191 0.565600
O O3 0.551257 0.215227 0.124319
O O4 0.274588 0.178607 0.582808
O O5 0.692321 0.162606 0.611392
O O6 0.030241 0.264390 0.208806
O O7 0.600557 0.884728 0.257897
O O8 0.700898 0.020399 0.116966
O O9 0.024895 0.197992 0.699072
O O10 0.161718 0.117054 0.197768
O O11 0.000000 0.000000 0.500000
O O12 0.469781 0.622043 0.093424
O O13 0.419893 0.576262 0.830429
O O14 0.895906 0.533347 0.955463
O O15 0.326957 0.859517 0.786312
O O16 0.178690 0.572135 0.564103
O O17 0.000000 0.500000 0.500000
#
# Coordination Sequence:
#
# PCOD8029413 Si02
#       8
#     2   2   2   2   2   2   2   2
#     4  12  28  47  68 109 147 184 235 298 358 418
#     4  11  22  41  72 102 138 187 234 287 348 419
#     4  12  27  47  78 104 136 185 248 300 342 414
#     4  12  25  44  74 102 135 187 244 286 345 424
#     4  12  24  45  77 107 137 185 240 291 353 423
#     4  11  20  41  70 101 142 183 234 287 344 422
#     4  12  21  40  73 106 142 184 232 281 351 431
#     4  12  28  44  70 109 150 184 229 295 365 418
#
# _framework density 22.713559
#
# number of rings (size 3 to 8) (size 9 to 14) (size 15 to 20)
#    0.000    0.250    7.500    1.125    1.750    4.000 
#    0.000    1.250    0.000    0.000    0.000    0.000 
#    0.000    0.000    0.000    0.000    0.000    0.000 
#
# Total GULP energy -198425.807307 kJ/mol
# GULP energy per Si atom -12401.612957 kJ/mol
# Density = 2.266186 g / cm^3
# Si number density = 22.713559 Si / 1000 Ang^3
#
#
#
# Elastic Constant Matrix: (Units=GPa)
#
#
# Indices 1 2 3 4 5 6 
#
# 1 102.3269 43.6592 30.6525 -1.6795 28.0695 1.0062
# 2 43.6592 111.4623 16.0644 -12.9131 22.2205 -1.3991
# 3 30.6525 16.0644 76.9566 -22.5940 15.3197 6.7241
# 4 -1.6795 -12.9131 -22.5940 38.8763 -2.2458 -6.1693
# 5 28.0695 22.2205 15.3197 -2.2458 37.0074 -3.6386
# 6 1.0062 -1.3991 6.7241 -6.1693 -3.6386 32.4944
#
#
#
# Elastic Compliance Matrix: (Units=1/GPa)
#
#
# Indices 1 2 3 4 5 6 
#
# 1 0.014904 -0.004216 -0.004724 -0.004116 -0.007190 -0.001252
# 2 -0.004216 0.011761 0.001233 0.004327 -0.004038 0.000751
# 3 -0.004724 0.001233 0.018799 0.010521 -0.004517 -0.002199
# 4 -0.004116 0.004327 0.010521 0.033714 -0.001354 0.004386
# 5 -0.007190 -0.004038 -0.004517 -0.001354 0.037168 0.004888
# 6 -0.001252 0.000751 -0.002199 0.004386 0.004888 0.032681
#
#
# Mechanical properties :
#
#
# Convention : Reuss Voigt Hill
#
# Bulk Modulus (GPa) = 33.27906 52.38869 42.83388
# Shear Modulus (GPa) = 28.66037 35.03360 31.84698
#
# Velocity S-wave (km/s) = 3.55606 3.93161 3.74854
# Velocity P-wave (km/s) = 5.61642 6.61250 6.13471
#
# Compressibility (1/GPa) = 0.03004893
#
# Stress axis : x y z
#
# Youngs Moduli (GPa) = 67.09802 85.02671 53.19500
#
# Poissons Ratio (x) = 0.35847 0.25129
# Poissons Ratio (y) = 0.28289 -0.06557
# Poissons Ratio (z) = 0.31696 -0.10481
#
# Static dielectric constant tensor:
#      x y z
#    x 4.052540 -0.045460 -0.415110 
#    y -0.045460 4.524010 -0.253090 
#    z -0.415110 -0.253090 4.221280 
# 
# 
# High freq. dielectric constant tensor:
#      x y z
#    x 1.865660 -0.014940 -0.017470 
#    y -0.014940 1.921210 -0.012000 
#    z -0.017470 -0.012000 1.894830 
# 
# From -- ./inp_files/297454.got.cif
#   From: 2010.06.25/outbox.cif.g09.slc.cpg/sg2_149_cif.got.tgz:297454.got - 2010.06.27 13:26:56.
