data_PCOD8029341
_publ_section_title
;
Structure prediction by ZEFSAII (Michael W. Deem and Ramdas Pophale) SiO2 
 PCOD8029341
Probable space group: P -1
;
_chemical_formula_sum "Si O2"
_cell_formula_units_Z 16
_cell_length_a 20.154287
_cell_length_b 9.113193
_cell_length_c 12.624226
_cell_angle_alpha 36.764779
_cell_angle_beta 34.060646
_cell_angle_gamma 35.679177
_cell_volume 696.694692
_symmetry_space_group_name_H-M "P -1"
_symmetry_group_IT_number 2
_symmetry_cell_setting 'triclinic'
loop_
_space_group_symop_operation_xyz
x,y,z
-x,-y,-z
loop_
_atom_site_type_symbol
_atom_site_label
_atom_site_fract_x
_atom_site_fract_y
_atom_site_fract_z
Si Si1 0.862484 0.314904 0.699328
Si Si2 0.191564 0.145390 0.066498
Si Si3 0.515991 0.218913 0.096336
Si Si4 0.677322 0.659896 0.908751
Si Si5 0.453349 0.588373 0.629064
Si Si6 0.726397 0.533900 0.387514
Si Si7 0.854007 0.906624 0.615853
Si Si8 0.313701 0.178299 0.511601
O O1 0.781996 0.573577 0.579679
O O2 0.015279 0.254101 0.534582
O O3 0.800595 0.387856 0.856801
O O4 0.856819 0.035754 0.835340
O O5 0.197018 0.397885 0.849692
O O6 0.335693 0.959835 0.028940
O O7 0.108323 0.232052 0.235935
O O8 0.468279 0.100727 0.327199
O O9 0.500000 0.500000 0.000000
O O10 0.431503 0.219090 0.107496
O O11 0.603662 0.613161 0.134010
O O12 0.732019 0.876727 0.741143
O O13 0.500000 0.500000 0.500000
O O14 0.580246 0.568246 0.537343
O O15 0.321578 0.882050 0.645025
O O16 0.719293 0.742338 0.368996
O O17 0.817912 0.226900 0.482640
#
# Coordination Sequence:
#
# PCOD8029341 Si02
#       8
#     2   2   2   2   2   2   2   2
#     4  11  25  48  71  95 143 191 236 285 331 415
#     4  12  23  43  71 104 137 181 234 290 346 403
#     4  11  20  40  68 100 132 173 227 283 351 408
#     4  11  25  44  72  98 138 191 224 284 358 411
#     4  12  26  43  68 107 142 171 227 298 359 416
#     4  12  26  41  75 105 138 183 226 294 351 416
#     4  12  27  48  65 103 145 187 239 280 338 411
#     4  11  23  42  69 100 139 176 226 289 346 409
#
# _framework density 22.965584
#
# number of rings (size 3 to 8) (size 9 to 14) (size 15 to 20)
#    0.000    0.500    5.000    4.125    3.500    1.500 
#    2.250    0.625    0.000    0.000    0.000    0.000 
#    0.000    0.000    0.000    0.000    0.000    0.000 
#
# Total GULP energy -198298.572612 kJ/mol
# GULP energy per Si atom -12393.660788 kJ/mol
# Density = 2.291331 g / cm^3
# Si number density = 22.965584 Si / 1000 Ang^3
#
#
#
# Elastic Constant Matrix: (Units=GPa)
#
#
# Indices 1 2 3 4 5 6 
#
# 1 83.6436 31.6240 39.6584 -1.2235 7.2038 20.3938
# 2 31.6240 78.2150 37.3794 11.2542 2.2726 10.0774
# 3 39.6584 37.3794 139.1174 6.7109 11.5595 -1.1154
# 4 -1.2235 11.2542 6.7109 34.9404 10.4507 0.0715
# 5 7.2038 2.2726 11.5595 10.4507 36.0337 7.7150
# 6 20.3938 10.0774 -1.1154 0.0715 7.7150 32.4649
#
#
#
# Elastic Compliance Matrix: (Units=1/GPa)
#
#
# Indices 1 2 3 4 5 6 
#
# 1 0.018167 -0.004516 -0.004131 0.003143 -0.000799 -0.009969
# 2 -0.004516 0.017488 -0.003428 -0.006153 0.003436 -0.003512
# 3 -0.004131 -0.003428 0.009577 0.000021 -0.003045 0.004712
# 4 0.003143 -0.006153 0.000021 0.033867 -0.010578 0.002375
# 5 -0.000799 0.003436 -0.003045 -0.010578 0.033587 -0.008627
# 6 -0.009969 -0.003512 0.004712 0.002375 -0.008627 0.040362
#
#
# Mechanical properties :
#
#
# Convention : Reuss Voigt Hill
#
# Bulk Modulus (GPa) = 47.43493 57.58885 52.51189
# Shear Modulus (GPa) = 27.14097 33.50876 30.32487
#
# Velocity S-wave (km/s) = 3.44148 3.82394 3.63774
# Velocity P-wave (km/s) = 6.04080 6.68037 6.36862
#
# Compressibility (1/GPa) = 0.02108151
#
# Stress axis : x y z
#
# Youngs Moduli (GPa) = 55.04556 57.18360 104.42118
#
# Poissons Ratio (x) = 0.25823 0.43133
# Poissons Ratio (y) = 0.24857 0.35798
# Poissons Ratio (z) = 0.22737 0.19604
#
# Static dielectric constant tensor:
#      x y z
#    x 3.941300 0.180350 -0.030710 
#    y 0.180350 4.219140 0.152990 
#    z -0.030710 0.152990 4.549550 
# 
# 
# High freq. dielectric constant tensor:
#      x y z
#    x 1.893410 0.015560 0.000530 
#    y 0.015560 1.905920 0.005960 
#    z 0.000530 0.005960 1.921240 
# 
# From -- ./inp_files/461790.got.cif
#   From: 2010.06.25/outbox.cif.g09.slc.cpg/sg2_231_cif.got.tgz:461790.got - 2010.06.27 13:26:56.
