data_PCOD8029751
_publ_section_title
;
Structure prediction by ZEFSAII (Michael W. Deem and Ramdas Pophale) SiO2 
 PCOD8029751
Probable space group: P -1
;
_chemical_formula_sum "Si O2"
_cell_formula_units_Z 16
_cell_length_a 9.375461
_cell_length_b 12.488667
_cell_length_c 12.323575
_cell_angle_alpha 48.415907
_cell_angle_beta 94.244597
_cell_angle_gamma 123.197342
_cell_volume 800.807679
_symmetry_space_group_name_H-M "P -1"
_symmetry_group_IT_number 2
_symmetry_cell_setting 'triclinic'
loop_
_space_group_symop_operation_xyz
x,y,z
-x,-y,-z
loop_
_atom_site_type_symbol
_atom_site_label
_atom_site_fract_x
_atom_site_fract_y
_atom_site_fract_z
Si Si1 0.581928 0.012188 0.881469
Si Si2 0.556441 0.295251 0.609878
Si Si3 0.908270 0.630591 0.992905
Si Si4 0.678704 0.550089 0.649801
Si Si5 0.222256 0.608460 0.065138
Si Si6 0.860785 0.930847 0.306031
Si Si7 0.028469 0.888266 0.154910
Si Si8 0.683996 0.535636 0.259523
O O1 0.644701 0.198185 0.698871
O O2 0.762506 0.035004 0.897190
O O3 0.500000 0.000000 0.000000
O O4 0.426822 0.823271 0.929034
O O5 0.655170 0.477831 0.572913
O O6 0.326811 0.144532 0.721943
O O7 0.578238 0.338038 0.452875
O O8 0.794251 0.489464 0.980920
O O9 0.747276 0.553129 0.127519
O O10 0.018914 0.845512 0.808749
O O11 0.055712 0.615140 0.062626
O O12 0.792500 0.509568 0.754399
O O13 0.794633 0.779890 0.501978
O O14 0.465292 0.430407 0.770120
O O15 0.002388 0.924694 0.250409
O O16 0.870341 0.669981 0.255913
O O17 0.000000 0.000000 0.000000
#
# Coordination Sequence:
#
# PCOD8029751 Si02
#       8
#     2   2   2   2   2   2   2   2
#     4  12  23  37  63  92 124 160 205 257 312 358
#     4  11  21  39  64  96 127 157 196 261 317 355
#     4  11  25  43  66  82 124 171 211 246 299 374
#     4  11  22  39  66  95 129 152 203 260 309 359
#     4  11  25  44  61  89 122 166 213 249 303 365
#     4  11  21  40  63  94 123 162 196 255 314 357
#     4  12  21  33  60  94 123 153 207 249 300 368
#     4  11  22  38  62  95 126 160 195 254 310 362
#
# _framework density 19.979828000000001
#
# number of rings (size 3 to 8) (size 9 to 14) (size 15 to 20)
#    0.000    0.750    6.250    3.000    0.000    2.500 
#    0.000    0.625    0.000    0.000    0.000    0.000 
#    0.000    0.000    0.000    0.000    0.000    0.000 
#
# Total GULP energy -198297.372850 kJ/mol
# GULP energy per Si atom -12393.585803 kJ/mol
# Density = 1.993435 g / cm^3
# Si number density = 19.979828 Si / 1000 Ang^3
#
#
#
# Elastic Constant Matrix: (Units=GPa)
#
#
# Indices 1 2 3 4 5 6 
#
# 1 118.4015 40.3563 46.2962 -5.3099 -0.9521 2.3086
# 2 40.3563 104.2101 38.0436 -13.1278 -5.0571 -5.8508
# 3 46.2962 38.0436 106.1404 -7.5929 9.2837 -7.4401
# 4 -5.3099 -13.1278 -7.5929 23.8476 -2.6942 2.0618
# 5 -0.9521 -5.0571 9.2837 -2.6942 37.6597 1.2086
# 6 2.3086 -5.8508 -7.4401 2.0618 1.2086 25.7877
#
#
#
# Elastic Compliance Matrix: (Units=1/GPa)
#
#
# Indices 1 2 3 4 5 6 
#
# 1 0.011103 -0.002933 -0.004085 -0.000084 0.000980 -0.002877
# 2 -0.002933 0.012763 -0.003015 0.005573 0.002727 0.001715
# 3 -0.004085 -0.003015 0.012917 0.000816 -0.003747 0.003519
# 4 -0.000084 0.005573 0.000816 0.045885 0.003903 -0.002344
# 5 0.000980 0.002727 -0.003747 0.003903 0.028217 -0.002185
# 6 -0.002877 0.001715 0.003519 -0.002344 -0.002185 0.040730
#
#
# Mechanical properties :
#
#
# Convention : Reuss Voigt Hill
#
# Bulk Modulus (GPa) = 59.81976 64.23826 62.02901
# Shear Modulus (GPa) = 28.20812 31.06272 29.63542
#
# Velocity S-wave (km/s) = 3.76151 3.94725 3.85550
# Velocity P-wave (km/s) = 6.99073 7.27982 7.13674
#
# Compressibility (1/GPa) = 0.01671688
#
# Stress axis : x y z
#
# Youngs Moduli (GPa) = 90.06533 78.35087 77.41921
#
# Poissons Ratio (x) = 0.22980 0.31626
# Poissons Ratio (y) = 0.26415 0.23342
# Poissons Ratio (z) = 0.36792 0.23623
#
# Static dielectric constant tensor:
#      x y z
#    x 4.108070 0.059240 -0.167460 
#    y 0.059240 3.527880 -0.304290 
#    z -0.167460 -0.304290 4.096340 
# 
# 
# High freq. dielectric constant tensor:
#      x y z
#    x 1.788740 -0.000690 0.006000 
#    y -0.000690 1.754550 -0.011690 
#    z 0.006000 -0.011690 1.787070 
# 
# From -- ./inp_files/206288.got.cif
#   From: 2010.06.25/outbox.cif.g09.slc.cpg/sg2_104_cif.got.tgz:206288.got - 2010.06.27 13:26:56.
