data_PCOD8029321
_publ_section_title
;
Structure prediction by ZEFSAII (Michael W. Deem and Ramdas Pophale) SiO2 
 PCOD8029321
Probable space group: P -1
;
_chemical_formula_sum "Si O2"
_cell_formula_units_Z 12
_cell_length_a 6.235078
_cell_length_b 8.668245
_cell_length_c 12.459717
_cell_angle_alpha 126.696978
_cell_angle_beta 69.249930
_cell_angle_gamma 98.943035
_cell_volume 503.499566
_symmetry_space_group_name_H-M "P -1"
_symmetry_group_IT_number 2
_symmetry_cell_setting 'triclinic'
loop_
_space_group_symop_operation_xyz
x,y,z
-x,-y,-z
loop_
_atom_site_type_symbol
_atom_site_label
_atom_site_fract_x
_atom_site_fract_y
_atom_site_fract_z
Si Si1 0.925827 0.244584 0.219281
Si Si2 0.408786 0.876772 0.620318
Si Si3 0.164725 0.131556 0.588701
Si Si4 0.723866 0.111564 0.985537
Si Si5 0.521436 0.754489 0.116813
Si Si6 0.828289 0.473046 0.824820
O O1 0.742706 0.284801 0.366387
O O2 0.102175 0.415530 0.250235
O O3 0.789767 0.241640 0.128883
O O4 0.062350 0.042074 0.140141
O O5 0.651035 0.786845 0.493469
O O6 0.279051 0.992044 0.597595
O O7 0.444499 0.025621 0.772649
O O8 0.037619 0.315050 0.747735
O O9 0.000000 0.000000 0.500000
O O10 0.661390 0.249432 0.951637
O O11 0.500000 0.000000 0.000000
O O12 0.402938 0.645460 0.192305
O O13 0.766703 0.639950 0.994996
#
# Coordination Sequence:
#
# PCOD8029321 Si02
#       6
#     2   2   2   2   2   2
#     4  11  23  38  66 102 129 170 215 271 320 383
#     4  11  24  44  71  91 127 181 218 253 338 392
#     4  11  25  48  67  90 131 181 218 263 323 399
#     4  11  20  40  64  98 141 168 205 262 340 387
#     4  11  22  41  70  98 129 173 211 271 323 388
#     4  11  24  40  66 102 131 162 225 272 320 370
#
# _framework density 23.833190999999999
#
# number of rings (size 3 to 8) (size 9 to 14) (size 15 to 20)
#    0.000    1.000    5.000    2.000    0.000    4.667 
#    0.000    0.833    0.000    0.000    0.000    0.000 
#    0.000    0.000    0.000    0.000    0.000    0.000 
#
# Total GULP energy -148682.067323 kJ/mol
# GULP energy per Si atom -12390.172277 kJ/mol
# Density = 2.377895 g / cm^3
# Si number density = 23.833191 Si / 1000 Ang^3
#
#
#
# Elastic Constant Matrix: (Units=GPa)
#
#
# Indices 1 2 3 4 5 6 
#
# 1 81.8440 34.4453 51.8061 -17.7129 -26.1879 -6.4991
# 2 34.4453 105.0303 34.9922 -26.1893 -22.2678 29.5536
# 3 51.8061 34.9922 103.3584 -15.5650 -38.9051 -1.2378
# 4 -17.7129 -26.1893 -15.5650 41.2965 9.1822 -20.1345
# 5 -26.1879 -22.2678 -38.9051 9.1822 44.3153 -19.1198
# 6 -6.4991 29.5536 -1.2378 -20.1345 -19.1198 41.8412
#
#
#
# Elastic Compliance Matrix: (Units=1/GPa)
#
#
# Indices 1 2 3 4 5 6 
#
# 1 0.028054 -0.008298 -0.001461 0.014620 0.019335 0.026046
# 2 -0.008298 0.016813 -0.005176 -0.001757 -0.008402 -0.018002
# 3 -0.001461 -0.005176 0.021779 0.008225 0.021694 0.017944
# 4 0.014620 -0.001757 0.008225 0.044830 0.020697 0.034785
# 5 0.019335 -0.008402 0.021694 0.020697 0.065961 0.049681
# 6 0.026046 -0.018002 0.017944 0.034785 0.049681 0.080633
#
#
# Mechanical properties :
#
#
# Convention : Reuss Voigt Hill
#
# Bulk Modulus (GPa) = 27.19117 59.19112 43.19115
# Shear Modulus (GPa) = 16.65565 36.75654 26.70610
#
# Velocity S-wave (km/s) = 2.64643 3.93140 3.35108
# Velocity P-wave (km/s) = 4.55761 6.74517 5.75627
#
# Compressibility (1/GPa) = 0.03677665
#
# Stress axis : x y z
#
# Youngs Moduli (GPa) = 35.64494 59.47815 45.91615
#
# Poissons Ratio (x) = 0.49355 0.06709
# Poissons Ratio (y) = 0.29578 0.23765
# Poissons Ratio (z) = 0.05208 0.30784
#
# Static dielectric constant tensor:
#      x y z
#    x 6.966240 0.045700 1.248830 
#    y 0.045700 4.558660 -0.248820 
#    z 1.248830 -0.248820 5.442220 
# 
# 
# High freq. dielectric constant tensor:
#      x y z
#    x 1.938230 0.015980 -0.035820 
#    y 0.015980 1.947130 -0.015230 
#    z -0.035820 -0.015230 1.926000 
# 
# From -- ./inp_files/25637.got.cif
#   From: 2010.06.25/outbox.cif.g09.slc.cpg/sg2_13_cif.got.tgz:25637.got - 2010.06.27 13:26:56.
