data_PCOD8029222
_publ_section_title
;
Structure prediction by ZEFSAII (Michael W. Deem and Ramdas Pophale) SiO2 
 PCOD8029222
Probable space group: P -1
;
_chemical_formula_sum "Si O2"
_cell_formula_units_Z 16
_cell_length_a 10.974362
_cell_length_b 12.397799
_cell_length_c 8.815594
_cell_angle_alpha 75.390642
_cell_angle_beta 128.240399
_cell_angle_gamma 123.766799
_cell_volume 775.360159
_symmetry_space_group_name_H-M "P -1"
_symmetry_group_IT_number 2
_symmetry_cell_setting 'triclinic'
loop_
_space_group_symop_operation_xyz
x,y,z
-x,-y,-z
loop_
_atom_site_type_symbol
_atom_site_label
_atom_site_fract_x
_atom_site_fract_y
_atom_site_fract_z
Si Si1 0.541556 0.848080 0.207038
Si Si2 0.895359 0.909076 0.299646
Si Si3 0.254300 0.705685 0.778855
Si Si4 0.871776 0.666846 0.529165
Si Si5 0.783924 0.814129 0.608072
Si Si6 0.493705 0.952516 0.684227
Si Si7 0.263396 0.154894 0.105515
Si Si8 0.409252 0.559789 0.807378
O O1 0.709997 0.906710 0.198154
O O2 0.584456 0.773715 0.401412
O O3 0.508252 0.952641 0.225095
O O4 0.363298 0.757828 0.002397
O O5 0.910939 0.791246 0.417947
O O6 0.888457 0.879170 0.125117
O O7 0.073782 0.052217 0.425682
O O8 0.323547 0.809282 0.654682
O O9 0.267453 0.580785 0.787177
O O10 0.044944 0.652182 0.673425
O O11 0.822290 0.697655 0.647702
O O12 0.697062 0.534678 0.381133
O O13 0.826051 0.859886 0.795490
O O14 0.676608 0.949774 0.836430
O O15 0.500000 0.000000 0.500000
O O16 0.433733 0.302158 0.183192
O O17 0.500000 0.500000 0.000000
#
# Coordination Sequence:
#
# PCOD8029222 Si02
#       8
#     2   2   2   2   2   2   2   2
#     4  11  20  38  61  87 126 166 198 243 303 377
#     4  11  21  40  61  92 123 162 207 247 302 372
#     4  11  23  39  64  91 118 163 210 248 301 356
#     4  11  23  39  64  91 120 163 207 254 293 360
#     4  11  23  38  60  95 128 156 201 253 311 362
#     4  11  21  35  59  92 127 159 197 251 311 362
#     4  11  23  39  63  92 123 166 197 253 313 356
#     4  11  21  44  68  87 118 160 216 247 297 366
#
# _framework density 20.635570000000001
#
# number of rings (size 3 to 8) (size 9 to 14) (size 15 to 20)
#    0.000    1.000    5.000    4.875    1.750    0.500 
#    0.000    0.000    0.000    1.500    0.000    0.000 
#    0.000    0.000    0.000    0.000    0.000    0.000 
#
# Total GULP energy -198278.347527 kJ/mol
# GULP energy per Si atom -12392.396720 kJ/mol
# Density = 2.058860 g / cm^3
# Si number density = 20.635570 Si / 1000 Ang^3
#
#
#
# Elastic Constant Matrix: (Units=GPa)
#
#
# Indices 1 2 3 4 5 6 
#
# 1 101.9140 31.3203 30.0968 -1.2173 0.3145 -36.3614
# 2 31.3203 78.4122 23.8456 9.8900 7.0986 -28.1480
# 3 30.0968 23.8456 99.5055 11.1128 -3.1387 -6.3207
# 4 -1.2173 9.8900 11.1128 31.2238 2.3548 -1.3623
# 5 0.3145 7.0986 -3.1387 2.3548 39.5352 3.3838
# 6 -36.3614 -28.1480 -6.3207 -1.3623 3.3838 36.0974
#
#
#
# Elastic Compliance Matrix: (Units=1/GPa)
#
#
# Indices 1 2 3 4 5 6 
#
# 1 0.017239 0.000568 -0.004666 0.003080 -0.002276 0.017321
# 2 0.000568 0.020452 -0.003756 -0.004026 -0.005121 0.016191
# 3 -0.004666 -0.003756 0.012502 -0.003879 0.002433 -0.005815
# 4 0.003080 -0.004026 -0.003879 0.034969 -0.001758 0.000768
# 5 -0.002276 -0.005121 0.002433 -0.001758 0.027255 -0.008481
# 6 0.017321 0.016191 -0.005815 0.000768 -0.008481 0.057582
#
#
# Mechanical properties :
#
#
# Convention : Reuss Voigt Hill
#
# Bulk Modulus (GPa) = 28.99822 50.03967 39.51895
# Shear Modulus (GPa) = 25.35479 34.34254 29.84866
#
# Velocity S-wave (km/s) = 3.50907 4.08394 3.80737
# Velocity P-wave (km/s) = 5.52279 6.82202 6.20649
#
# Compressibility (1/GPa) = 0.03448488
#
# Stress axis : x y z
#
# Youngs Moduli (GPa) = 58.00769 48.89494 79.98894
#
# Poissons Ratio (x) = -0.02779 0.37322
# Poissons Ratio (y) = -0.03297 0.30048
# Poissons Ratio (z) = 0.27066 0.18367
#
# Static dielectric constant tensor:
#      x y z
#    x 3.989110 -0.290800 -0.164300 
#    y -0.290800 3.754110 -0.029160 
#    z -0.164300 -0.029160 3.934040 
# 
# 
# High freq. dielectric constant tensor:
#      x y z
#    x 1.810780 -0.027990 -0.008470 
#    y -0.027990 1.788750 0.006370 
#    z -0.008470 0.006370 1.821160 
# 
# From -- ./inp_files/176273.got.cif
#   From: 2010.06.25/outbox.cif.g09.slc.cpg/sg2_89_cif.got.tgz:176273.got - 2010.06.27 13:26:56.
