data_PCOD8029487
_publ_section_title
;
Structure prediction by ZEFSAII (Michael W. Deem and Ramdas Pophale) SiO2 
 PCOD8029487
Probable space group: P -1
;
_chemical_formula_sum "Si O2"
_cell_formula_units_Z 14
_cell_length_a 22.200130
_cell_length_b 10.164271
_cell_length_c 11.407827
_cell_angle_alpha 58.419822
_cell_angle_beta 150.963903
_cell_angle_gamma 141.970100
_cell_volume 641.927653
_symmetry_space_group_name_H-M "P -1"
_symmetry_group_IT_number 2
_symmetry_cell_setting 'triclinic'
loop_
_space_group_symop_operation_xyz
x,y,z
-x,-y,-z
loop_
_atom_site_type_symbol
_atom_site_label
_atom_site_fract_x
_atom_site_fract_y
_atom_site_fract_z
Si Si1 0.480563 0.439576 0.130932
Si Si2 0.772902 0.448405 0.610370
Si Si3 0.834970 0.342030 0.393690
Si Si4 0.579790 0.934704 0.458429
Si Si5 0.516095 0.786900 0.157063
Si Si6 0.169957 0.618626 0.015689
Si Si7 0.810468 0.047204 0.013258
O O1 0.615641 0.423666 0.393813
O O2 0.555358 0.655879 0.235904
O O3 0.251942 0.166076 0.917192
O O4 0.500000 0.500000 0.000000
O O5 0.886650 0.507084 0.895059
O O6 0.664038 0.194761 0.480421
O O7 0.942224 0.694372 0.698426
O O8 0.000000 0.500000 0.500000
O O9 0.659499 0.042703 0.204632
O O10 0.722089 0.397175 0.180862
O O11 0.949219 0.412439 0.674987
O O12 0.589915 0.869923 0.377882
O O13 0.338295 0.689756 0.197259
O O14 0.702993 0.943338 0.751040
O O15 0.271662 0.887214 0.083934
#
# Coordination Sequence:
#
# PCOD8029487 Si02
#       7
#     2   2   2   2   2   2   2
#     4  12  29  45  62  99 145 179 215 268 341 410
#     4  11  23  45  72 102 128 176 228 277 330 392
#     4  11  24  41  69  98 132 176 225 274 325 390
#     4  11  20  45  74 102 129 170 232 284 325 383
#     4  11  27  44  65 100 139 175 219 276 332 396
#     4  11  20  42  76 102 129 170 233 282 323 389
#     4  11  23  42  74  98 133 178 221 280 331 388
#
# _framework density 21.809311000000001
#
# number of rings (size 3 to 8) (size 9 to 14) (size 15 to 20)
#    0.000    0.857    4.286    4.286    8.000    2.286 
#    0.000    1.429    0.000    0.000    0.000    0.000 
#    0.000    0.000    0.000    0.000    0.000    0.000 
#
# Total GULP energy -173586.689542 kJ/mol
# GULP energy per Si atom -12399.049253 kJ/mol
# Density = 2.175967 g / cm^3
# Si number density = 21.809311 Si / 1000 Ang^3
#
#
#
# Elastic Constant Matrix: (Units=GPa)
#
#
# Indices 1 2 3 4 5 6 
#
# 1 138.3011 62.7397 35.1126 11.9868 -3.9907 -4.8533
# 2 62.7397 119.6858 25.0047 9.0852 -0.4048 4.4375
# 3 35.1126 25.0047 89.2181 8.2371 -9.5770 2.3566
# 4 11.9868 9.0852 8.2371 23.3895 6.7575 10.5752
# 5 -3.9907 -0.4048 -9.5770 6.7575 34.1980 6.0068
# 6 -4.8533 4.4375 2.3566 10.5752 6.0068 41.0695
#
#
#
# Elastic Compliance Matrix: (Units=1/GPa)
#
#
# Indices 1 2 3 4 5 6 
#
# 1 0.010498 -0.004788 -0.002387 -0.004212 0.000830 0.002858
# 2 -0.004788 0.011222 -0.001195 -0.000714 -0.000361 -0.001473
# 3 -0.002387 -0.001195 0.013333 -0.004025 0.004327 -0.000514
# 4 -0.004212 -0.000714 -0.004025 0.055445 -0.010307 -0.012959
# 5 0.000830 -0.000361 0.004327 -0.010307 0.032983 -0.002281
# 6 0.002858 -0.001473 -0.000514 -0.012959 -0.002281 0.028546
#
#
# Mechanical properties :
#
#
# Convention : Reuss Voigt Hill
#
# Bulk Modulus (GPa) = 54.60570 65.87989 60.24279
# Shear Modulus (GPa) = 28.59265 34.68794 31.64029
#
# Velocity S-wave (km/s) = 3.62474 3.99245 3.81303
# Velocity P-wave (km/s) = 6.52767 7.17814 6.86062
#
# Compressibility (1/GPa) = 0.01831311
#
# Stress axis : x y z
#
# Youngs Moduli (GPa) = 95.25714 89.10906 75.00451
#
# Poissons Ratio (x) = 0.42663 0.17906
# Poissons Ratio (y) = 0.45607 0.08961
# Poissons Ratio (z) = 0.22740 0.10646
#
# Static dielectric constant tensor:
#      x y z
#    x 4.002670 0.160980 -0.035440 
#    y 0.160980 3.838800 0.005320 
#    z -0.035440 0.005320 4.068620 
# 
# 
# High freq. dielectric constant tensor:
#      x y z
#    x 1.867530 0.022010 0.006610 
#    y 0.022010 1.837860 0.010140 
#    z 0.006610 0.010140 1.859660 
# 
# From -- ./inp_files/469922.got.cif
#   From: 2010.06.25/outbox.cif.g09.slc.cpg/sg2_235_cif.got.tgz:469922.got - 2010.06.27 13:26:56.
