data_PCOD8029896
_publ_section_title
;
Structure prediction by ZEFSAII (Michael W. Deem and Ramdas Pophale) SiO2 
 PCOD8029896
Probable space group: P -1
;
_chemical_formula_sum "Si O2"
_cell_formula_units_Z 16
_cell_length_a 5.399918
_cell_length_b 12.189540
_cell_length_c 11.116003
_cell_angle_alpha 106.787670
_cell_angle_beta 96.043522
_cell_angle_gamma 71.973272
_cell_volume 666.012556
_symmetry_space_group_name_H-M "P -1"
_symmetry_group_IT_number 2
_symmetry_cell_setting 'triclinic'
loop_
_space_group_symop_operation_xyz
x,y,z
-x,-y,-z
loop_
_atom_site_type_symbol
_atom_site_label
_atom_site_fract_x
_atom_site_fract_y
_atom_site_fract_z
Si Si1 0.993163 0.833885 0.753642
Si Si2 0.507451 0.056901 0.793033
Si Si3 0.234913 0.605954 0.017847
Si Si4 0.868678 0.619418 0.789841
Si Si5 0.597837 0.204006 0.047308
Si Si6 0.511834 0.777535 0.365816
Si Si7 0.098579 0.635326 0.288825
Si Si8 0.206116 0.934060 0.587776
O O1 0.173078 0.870114 0.876320
O O2 0.103846 0.839312 0.627766
O O3 0.982757 0.697683 0.727763
O O4 0.711607 0.927884 0.782485
O O5 0.602812 0.140716 0.730387
O O6 0.251012 0.033291 0.714234
O O7 0.455012 0.119471 0.941835
O O8 0.080839 0.623547 0.140533
O O9 0.500000 0.500000 0.000000
O O10 0.285387 0.731152 0.029335
O O11 0.057019 0.573027 0.897422
O O12 0.593454 0.700083 0.847439
O O13 0.837989 0.497716 0.689992
O O14 0.337361 0.687572 0.348881
O O15 0.471653 0.862164 0.509209
O O16 0.819045 0.713934 0.348768
O O17 0.000000 0.000000 0.500000
#
# Coordination Sequence:
#
# PCOD8029896 Si02
#       8
#     2   2   2   2   2   2   2   2
#     4  11  27  46  73 107 157 199 256 308 395 464
#     4  12  25  46  77 110 151 196 251 327 387 460
#     4  11  21  40  70 110 155 201 248 307 381 466
#     4  11  25  43  71 106 158 201 243 313 388 468
#     4  11  24  44  73 114 156 195 243 309 400 469
#     4  12  27  45  79 115 149 196 266 324 380 444
#     4  12  25  45  74 115 153 199 256 316 382 459
#     4  12  27  51  77 107 151 202 268 326 381 446
#
# _framework density 24.023572999999999
#
# number of rings (size 3 to 8) (size 9 to 14) (size 15 to 20)
#    0.000    0.500    3.750    4.125    3.500    4.000 
#    0.000    1.250    0.000    0.000    0.000    0.000 
#    0.000    0.000    0.000    0.000    0.000    0.000 
#
# Total GULP energy -198402.386092 kJ/mol
# GULP energy per Si atom -12400.149131 kJ/mol
# Density = 2.396889 g / cm^3
# Si number density = 24.023573 Si / 1000 Ang^3
#
#
#
# Elastic Constant Matrix: (Units=GPa)
#
#
# Indices 1 2 3 4 5 6 
#
# 1 118.1898 35.0566 34.3348 3.4455 -0.0222 1.7983
# 2 35.0566 99.8271 57.1227 -0.3597 1.4360 8.3835
# 3 34.3348 57.1227 73.8665 -4.7306 -1.3458 11.7648
# 4 3.4455 -0.3597 -4.7306 33.7093 0.3514 -0.6879
# 5 -0.0222 1.4360 -1.3458 0.3514 48.4662 2.7782
# 6 1.7983 8.3835 11.7648 -0.6879 2.7782 42.9390
#
#
#
# Elastic Compliance Matrix: (Units=1/GPa)
#
#
# Indices 1 2 3 4 5 6 
#
# 1 0.010018 -0.001423 -0.003797 -0.001553 -0.000098 0.000880
# 2 -0.001423 0.018323 -0.013667 -0.001562 -0.000927 0.000262
# 3 -0.003797 -0.013667 0.026874 0.003906 0.001383 -0.004563
# 4 -0.001553 -0.001562 0.003906 0.030352 -0.000054 -0.000211
# 5 -0.000098 -0.000927 0.001383 -0.000054 0.020787 -0.001540
# 6 0.000880 0.000262 -0.004563 -0.000211 -0.001540 0.024547
#
#
# Mechanical properties :
#
#
# Convention : Reuss Voigt Hill
#
# Bulk Modulus (GPa) = 57.33837 60.54575 58.94206
# Shear Modulus (GPa) = 28.65483 36.04752 32.35118
#
# Velocity S-wave (km/s) = 3.45741 3.87784 3.67364
# Velocity P-wave (km/s) = 6.31329 6.73109 6.52553
#
# Compressibility (1/GPa) = 0.01744033
#
# Stress axis : x y z
#
# Youngs Moduli (GPa) = 99.81859 54.57545 37.21061
#
# Poissons Ratio (x) = 0.07767 0.14131
# Poissons Ratio (y) = 0.14207 0.50855
# Poissons Ratio (z) = 0.37906 0.74587
#
# Static dielectric constant tensor:
#      x y z
#    x 4.189130 0.217040 -0.070630 
#    y 0.217040 4.629190 0.058060 
#    z -0.070630 0.058060 4.441610 
# 
# 
# High freq. dielectric constant tensor:
#      x y z
#    x 1.958240 0.010650 0.001110 
#    y 0.010650 1.964470 -0.001550 
#    z 0.001110 -0.001550 1.937780 
# 
# From -- ./inp_files/365052.got.cif
#   From: 2010.06.25/outbox.cif.g09.slc.cpg/sg2_183_cif.got.tgz:365052.got - 2010.06.27 13:26:56.
