data_PCOD8029242
_publ_section_title
;
Structure prediction by ZEFSAII (Michael W. Deem and Ramdas Pophale) SiO2 
 PCOD8029242
Probable space group: P -1
;
_chemical_formula_sum "Si O2"
_cell_formula_units_Z 14
_cell_length_a 5.415557
_cell_length_b 13.067827
_cell_length_c 13.655536
_cell_angle_alpha 46.885874
_cell_angle_beta 68.070067
_cell_angle_gamma 61.186459
_cell_volume 616.652608
_symmetry_space_group_name_H-M "P -1"
_symmetry_group_IT_number 2
_symmetry_cell_setting 'triclinic'
loop_
_space_group_symop_operation_xyz
x,y,z
-x,-y,-z
loop_
_atom_site_type_symbol
_atom_site_label
_atom_site_fract_x
_atom_site_fract_y
_atom_site_fract_z
Si Si1 0.878000 0.579728 0.638983
Si Si2 0.114108 0.019393 0.313693
Si Si3 0.826014 0.891656 0.106912
Si Si4 0.463886 0.401421 0.757002
Si Si5 0.677403 0.833469 0.970678
Si Si6 0.103803 0.760947 0.342078
Si Si7 0.591685 0.124766 0.452129
O O1 0.689112 0.483175 0.693189
O O2 0.653107 0.720187 0.633531
O O3 0.136766 0.504370 0.725034
O O4 0.027378 0.632668 0.492920
O O5 0.173870 0.158051 0.159823
O O6 0.875965 0.117111 0.359215
O O7 0.032667 0.911958 0.318181
O O8 0.363480 0.908034 0.416122
O O9 0.912473 0.788638 0.255614
O O10 0.502772 0.992810 0.102794
O O11 0.875455 0.791288 0.066529
O O12 0.000000 0.000000 0.000000
O O13 0.570949 0.304224 0.704075
O O14 0.482304 0.288864 0.920987
O O15 0.500000 0.000000 0.500000
#
# Coordination Sequence:
#
# PCOD8029242 Si02
#       7
#     2   2   2   2   2   2   2
#     4  12  27  46  70 100 145 193 234 280 352 420
#     4  11  24  43  77 102 131 178 242 304 347 392
#     4  11  20  38  66 100 146 176 231 282 343 419
#     4  12  27  44  68 105 156 185 221 277 354 461
#     4  11  23  40  64 104 143 186 225 284 354 416
#     4  12  22  44  73 108 140 184 229 289 358 410
#     4  11  25  49  72 100 127 177 250 309 334 393
#
# _framework density 22.703220999999999
#
# number of rings (size 3 to 8) (size 9 to 14) (size 15 to 20)
#    0.000    0.571    4.286    4.286    2.000    2.286 
#    0.000    1.429    0.000    0.000    0.000    0.000 
#    0.000    0.000    0.000    0.000    0.000    0.000 
#
# Total GULP energy -173454.468066 kJ/mol
# GULP energy per Si atom -12389.604862 kJ/mol
# Density = 2.265155 g / cm^3
# Si number density = 22.703221 Si / 1000 Ang^3
#
#
#
# Elastic Constant Matrix: (Units=GPa)
#
#
# Indices 1 2 3 4 5 6 
#
# 1 95.0957 32.2883 41.1455 -3.1140 6.2419 -8.2044
# 2 32.2883 100.6000 43.3729 -5.9872 3.9350 -13.4097
# 3 41.1455 43.3729 167.7895 -1.6644 -20.5337 -0.3438
# 4 -3.1140 -5.9872 -1.6644 34.7961 3.3828 1.7055
# 5 6.2419 3.9350 -20.5337 3.3828 41.8513 -9.1123
# 6 -8.2044 -13.4097 -0.3438 1.7055 -9.1123 36.2169
#
#
#
# Elastic Compliance Matrix: (Units=1/GPa)
#
#
# Indices 1 2 3 4 5 6 
#
# 1 0.012951 -0.002614 -0.002843 0.000797 -0.002889 0.001175
# 2 -0.002614 0.012623 -0.002784 0.001777 -0.001525 0.003588
# 3 -0.002843 -0.002784 0.007924 -0.000776 0.004545 -0.000420
# 4 0.000797 0.001777 -0.000776 0.029474 -0.003354 -0.001401
# 5 -0.002889 -0.001525 0.004545 -0.003354 0.028298 0.006102
# 6 0.001175 0.003588 -0.000420 -0.001401 0.006102 0.030803
#
#
# Mechanical properties :
#
#
# Convention : Reuss Voigt Hill
#
# Bulk Modulus (GPa) = 58.76719 66.34429 62.55574
# Shear Modulus (GPa) = 34.66765 39.01808 36.84286
#
# Velocity S-wave (km/s) = 3.91191 4.15011 4.03277
# Velocity P-wave (km/s) = 6.80773 7.22845 7.02124
#
# Compressibility (1/GPa) = 0.01701630
#
# Stress axis : x y z
#
# Youngs Moduli (GPa) = 77.21709 79.21953 126.19275
#
# Poissons Ratio (x) = 0.20705 0.35882
# Poissons Ratio (y) = 0.20182 0.35130
# Poissons Ratio (z) = 0.21956 0.22053
#
# Static dielectric constant tensor:
#      x y z
#    x 4.844030 0.110660 0.640610 
#    y 0.110660 2.927030 -1.042960 
#    z 0.640610 -1.042960 4.005400 
# 
# 
# High freq. dielectric constant tensor:
#      x y z
#    x 1.905110 -0.005990 -0.008930 
#    y -0.005990 1.874270 -0.011590 
#    z -0.008930 -0.011590 1.905010 
# 
# From -- ./inp_files/77025.got.cif
#   From: 2010.06.25/outbox.cif.g09.slc.cpg/sg2_39_cif.got.tgz:77025.got - 2010.06.27 13:26:56.
