data_PCOD8029337
_publ_section_title
;
Structure prediction by ZEFSAII (Michael W. Deem and Ramdas Pophale) SiO2 
 PCOD8029337
Probable space group: P -1
;
_chemical_formula_sum "Si O2"
_cell_formula_units_Z 16
_cell_length_a 10.281323
_cell_length_b 22.117521
_cell_length_c 10.030495
_cell_angle_alpha 53.019760
_cell_angle_beta 50.916439
_cell_angle_gamma 27.024252
_cell_volume 799.288949
_symmetry_space_group_name_H-M "P -1"
_symmetry_group_IT_number 2
_symmetry_cell_setting 'triclinic'
loop_
_space_group_symop_operation_xyz
x,y,z
-x,-y,-z
loop_
_atom_site_type_symbol
_atom_site_label
_atom_site_fract_x
_atom_site_fract_y
_atom_site_fract_z
Si Si1 0.300508 0.174358 0.135296
Si Si2 0.283300 0.940697 0.348682
Si Si3 0.284994 0.113099 0.736980
Si Si4 0.004639 0.810993 0.908119
Si Si5 0.275044 0.313734 0.774886
Si Si6 0.624074 0.550059 0.480948
Si Si7 0.390040 0.462138 0.180201
Si Si8 0.036739 0.699309 0.545663
O O1 0.075937 0.213146 0.132055
O O2 0.180476 0.232979 0.281958
O O3 0.602954 0.014840 0.166083
O O4 0.358151 0.235903 0.956435
O O5 0.439318 0.930138 0.380804
O O6 0.528760 0.792158 0.331700
O O7 0.000000 0.000000 0.500000
O O8 0.173476 0.043428 0.174509
O O9 0.102027 0.192720 0.616183
O O10 0.082817 0.200124 0.884648
O O11 0.359878 0.691939 0.825464
O O12 0.362364 0.367104 0.670287
O O13 0.926157 0.441942 0.801162
O O14 0.633855 0.527404 0.659906
O O15 0.326913 0.631218 0.500895
O O16 0.899653 0.405165 0.425343
O O17 0.500000 0.500000 0.000000
#
# Coordination Sequence:
#
# PCOD8029337 Si02
#       8
#     2   2   2   2   2   2   2   2
#     4  11  21  42  65  95 126 174 212 263 321 384
#     4  11  22  38  65  98 130 162 209 275 326 367
#     4  11  22  42  69  96 125 171 219 262 318 393
#     4  11  20  40  67  95 126 165 218 261 317 382
#     4  12  23  41  66  96 134 163 217 277 316 379
#     4  11  25  41  61  94 133 172 212 267 324 384
#     4  12  21  39  69  99 128 167 218 267 324 380
#     4  11  24  43  64  89 132 175 218 256 325 390
#
# _framework density 20.017790999999999
#
# number of rings (size 3 to 8) (size 9 to 14) (size 15 to 20)
#    0.000    0.750    5.000    3.750    1.750    2.500 
#    0.000    1.875    0.000    0.000    0.000    0.000 
#    0.000    0.000    0.000    0.000    0.000    0.000 
#
# Total GULP energy -198409.640675 kJ/mol
# GULP energy per Si atom -12400.602542 kJ/mol
# Density = 1.997223 g / cm^3
# Si number density = 20.017791 Si / 1000 Ang^3
#
#
#
# Elastic Constant Matrix: (Units=GPa)
#
#
# Indices 1 2 3 4 5 6 
#
# 1 73.1007 50.8566 71.5981 -5.0034 -10.6093 7.0118
# 2 50.8566 145.7623 68.8410 -0.4927 -2.4071 0.3531
# 3 71.5981 68.8410 170.2295 -3.1938 3.9756 -1.9531
# 4 -5.0034 -0.4927 -3.1938 42.3469 2.4407 -1.6691
# 5 -10.6093 -2.4071 3.9756 2.4407 36.8242 -0.0068
# 6 7.0118 0.3531 -1.9531 -1.6691 -0.0068 35.9164
#
#
#
# Elastic Compliance Matrix: (Units=1/GPa)
#
#
# Indices 1 2 3 4 5 6 
#
# 1 0.029862 -0.005182 -0.010718 0.001877 0.009296 -0.006273
# 2 -0.005182 0.009416 -0.001614 -0.000554 -0.000666 0.000805
# 3 -0.010718 -0.001614 0.011167 -0.000083 -0.004393 0.002711
# 4 0.001877 -0.000554 -0.000083 0.023915 -0.001072 0.000746
# 5 0.009296 -0.000666 -0.004393 -0.001072 0.030336 -0.002091
# 6 -0.006273 0.000805 0.002711 0.000746 -0.002091 0.029241
#
#
# Mechanical properties :
#
#
# Convention : Reuss Voigt Hill
#
# Bulk Modulus (GPa) = 64.86239 85.74265 75.30252
# Shear Modulus (GPa) = 28.71856 36.20394 32.46125
#
# Velocity S-wave (km/s) = 3.79179 4.25736 4.03130
# Velocity P-wave (km/s) = 7.18630 8.19104 7.70506
#
# Compressibility (1/GPa) = 0.01541725
#
# Stress axis : x y z
#
# Youngs Moduli (GPa) = 33.48732 106.20434 89.54710
#
# Poissons Ratio (x) = 0.55033 0.95979
# Poissons Ratio (y) = 0.17352 0.14452
# Poissons Ratio (z) = 0.35893 0.17140
#
# Static dielectric constant tensor:
#      x y z
#    x 3.455620 0.053960 -0.045890 
#    y 0.053960 4.178600 0.048470 
#    z -0.045890 0.048470 3.916620 
# 
# 
# High freq. dielectric constant tensor:
#      x y z
#    x 1.751690 0.004940 0.000640 
#    y 0.004940 1.808010 -0.004580 
#    z 0.000640 -0.004580 1.787430 
# 
# From -- ./inp_files/205464.got.cif
#   From: 2010.06.25/outbox.cif.g09.slc.cpg/sg2_103_cif.got.tgz:205464.got - 2010.06.27 13:26:56.
