data_PCOD8029918
_publ_section_title
;
Structure prediction by ZEFSAII (Michael W. Deem and Ramdas Pophale) SiO2 
 PCOD8029918
Probable space group: P -1
;
_chemical_formula_sum "Si O2"
_cell_formula_units_Z 16
_cell_length_a 9.112794
_cell_length_b 11.941929
_cell_length_c 14.750742
_cell_angle_alpha 150.825163
_cell_angle_beta 73.720055
_cell_angle_gamma 100.521517
_cell_volume 744.482579
_symmetry_space_group_name_H-M "P -1"
_symmetry_group_IT_number 2
_symmetry_cell_setting 'triclinic'
loop_
_space_group_symop_operation_xyz
x,y,z
-x,-y,-z
loop_
_atom_site_type_symbol
_atom_site_label
_atom_site_fract_x
_atom_site_fract_y
_atom_site_fract_z
Si Si1 0.660744 0.516120 0.530558
Si Si2 0.431613 0.479021 0.259968
Si Si3 0.366715 0.151943 0.576063
Si Si4 0.173729 0.888952 0.881708
Si Si5 0.830026 0.596204 0.065879
Si Si6 0.697167 0.764208 0.031235
Si Si7 0.328490 0.945993 0.080433
Si Si8 0.655165 0.168651 0.806918
O O1 0.500000 0.500000 0.500000
O O2 0.654760 0.409731 0.557688
O O3 0.677373 0.780890 0.727895
O O4 0.801709 0.372873 0.349111
O O5 0.571337 0.617265 0.307660
O O6 0.307843 0.470766 0.194193
O O7 0.502924 0.205627 0.068146
O O8 0.500000 0.000000 0.500000
O O9 0.294963 0.020555 0.412977
O O10 0.227938 0.219589 0.716973
O O11 0.266952 0.033015 0.899033
O O12 0.228948 0.869097 0.961281
O O13 0.000000 0.000000 0.000000
O O14 0.827738 0.722358 0.057095
O O15 0.711180 0.409691 0.939915
O O16 0.000000 0.500000 0.000000
O O17 0.529542 0.824372 0.149326
O O18 0.262696 0.896212 0.156430
#
# Coordination Sequence:
#
# PCOD8029918 Si02
#       8
#     2   2   2   2   2   2   2   2
#     4  12  22  40  70 102 131 181 235 278 338 409
#     4  11  21  40  73 104 131 177 240 296 323 403
#     4  12  23  42  72 102 135 184 238 280 344 413
#     4  12  28  44  67 102 149 184 221 288 359 413
#     4  12  27  46  70 103 145 178 222 297 354 401
#     4  11  22  46  71  98 137 185 233 282 339 415
#     4  11  23  42  67 101 140 173 231 287 337 402
#     4  11  24  43  75 105 132 182 238 282 333 420
#
# _framework density 21.491437000000001
#
# number of rings (size 3 to 8) (size 9 to 14) (size 15 to 20)
#    0.000    0.500    6.250    4.500    1.750    1.000 
#    0.000    0.000    0.000    0.000    0.000    0.000 
#    0.000    0.000    0.000    0.000    0.000    0.000 
#
# Total GULP energy -198317.109480 kJ/mol
# GULP energy per Si atom -12394.819343 kJ/mol
# Density = 2.144252 g / cm^3
# Si number density = 21.491437 Si / 1000 Ang^3
#
#
#
# Elastic Constant Matrix: (Units=GPa)
#
#
# Indices 1 2 3 4 5 6 
#
# 1 75.1864 32.0531 46.4382 -12.5137 -14.8365 -16.4379
# 2 32.0531 116.7514 45.6084 -25.3257 3.5228 -30.6407
# 3 46.4382 45.6084 151.1353 -35.7077 -2.5099 -12.5458
# 4 -12.5137 -25.3257 -35.7077 42.0835 -5.7932 13.9964
# 5 -14.8365 3.5228 -2.5099 -5.7932 36.4940 -2.3733
# 6 -16.4379 -30.6407 -12.5458 13.9964 -2.3733 35.8014
#
#
#
# Elastic Compliance Matrix: (Units=1/GPa)
#
#
# Indices 1 2 3 4 5 6 
#
# 1 0.020370 -0.002337 -0.005015 -0.000556 0.008489 0.006376
# 2 -0.002337 0.012614 -0.001866 0.002456 -0.001385 0.008017
# 3 -0.005015 -0.001866 0.010101 0.006950 -0.000262 -0.003094
# 4 -0.000556 0.002456 0.006950 0.034619 0.004930 -0.008925
# 5 0.008489 -0.001385 -0.000262 0.004930 0.031934 0.002810
# 6 0.006376 0.008017 -0.003094 -0.008925 0.002810 0.040312
#
#
# Mechanical properties :
#
#
# Convention : Reuss Voigt Hill
#
# Bulk Modulus (GPa) = 40.56717 65.69695 53.13206
# Shear Modulus (GPa) = 28.31210 37.47401 32.89306
#
# Velocity S-wave (km/s) = 3.63349 4.18026 3.91643
# Velocity P-wave (km/s) = 6.04318 7.34402 6.72513
#
# Compressibility (1/GPa) = 0.02465048
#
# Stress axis : x y z
#
# Youngs Moduli (GPa) = 49.09083 79.27528 98.99640
#
# Poissons Ratio (x) = 0.18527 0.49647
# Poissons Ratio (y) = 0.11472 0.18470
# Poissons Ratio (z) = 0.24619 0.14791
#
# Static dielectric constant tensor:
#      x y z
#    x 3.554760 -0.463840 0.426750 
#    y -0.463840 4.156320 -0.029890 
#    z 0.426750 -0.029890 3.968630 
# 
# 
# High freq. dielectric constant tensor:
#      x y z
#    x 1.804050 -0.015380 0.020250 
#    y -0.015380 1.865560 -0.015140 
#    z 0.020250 -0.015140 1.854900 
# 
# From -- ./inp_files/501143.got.cif
#   From: 2010.06.25/outbox.cif.g09.slc.cpg/sg2_251_cif.got.tgz:501143.got - 2010.06.27 13:26:56.
