data_PCOD8029947
_publ_section_title
;
Structure prediction by ZEFSAII (Michael W. Deem and Ramdas Pophale) SiO2 
 PCOD8029947
Probable space group: P -1
;
_chemical_formula_sum "Si O2"
_cell_formula_units_Z 16
_cell_length_a 15.445170
_cell_length_b 9.014766
_cell_length_c 9.027775
_cell_angle_alpha 89.099934
_cell_angle_beta 99.360350
_cell_angle_gamma 37.656442
_cell_volume 735.611629
_symmetry_space_group_name_H-M "P -1"
_symmetry_group_IT_number 2
_symmetry_cell_setting 'triclinic'
loop_
_space_group_symop_operation_xyz
x,y,z
-x,-y,-z
loop_
_atom_site_type_symbol
_atom_site_label
_atom_site_fract_x
_atom_site_fract_y
_atom_site_fract_z
Si Si1 0.274598 0.626428 0.873684
Si Si2 0.938719 0.676301 0.615930
Si Si3 0.470022 0.817820 0.257462
Si Si4 0.655001 0.552125 0.581356
Si Si5 0.859086 0.089158 0.444944
Si Si6 0.958647 0.294190 0.094271
Si Si7 0.697482 0.257588 0.830940
Si Si8 0.211566 0.355280 0.226037
O O1 0.398214 0.363242 0.823895
O O2 0.183269 0.862801 0.739734
O O3 0.160276 0.673594 0.923380
O O4 0.343012 0.641973 0.014724
O O5 0.825160 0.730690 0.674305
O O6 0.000000 0.500000 0.500000
O O7 0.059195 0.571819 0.770755
O O8 0.863905 0.921015 0.518718
O O9 0.514521 0.797137 0.441690
O O10 0.383935 0.780963 0.232047
O O11 0.357861 0.104996 0.179434
O O12 0.729446 0.350641 0.482599
O O13 0.621770 0.492052 0.711570
O O14 0.758837 0.544069 0.663938
O O15 0.000000 0.000000 0.500000
O O16 0.921688 0.430803 0.929270
O O17 0.125327 0.000779 0.141946
#
# Coordination Sequence:
#
# PCOD8029947 Si02
#       8
#     2   2   2   2   2   2   2   2
#     4  11  25  42  74 105 134 190 234 290 346 413
#     4  12  26  41  69 107 141 178 226 290 355 407
#     4  11  26  45  67 100 151 182 237 285 346 422
#     4  11  23  43  72  96 136 190 235 283 344 417
#     4  11  21  41  66 100 140 174 234 292 337 409
#     4  12  25  45  73 104 144 179 231 296 349 414
#     4  12  23  46  72 106 133 184 243 289 354 406
#     4  12  26  46  70 105 144 189 230 284 361 417
#
# _framework density 21.750610000000002
#
# number of rings (size 3 to 8) (size 9 to 14) (size 15 to 20)
#    0.000    0.500    5.000    2.625    5.250    1.500 
#    0.000    0.000    0.000    0.000    0.000    0.000 
#    0.000    0.000    0.000    0.000    0.000    0.000 
#
# Total GULP energy -198325.141950 kJ/mol
# GULP energy per Si atom -12395.321372 kJ/mol
# Density = 2.170110 g / cm^3
# Si number density = 21.750610 Si / 1000 Ang^3
#
#
#
# Elastic Constant Matrix: (Units=GPa)
#
#
# Indices 1 2 3 4 5 6 
#
# 1 82.3278 9.5610 17.2092 0.8917 -8.0453 8.3642
# 2 9.5610 63.9938 22.3818 4.2814 -5.1332 0.0575
# 3 17.2092 22.3818 140.9109 11.2780 5.8001 8.4833
# 4 0.8917 4.2814 11.2780 28.0839 6.1510 4.4236
# 5 -8.0453 -5.1332 5.8001 6.1510 40.5472 3.8359
# 6 8.3642 0.0575 8.4833 4.4236 3.8359 34.5113
#
#
#
# Elastic Compliance Matrix: (Units=1/GPa)
#
#
# Indices 1 2 3 4 5 6 
#
# 1 0.013187 -0.001273 -0.001350 0.000183 0.002924 -0.003210
# 2 -0.001273 0.017054 -0.002533 -0.002238 0.002522 0.000909
# 3 -0.001350 -0.002533 0.007972 -0.002308 -0.001266 -0.001192
# 4 0.000183 -0.002238 -0.002308 0.038659 -0.005420 -0.003826
# 5 0.002924 0.002522 -0.001266 -0.005420 0.026820 -0.002688
# 6 -0.003210 0.000909 -0.001192 -0.003826 -0.002688 0.030835
#
#
# Mechanical properties :
#
#
# Convention : Reuss Voigt Hill
#
# Bulk Modulus (GPa) = 35.84011 42.83740 39.33876
# Shear Modulus (GPa) = 32.43844 36.50051 34.46947
#
# Velocity S-wave (km/s) = 3.86603 4.10095 3.98522
# Velocity P-wave (km/s) = 6.03670 6.49317 6.26909
#
# Compressibility (1/GPa) = 0.02790170
#
# Stress axis : x y z
#
# Youngs Moduli (GPa) = 75.83490 58.63821 125.43267
#
# Poissons Ratio (x) = 0.07463 0.16933
# Poissons Ratio (y) = 0.09652 0.31769
# Poissons Ratio (z) = 0.10238 0.14852
#
# Static dielectric constant tensor:
#      x y z
#    x 3.827450 0.044350 0.151140 
#    y 0.044350 4.041620 0.297170 
#    z 0.151140 0.297170 3.695320 
# 
# 
# High freq. dielectric constant tensor:
#      x y z
#    x 1.854010 0.008970 0.004850 
#    y 0.008970 1.848360 0.001800 
#    z 0.004850 0.001800 1.877970 
# 
# From -- ./inp_files/184215.got.cif
#   From: 2010.06.25/outbox.cif.g09.slc.cpg/sg2_93_cif.got.tgz:184215.got - 2010.06.27 13:26:56.
