data_PCOD8029943
_publ_section_title
;
Structure prediction by ZEFSAII (Michael W. Deem and Ramdas Pophale) SiO2 
 PCOD8029943
Probable space group: P -1
;
_chemical_formula_sum "Si O2"
_cell_formula_units_Z 14
_cell_length_a 8.479590
_cell_length_b 9.880799
_cell_length_c 12.607176
_cell_angle_alpha 63.052061
_cell_angle_beta 116.700565
_cell_angle_gamma 72.585435
_cell_volume 652.236471
_symmetry_space_group_name_H-M "P -1"
_symmetry_group_IT_number 2
_symmetry_cell_setting 'triclinic'
loop_
_space_group_symop_operation_xyz
x,y,z
-x,-y,-z
loop_
_atom_site_type_symbol
_atom_site_label
_atom_site_fract_x
_atom_site_fract_y
_atom_site_fract_z
Si Si1 0.075056 0.889311 0.379366
Si Si2 0.881454 0.170497 0.818808
Si Si3 0.359898 0.431470 0.625528
Si Si4 0.140524 0.475709 0.333926
Si Si5 0.481777 0.840594 0.588568
Si Si6 0.703489 0.526278 0.174628
Si Si7 0.609905 0.230529 0.201046
O O1 0.049216 0.946926 0.227979
O O2 0.212913 0.660959 0.514480
O O3 0.217393 0.943748 0.458968
O O4 0.830975 0.011650 0.317499
O O5 0.610270 0.325013 0.694691
O O6 0.969608 0.297166 0.798459
O O7 0.000000 0.000000 0.000000
O O8 0.226374 0.402622 0.507787
O O9 0.373599 0.358687 0.775657
O O10 0.353636 0.352553 0.363125
O O11 0.960822 0.442641 0.261343
O O12 0.536329 0.781316 0.750482
O O13 0.500000 0.000000 0.500000
O O14 0.685766 0.353389 0.226532
O O15 0.542053 0.680016 0.981029
#
# Coordination Sequence:
#
# PCOD8029943 Si02
#       7
#     2   2   2   2   2   2   2
#     4  11  21  41  65  94 128 173 221 259 328 394
#     4  11  22  41  69  95 135 173 211 274 336 388
#     4  11  21  44  68  94 131 173 217 270 328 392
#     4  11  23  43  66 102 128 170 228 270 323 387
#     4  12  24  40  69  97 130 170 226 271 317 396
#     4  11  24  43  67  95 140 173 215 278 327 388
#     4  11  25  43  64  97 135 180 216 267 337 385
#
# _framework density 21.464608999999999
#
# number of rings (size 3 to 8) (size 9 to 14) (size 15 to 20)
#    0.000    0.857    4.286    3.429    2.000    2.857 
#    0.000    3.571    0.000    0.000    0.000    0.000 
#    0.000    0.000    0.000    0.000    0.000    0.000 
#
# Total GULP energy -173566.833899 kJ/mol
# GULP energy per Si atom -12397.630993 kJ/mol
# Density = 2.141575 g / cm^3
# Si number density = 21.464609 Si / 1000 Ang^3
#
#
#
# Elastic Constant Matrix: (Units=GPa)
#
#
# Indices 1 2 3 4 5 6 
#
# 1 104.3334 41.2883 56.8681 10.7916 -6.3807 -8.2415
# 2 41.2883 82.7054 56.7419 6.7130 -4.0026 -23.0616
# 3 56.8681 56.7419 122.8250 18.3346 -14.6300 -5.8542
# 4 10.7916 6.7130 18.3346 33.6758 -4.2373 -6.8345
# 5 -6.3807 -4.0026 -14.6300 -4.2373 44.0701 6.5241
# 6 -8.2415 -23.0616 -5.8542 -6.8345 6.5241 42.0912
#
#
#
# Elastic Compliance Matrix: (Units=1/GPa)
#
#
# Indices 1 2 3 4 5 6 
#
# 1 0.013558 -0.003723 -0.004370 -0.001255 0.000084 -0.000210
# 2 -0.003723 0.023168 -0.009313 0.003657 -0.002909 0.011714
# 3 -0.004370 -0.009313 0.015545 -0.005798 0.003916 -0.005345
# 4 -0.001255 0.003657 -0.005798 0.033886 0.000541 0.006369
# 5 0.000084 -0.002909 0.003916 0.000541 0.024493 -0.004741
# 6 -0.000210 0.011714 -0.005345 0.006369 -0.004741 0.031161
#
#
# Mechanical properties :
#
#
# Convention : Reuss Voigt Hill
#
# Bulk Modulus (GPa) = 57.27918 68.85115 63.06517
# Shear Modulus (GPa) = 27.40583 34.29846 30.85215
#
# Velocity S-wave (km/s) = 3.57710 4.00172 3.79535
# Velocity P-wave (km/s) = 6.61847 7.31423 6.97503
#
# Compressibility (1/GPa) = 0.01745835
#
# Stress axis : x y z
#
# Youngs Moduli (GPa) = 73.75504 43.16290 64.33023
#
# Poissons Ratio (x) = 0.16069 0.28114
# Poissons Ratio (y) = 0.27458 0.59913
# Poissons Ratio (z) = 0.32233 0.40199
#
# Static dielectric constant tensor:
#      x y z
#    x 4.519680 -0.501460 -0.027960 
#    y -0.501460 4.191330 0.322260 
#    z -0.027960 0.322260 4.053690 
# 
# 
# High freq. dielectric constant tensor:
#      x y z
#    x 1.842260 -0.017330 -0.007070 
#    y -0.017330 1.843570 0.014280 
#    z -0.007070 0.014280 1.846620 
# 
# From -- ./inp_files/159420.got.cif
#   From: 2010.06.25/outbox.cif.g09.slc.cpg/sg2_80_cif.got.tgz:159420.got - 2010.06.27 13:26:56.
