data_PCOD8029879
_publ_section_title
;
Structure prediction by ZEFSAII (Michael W. Deem and Ramdas Pophale) SiO2 
 PCOD8029879
Probable space group: P -1
;
_chemical_formula_sum "Si O2"
_cell_formula_units_Z 16
_cell_length_a 21.382992
_cell_length_b 23.847673
_cell_length_c 9.355149
_cell_angle_alpha 28.528532
_cell_angle_beta 29.025097
_cell_angle_gamma 20.288549
_cell_volume 752.645592
_symmetry_space_group_name_H-M "P -1"
_symmetry_group_IT_number 2
_symmetry_cell_setting 'triclinic'
loop_
_space_group_symop_operation_xyz
x,y,z
-x,-y,-z
loop_
_atom_site_type_symbol
_atom_site_label
_atom_site_fract_x
_atom_site_fract_y
_atom_site_fract_z
Si Si1 0.043711 0.740431 0.676757
Si Si2 0.712492 0.829117 0.649382
Si Si3 0.622220 0.102675 0.764919
Si Si4 0.175754 0.424916 0.231666
Si Si5 0.411751 0.856810 0.935451
Si Si6 0.450126 0.411789 0.219527
Si Si7 0.964359 0.384794 0.323271
Si Si8 0.390586 0.654169 0.255458
O O1 0.023189 0.682530 0.703154
O O2 0.197599 0.740566 0.370697
O O3 0.141711 0.585828 0.935314
O O4 0.838883 0.919678 0.732819
O O5 0.810076 0.650789 0.779765
O O6 0.859359 0.789149 0.554816
O O7 0.676758 0.954786 0.323064
O O8 0.520490 0.913935 0.923133
O O9 0.579586 0.224742 0.452395
O O10 0.592538 0.180620 0.806379
O O11 0.372392 0.275209 0.256459
O O12 0.000000 0.500000 0.500000
O O13 0.316556 0.820800 0.109976
O O14 0.233340 0.518778 0.428251
O O15 0.500000 0.500000 0.000000
O O16 0.475318 0.405472 0.012893
O O17 0.000000 0.500000 0.000000
O O18 0.500000 0.500000 0.500000
#
# Coordination Sequence:
#
# PCOD8029879 Si02
#       8
#     2   2   2   2   2   2   2   2
#     4  12  25  44  70 100 144 187 233 296 355 419
#     4  11  24  42  70 106 144 180 238 299 353 416
#     4  11  25  46  71 105 147 183 236 300 352 417
#     4  11  21  40  68  99 137 181 236 292 361 415
#     4  11  24  44  70 102 143 185 233 295 355 422
#     4  12  26  47  74 101 144 196 231 292 361 415
#     4  12  24  46  72 104 144 188 239 291 354 428
#     4  12  27  47  72 102 141 189 243 289 351 434
#
# _framework density 21.258344999999998
#
# number of rings (size 3 to 8) (size 9 to 14) (size 15 to 20)
#    0.000    0.500    5.000    4.500    3.500    4.500 
#    0.000    0.000    0.000    0.000    0.000    0.000 
#    0.000    0.000    0.000    0.000    0.000    0.000 
#
# Total GULP energy -198287.314452 kJ/mol
# GULP energy per Si atom -12392.957153 kJ/mol
# Density = 2.120996 g / cm^3
# Si number density = 21.258345 Si / 1000 Ang^3
#
#
#
# Elastic Constant Matrix: (Units=GPa)
#
#
# Indices 1 2 3 4 5 6 
#
# 1 124.9617 32.8315 45.3312 7.7416 -15.7935 -4.3567
# 2 32.8315 124.3129 43.1959 14.0212 -8.1986 -8.5676
# 3 45.3312 43.1959 108.2846 4.4622 -1.7837 1.4673
# 4 7.7416 14.0212 4.4622 47.1179 -5.9175 -0.7246
# 5 -15.7935 -8.1986 -1.7837 -5.9175 42.7257 3.6132
# 6 -4.3567 -8.5676 1.4673 -0.7246 3.6132 33.5261
#
#
#
# Elastic Compliance Matrix: (Units=1/GPa)
#
#
# Indices 1 2 3 4 5 6 
#
# 1 0.010109 -0.001027 -0.003757 -0.000581 0.003230 0.000855
# 2 -0.001027 0.010016 -0.003488 -0.002335 0.000867 0.002435
# 3 -0.003757 -0.003488 0.012188 0.000303 -0.001358 -0.001760
# 4 -0.000581 -0.002335 0.000303 0.022289 0.002477 -0.000471
# 5 0.003230 0.000867 -0.001358 0.002477 0.025218 -0.001963
# 6 0.000855 0.002435 -0.001760 -0.000471 -0.001963 0.030839
#
#
# Mechanical properties :
#
#
# Convention : Reuss Voigt Hill
#
# Bulk Modulus (GPa) = 63.41362 66.69735 65.05548
# Shear Modulus (GPa) = 37.74761 40.42066 39.08413
#
# Velocity S-wave (km/s) = 4.21843 4.36524 4.29246
# Velocity P-wave (km/s) = 7.32268 7.53988 7.43207
#
# Compressibility (1/GPa) = 0.01576948
#
# Stress axis : x y z
#
# Youngs Moduli (GPa) = 98.92060 99.84205 82.04813
#
# Poissons Ratio (x) = 0.10254 0.30823
# Poissons Ratio (y) = 0.10159 0.28618
# Poissons Ratio (z) = 0.37162 0.34825
#
# Static dielectric constant tensor:
#      x y z
#    x 5.430590 -0.510580 -0.148980 
#    y -0.510580 4.151250 0.064320 
#    z -0.148980 0.064320 3.955230 
# 
# 
# High freq. dielectric constant tensor:
#      x y z
#    x 1.842040 -0.010120 -0.005780 
#    y -0.010120 1.839250 0.000100 
#    z -0.005780 0.000100 1.837670 
# 
# From -- ./inp_files/349951.got.cif
#   From: 2010.06.25/outbox.cif.g09.slc.cpg/sg2_175_cif.got.tgz:349951.got - 2010.06.27 13:26:56.
