data_PCOD8029186
_publ_section_title
;
Structure prediction by ZEFSAII (Michael W. Deem and Ramdas Pophale) SiO2 
 PCOD8029186
Probable space group: P -1
;
_chemical_formula_sum "Si O2"
_cell_formula_units_Z 10
_cell_length_a 11.106519
_cell_length_b 5.026923
_cell_length_c 20.460860
_cell_angle_alpha 80.202493
_cell_angle_beta 25.193510
_cell_angle_gamma 73.437692
_cell_volume 455.188593
_symmetry_space_group_name_H-M "P -1"
_symmetry_group_IT_number 2
_symmetry_cell_setting 'triclinic'
loop_
_space_group_symop_operation_xyz
x,y,z
-x,-y,-z
loop_
_atom_site_type_symbol
_atom_site_label
_atom_site_fract_x
_atom_site_fract_y
_atom_site_fract_z
Si Si1 0.025062 0.710460 0.034296
Si Si2 0.179611 0.045651 0.123474
Si Si3 0.683765 0.550429 0.314979
Si Si4 0.510257 0.511866 0.078947
Si Si5 0.086996 0.569604 0.656637
O O1 0.756423 0.756629 0.217030
O O2 0.346403 0.588468 0.916922
O O3 0.000000 0.500000 0.000000
O O4 0.000000 0.000000 0.000000
O O5 0.453587 0.183101 0.972874
O O6 0.293350 0.712228 0.062745
O O7 0.053870 0.111701 0.257222
O O8 0.910278 0.230503 0.200754
O O9 0.758999 0.636545 0.348525
O O10 0.338942 0.564830 0.479386
O O11 0.164597 0.534162 0.250886
#
# Coordination Sequence:
#
# PCOD8029186 Si02
#       5
#     2   2   2   2   2
#     4  11  23  41  59  80 114 161 204 229 273 346
#     4   9  19  34  57  89 119 146 181 229 298 351
#     4   8  19  38  61  87 123 147 187 242 299 340
#     4  11  20  37  61  88 114 153 194 237 284 347
#     4   9  18  37  61  95 120 141 186 248 308 336
#
# _framework density 21.968914999999999
#
# number of rings (size 3 to 8) (size 9 to 14) (size 15 to 20)
#    1.200    1.200    0.000    3.600    0.000    0.000 
#    0.000   19.000    0.000    0.000    0.000    0.000 
#    0.000    0.000    0.000    0.000    0.000    0.000 
#
# Total GULP energy -123890.174895 kJ/mol
# GULP energy per Si atom -12389.017490 kJ/mol
# Density = 2.191891 g / cm^3
# Si number density = 21.968915 Si / 1000 Ang^3
#
#
#
# Elastic Constant Matrix: (Units=GPa)
#
#
# Indices 1 2 3 4 5 6 
#
# 1 128.1259 39.9758 68.7129 -18.3648 -13.3024 -3.3567
# 2 39.9758 137.3065 49.1805 -13.4164 3.6473 -13.5791
# 3 68.7129 49.1805 205.5534 -20.1024 -22.8514 -12.3259
# 4 -18.3648 -13.4164 -20.1024 29.2428 -7.0269 6.4904
# 5 -13.3024 3.6473 -22.8514 -7.0269 41.7082 -6.9159
# 6 -3.3567 -13.5791 -12.3259 6.4904 -6.9159 31.0547
#
#
#
# Elastic Compliance Matrix: (Units=1/GPa)
#
#
# Indices 1 2 3 4 5 6 
#
# 1 0.010689 -0.001955 -0.002328 0.005166 0.003003 -0.001035
# 2 -0.001955 0.008721 -0.001368 0.000896 -0.001567 0.002523
# 3 -0.002328 -0.001368 0.006846 0.003110 0.004001 0.002108
# 4 0.005166 0.000896 0.003110 0.043389 0.009804 -0.004700
# 5 0.003003 -0.001567 0.004001 0.009804 0.029882 0.005834
# 6 -0.001035 0.002523 0.002108 -0.004700 0.005834 0.036311
#
#
# Mechanical properties :
#
#
# Convention : Reuss Voigt Hill
#
# Bulk Modulus (GPa) = 66.87898 87.41381 77.14639
# Shear Modulus (GPa) = 32.86763 41.27558 37.07160
#
# Velocity S-wave (km/s) = 3.87214 4.33924 4.11232
# Velocity P-wave (km/s) = 7.10633 8.06111 7.59873
#
# Compressibility (1/GPa) = 0.01495238
#
# Stress axis : x y z
#
# Youngs Moduli (GPa) = 93.55691 114.66587 146.07256
#
# Poissons Ratio (x) = 0.22421 0.34007
# Poissons Ratio (y) = 0.18294 0.19985
# Poissons Ratio (z) = 0.21781 0.15688
#
# Static dielectric constant tensor:
#      x y z
#    x 4.145700 -0.110860 -0.328720 
#    y -0.110860 3.758620 0.009190 
#    z -0.328720 0.009190 4.047350 
# 
# 
# High freq. dielectric constant tensor:
#      x y z
#    x 1.845930 -0.005260 -0.031340 
#    y -0.005260 1.861220 -0.005220 
#    z -0.031340 -0.005220 1.857810 
# 
# From -- ./inp_files/29378.got.cif
#   From: 2010.06.25/outbox.cif.g09.slc.cpg/sg2_15_cif.got.tgz:29378.got - 2010.06.27 13:26:56.
