data_PCOD8029684
_publ_section_title
;
Structure prediction by ZEFSAII (Michael W. Deem and Ramdas Pophale) SiO2 
 PCOD8029684
Probable space group: P -1
;
_chemical_formula_sum "Si O2"
_cell_formula_units_Z 16
_cell_length_a 14.564846
_cell_length_b 12.662307
_cell_length_c 8.452298
_cell_angle_alpha 99.613058
_cell_angle_beta 30.814551
_cell_angle_gamma 90.774067
_cell_volume 760.816590
_symmetry_space_group_name_H-M "P -1"
_symmetry_group_IT_number 2
_symmetry_cell_setting 'triclinic'
loop_
_space_group_symop_operation_xyz
x,y,z
-x,-y,-z
loop_
_atom_site_type_symbol
_atom_site_label
_atom_site_fract_x
_atom_site_fract_y
_atom_site_fract_z
Si Si1 0.822077 0.725735 0.489115
Si Si2 0.814893 0.280503 0.519401
Si Si3 0.548696 0.575910 0.812601
Si Si4 0.931332 0.842432 0.635722
Si Si5 0.866804 0.420008 0.182280
Si Si6 0.750977 0.087121 0.004599
Si Si7 0.203667 0.921869 0.710698
Si Si8 0.580420 0.924667 0.711859
O O1 0.701312 0.637387 0.661869
O O2 0.813949 0.780737 0.685719
O O3 0.740887 0.818448 0.500861
O O4 0.041394 0.672848 0.106688
O O5 0.866970 0.365523 0.341155
O O6 0.752864 0.181216 0.499336
O O7 0.999104 0.234354 0.336112
O O8 0.648326 0.335974 0.904895
O O9 0.651671 0.495177 0.494094
O O10 0.500000 0.500000 0.000000
O O11 0.098234 0.870240 0.302246
O O12 0.795074 0.954980 0.925078
O O13 0.000000 0.500000 0.000000
O O14 0.753123 0.131691 0.191623
O O15 0.563416 0.124823 0.189210
O O16 0.342583 0.997698 0.498704
O O17 0.000000 0.000000 0.000000
O O18 0.500000 0.000000 0.000000
#
# Coordination Sequence:
#
# PCOD8029684 Si02
#       8
#     2   2   2   2   2   2   2   2
#     4  11  21  38  63  89 119 166 202 250 314 364
#     4  11  21  38  63  89 119 166 202 250 314 364
#     4   9  20  40  63  85 112 151 207 261 308 359
#     4  11  22  36  60  90 128 165 206 249 304 367
#     4   9  20  40  63  85 112 151 207 261 308 359
#     4  11  23  38  54  90 136 168 205 250 288 361
#     4  12  23  38  60  90 127 168 206 246 301 369
#     4  12  23  38  60  90 127 168 206 246 301 369
#
# _framework density 21.030034000000001
#
# number of rings (size 3 to 8) (size 9 to 14) (size 15 to 20)
#    0.000    1.250    2.500    4.875    0.000    0.000 
#    0.000    6.250    0.000    6.000    0.000    0.000 
#    0.000    0.000    0.000    0.000    0.000    0.000 
#
# Total GULP energy -198246.414234 kJ/mol
# GULP energy per Si atom -12390.400890 kJ/mol
# Density = 2.098217 g / cm^3
# Si number density = 21.030034 Si / 1000 Ang^3
#
#
#
# Elastic Constant Matrix: (Units=GPa)
#
#
# Indices 1 2 3 4 5 6 
#
# 1 99.9233 11.5342 1.6350 7.4992 -5.6760 -4.2433
# 2 11.5342 91.9971 21.3498 0.3462 -1.9062 -3.0189
# 3 1.6350 21.3498 87.2950 14.2680 1.5915 -0.1980
# 4 7.4992 0.3462 14.2680 41.1675 -2.7475 -2.8905
# 5 -5.6760 -1.9062 1.5915 -2.7475 15.5203 -9.9641
# 6 -4.2433 -3.0189 -0.1980 -2.8905 -9.9641 9.9754
#
#
#
# Elastic Compliance Matrix: (Units=1/GPa)
#
#
# Indices 1 2 3 4 5 6 
#
# 1 0.012558 0.000146 -0.000946 0.001815 0.024565 0.030431
# 2 0.000146 0.012817 -0.004022 0.003870 0.016514 0.021478
# 3 -0.000946 -0.004022 0.013843 -0.006988 -0.015778 -0.019130
# 4 0.001815 0.003870 -0.006988 0.032845 0.041643 0.052918
# 5 0.024565 0.016514 -0.015778 0.041643 0.284049 0.310926
# 6 0.030431 0.021478 -0.019130 0.052918 0.310926 0.445217
#
#
# Mechanical properties :
#
#
# Convention : Reuss Voigt Hill
#
# Bulk Modulus (GPa) = 33.81480 38.69483 36.25481
# Shear Modulus (GPa) = 6.09138 29.64575 17.86857
#
# Velocity S-wave (km/s) = 1.70376 3.75865 2.91807
# Velocity P-wave (km/s) = 4.47041 6.10544 5.35075
#
# Compressibility (1/GPa) = 0.02957285
#
# Stress axis : x y z
#
# Youngs Moduli (GPa) = 79.63224 78.01834 72.23713
#
# Poissons Ratio (x) = -0.01139 0.06837
# Poissons Ratio (y) = -0.01162 0.29057
# Poissons Ratio (z) = 0.07537 0.31382
#
# Static dielectric constant tensor:
#      x y z
#    x 3.583780 0.001710 0.038840 
#    y 0.001710 4.141780 0.395530 
#    z 0.038840 0.395530 4.731630 
# 
# 
# High freq. dielectric constant tensor:
#      x y z
#    x 1.788190 -0.001900 0.000670 
#    y -0.001900 1.840410 0.002360 
#    z 0.000670 0.002360 1.839860 
# 
# From -- ./inp_files/208809.got.cif
#   From: 2010.06.25/outbox.cif.g09.slc.cpg/sg2_105_cif.got.tgz:208809.got - 2010.06.27 13:26:56.
