data_PCOD8029619
_publ_section_title
;
Structure prediction by ZEFSAII (Michael W. Deem and Ramdas Pophale) SiO2 
 PCOD8029619
Probable space group: P -1
;
_chemical_formula_sum "Si O2"
_cell_formula_units_Z 16
_cell_length_a 17.436645
_cell_length_b 5.313640
_cell_length_c 11.902316
_cell_angle_alpha 104.405650
_cell_angle_beta 126.794961
_cell_angle_gamma 55.627968
_cell_volume 722.195371
_symmetry_space_group_name_H-M "P -1"
_symmetry_group_IT_number 2
_symmetry_cell_setting 'triclinic'
loop_
_space_group_symop_operation_xyz
x,y,z
-x,-y,-z
loop_
_atom_site_type_symbol
_atom_site_label
_atom_site_fract_x
_atom_site_fract_y
_atom_site_fract_z
Si Si1 0.691639 0.798929 0.886799
Si Si2 0.399845 0.329774 0.911775
Si Si3 0.019168 0.422844 0.379165
Si Si4 0.075024 0.649714 0.073013
Si Si5 0.572233 0.464580 0.815593
Si Si6 0.860160 0.299000 0.617323
Si Si7 0.767863 0.807722 0.189092
Si Si8 0.339902 0.643873 0.677048
O O1 0.821227 0.555102 0.941078
O O2 0.624111 0.624360 0.806139
O O3 0.630136 0.105521 0.788117
O O4 0.690118 0.926620 0.023821
O O5 0.273178 0.389477 0.803189
O O6 0.421398 0.372094 0.805787
O O7 0.399527 0.556598 0.028620
O O8 0.500000 0.000000 0.000000
O O9 0.096714 0.532718 0.406025
O O10 0.000000 0.500000 0.500000
O O11 0.896051 0.610316 0.235530
O O12 0.068351 0.066494 0.368544
O O13 0.133309 0.621990 0.240328
O O14 0.000000 0.500000 0.000000
O O15 0.000000 0.000000 0.000000
O O16 0.435222 0.669256 0.695430
O O17 0.730834 0.427163 0.480534
O O18 0.747108 0.072976 0.287564
#
# Coordination Sequence:
#
# PCOD8029619 Si02
#       8
#     2   2   2   2   2   2   2   2
#     4  11  24  41  65  97 129 174 234 280 327 393
#     4  11  21  37  59  96 139 181 222 264 337 423
#     4  12  25  43  64 106 144 176 217 286 353 431
#     4  12  26  52  76  98 132 183 242 294 345 409
#     4  11  23  38  63  97 136 175 220 276 334 405
#     4  12  28  45  71 100 139 184 233 286 356 410
#     4  11  22  35  63  93 135 178 219 276 345 409
#     4  12  23  39  63  98 139 180 220 274 353 421
#
# _framework density 22.154668000000001
#
# number of rings (size 3 to 8) (size 9 to 14) (size 15 to 20)
#    0.000    0.500    3.750    6.000    1.750    1.000 
#    0.000    1.250    0.000    0.000    0.000    0.000 
#    0.000    0.000    0.000    0.000    0.000    0.000 
#
# Total GULP energy -198259.773772 kJ/mol
# GULP energy per Si atom -12391.235861 kJ/mol
# Density = 2.210424 g / cm^3
# Si number density = 22.154668 Si / 1000 Ang^3
#
#
#
# Elastic Constant Matrix: (Units=GPa)
#
#
# Indices 1 2 3 4 5 6 
#
# 1 173.5014 75.0649 63.0106 -4.6250 52.2217 28.2468
# 2 75.0649 150.4047 28.3581 -11.1512 26.5021 29.2786
# 3 63.0106 28.3581 113.6075 8.8212 24.7011 19.2898
# 4 -4.6250 -11.1512 8.8212 31.1489 -7.0465 -0.5822
# 5 52.2217 26.5021 24.7011 -7.0465 51.8972 8.8981
# 6 28.2468 29.2786 19.2898 -0.5822 8.8981 43.6047
#
#
#
# Elastic Compliance Matrix: (Units=1/GPa)
#
#
# Indices 1 2 3 4 5 6 
#
# 1 0.010869 -0.003129 -0.003259 -0.000315 -0.007492 -0.001973
# 2 -0.003129 0.009293 0.000020 0.002657 -0.000547 -0.004075
# 3 -0.003259 0.000020 0.011979 -0.004502 -0.002575 -0.002737
# 4 -0.000315 0.002657 -0.004502 0.035634 0.006000 -0.000336
# 5 -0.007492 -0.000547 -0.002575 0.006000 0.029040 0.000514
# 6 -0.001973 -0.004075 -0.002737 -0.000336 0.000514 0.028049
#
#
# Mechanical properties :
#
#
# Convention : Reuss Voigt Hill
#
# Bulk Modulus (GPa) = 51.53014 85.59785 68.56399
# Shear Modulus (GPa) = 34.70618 43.40217 39.05417
#
# Velocity S-wave (km/s) = 3.96225 4.43092 4.20312
# Velocity P-wave (km/s) = 6.65149 8.05592 7.38715
#
# Compressibility (1/GPa) = 0.01940612
#
# Stress axis : x y z
#
# Youngs Moduli (GPa) = 92.00594 107.60527 83.48244
#
# Poissons Ratio (x) = 0.33671 0.27203
# Poissons Ratio (y) = 0.28790 -0.00171
# Poissons Ratio (z) = 0.29981 -0.00220
#
# Static dielectric constant tensor:
#      x y z
#    x 4.773460 0.300670 1.090090 
#    y 0.300670 3.226040 -1.502230 
#    z 1.090090 -1.502230 2.090150 
# 
# 
# High freq. dielectric constant tensor:
#      x y z
#    x 1.878510 0.009260 0.024670 
#    y 0.009260 1.878100 -0.006720 
#    z 0.024670 -0.006720 1.857960 
# 
# From -- ./inp_files/459584.got.cif
#   From: 2010.06.25/outbox.cif.g09.slc.cpg/sg2_230_cif.got.tgz:459584.got - 2010.06.27 13:26:56.
