data_PCOD8029630
_publ_section_title
;
Structure prediction by ZEFSAII (Michael W. Deem and Ramdas Pophale) SiO2 
 PCOD8029630
Probable space group: P -1
;
_chemical_formula_sum "Si O2"
_cell_formula_units_Z 16
_cell_length_a 13.941656
_cell_length_b 11.644281
_cell_length_c 9.544801
_cell_angle_alpha 76.299662
_cell_angle_beta 68.750984
_cell_angle_gamma 31.656149
_cell_volume 749.749949
_symmetry_space_group_name_H-M "P -1"
_symmetry_group_IT_number 2
_symmetry_cell_setting 'triclinic'
loop_
_space_group_symop_operation_xyz
x,y,z
-x,-y,-z
loop_
_atom_site_type_symbol
_atom_site_label
_atom_site_fract_x
_atom_site_fract_y
_atom_site_fract_z
Si Si1 0.557162 0.171251 0.809875
Si Si2 0.659325 0.205799 0.254338
Si Si3 0.731622 0.746560 0.343947
Si Si4 0.122715 0.576777 0.829752
Si Si5 0.338010 0.008239 0.482489
Si Si6 0.264601 0.056727 0.929711
Si Si7 0.104143 0.861677 0.684418
Si Si8 0.698499 0.294565 0.660288
O O1 0.332117 0.364611 0.850102
O O2 0.686433 0.984371 0.673308
O O3 0.592299 0.276688 0.761444
O O4 0.618588 0.051932 0.956358
O O5 0.702568 0.076403 0.397584
O O6 0.702094 0.103180 0.113105
O O7 0.807344 0.171553 0.209256
O O8 0.439525 0.463513 0.294502
O O9 0.896063 0.502156 0.262825
O O10 0.556193 0.832475 0.455328
O O11 0.798837 0.756051 0.444140
O O12 0.660202 0.911154 0.217676
O O13 0.078139 0.746732 0.737970
O O14 0.963144 0.703435 0.994112
O O15 0.258086 0.743626 0.516623
O O16 0.895998 0.120528 0.691446
#
# Coordination Sequence:
#
# PCOD8029630 Si02
#       8
#     2   2   2   2   2   2   2   2
#     4  11  21  39  63  87 124 158 198 244 302 353
#     4  11  22  40  63  89 124 160 196 245 302 353
#     4   9  20  40  64  87 118 158 200 255 293 348
#     4  11  22  39  62  88 122 163 199 239 305 357
#     4   9  19  38  66  91 113 154 208 246 299 353
#     4  11  25  40  59  91 125 158 204 244 291 363
#     4  11  22  37  64  93 119 157 199 250 293 365
#     4  11  21  37  62  91 121 158 198 247 299 350
#
# _framework density 21.340447999999999
#
# number of rings (size 3 to 8) (size 9 to 14) (size 15 to 20)
#    0.000    1.500    3.750    2.250    0.000    4.000 
#    0.000    0.625    0.000    6.000    0.000    0.000 
#    0.000    0.000    0.000    0.000    0.000    0.000 
#
# Total GULP energy -198385.427492 kJ/mol
# GULP energy per Si atom -12399.089218 kJ/mol
# Density = 2.129188 g / cm^3
# Si number density = 21.340448 Si / 1000 Ang^3
#
#
#
# Elastic Constant Matrix: (Units=GPa)
#
#
# Indices 1 2 3 4 5 6 
#
# 1 65.8394 44.3271 27.0634 17.4848 17.4218 14.2077
# 2 44.3271 81.0200 31.9515 28.1136 23.8438 4.4192
# 3 27.0634 31.9515 86.4233 14.5804 24.5344 -0.3836
# 4 17.4848 28.1136 14.5804 39.5376 5.8986 1.9048
# 5 17.4218 23.8438 24.5344 5.8986 41.3696 5.5678
# 6 14.2077 4.4192 -0.3836 1.9048 5.5678 35.4692
#
#
#
# Elastic Compliance Matrix: (Units=1/GPa)
#
#
# Indices 1 2 3 4 5 6 
#
# 1 0.027702 -0.012446 -0.003616 -0.001485 -0.000876 -0.009368
# 2 -0.012446 0.025680 -0.001552 -0.011234 -0.007516 0.003552
# 3 -0.003616 -0.001552 0.015629 -0.002170 -0.006948 0.003018
# 4 -0.001485 -0.011234 -0.002170 0.034226 0.003564 -0.000426
# 5 -0.000876 -0.007516 -0.006948 0.003564 0.033046 -0.004167
# 6 -0.009368 0.003552 0.003018 -0.000426 -0.004167 0.032213
#
#
# Mechanical properties :
#
#
# Convention : Reuss Voigt Hill
#
# Bulk Modulus (GPa) = 29.60060 48.88519 39.24290
# Shear Modulus (GPa) = 23.25743 31.93800 27.59772
#
# Velocity S-wave (km/s) = 3.30484 3.87278 3.60003
# Velocity P-wave (km/s) = 5.33511 6.55400 5.97571
#
# Compressibility (1/GPa) = 0.03378310
#
# Stress axis : x y z
#
# Youngs Moduli (GPa) = 36.09872 38.94052 63.98331
#
# Poissons Ratio (x) = 0.48465 0.23135
# Poissons Ratio (y) = 0.44928 0.09932
# Poissons Ratio (z) = 0.13053 0.06044
#
# Static dielectric constant tensor:
#      x y z
#    x 3.929260 0.277620 0.116570 
#    y 0.277620 3.719450 0.251590 
#    z 0.116570 0.251590 3.899410 
# 
# 
# High freq. dielectric constant tensor:
#      x y z
#    x 1.843020 0.019970 -0.000840 
#    y 0.019970 1.820380 0.012860 
#    z -0.000840 0.012860 1.835260 
# 
# From -- ./inp_files/240995.got.cif
#   From: 2010.06.25/outbox.cif.g09.slc.cpg/sg2_121_cif.got.tgz:240995.got - 2010.06.27 13:26:56.
