data_PCOD8029027
_publ_section_title
;
Structure prediction by ZEFSAII (Michael W. Deem and Ramdas Pophale) SiO2 
 PCOD8029027
Probable space group: P -1
;
_chemical_formula_sum "Si O2"
_cell_formula_units_Z 16
_cell_length_a 9.700879
_cell_length_b 8.584953
_cell_length_c 11.749038
_cell_angle_alpha 105.986966
_cell_angle_beta 52.344358
_cell_angle_gamma 109.713733
_cell_volume 726.091906
_symmetry_space_group_name_H-M "P -1"
_symmetry_group_IT_number 2
_symmetry_cell_setting 'triclinic'
loop_
_space_group_symop_operation_xyz
x,y,z
-x,-y,-z
loop_
_atom_site_type_symbol
_atom_site_label
_atom_site_fract_x
_atom_site_fract_y
_atom_site_fract_z
Si Si1 0.703267 0.689689 0.706981
Si Si2 0.544599 0.393451 0.852115
Si Si3 0.148528 0.646037 0.177254
Si Si4 0.029258 0.266525 0.206997
Si Si5 0.231373 0.089525 0.910274
Si Si6 0.099429 0.148519 0.558606
Si Si7 0.594542 0.134108 0.070686
Si Si8 0.709405 0.008994 0.384164
O O1 0.583144 0.503745 0.740834
O O2 0.817125 0.699356 0.536707
O O3 0.573261 0.814097 0.776004
O O4 0.824331 0.736638 0.769118
O O5 0.724062 0.327894 0.771254
O O6 0.377673 0.248358 0.901241
O O7 0.500000 0.500000 0.000000
O O8 0.045136 0.450960 0.183212
O O9 0.023000 0.776328 0.277726
O O10 0.274575 0.702519 0.015973
O O11 0.832308 0.197599 0.347558
O O12 0.051497 0.133324 0.066513
O O13 0.286667 0.931626 0.908062
O O14 0.238891 0.087089 0.770371
O O15 0.243100 0.081596 0.546035
O O16 0.000000 0.000000 0.500000
O O17 0.500000 0.000000 0.000000
O O18 0.500000 0.000000 0.500000
#
# Coordination Sequence:
#
# PCOD8029027 Si02
#       8
#     2   2   2   2   2   2   2   2
#     4  11  21  38  67 100 137 168 228 284 329 399
#     4  11  19  39  68 109 137 168 222 284 347 394
#     4  11  23  39  72 103 134 176 230 282 334 400
#     4  11  22  45  66 100 134 178 231 281 343 403
#     4  12  23  40  71 100 141 177 225 287 341 407
#     4  12  26  46  68 100 134 181 238 278 331 415
#     4  12  18  35  67 106 131 166 226 278 331 388
#     4  12  29  48  65  96 143 189 222 282 357 404
#
# _framework density 22.035777
#
# number of rings (size 3 to 8) (size 9 to 14) (size 15 to 20)
#    0.000    0.500    7.500    2.625    1.750    3.000 
#    0.000    6.250    0.000    0.000    0.000    0.000 
#    0.000    0.000    0.000    0.000    0.000    0.000 
#
# Total GULP energy -198313.964495 kJ/mol
# GULP energy per Si atom -12394.622781 kJ/mol
# Density = 2.198562 g / cm^3
# Si number density = 22.035777 Si / 1000 Ang^3
#
#
#
# Elastic Constant Matrix: (Units=GPa)
#
#
# Indices 1 2 3 4 5 6 
#
# 1 80.5263 18.8355 40.6322 1.0787 -4.6091 -24.5890
# 2 18.8355 92.1542 39.6433 -21.2639 -0.7662 -13.2193
# 3 40.6322 39.6433 95.0998 -18.6581 -11.8279 4.0231
# 4 1.0787 -21.2639 -18.6581 45.2514 -2.5499 -0.4244
# 5 -4.6091 -0.7662 -11.8279 -2.5499 42.1671 -5.3675
# 6 -24.5890 -13.2193 4.0231 -0.4244 -5.3675 20.2847
#
#
#
# Elastic Compliance Matrix: (Units=1/GPa)
#
#
# Indices 1 2 3 4 5 6 
#
# 1 0.044625 0.010848 -0.026940 -0.006111 0.005793 0.067912
# 2 0.010848 0.019201 -0.012880 0.003826 0.001816 0.028778
# 3 -0.026940 -0.012880 0.030701 0.006799 -0.000143 -0.047035
# 4 -0.006111 0.003826 0.006799 0.026927 0.002289 -0.005094
# 5 0.005793 0.001816 -0.000143 0.002289 0.026424 0.015274
# 6 0.067912 0.028778 -0.047035 -0.005094 0.015274 0.163639
#
#
# Mechanical properties :
#
#
# Convention : Reuss Voigt Hill
#
# Bulk Modulus (GPa) = 27.33515 51.77804 39.55659
# Shear Modulus (GPa) = 13.10089 32.78525 22.94307
#
# Velocity S-wave (km/s) = 2.44094 3.86141 3.23022
# Velocity P-wave (km/s) = 4.51399 6.59006 5.64823
#
# Compressibility (1/GPa) = 0.03658293
#
# Stress axis : x y z
#
# Youngs Moduli (GPa) = 22.40906 52.08091 32.57261
#
# Poissons Ratio (x) = -0.56498 0.87750
# Poissons Ratio (y) = -0.24310 0.41954
# Poissons Ratio (z) = 0.60370 0.67080
#
# Static dielectric constant tensor:
#      x y z
#    x 4.232200 -0.026940 -0.262690 
#    y -0.026940 4.249980 -0.369900 
#    z -0.262690 -0.369900 4.239390 
# 
# 
# High freq. dielectric constant tensor:
#      x y z
#    x 1.854520 -0.004590 -0.015840 
#    y -0.004590 1.876290 -0.023510 
#    z -0.015840 -0.023510 1.869620 
# 
# From -- ./inp_files/382515.got.cif
#   From: 2010.06.25/outbox.cif.g09.slc.cpg/sg2_192_cif.got.tgz:382515.got - 2010.06.27 13:26:56.
