data_PCOD8029116
_publ_section_title
;
Structure prediction by ZEFSAII (Michael W. Deem and Ramdas Pophale) SiO2 
 PCOD8029116
Probable space group: P -1
;
_chemical_formula_sum "Si O2"
_cell_formula_units_Z 16
_cell_length_a 12.621211
_cell_length_b 22.038017
_cell_length_c 21.902297
_cell_angle_alpha 18.862743
_cell_angle_beta 32.270330
_cell_angle_gamma 23.495328
_cell_volume 773.373606
_symmetry_space_group_name_H-M "P -1"
_symmetry_group_IT_number 2
_symmetry_cell_setting 'triclinic'
loop_
_space_group_symop_operation_xyz
x,y,z
-x,-y,-z
loop_
_atom_site_type_symbol
_atom_site_label
_atom_site_fract_x
_atom_site_fract_y
_atom_site_fract_z
Si Si1 0.256276 0.152508 0.839623
Si Si2 0.908478 0.846482 0.679798
Si Si3 0.033424 0.759586 0.217551
Si Si4 0.979741 0.682594 0.457320
Si Si5 0.164014 0.332241 0.993003
Si Si6 0.488415 0.259757 0.405131
Si Si7 0.858794 0.155728 0.107843
Si Si8 0.737287 0.385413 0.076810
O O1 0.204784 0.174422 0.770780
O O2 0.224026 0.396245 0.637406
O O3 0.023078 0.184590 0.955732
O O4 0.545211 0.885364 0.973433
O O5 0.134543 0.569440 0.800976
O O6 0.647341 0.013418 0.605199
O O7 0.833135 0.805292 0.819722
O O8 0.000000 0.000000 0.500000
O O9 0.325434 0.512572 0.285261
O O10 0.004510 0.708184 0.349190
O O11 0.000000 0.000000 0.000000
O O12 0.705904 0.736686 0.547601
O O13 0.979353 0.869328 0.319862
O O14 0.924769 0.428041 0.972686
O O15 0.703826 0.235285 0.282894
O O16 0.884462 0.213872 0.108365
O O17 0.551034 0.340256 0.059616
#
# Coordination Sequence:
#
# PCOD8029116 Si02
#       8
#     2   2   2   2   2   2   2   2
#     4  11  23  41  62  96 123 169 212 260 324 382
#     4  11  23  39  64  96 130 168 206 253 327 389
#     4  11  20  34  65  93 127 161 202 268 325 371
#     4  11  21  40  64  95 124 163 213 269 317 368
#     4  11  25  42  64  93 136 166 203 265 323 382
#     4  11  21  39  64  94 126 164 215 257 317 385
#     4  11  24  44  67  90 126 169 223 267 304 373
#     4  11  23  45  65  92 129 171 216 263 313 376
#
# _framework density 20.688579000000001
#
# number of rings (size 3 to 8) (size 9 to 14) (size 15 to 20)
#    0.000    1.000    5.000    3.750    1.750    3.000 
#    2.250    0.625    0.000    0.000    0.000    0.000 
#    0.000    0.000    0.000    0.000    0.000    0.000 
#
# Total GULP energy -198405.532703 kJ/mol
# GULP energy per Si atom -12400.345794 kJ/mol
# Density = 2.064149 g / cm^3
# Si number density = 20.688579 Si / 1000 Ang^3
#
#
#
# Elastic Constant Matrix: (Units=GPa)
#
#
# Indices 1 2 3 4 5 6 
#
# 1 77.0986 36.3359 37.1039 -6.9165 -8.7397 4.3809
# 2 36.3359 90.8642 41.3112 -11.9612 -6.6067 2.1035
# 3 37.1039 41.3112 140.5454 -24.7702 -29.4658 2.0445
# 4 -6.9165 -11.9612 -24.7702 26.9693 -5.4060 -2.1067
# 5 -8.7397 -6.6067 -29.4658 -5.4060 28.9484 -8.6293
# 6 4.3809 2.1035 2.0445 -2.1067 -8.6293 23.6185
#
#
#
# Elastic Compliance Matrix: (Units=1/GPa)
#
#
# Indices 1 2 3 4 5 6 
#
# 1 0.017088 -0.005534 -0.003115 -0.001192 -0.000276 -0.002614
# 2 -0.005534 0.014664 -0.002383 0.002869 -0.000179 0.000117
# 3 -0.003115 -0.002383 0.015897 0.017514 0.020491 0.008462
# 4 -0.001192 0.002869 0.017514 0.062405 0.034758 0.016715
# 5 -0.000276 -0.000179 0.020491 0.034758 0.069784 0.026890
# 6 -0.002614 0.000117 0.008462 0.016715 0.026890 0.053397
#
#
# Mechanical properties :
#
#
# Convention : Reuss Voigt Hill
#
# Bulk Modulus (GPa) = 39.08311 59.77890 49.43100
# Shear Modulus (GPa) = 18.95198 28.82439 23.88819
#
# Velocity S-wave (km/s) = 3.02993 3.73668 3.40171
# Velocity P-wave (km/s) = 5.58326 6.89742 6.27484
#
# Compressibility (1/GPa) = 0.02558650
#
# Stress axis : x y z
#
# Youngs Moduli (GPa) = 58.52216 68.19611 62.90391
#
# Poissons Ratio (x) = 0.37737 0.19592
# Poissons Ratio (y) = 0.32384 0.14988
# Poissons Ratio (z) = 0.18227 0.16249
#
# Static dielectric constant tensor:
#      x y z
#    x 3.672170 0.024450 -0.036630 
#    y 0.024450 3.860170 -0.080120 
#    z -0.036630 -0.080120 4.100910 
# 
# 
# High freq. dielectric constant tensor:
#      x y z
#    x 1.788590 0.001660 -0.004930 
#    y 0.001660 1.802090 -0.007190 
#    z -0.004930 -0.007190 1.826290 
# 
# From -- ./inp_files/595161.got.cif
#   From: 2010.06.25/outbox.cif.g09.slc.cpg/sg2_298_cif.got.tgz:595161.got - 2010.06.27 13:26:56.
