data_PCOD8029953
_publ_section_title
;
Structure prediction by ZEFSAII (Michael W. Deem and Ramdas Pophale) SiO2 
 PCOD8029953
Probable space group: P -1
;
_chemical_formula_sum "Si O2"
_cell_formula_units_Z 14
_cell_length_a 14.367352
_cell_length_b 22.884857
_cell_length_c 13.798491
_cell_angle_alpha 157.750474
_cell_angle_beta 146.273343
_cell_angle_gamma 22.416786
_cell_volume 646.042693
_symmetry_space_group_name_H-M "P -1"
_symmetry_group_IT_number 2
_symmetry_cell_setting 'triclinic'
loop_
_space_group_symop_operation_xyz
x,y,z
-x,-y,-z
loop_
_atom_site_type_symbol
_atom_site_label
_atom_site_fract_x
_atom_site_fract_y
_atom_site_fract_z
Si Si1 0.825275 0.893940 0.893753
Si Si2 0.329707 0.223617 0.260735
Si Si3 0.089112 0.372450 0.606690
Si Si4 0.413402 0.809926 0.189461
Si Si5 0.633952 0.455452 0.146252
Si Si6 0.462896 0.694801 0.845173
Si Si7 0.099298 0.684768 0.474647
O O1 0.699788 0.838799 0.757473
O O2 0.904095 0.792737 0.698173
O O3 0.077467 0.767567 0.972902
O O4 0.635988 0.161701 0.121332
O O5 0.426782 0.330777 0.536658
O O6 0.076472 0.398802 0.249013
O O7 0.500000 0.000000 0.000000
O O8 0.367009 0.245780 0.656206
O O9 0.970653 0.417428 0.678223
O O10 0.443385 0.610695 0.937777
O O11 0.442002 0.814193 0.105376
O O12 0.149254 0.055771 0.372711
O O13 0.500000 0.500000 0.000000
O O14 0.293712 0.659191 0.663209
O O15 0.754749 0.464236 0.725537
#
# Coordination Sequence:
#
# PCOD8029953 Si02
#       7
#     2   2   2   2   2   2   2
#     4  11  21  41  66  90 131 178 220 267 337 396
#     4  11  24  44  66  97 135 174 229 278 334 397
#     4  11  23  42  66  94 133 180 220 272 334 405
#     4  12  23  43  66  96 136 171 222 276 336 398
#     4  11  23  44  70  95 127 179 228 271 334 400
#     4  11  23  40  66  97 129 172 221 277 332 398
#     4  11  23  41  63  98 132 173 222 271 339 398
#
# _framework density 21.670393000000001
#
# number of rings (size 3 to 8) (size 9 to 14) (size 15 to 20)
#    0.000    0.857    2.857    6.857    0.000    1.714 
#    5.143    1.429    0.000    0.000    0.000    0.000 
#    0.000    0.000    0.000    0.000    0.000    0.000 
#
# Total GULP energy -173518.471328 kJ/mol
# GULP energy per Si atom -12394.176523 kJ/mol
# Density = 2.162107 g / cm^3
# Si number density = 21.670393 Si / 1000 Ang^3
#
#
#
# Elastic Constant Matrix: (Units=GPa)
#
#
# Indices 1 2 3 4 5 6 
#
# 1 105.7544 51.3435 40.5409 8.1112 14.7579 -4.0463
# 2 51.3435 147.4964 63.6300 3.9261 -15.6169 -7.7984
# 3 40.5409 63.6300 92.7243 13.8156 0.0677 -0.1891
# 4 8.1112 3.9261 13.8156 29.4042 -5.6455 1.1230
# 5 14.7579 -15.6169 0.0677 -5.6455 36.6105 4.9897
# 6 -4.0463 -7.7984 -0.1891 1.1230 4.9897 38.5624
#
#
#
# Elastic Compliance Matrix: (Units=1/GPa)
#
#
# Indices 1 2 3 4 5 6 
#
# 1 0.014169 -0.004565 -0.002482 -0.003829 -0.008484 0.001761
# 2 -0.004565 0.012100 -0.006957 0.004334 0.007570 0.000828
# 3 -0.002482 -0.006957 0.017725 -0.007250 -0.002984 -0.000983
# 4 -0.003829 0.004334 -0.007250 0.039855 0.009823 -0.001992
# 5 -0.008484 0.007570 -0.002984 0.009823 0.036074 -0.004328
# 6 0.001761 0.000828 -0.000983 -0.001992 -0.004328 0.026897
#
#
# Mechanical properties :
#
#
# Convention : Reuss Voigt Hill
#
# Bulk Modulus (GPa) = 62.55828 73.00044 67.77936
# Shear Modulus (GPa) = 27.75383 33.61278 30.68331
#
# Velocity S-wave (km/s) = 3.58261 3.94266 3.76694
# Velocity P-wave (km/s) = 6.78559 7.38146 7.08979
#
# Compressibility (1/GPa) = 0.01598509
#
# Stress axis : x y z
#
# Youngs Moduli (GPa) = 70.57908 82.64428 56.41903
#
# Poissons Ratio (x) = 0.37724 0.14004
# Poissons Ratio (y) = 0.32216 0.39252
# Poissons Ratio (z) = 0.17519 0.57498
#
# Static dielectric constant tensor:
#      x y z
#    x 3.937560 0.004590 0.137900 
#    y 0.004590 4.072300 0.195980 
#    z 0.137900 0.195980 3.854940 
# 
# 
# High freq. dielectric constant tensor:
#      x y z
#    x 1.853970 0.000950 0.014500 
#    y 0.000950 1.855860 0.007650 
#    z 0.014500 0.007650 1.841820 
# 
# From -- ./inp_files/256068.got.cif
#   From: 2010.06.25/outbox.cif.g09.slc.cpg/sg2_129_cif.got.tgz:256068.got - 2010.06.27 13:26:56.
