data_PCOD8029105
_publ_section_title
;
Structure prediction by ZEFSAII (Michael W. Deem and Ramdas Pophale) SiO2 
 PCOD8029105
Probable space group: P -1
;
_chemical_formula_sum "Si O2"
_cell_formula_units_Z 12
_cell_length_a 9.564080
_cell_length_b 8.735318
_cell_length_c 11.711663
_cell_angle_alpha 58.877171
_cell_angle_beta 54.522438
_cell_angle_gamma 68.690634
_cell_volume 679.278872
_symmetry_space_group_name_H-M "P -1"
_symmetry_group_IT_number 2
_symmetry_cell_setting 'triclinic'
loop_
_space_group_symop_operation_xyz
x,y,z
-x,-y,-z
loop_
_atom_site_type_symbol
_atom_site_label
_atom_site_fract_x
_atom_site_fract_y
_atom_site_fract_z
Si Si1 0.106875 0.378974 0.907725
Si Si2 0.308201 0.964578 0.573321
Si Si3 0.960752 0.377239 0.725968
Si Si4 0.747497 0.643452 0.581941
Si Si5 0.580786 0.418140 0.378463
Si Si6 0.993843 0.985465 0.874788
O O1 0.296476 0.439553 0.782146
O O2 0.003516 0.391670 0.832897
O O3 0.122110 0.178035 0.032360
O O4 0.000000 0.500000 0.000000
O O5 0.314651 0.778326 0.569871
O O6 0.187883 0.943727 0.749246
O O7 0.500000 0.000000 0.500000
O O8 0.236571 0.147418 0.470158
O O9 0.801772 0.521367 0.713139
O O10 0.129908 0.416832 0.559550
O O11 0.909190 0.177307 0.794347
O O12 0.556289 0.608552 0.646008
O O13 0.500000 0.500000 0.500000
O O14 0.000000 0.000000 0.000000
#
# Coordination Sequence:
#
# PCOD8029105 Si02
#       6
#     2   2   2   2   2   2
#     4  11  20  34  54  79 108 137 174 217 262 309
#     4   9  18  32  53  77 102 137 177 212 252 312
#     4   9  18  35  56  77 102 141 174 211 263 311
#     4   9  18  35  56  77 104 135 178 217 254 312
#     4  11  20  34  54  81 105 136 179 219 256 302
#     4   9  18  32  53  76 103 140 173 205 259 323
#
# _framework density 17.665792
#
# number of rings (size 3 to 8) (size 9 to 14) (size 15 to 20)
#    0.000    2.333    3.333    0.000    2.333    0.000 
#    0.000    4.167    0.000    0.000    0.000    0.000 
#    0.000    0.000    0.000    0.000    0.000    0.000 
#
# Total GULP energy -148663.242843 kJ/mol
# GULP energy per Si atom -12388.603570 kJ/mol
# Density = 1.762558 g / cm^3
# Si number density = 17.665792 Si / 1000 Ang^3
#
#
#
# Elastic Constant Matrix: (Units=GPa)
#
#
# Indices 1 2 3 4 5 6 
#
# 1 63.5981 41.7828 35.2385 -16.1071 -3.1183 -5.9985
# 2 41.7828 148.2571 63.7018 -16.1457 -2.6883 -4.2485
# 3 35.2385 63.7018 113.6692 -12.5404 -17.7022 0.0502
# 4 -16.1071 -16.1457 -12.5404 39.5194 5.0182 1.1192
# 5 -3.1183 -2.6883 -17.7022 5.0182 27.8836 -5.4292
# 6 -5.9985 -4.2485 0.0502 1.1192 -5.4292 25.0878
#
#
#
# Elastic Compliance Matrix: (Units=1/GPa)
#
#
# Indices 1 2 3 4 5 6 
#
# 1 0.022510 -0.003677 -0.004368 0.006280 -0.000904 0.004292
# 2 -0.003677 0.009893 -0.004661 0.001394 -0.002633 0.000173
# 3 -0.004368 -0.004661 0.013974 -0.000257 0.007955 -0.000129
# 4 0.006280 0.001394 -0.000257 0.028957 -0.004647 -0.000559
# 5 -0.000904 -0.002633 0.007955 -0.004647 0.043120 0.008861
# 6 0.004292 0.000173 -0.000129 -0.000559 0.008861 0.042858
#
#
# Mechanical properties :
#
#
# Convention : Reuss Voigt Hill
#
# Bulk Modulus (GPa) = 47.69472 67.44119 57.56796
# Shear Modulus (GPa) = 25.81139 30.81823 28.31481
#
# Velocity S-wave (km/s) = 3.82657 4.18127 4.00785
# Velocity P-wave (km/s) = 6.82499 7.84664 7.35358
#
# Compressibility (1/GPa) = 0.02096668
#
# Stress axis : x y z
#
# Youngs Moduli (GPa) = 44.42376 101.08354 71.56128
#
# Poissons Ratio (x) = 0.37166 0.31257
# Poissons Ratio (y) = 0.16334 0.33352
# Poissons Ratio (z) = 0.19404 0.47111
#
# Static dielectric constant tensor:
#      x y z
#    x 2.650370 -0.446390 0.329470 
#    y -0.446390 3.468930 0.190240 
#    z 0.329470 0.190240 2.890080 
# 
# 
# High freq. dielectric constant tensor:
#      x y z
#    x 1.632800 0.001310 -0.014670 
#    y 0.001310 1.708350 -0.010220 
#    z -0.014670 -0.010220 1.690430 
# 
# From -- ./inp_files/145454.got.cif
#   From: 2010.06.25/outbox.cif.g09.slc.cpg/sg2_73_cif.got.tgz:145454.got - 2010.06.27 13:26:56.
