data_PCOD8029929
_publ_section_title
;
Structure prediction by ZEFSAII (Michael W. Deem and Ramdas Pophale) SiO2 
 PCOD8029929
Probable space group: P -1
;
_chemical_formula_sum "Si O2"
_cell_formula_units_Z 14
_cell_length_a 9.466914
_cell_length_b 18.622476
_cell_length_c 11.815967
_cell_angle_alpha 38.521556
_cell_angle_beta 63.102355
_cell_angle_gamma 36.402257
_cell_volume 675.553917
_symmetry_space_group_name_H-M "P -1"
_symmetry_group_IT_number 2
_symmetry_cell_setting 'triclinic'
loop_
_space_group_symop_operation_xyz
x,y,z
-x,-y,-z
loop_
_atom_site_type_symbol
_atom_site_label
_atom_site_fract_x
_atom_site_fract_y
_atom_site_fract_z
Si Si1 0.005447 0.858487 0.987065
Si Si2 0.833852 0.805507 0.922056
Si Si3 0.535095 0.781794 0.138665
Si Si4 0.183934 0.433616 0.114825
Si Si5 0.730334 0.432779 0.565453
Si Si6 0.731665 0.840415 0.431444
Si Si7 0.357627 0.861267 0.849873
O O1 0.959250 0.839795 0.900182
O O2 0.085622 0.945876 0.847274
O O3 0.741200 0.002189 0.982116
O O4 0.238676 0.644773 0.227324
O O5 0.552474 0.010338 0.713971
O O6 0.765606 0.743603 0.112062
O O7 0.060534 0.623590 0.977491
O O8 0.623367 0.625699 0.379804
O O9 0.509379 0.762522 0.038534
O O10 0.197949 0.321332 0.337263
O O11 0.471397 0.292606 0.126698
O O12 0.000000 0.500000 0.000000
O O13 0.500000 0.500000 0.500000
O O14 0.021776 0.264478 0.607377
O O15 0.698685 0.970605 0.366728
#
# Coordination Sequence:
#
# PCOD8029929 Si02
#       7
#     2   2   2   2   2   2   2
#     4  12  25  42  62  99 139 160 208 264 329 376
#     4  11  25  42  65  95 131 173 204 267 318 377
#     4  11  21  41  63  96 128 166 216 255 317 379
#     4  12  23  44  69  93 122 167 230 256 305 382
#     4  12  22  36  68  97 129 165 211 264 315 373
#     4  11  23  42  68  95 122 166 222 256 317 375
#     4  11  22  41  67  93 126 169 209 271 305 373
#
# _framework density 20.723735000000001
#
# number of rings (size 3 to 8) (size 9 to 14) (size 15 to 20)
#    0.000    0.571    8.571    2.143    0.000    2.286 
#    0.000    0.714    0.000    0.000    0.000    0.000 
#    0.000    0.000    0.000    0.000    0.000    0.000 
#
# Total GULP energy -173546.299138 kJ/mol
# GULP energy per Si atom -12396.164224 kJ/mol
# Density = 2.067657 g / cm^3
# Si number density = 20.723735 Si / 1000 Ang^3
#
#
#
# Elastic Constant Matrix: (Units=GPa)
#
#
# Indices 1 2 3 4 5 6 
#
# 1 90.8941 14.9962 22.0930 -0.4408 10.7191 14.6007
# 2 14.9962 91.5348 10.1723 -9.3132 11.1871 6.1984
# 3 22.0930 10.1723 99.5140 -9.9984 4.2091 15.4754
# 4 -0.4408 -9.3132 -9.9984 24.4158 -2.5429 -0.4820
# 5 10.7191 11.1871 4.2091 -2.5429 21.5556 0.0426
# 6 14.6007 6.1984 15.4754 -0.4820 0.0426 16.2108
#
#
#
# Elastic Compliance Matrix: (Units=1/GPa)
#
#
# Indices 1 2 3 4 5 6 
#
# 1 0.013963 -0.000752 -0.001145 -0.001399 -0.006473 -0.011220
# 2 -0.000752 0.012411 0.000190 0.004133 -0.005609 -0.004113
# 3 -0.001145 0.000190 0.012512 0.004818 -0.001383 -0.010839
# 4 -0.001399 0.004133 0.004818 0.044711 0.002892 -0.003597
# 5 -0.006473 -0.005609 -0.001383 0.002892 0.053114 0.009241
# 6 -0.011220 -0.004113 -0.010839 -0.003597 0.009241 0.083581
#
#
# Mechanical properties :
#
#
# Convention : Reuss Voigt Hill
#
# Bulk Modulus (GPa) = 28.19058 41.82955 35.01007
# Shear Modulus (GPa) = 21.22870 28.08187 24.65528
#
# Velocity S-wave (km/s) = 3.20404 3.68511 3.45296
# Velocity P-wave (km/s) = 5.22690 6.19151 5.72954
#
# Compressibility (1/GPa) = 0.03547284
#
# Stress axis : x y z
#
# Youngs Moduli (GPa) = 71.61760 80.57141 79.92577
#
# Poissons Ratio (x) = 0.06058 0.09152
# Poissons Ratio (y) = 0.05384 -0.01521
# Poissons Ratio (z) = 0.08200 -0.01533
#
# Static dielectric constant tensor:
#      x y z
#    x 2.557060 -0.314300 0.781250 
#    y -0.314300 5.509180 -0.050280 
#    z 0.781250 -0.050280 3.192700 
# 
# 
# High freq. dielectric constant tensor:
#      x y z
#    x 1.796090 -0.011080 -0.008480 
#    y -0.011080 1.809340 -0.014440 
#    z -0.008480 -0.014440 1.812810 
# 
# From -- ./inp_files/255733.got.cif
#   From: 2010.06.25/outbox.cif.g09.slc.cpg/sg2_128_cif.got.tgz:255733.got - 2010.06.27 13:26:56.
