data_PCOD8029740
_publ_section_title
;
Structure prediction by ZEFSAII (Michael W. Deem and Ramdas Pophale) SiO2 
 PCOD8029740
Probable space group: P -1
;
_chemical_formula_sum "Si O2"
_cell_formula_units_Z 16
_cell_length_a 9.181215
_cell_length_b 18.993762
_cell_length_c 6.686918
_cell_angle_alpha 49.188041
_cell_angle_beta 54.847322
_cell_angle_gamma 71.921327
_cell_volume 717.498673
_symmetry_space_group_name_H-M "P -1"
_symmetry_group_IT_number 2
_symmetry_cell_setting 'triclinic'
loop_
_space_group_symop_operation_xyz
x,y,z
-x,-y,-z
loop_
_atom_site_type_symbol
_atom_site_label
_atom_site_fract_x
_atom_site_fract_y
_atom_site_fract_z
Si Si1 0.011880 0.942329 0.894662
Si Si2 0.056930 0.606400 0.813324
Si Si3 0.508684 0.209108 0.883504
Si Si4 0.544624 0.451153 0.857393
Si Si5 0.720016 0.301606 0.205791
Si Si6 0.825996 0.233074 0.865051
Si Si7 0.312703 0.386591 0.809072
Si Si8 0.311706 0.031694 0.190171
O O1 0.824092 0.947307 0.918544
O O2 0.190884 0.965046 0.568648
O O3 0.025255 0.837383 0.162957
O O4 0.000000 0.000000 0.000000
O O5 0.189530 0.614636 0.882332
O O6 0.139354 0.664801 0.452693
O O7 0.000000 0.500000 0.000000
O O8 0.889012 0.658887 0.920459
O O9 0.624065 0.219672 0.569749
O O10 0.631915 0.188442 0.014785
O O11 0.429789 0.308112 0.785471
O O12 0.360230 0.123065 0.120440
O O13 0.373222 0.432536 0.886958
O O14 0.692244 0.524708 0.499049
O O15 0.500000 0.500000 0.000000
O O16 0.599956 0.349060 0.051094
O O17 0.843139 0.246787 0.065505
O O18 0.500000 0.000000 0.000000
#
# Coordination Sequence:
#
# PCOD8029740 Si02
#       8
#     2   2   2   2   2   2   2   2
#     4  11  27  48  76 107 141 181 229 289 352 421
#     4  11  26  42  62  95 139 179 223 282 332 393
#     4  11  24  42  68  99 132 173 222 283 336 407
#     4  11  21  39  63  88 130 176 225 276 327 396
#     4  11  23  42  65  93 134 179 225 273 340 396
#     4  11  25  45  67  99 138 176 226 277 340 410
#     4  11  24  38  62  95 129 171 229 277 330 393
#     4  11  26  49  76 105 142 178 228 288 355 419
#
# _framework density 22.299693999999999
#
# number of rings (size 3 to 8) (size 9 to 14) (size 15 to 20)
#    0.000    1.000    2.500    3.000    7.000    9.000 
#    0.000    0.000    0.000    0.000    0.000    0.000 
#    0.000    0.000    0.000    0.000    0.000    0.000 
#
# Total GULP energy -198210.566895 kJ/mol
# GULP energy per Si atom -12388.160431 kJ/mol
# Density = 2.224894 g / cm^3
# Si number density = 22.299694 Si / 1000 Ang^3
#
#
#
# Elastic Constant Matrix: (Units=GPa)
#
#
# Indices 1 2 3 4 5 6 
#
# 1 102.5499 34.1251 49.3798 -0.3210 0.6316 5.9660
# 2 34.1251 105.3131 39.8593 -4.3797 14.7726 8.7006
# 3 49.3798 39.8593 75.2839 13.2967 3.7304 16.1140
# 4 -0.3210 -4.3797 13.2967 39.6693 2.4131 -1.5521
# 5 0.6316 14.7726 3.7304 2.4131 35.4814 2.6526
# 6 5.9660 8.7006 16.1140 -1.5521 2.6526 39.8200
#
#
#
# Elastic Compliance Matrix: (Units=1/GPa)
#
#
# Indices 1 2 3 4 5 6 
#
# 1 0.015004 -0.001079 -0.010426 0.003534 0.000867 0.002287
# 2 -0.001079 0.013312 -0.006934 0.004118 -0.005116 0.000560
# 3 -0.010426 -0.006934 0.027386 -0.010457 0.001541 -0.008516
# 4 0.003534 0.004118 -0.010457 0.029542 -0.002998 0.004153
# 5 0.000867 -0.005116 0.001541 -0.002998 0.030474 -0.001782
# 6 0.002287 0.000560 -0.008516 0.004153 -0.001782 0.028375
#
#
# Mechanical properties :
#
#
# Convention : Reuss Voigt Hill
#
# Bulk Modulus (GPa) = 53.12717 58.87502 56.00110
# Shear Modulus (GPa) = 26.70283 33.64631 30.17457
#
# Velocity S-wave (km/s) = 3.46418 3.88857 3.68249
# Velocity P-wave (km/s) = 6.31479 6.82791 6.57636
#
# Compressibility (1/GPa) = 0.01882276
#
# Stress axis : x y z
#
# Youngs Moduli (GPa) = 66.65056 75.11822 36.51436
#
# Poissons Ratio (x) = 0.08106 0.38071
# Poissons Ratio (y) = 0.07192 0.25320
# Poissons Ratio (z) = 0.69493 0.52090
#
# Static dielectric constant tensor:
#      x y z
#    x 4.238350 -0.017920 -0.124450 
#    y -0.017920 3.940060 0.287020 
#    z -0.124450 0.287020 4.037870 
# 
# 
# High freq. dielectric constant tensor:
#      x y z
#    x 1.879200 0.003640 0.011320 
#    y 0.003640 1.894640 0.008340 
#    z 0.011320 0.008340 1.877120 
# 
# From -- ./inp_files/52174.got.cif
#   From: 2010.06.25/outbox.cif.g09.slc.cpg/sg2_27_cif.got.tgz:52174.got - 2010.06.27 13:26:56.
