data_PCOD8029789
_publ_section_title
;
Structure prediction by ZEFSAII (Michael W. Deem and Ramdas Pophale) SiO2 
 PCOD8029789
Probable space group: P -1
;
_chemical_formula_sum "Si O2"
_cell_formula_units_Z 16
_cell_length_a 27.063055
_cell_length_b 18.847779
_cell_length_c 15.111306
_cell_angle_alpha 26.629676
_cell_angle_beta 18.311224
_cell_angle_gamma 18.107470
_cell_volume 749.850070
_symmetry_space_group_name_H-M "P -1"
_symmetry_group_IT_number 2
_symmetry_cell_setting 'triclinic'
loop_
_space_group_symop_operation_xyz
x,y,z
-x,-y,-z
loop_
_atom_site_type_symbol
_atom_site_label
_atom_site_fract_x
_atom_site_fract_y
_atom_site_fract_z
Si Si1 0.904735 0.974999 0.974985
Si Si2 0.450239 0.158982 0.486758
Si Si3 0.632053 0.228516 0.862090
Si Si4 0.872561 0.329416 0.728883
Si Si5 0.976512 0.566415 0.786889
Si Si6 0.580749 0.977984 0.121763
Si Si7 0.085279 0.260348 0.620322
Si Si8 0.038729 0.795396 0.765571
O O1 0.968860 0.786332 0.142999
O O2 0.655059 0.129821 0.186634
O O3 0.069079 0.854438 0.744458
O O4 0.925541 0.126440 0.818282
O O5 0.229276 0.426944 0.545786
O O6 0.392331 0.107249 0.731057
O O7 0.500000 0.000000 0.500000
O O8 0.755576 0.300113 0.541175
O O9 0.397039 0.439009 0.076526
O O10 0.796803 0.014452 0.888100
O O11 0.574432 0.171256 0.934552
O O12 0.024819 0.358493 0.393303
O O13 0.959410 0.252500 0.767297
O O14 0.795627 0.783443 0.913684
O O15 0.939755 0.406448 0.028995
O O16 0.356582 0.070429 0.353225
O O17 0.000000 0.500000 0.500000
#
# Coordination Sequence:
#
# PCOD8029789 Si02
#       8
#     2   2   2   2   2   2   2   2
#     4  11  24  43  67  98 135 173 225 274 334 397
#     4  11  21  39  69 100 135 176 217 263 334 401
#     4  11  24  41  67  99 141 173 219 269 338 398
#     4  12  26  44  68  98 131 181 228 275 330 396
#     4  12  24  40  70  99 140 174 223 269 335 403
#     4  11  23  41  66  99 132 176 220 277 330 393
#     4  11  24  45  74  92 128 178 230 281 332 391
#     4  11  24  41  65 102 140 174 212 277 337 399
#
# _framework density 21.337598
#
# number of rings (size 3 to 8) (size 9 to 14) (size 15 to 20)
#    0.000    0.750    3.750    3.750    3.500    3.500 
#    0.000    0.625    0.000    0.000    0.000    0.000 
#    0.000    0.000    0.000    0.000    0.000    0.000 
#
# Total GULP energy -198383.400630 kJ/mol
# GULP energy per Si atom -12398.962539 kJ/mol
# Density = 2.128903 g / cm^3
# Si number density = 21.337598 Si / 1000 Ang^3
#
#
#
# Elastic Constant Matrix: (Units=GPa)
#
#
# Indices 1 2 3 4 5 6 
#
# 1 101.9583 30.3537 39.0418 3.3198 -0.6798 10.8247
# 2 30.3537 92.5984 33.3030 -4.2612 15.5488 12.3664
# 3 39.0418 33.3030 104.9414 -5.1606 23.7079 3.7283
# 4 3.3198 -4.2612 -5.1606 40.2194 11.3199 -3.0357
# 5 -0.6798 15.5488 23.7079 11.3199 31.4184 2.3536
# 6 10.8247 12.3664 3.7283 -3.0357 2.3536 30.2567
#
#
#
# Elastic Compliance Matrix: (Units=1/GPa)
#
#
# Indices 1 2 3 4 5 6 
#
# 1 0.013845 -0.003515 -0.006130 -0.005074 0.008789 -0.003954
# 2 -0.003515 0.014238 -0.001324 0.003353 -0.007068 -0.003512
# 3 -0.006130 -0.001324 0.015554 0.006412 -0.013713 0.002528
# 4 -0.005074 0.003353 0.006412 0.031978 -0.018451 0.004298
# 5 0.008789 -0.007068 -0.013713 -0.018451 0.052852 -0.004528
# 6 -0.003954 -0.003512 0.002528 0.004298 -0.004528 0.036373
#
#
# Mechanical properties :
#
#
# Convention : Reuss Voigt Hill
#
# Bulk Modulus (GPa) = 46.08699 56.09945 51.09322
# Shear Modulus (GPa) = 25.77174 33.49887 29.63530
#
# Velocity S-wave (km/s) = 3.47912 3.96655 3.73081
# Velocity P-wave (km/s) = 6.14694 6.87942 6.52347
#
# Compressibility (1/GPa) = 0.02169810
#
# Stress axis : x y z
#
# Youngs Moduli (GPa) = 72.22638 70.23433 64.29399
#
# Poissons Ratio (x) = 0.24688 0.39413
# Poissons Ratio (y) = 0.25388 0.08514
# Poissons Ratio (z) = 0.44276 0.09301
#
# Static dielectric constant tensor:
#      x y z
#    x 5.025740 0.153570 -0.683390 
#    y 0.153570 3.821360 -0.173980 
#    z -0.683390 -0.173980 4.624610 
# 
# 
# High freq. dielectric constant tensor:
#      x y z
#    x 1.840110 0.003230 0.008680 
#    y 0.003230 1.825080 -0.005480 
#    z 0.008680 -0.005480 1.849210 
# 
# From -- ./inp_files/296125.got.cif
#   From: 2010.06.25/outbox.cif.g09.slc.cpg/sg2_149_cif.got.tgz:296125.got - 2010.06.27 13:26:56.
