data_PCOD8029266
_publ_section_title
;
Structure prediction by ZEFSAII (Michael W. Deem and Ramdas Pophale) SiO2 
 PCOD8029266
Probable space group: P -1
;
_chemical_formula_sum "Si O2"
_cell_formula_units_Z 14
_cell_length_a 11.838182
_cell_length_b 19.895867
_cell_length_c 14.805215
_cell_angle_alpha 31.379382
_cell_angle_beta 145.665016
_cell_angle_gamma 159.581029
_cell_volume 627.126719
_symmetry_space_group_name_H-M "P -1"
_symmetry_group_IT_number 2
_symmetry_cell_setting 'triclinic'
loop_
_space_group_symop_operation_xyz
x,y,z
-x,-y,-z
loop_
_atom_site_type_symbol
_atom_site_label
_atom_site_fract_x
_atom_site_fract_y
_atom_site_fract_z
Si Si1 0.832186 0.489474 0.152549
Si Si2 0.288561 0.368754 0.847499
Si Si3 0.258554 0.903645 0.064710
Si Si4 0.449042 0.476746 0.344602
Si Si5 0.671662 0.338287 0.409409
Si Si6 0.570387 0.326295 0.741496
Si Si7 0.175578 0.957127 0.637264
O O1 0.749062 0.353498 0.338024
O O2 0.052290 0.523919 0.187054
O O3 0.499276 0.354782 0.036105
O O4 0.019396 0.712053 0.056342
O O5 0.278683 0.370255 0.729930
O O6 0.467849 0.588132 0.752836
O O7 0.919776 0.171460 0.869341
O O8 0.335218 0.083144 0.869836
O O9 0.585431 0.982213 0.198606
O O10 0.487517 0.362646 0.554552
O O11 0.482720 0.616598 0.270200
O O12 0.089985 0.288508 0.278060
O O13 0.000000 0.500000 0.500000
O O14 0.399452 0.097611 0.536003
O O15 0.000000 0.000000 0.500000
#
# Coordination Sequence:
#
# PCOD8029266 Si02
#       7
#     2   2   2   2   2   2   2
#     4  11  23  40  67  97 130 166 210 266 317 378
#     4  11  23  41  66  96 130 168 208 267 317 378
#     4  11  24  42  67 100 127 166 214 265 318 372
#     4  11  26  45  65  91 129 174 213 260 327 375
#     4  11  20  39  63  99 132 163 205 267 320 372
#     4  11  26  45  64  92 130 169 217 267 311 386
#     4  12  23  38  70  98 127 169 212 261 320 381
#
# _framework density 22.324037000000001
#
# number of rings (size 3 to 8) (size 9 to 14) (size 15 to 20)
#    0.000    0.857    4.286    4.714    4.000    2.857 
#    0.000    0.714    0.000    0.000    0.000    0.000 
#    0.000    0.000    0.000    0.000    0.000    0.000 
#
# Total GULP energy -173609.201678 kJ/mol
# GULP energy per Si atom -12400.657263 kJ/mol
# Density = 2.227323 g / cm^3
# Si number density = 22.324037 Si / 1000 Ang^3
#
#
#
# Elastic Constant Matrix: (Units=GPa)
#
#
# Indices 1 2 3 4 5 6 
#
# 1 120.5060 23.2582 42.4540 -6.2799 -12.9593 26.8340
# 2 23.2582 61.0678 27.6504 5.5657 2.7096 15.6062
# 3 42.4540 27.6504 110.5049 1.5518 -0.6515 9.1536
# 4 -6.2799 5.5657 1.5518 40.2355 7.3094 -1.9591
# 5 -12.9593 2.7096 -0.6515 7.3094 32.6841 -0.8751
# 6 26.8340 15.6062 9.1536 -1.9591 -0.8751 30.0564
#
#
#
# Elastic Compliance Matrix: (Units=1/GPa)
#
#
# Indices 1 2 3 4 5 6 
#
# 1 0.012384 -0.000946 -0.003743 0.000949 0.004455 -0.009234
# 2 -0.000946 0.021342 -0.004181 -0.003062 -0.001790 -0.009215
# 3 -0.003743 -0.004181 0.011365 -0.000198 -0.000813 0.002015
# 4 0.000949 -0.003062 -0.000198 0.026500 -0.005236 0.002378
# 5 0.004455 -0.001790 -0.000813 -0.005236 0.033608 -0.002163
# 6 -0.009234 -0.009215 0.002015 0.002378 -0.002163 0.045778
#
#
# Mechanical properties :
#
#
# Convention : Reuss Voigt Hill
#
# Bulk Modulus (GPa) = 36.56261 53.20043 44.88152
# Shear Modulus (GPa) = 28.11608 33.84295 30.97952
#
# Velocity S-wave (km/s) = 3.55273 3.89779 3.72925
# Velocity P-wave (km/s) = 5.76566 6.64378 6.22023
#
# Compressibility (1/GPa) = 0.02735034
#
# Stress axis : x y z
#
# Youngs Moduli (GPa) = 80.74663 46.85566 87.99188
#
# Poissons Ratio (x) = 0.04434 0.32938
# Poissons Ratio (y) = 0.07641 0.36788
# Poissons Ratio (z) = 0.30226 0.19590
#
# Static dielectric constant tensor:
#      x y z
#    x 4.065880 0.434570 -0.100000 
#    y 0.434570 3.896820 -0.047520 
#    z -0.100000 -0.047520 4.276100 
# 
# 
# High freq. dielectric constant tensor:
#      x y z
#    x 1.873060 0.035960 -0.011410 
#    y 0.035960 1.854890 0.003140 
#    z -0.011410 0.003140 1.894690 
# 
# From -- ./inp_files/206849.got.cif
#   From: 2010.06.25/outbox.cif.g09.slc.cpg/sg2_104_cif.got.tgz:206849.got - 2010.06.27 13:26:56.
