data_PCOD8029989
_publ_section_title
;
Structure prediction by ZEFSAII (Michael W. Deem and Ramdas Pophale) SiO2 
 PCOD8029989
Probable space group: P -1
;
_chemical_formula_sum "Si O2"
_cell_formula_units_Z 16
_cell_length_a 16.758824
_cell_length_b 11.426615
_cell_length_c 8.980270
_cell_angle_alpha 80.424530
_cell_angle_beta 118.920476
_cell_angle_gamma 48.499261
_cell_volume 755.053469
_symmetry_space_group_name_H-M "P -1"
_symmetry_group_IT_number 2
_symmetry_cell_setting 'triclinic'
loop_
_space_group_symop_operation_xyz
x,y,z
-x,-y,-z
loop_
_atom_site_type_symbol
_atom_site_label
_atom_site_fract_x
_atom_site_fract_y
_atom_site_fract_z
Si Si1 0.640340 0.906289 0.752734
Si Si2 0.977775 0.150744 0.866273
Si Si3 0.445728 0.406001 0.295374
Si Si4 0.587060 0.336451 0.975005
Si Si5 0.820217 0.904756 0.739605
Si Si6 0.023047 0.102099 0.569821
Si Si7 0.576198 0.646526 0.402903
Si Si8 0.843831 0.454775 0.099417
O O1 0.779739 0.821695 0.791921
O O2 0.500000 0.000000 0.500000
O O3 0.532614 0.108233 0.731422
O O4 0.753978 0.683475 0.996721
O O5 0.787404 0.428024 0.660893
O O6 0.994030 0.116906 0.713409
O O7 0.129307 0.066885 0.083346
O O8 0.000000 0.000000 0.000000
O O9 0.372059 0.611836 0.125696
O O10 0.486406 0.369732 0.516080
O O11 0.636298 0.158781 0.442219
O O12 0.297789 0.469741 0.128104
O O13 0.463123 0.371325 0.788489
O O14 0.500000 0.500000 0.000000
O O15 0.778912 0.068656 0.249829
O O16 0.976586 0.729669 0.796175
O O17 0.886866 0.349022 0.321265
O O18 0.000000 0.000000 0.500000
#
# Coordination Sequence:
#
# PCOD8029989 Si02
#       8
#     2   2   2   2   2   2   2   2
#     4  11  22  44  70  99 137 182 235 286 329 413
#     4  12  23  42  68 101 139 176 231 285 341 418
#     4  11  21  41  68  98 137 170 226 285 344 404
#     4  12  24  42  65  96 137 179 223 285 355 415
#     4  11  22  41  70 102 127 181 234 276 347 404
#     4  12  24  40  64  97 138 178 224 289 351 407
#     4  11  23  41  67  99 131 177 235 276 343 401
#     4  12  23  43  67 102 136 179 226 288 345 404
#
# _framework density 21.190553000000001
#
# number of rings (size 3 to 8) (size 9 to 14) (size 15 to 20)
#    0.000    0.500    5.000    6.000    0.000    0.000 
#    0.000    3.125    0.000    0.000    0.000    0.000 
#    0.000    0.000    0.000    0.000    0.000    0.000 
#
# Total GULP energy -198370.335547 kJ/mol
# GULP energy per Si atom -12398.145972 kJ/mol
# Density = 2.114232 g / cm^3
# Si number density = 21.190553 Si / 1000 Ang^3
#
#
#
# Elastic Constant Matrix: (Units=GPa)
#
#
# Indices 1 2 3 4 5 6 
#
# 1 103.7845 42.9194 53.9645 1.3374 4.4796 7.5030
# 2 42.9194 121.8434 55.1126 -0.5353 -7.7857 -5.6747
# 3 53.9645 55.1126 123.8393 -10.2508 -1.4116 0.6817
# 4 1.3374 -0.5353 -10.2508 43.1675 -2.9926 2.8869
# 5 4.4796 -7.7857 -1.4116 -2.9926 47.8037 -4.3740
# 6 7.5030 -5.6747 0.6817 2.8869 -4.3740 36.9306
#
#
#
# Elastic Compliance Matrix: (Units=1/GPa)
#
#
# Indices 1 2 3 4 5 6 
#
# 1 0.013713 -0.002973 -0.004788 -0.001538 -0.002310 -0.003308
# 2 -0.002973 0.011210 -0.003740 -0.000686 0.002199 0.002710
# 3 -0.004788 -0.003740 0.012078 0.002998 0.000383 -0.000014
# 4 -0.001538 -0.000686 0.002998 0.024124 0.001489 -0.001558
# 5 -0.002310 0.002199 0.000383 0.001489 0.021898 0.003277
# 6 -0.003308 0.002710 -0.000014 -0.001558 0.003277 0.028676
#
#
# Mechanical properties :
#
#
# Convention : Reuss Voigt Hill
#
# Bulk Modulus (GPa) = 71.43095 72.60668 72.01882
# Shear Modulus (GPa) = 35.87643 38.74507 37.31075
#
# Velocity S-wave (km/s) = 4.11912 4.28063 4.20065
# Velocity P-wave (km/s) = 7.51032 7.66615 7.58863
#
# Compressibility (1/GPa) = 0.01399953
#
# Stress axis : x y z
#
# Youngs Moduli (GPa) = 72.92321 89.20741 82.79361
#
# Poissons Ratio (x) = 0.26523 0.39640
# Poissons Ratio (y) = 0.21681 0.30963
# Poissons Ratio (z) = 0.34915 0.33361
#
# Static dielectric constant tensor:
#      x y z
#    x 3.814200 0.271030 -0.032930 
#    y 0.271030 3.350300 0.125080 
#    z -0.032930 0.125080 3.998680 
# 
# 
# High freq. dielectric constant tensor:
#      x y z
#    x 1.826050 -0.006780 0.013450 
#    y -0.006780 1.822930 -0.012500 
#    z 0.013450 -0.012500 1.847880 
# 
# From -- ./inp_files/333268.got.cif
#   From: 2010.06.25/outbox.cif.g09.slc.cpg/sg2_167_cif.got.tgz:333268.got - 2010.06.27 13:26:56.
