data_PCOD8029583
_publ_section_title
;
Structure prediction by ZEFSAII (Michael W. Deem and Ramdas Pophale) SiO2 
 PCOD8029583
Probable space group: P -1
;
_chemical_formula_sum "Si O2"
_cell_formula_units_Z 12
_cell_length_a 21.499945
_cell_length_b 10.662621
_cell_length_c 20.860205
_cell_angle_alpha 34.448564
_cell_angle_beta 167.011937
_cell_angle_gamma 146.994147
_cell_volume 584.362215
_symmetry_space_group_name_H-M "P -1"
_symmetry_group_IT_number 2
_symmetry_cell_setting 'triclinic'
loop_
_space_group_symop_operation_xyz
x,y,z
-x,-y,-z
loop_
_atom_site_type_symbol
_atom_site_label
_atom_site_fract_x
_atom_site_fract_y
_atom_site_fract_z
Si Si1 0.186529 0.067439 0.938606
Si Si2 0.432361 0.252326 0.567723
Si Si3 0.089169 0.784604 0.711200
Si Si4 0.842095 0.732772 0.308264
Si Si5 0.753610 0.477982 0.137982
Si Si6 0.354429 0.182091 0.664183
O O1 0.268490 0.225595 0.890502
O O2 0.244292 0.252281 0.976909
O O3 0.872855 0.903102 0.692617
O O4 0.368581 0.887958 0.204169
O O5 0.500000 0.500000 0.500000
O O6 0.470026 0.287965 0.667054
O O7 0.140191 0.600945 0.789112
O O8 0.808658 0.657004 0.527579
O O9 0.379683 0.870619 0.009134
O O10 0.000000 0.000000 0.500000
O O11 0.002221 0.529617 0.559549
O O12 0.564085 0.681207 0.096865
O O13 0.094234 0.949421 0.495059
#
# Coordination Sequence:
#
# PCOD8029583 Si02
#       6
#     2   2   2   2   2   2
#     4  11  23  39  60  90 121 152 206 251 305 358
#     4  11  24  44  69  86 110 154 209 274 308 333
#     4  12  24  35  58  86 132 170 196 227 282 372
#     4  11  21  35  57  87 127 164 197 237 289 364
#     4  12  23  35  56  88 131 170 189 230 298 367
#     4  11  23  39  57  90 120 158 212 243 286 352
#
# _framework density 20.535209999999999
#
# number of rings (size 3 to 8) (size 9 to 14) (size 15 to 20)
#    0.000    0.667    1.667    9.000    0.000    0.000 
#    0.000    0.000    0.000    6.000    0.000    0.000 
#    0.000    0.000    0.000    0.000    0.000    0.000 
#
# Total GULP energy -148690.732905 kJ/mol
# GULP energy per Si atom -12390.894409 kJ/mol
# Density = 2.048847 g / cm^3
# Si number density = 20.535210 Si / 1000 Ang^3
#
#
#
# Elastic Constant Matrix: (Units=GPa)
#
#
# Indices 1 2 3 4 5 6 
#
# 1 106.6210 69.8477 49.4387 -15.7991 10.0729 -13.1759
# 2 69.8477 109.9069 45.1858 -26.0569 10.0979 -10.7538
# 3 49.4387 45.1858 162.0019 -15.4698 14.4011 -7.5162
# 4 -15.7991 -26.0569 -15.4698 32.2709 -8.0131 4.0274
# 5 10.0729 10.0979 14.4011 -8.0131 34.6773 0.4498
# 6 -13.1759 -10.7538 -7.5162 4.0274 0.4498 17.8347
#
#
#
# Elastic Compliance Matrix: (Units=1/GPa)
#
#
# Indices 1 2 3 4 5 6 
#
# 1 0.017637 -0.009847 -0.002338 -0.001689 -0.001760 0.006533
# 2 -0.009847 0.018079 -0.001129 0.009141 0.000163 0.001082
# 3 -0.002338 -0.001129 0.007490 0.000996 -0.001880 0.000571
# 4 -0.001689 0.009141 0.000996 0.040275 0.006781 -0.004582
# 5 -0.001760 0.000163 -0.001880 0.006781 0.031705 -0.004325
# 6 0.006533 0.001082 0.000571 -0.004582 -0.004325 0.062934
#
#
# Mechanical properties :
#
#
# Convention : Reuss Voigt Hill
#
# Bulk Modulus (GPa) = 60.31911 78.60824 69.46367
# Shear Modulus (GPa) = 23.77863 31.22707 27.50285
#
# Velocity S-wave (km/s) = 3.40655 3.90379 3.66362
# Velocity P-wave (km/s) = 6.70150 7.66044 7.19696
#
# Compressibility (1/GPa) = 0.01657850
#
# Stress axis : x y z
#
# Youngs Moduli (GPa) = 56.69847 55.31326 133.51584
#
# Poissons Ratio (x) = 0.54468 0.31210
# Poissons Ratio (y) = 0.55832 0.15072
# Poissons Ratio (z) = 0.13254 0.06244
#
# Static dielectric constant tensor:
#      x y z
#    x 4.254710 -0.256850 0.363280 
#    y -0.256850 3.434620 -0.061930 
#    z 0.363280 -0.061930 4.343020 
# 
# 
# High freq. dielectric constant tensor:
#      x y z
#    x 1.794540 -0.030020 0.019740 
#    y -0.030020 1.761130 0.004870 
#    z 0.019740 0.004870 1.840640 
# 
# From -- ./inp_files/594818.got.cif
#   From: 2010.06.25/outbox.cif.g09.slc.cpg/sg2_298_cif.got.tgz:594818.got - 2010.06.27 13:26:56.
