data_PCOD8029941
_publ_section_title
;
Structure prediction by ZEFSAII (Michael W. Deem and Ramdas Pophale) SiO2 
 PCOD8029941
Probable space group: P -1
;
_chemical_formula_sum "Si O2"
_cell_formula_units_Z 16
_cell_length_a 9.308467
_cell_length_b 6.535092
_cell_length_c 24.521273
_cell_angle_alpha 56.815771
_cell_angle_beta 48.931805
_cell_angle_gamma 90.293638
_cell_volume 768.061937
_symmetry_space_group_name_H-M "P -1"
_symmetry_group_IT_number 2
_symmetry_cell_setting 'triclinic'
loop_
_space_group_symop_operation_xyz
x,y,z
-x,-y,-z
loop_
_atom_site_type_symbol
_atom_site_label
_atom_site_fract_x
_atom_site_fract_y
_atom_site_fract_z
Si Si1 0.363189 0.880049 0.963143
Si Si2 0.184741 0.893953 0.119542
Si Si3 0.558704 0.647571 0.521481
Si Si4 0.589354 0.810608 0.200538
Si Si5 0.727914 0.335473 0.600403
Si Si6 0.970458 0.244434 0.121784
Si Si7 0.782876 0.285598 0.345369
Si Si8 0.388748 0.744398 0.719779
O O1 0.577244 0.902490 0.935778
O O2 0.456752 0.141282 0.857029
O O3 0.224199 0.915779 0.041024
O O4 0.211835 0.573846 0.010354
O O5 0.046517 0.547483 0.223370
O O6 0.025264 0.005834 0.157913
O O7 0.500000 0.500000 0.500000
O O8 0.630162 0.492222 0.568621
O O9 0.313727 0.594299 0.604474
O O10 0.771735 0.001901 0.413062
O O11 0.354864 0.684382 0.313373
O O12 0.652982 0.573233 0.216038
O O13 0.811749 0.124782 0.124044
O O14 0.000000 0.500000 0.500000
O O15 0.623502 0.002791 0.653427
O O16 0.828622 0.261975 0.203051
O O17 0.596868 0.175051 0.358674
#
# Coordination Sequence:
#
# PCOD8029941 Si02
#       8
#     2   2   2   2   2   2   2   2
#     4  11  25  42  63  97 130 169 206 264 323 376
#     4  11  24  42  65  95 132 163 212 266 320 367
#     4  11  23  39  67  93 121 165 217 258 307 376
#     4  11  24  43  66  93 129 170 213 255 319 383
#     4  11  25  43  62  96 131 164 207 263 321 375
#     4  11  21  41  68  92 125 168 214 260 306 378
#     4  11  21  41  65  93 121 167 216 256 310 371
#     4  11  21  42  68  89 126 166 209 263 308 374
#
# _framework density 20.831651999999998
#
# number of rings (size 3 to 8) (size 9 to 14) (size 15 to 20)
#    0.000    1.000    5.000    1.500    0.000    6.500 
#    0.000    0.000    0.000    0.000    0.000    0.000 
#    0.000    0.000    0.000    0.000    0.000    0.000 
#
# Total GULP energy -198355.559418 kJ/mol
# GULP energy per Si atom -12397.222464 kJ/mol
# Density = 2.078424 g / cm^3
# Si number density = 20.831652 Si / 1000 Ang^3
#
#
#
# Elastic Constant Matrix: (Units=GPa)
#
#
# Indices 1 2 3 4 5 6 
#
# 1 71.1513 39.5829 42.6891 2.8854 2.4991 6.7606
# 2 39.5829 120.1974 52.2640 7.2203 -0.1490 3.6476
# 3 42.6891 52.2640 129.2838 4.8325 1.7098 8.2613
# 4 2.8854 7.2203 4.8325 30.7873 1.6281 1.2055
# 5 2.4991 -0.1490 1.7098 1.6281 43.4011 1.8557
# 6 6.7606 3.6476 8.2613 1.2055 1.8557 23.1750
#
#
#
# Elastic Compliance Matrix: (Units=1/GPa)
#
#
# Indices 1 2 3 4 5 6 
#
# 1 0.019511 -0.004397 -0.004442 0.000075 -0.000823 -0.003354
# 2 -0.004397 0.011181 -0.003050 -0.001781 0.000450 0.000667
# 3 -0.004442 -0.003050 0.010578 -0.000448 -0.000071 -0.001966
# 4 0.000075 -0.001781 -0.000448 0.033072 -0.001182 -0.001207
# 5 -0.000823 0.000450 -0.000071 -0.001182 0.023205 -0.001602
# 6 -0.003354 0.000667 -0.001966 -0.001207 -0.001602 0.044915
#
#
# Mechanical properties :
#
#
# Convention : Reuss Voigt Hill
#
# Bulk Modulus (GPa) = 57.17359 65.52273 61.34816
# Shear Modulus (GPa) = 29.05752 31.87910 30.46831
#
# Velocity S-wave (km/s) = 3.73885 3.91617 3.82854
# Velocity P-wave (km/s) = 6.79292 7.20904 7.00407
#
# Compressibility (1/GPa) = 0.01749059
#
# Stress axis : x y z
#
# Youngs Moduli (GPa) = 51.25392 89.43467 94.53497
#
# Poissons Ratio (x) = 0.39327 0.41995
# Poissons Ratio (y) = 0.22538 0.28835
# Poissons Ratio (z) = 0.22769 0.27279
#
# Static dielectric constant tensor:
#      x y z
#    x 3.944800 0.117830 0.023740 
#    y 0.117830 4.033630 -0.112540 
#    z 0.023740 -0.112540 3.909410 
# 
# 
# High freq. dielectric constant tensor:
#      x y z
#    x 1.794780 0.006260 0.006050 
#    y 0.006260 1.831680 -0.000630 
#    z 0.006050 -0.000630 1.821580 
# 
# From -- ./inp_files/39697.got.cif
#   From: 2010.06.25/outbox.cif.g09.slc.cpg/sg2_20_cif.got.tgz:39697.got - 2010.06.27 13:26:56.
