data_PCOD8029317
_publ_section_title
;
Structure prediction by ZEFSAII (Michael W. Deem and Ramdas Pophale) SiO2 
 PCOD8029317
Probable space group: P -1
;
_chemical_formula_sum "Si O2"
_cell_formula_units_Z 16
_cell_length_a 15.054895
_cell_length_b 19.056806
_cell_length_c 24.928456
_cell_angle_alpha 158.515772
_cell_angle_beta 161.082436
_cell_angle_gamma 30.460704
_cell_volume 839.091371
_symmetry_space_group_name_H-M "P -1"
_symmetry_group_IT_number 2
_symmetry_cell_setting 'triclinic'
loop_
_space_group_symop_operation_xyz
x,y,z
-x,-y,-z
loop_
_atom_site_type_symbol
_atom_site_label
_atom_site_fract_x
_atom_site_fract_y
_atom_site_fract_z
Si Si1 0.204801 0.324704 0.890512
Si Si2 0.840046 0.065971 0.795450
Si Si3 0.704673 0.227954 0.726222
Si Si4 0.232873 0.600246 0.928509
Si Si5 0.947924 0.249147 0.574299
Si Si6 0.728071 0.088229 0.906352
Si Si7 0.575770 0.021917 0.891496
Si Si8 0.191604 0.899104 0.418245
O O1 0.139156 0.278097 0.757211
O O2 0.922507 0.266083 0.721340
O O3 0.430193 0.200847 0.957168
O O4 0.320108 0.547505 0.123181
O O5 0.886994 0.162690 0.832568
O O6 0.610597 0.877143 0.526410
O O7 0.727168 0.219760 0.879467
O O8 0.125808 0.995806 0.926668
O O9 0.865896 0.184160 0.733451
O O10 0.978641 0.445583 0.696043
O O11 0.500000 0.500000 0.000000
O O12 0.181887 0.689828 0.904838
O O13 0.626453 0.181876 0.358441
O O14 0.051733 0.090112 0.482589
O O15 0.587668 0.075697 0.874444
O O16 0.521155 0.960011 0.655968
O O17 0.000000 0.000000 0.000000
#
# Coordination Sequence:
#
# PCOD8029317 Si02
#       8
#     2   2   2   2   2   2   2   2
#     4  11  21  38  68  91 118 165 207 252 307 371
#     4  11  24  40  61  87 128 167 199 255 308 364
#     4  11  23  41  60  87 124 167 208 240 309 377
#     4  12  21  37  63  93 120 159 208 247 304 367
#     4  11  21  39  67  95 121 163 206 255 311 364
#     4  12  21  36  62  92 125 153 197 264 308 346
#     4  11  22  42  63  93 126 156 206 263 310 356
#     4  11  20  40  63  90 123 161 205 252 308 368
#
# _framework density 19.068247
#
# number of rings (size 3 to 8) (size 9 to 14) (size 15 to 20)
#    0.000    0.750    7.500    1.125    0.000    1.000 
#    2.250    2.500    0.000    0.000    0.000    0.000 
#    0.000    0.000    0.000    0.000    0.000    0.000 
#
# Total GULP energy -198327.891450 kJ/mol
# GULP energy per Si atom -12395.493216 kJ/mol
# Density = 1.902485 g / cm^3
# Si number density = 19.068247 Si / 1000 Ang^3
#
#
#
# Elastic Constant Matrix: (Units=GPa)
#
#
# Indices 1 2 3 4 5 6 
#
# 1 118.1381 50.2016 44.5334 8.9590 9.5308 11.5262
# 2 50.2016 122.8506 59.9179 6.3802 7.9989 7.6782
# 3 44.5334 59.9179 105.6669 20.7188 13.7958 7.5415
# 4 8.9590 6.3802 20.7188 34.5521 6.6263 5.2689
# 5 9.5308 7.9989 13.7958 6.6263 38.3485 11.8355
# 6 11.5262 7.6782 7.5415 5.2689 11.8355 30.9628
#
#
#
# Elastic Compliance Matrix: (Units=1/GPa)
#
#
# Indices 1 2 3 4 5 6 
#
# 1 0.011048 -0.003019 -0.002670 -0.000255 -0.000326 -0.002546
# 2 -0.003019 0.012271 -0.006100 0.002262 0.000280 -0.000925
# 3 -0.002670 -0.006100 0.015763 -0.007247 -0.002780 0.000963
# 4 -0.000255 0.002262 -0.007247 0.033965 -0.002593 -0.003489
# 5 -0.000326 0.000280 -0.002780 -0.002593 0.030822 -0.010612
# 6 -0.002546 -0.000925 0.000963 -0.003489 -0.010612 0.037889
#
#
# Mechanical properties :
#
#
# Convention : Reuss Voigt Hill
#
# Bulk Modulus (GPa) = 64.49766 72.88458 68.69112
# Shear Modulus (GPa) = 29.32471 33.57288 31.44879
#
# Velocity S-wave (km/s) = 3.92584 4.20059 4.06553
# Velocity P-wave (km/s) = 7.37887 7.86337 7.62497
#
# Compressibility (1/GPa) = 0.01550444
#
# Stress axis : x y z
#
# Youngs Moduli (GPa) = 90.51392 81.49448 63.43925
#
# Poissons Ratio (x) = 0.24601 0.16939
# Poissons Ratio (y) = 0.27324 0.38697
# Poissons Ratio (z) = 0.24168 0.49710
#
# Static dielectric constant tensor:
#      x y z
#    x 3.174580 0.375200 0.467610 
#    y 0.375200 3.349660 0.071000 
#    z 0.467610 0.071000 3.406050 
# 
# 
# High freq. dielectric constant tensor:
#      x y z
#    x 1.760240 0.005260 0.019890 
#    y 0.005260 1.732800 0.015730 
#    z 0.019890 0.015730 1.731470 
# 
# From -- ./inp_files/207642.got.cif
#   From: 2010.06.25/outbox.cif.g09.slc.cpg/sg2_104_cif.got.tgz:207642.got - 2010.06.27 13:26:56.
