data_PCOD8029750
_publ_section_title
;
Structure prediction by ZEFSAII (Michael W. Deem and Ramdas Pophale) SiO2 
 PCOD8029750
Probable space group: P -1
;
_chemical_formula_sum "Si O2"
_cell_formula_units_Z 16
_cell_length_a 10.435549
_cell_length_b 12.701373
_cell_length_c 12.332328
_cell_angle_alpha 149.123102
_cell_angle_beta 101.556458
_cell_angle_gamma 69.198508
_cell_volume 765.370110
_symmetry_space_group_name_H-M "P -1"
_symmetry_group_IT_number 2
_symmetry_cell_setting 'triclinic'
loop_
_space_group_symop_operation_xyz
x,y,z
-x,-y,-z
loop_
_atom_site_type_symbol
_atom_site_label
_atom_site_fract_x
_atom_site_fract_y
_atom_site_fract_z
Si Si1 0.505123 0.356117 0.978879
Si Si2 0.437808 0.317499 0.352940
Si Si3 0.958608 0.804141 0.361597
Si Si4 0.697069 0.900725 0.012922
Si Si5 0.151453 0.963075 0.035713
Si Si6 0.797199 0.652863 0.019359
Si Si7 0.318984 0.485506 0.702681
Si Si8 0.234020 0.101617 0.387870
O O1 0.356760 0.339720 0.967910
O O2 0.624401 0.114440 0.769890
O O3 0.500000 0.500000 0.000000
O O4 0.542894 0.487579 0.200126
O O5 0.500000 0.500000 0.500000
O O6 0.341754 0.298330 0.219951
O O7 0.341637 0.381108 0.496600
O O8 0.555973 0.084359 0.195079
O O9 0.852111 0.752554 0.217159
O O10 0.883092 0.895060 0.542696
O O11 0.000000 0.000000 0.500000
O O12 0.100413 0.591838 0.210426
O O13 0.760329 0.015542 0.034631
O O14 0.795404 0.802783 0.046277
O O15 0.162992 0.124367 0.276210
O O16 0.199789 0.724181 0.887160
O O17 0.000000 0.000000 0.000000
O O18 0.268726 0.318510 0.615854
#
# Coordination Sequence:
#
# PCOD8029750 Si02
#       8
#     2   2   2   2   2   2   2   2
#     4  11  24  44  70  99 129 169 223 277 325 381
#     4  11  21  39  64  95 133 167 208 265 323 378
#     4  11  27  47  67  95 133 173 217 270 330 386
#     4  11  24  40  65  98 133 167 216 266 319 392
#     4  11  26  42  63  96 135 175 214 263 322 390
#     4  11  26  44  68  99 132 170 219 271 324 388
#     4  11  23  42  67  95 131 170 217 271 326 381
#     4  11  25  45  69  97 132 171 221 271 322 392
#
# _framework density 20.904919
#
# number of rings (size 3 to 8) (size 9 to 14) (size 15 to 20)
#    0.000    1.000    2.500    3.000    7.000    9.500 
#    0.000    0.000    0.000    0.000    0.000    0.000 
#    0.000    0.000    0.000    0.000    0.000    0.000 
#
# Total GULP energy -198401.311616 kJ/mol
# GULP energy per Si atom -12400.081976 kJ/mol
# Density = 2.085734 g / cm^3
# Si number density = 20.904919 Si / 1000 Ang^3
#
#
#
# Elastic Constant Matrix: (Units=GPa)
#
#
# Indices 1 2 3 4 5 6 
#
# 1 122.5067 34.6405 42.2115 3.6953 2.9015 -3.5822
# 2 34.6405 111.5928 29.3456 4.4472 -0.1560 -5.5169
# 3 42.2115 29.3456 99.9101 1.0492 5.2754 -3.7257
# 4 3.6953 4.4472 1.0492 28.4090 9.7457 3.9889
# 5 2.9015 -0.1560 5.2754 9.7457 36.8611 -0.3819
# 6 -3.5822 -5.5169 -3.7257 3.9889 -0.3819 42.8834
#
#
#
# Elastic Compliance Matrix: (Units=1/GPa)
#
#
# Indices 1 2 3 4 5 6 
#
# 1 0.010038 -0.002120 -0.003594 -0.000870 -0.000051 0.000334
# 2 -0.002120 0.010305 -0.002123 -0.001759 0.000991 0.001137
# 3 -0.003594 -0.002123 0.012247 0.000878 -0.001707 0.000394
# 4 -0.000870 -0.001759 0.000878 0.039763 -0.010619 -0.004016
# 5 -0.000051 0.000991 -0.001707 -0.010619 0.030202 0.001232
# 6 0.000334 0.001137 0.000394 -0.004016 0.001232 0.023912
#
#
# Mechanical properties :
#
#
# Convention : Reuss Voigt Hill
#
# Bulk Modulus (GPa) = 59.11381 60.71165 59.91273
# Shear Modulus (GPa) = 33.83464 36.81818 35.32641
#
# Velocity S-wave (km/s) = 4.02742 4.20124 4.11525
# Velocity P-wave (km/s) = 7.06864 7.25526 7.16256
#
# Compressibility (1/GPa) = 0.01691652
#
# Stress axis : x y z
#
# Youngs Moduli (GPa) = 99.62350 97.04020 81.65577
#
# Poissons Ratio (x) = 0.20569 0.29347
# Poissons Ratio (y) = 0.21117 0.17333
# Poissons Ratio (z) = 0.35805 0.20599
#
# Static dielectric constant tensor:
#      x y z
#    x 3.847130 -1.126090 0.642390 
#    y -1.126090 -0.565200 1.959030 
#    z 0.642390 1.959030 3.155420 
# 
# 
# High freq. dielectric constant tensor:
#      x y z
#    x 1.823850 0.006380 0.007140 
#    y 0.006380 1.827960 -0.002260 
#    z 0.007140 -0.002260 1.832480 
# 
# From -- ./inp_files/429261.got.cif
#   From: 2010.06.25/outbox.cif.g09.slc.cpg/sg2_215_cif.got.tgz:429261.got - 2010.06.27 13:26:56.
