data_PCOD8029661
_publ_section_title
;
Structure prediction by ZEFSAII (Michael W. Deem and Ramdas Pophale) SiO2 
 PCOD8029661
Probable space group: P -1
;
_chemical_formula_sum "Si O2"
_cell_formula_units_Z 16
_cell_length_a 22.291671
_cell_length_b 13.733439
_cell_length_c 13.488179
_cell_angle_alpha 148.970393
_cell_angle_beta 158.189943
_cell_angle_gamma 29.699579
_cell_volume 731.006273
_symmetry_space_group_name_H-M "P -1"
_symmetry_group_IT_number 2
_symmetry_cell_setting 'triclinic'
loop_
_space_group_symop_operation_xyz
x,y,z
-x,-y,-z
loop_
_atom_site_type_symbol
_atom_site_label
_atom_site_fract_x
_atom_site_fract_y
_atom_site_fract_z
Si Si1 0.232966 0.083864 0.554099
Si Si2 0.748706 0.576740 0.008652
Si Si3 0.706277 0.403357 0.218500
Si Si4 0.953480 0.241569 0.640580
Si Si5 0.601195 0.300852 0.639571
Si Si6 0.219819 0.442760 0.189881
Si Si7 0.143135 0.918202 0.988206
Si Si8 0.135596 0.317436 0.407445
O O1 0.301712 0.182698 0.836581
O O2 0.218537 0.221623 0.555087
O O3 0.053575 0.065905 0.294534
O O4 0.375285 0.858338 0.553718
O O5 0.936747 0.463194 0.249111
O O6 0.605461 0.507448 0.779735
O O7 0.763418 0.518701 0.866030
O O8 0.805544 0.363134 0.440345
O O9 0.763665 0.186434 0.061398
O O10 0.757228 0.556808 0.362606
O O11 0.500000 0.500000 0.000000
O O12 0.883738 0.339584 0.726488
O O13 0.000000 0.000000 0.500000
O O14 0.129042 0.280575 0.922626
O O15 0.416930 0.345954 0.450866
O O16 0.758739 0.209978 0.878239
O O17 0.146779 0.142901 0.192579
#
# Coordination Sequence:
#
# PCOD8029661 Si02
#       8
#     2   2   2   2   2   2   2   2
#     4  11  21  37  66  99 127 165 203 258 326 387
#     4  12  21  38  65  91 128 170 203 251 321 384
#     4  12  26  43  67  97 123 166 224 273 314 369
#     4  11  27  47  69  87 127 178 221 264 319 373
#     4  11  23  39  63 100 134 160 208 260 317 390
#     4  11  26  44  63  92 128 172 216 263 311 379
#     4  11  21  38  67  96 128 163 207 262 325 382
#     4  11  21  38  65  93 127 161 203 258 323 378
#
# _framework density 21.887637999999999
#
# number of rings (size 3 to 8) (size 9 to 14) (size 15 to 20)
#    0.000    0.750    5.000    3.000    1.750    5.000 
#    0.000    0.000    0.000    0.000    0.000    0.000 
#    0.000    0.000    0.000    0.000    0.000    0.000 
#
# Total GULP energy -198452.290075 kJ/mol
# GULP energy per Si atom -12403.268130 kJ/mol
# Density = 2.183782 g / cm^3
# Si number density = 21.887638 Si / 1000 Ang^3
#
#
#
# Elastic Constant Matrix: (Units=GPa)
#
#
# Indices 1 2 3 4 5 6 
#
# 1 67.4404 9.3516 33.3506 1.5209 2.4453 -19.9554
# 2 9.3516 69.2797 38.3069 16.8424 16.3038 -25.6195
# 3 33.3506 38.3069 104.3778 12.8458 20.3644 -21.2708
# 4 1.5209 16.8424 12.8458 33.6040 -14.2963 -3.2040
# 5 2.4453 16.3038 20.3644 -14.2963 41.3736 1.6073
# 6 -19.9554 -25.6195 -21.2708 -3.2040 1.6073 32.0181
#
#
#
# Elastic Compliance Matrix: (Units=1/GPa)
#
#
# Indices 1 2 3 4 5 6 
#
# 1 0.021117 0.006617 -0.005502 -0.001752 -0.002326 0.014742
# 2 0.006617 0.039398 -0.001323 -0.027442 -0.026042 0.033331
# 3 -0.005502 -0.001323 0.016217 -0.009213 -0.010548 0.005893
# 4 -0.001752 -0.027442 -0.009213 0.060631 0.037373 -0.024979
# 5 -0.002326 -0.026042 -0.010548 0.037373 0.053773 -0.028254
# 6 0.014742 0.033331 0.005893 -0.024979 -0.028254 0.069924
#
#
# Mechanical properties :
#
#
# Convention : Reuss Voigt Hill
#
# Bulk Modulus (GPa) = 13.10348 44.79066 28.94707
# Shear Modulus (GPa) = 17.42675 32.07174 24.74925
#
# Velocity S-wave (km/s) = 2.82475 3.83206 3.36630
# Velocity P-wave (km/s) = 4.07905 6.33150 5.32572
#
# Compressibility (1/GPa) = 0.07631563
#
# Stress axis : x y z
#
# Youngs Moduli (GPa) = 47.35484 25.38198 61.66444
#
# Poissons Ratio (x) = -0.16794 0.33928
# Poissons Ratio (y) = -0.31333 0.08157
# Poissons Ratio (z) = 0.26055 0.03357
#
# Static dielectric constant tensor:
#      x y z
#    x 3.962820 -0.292700 -0.107320 
#    y -0.292700 4.070230 0.169220 
#    z -0.107320 0.169220 4.146140 
# 
# 
# High freq. dielectric constant tensor:
#      x y z
#    x 1.857770 -0.013960 -0.006060 
#    y -0.013960 1.858430 0.010130 
#    z -0.006060 0.010130 1.873120 
# 
# From -- ./inp_files/543089.got.cif
#   From: 2010.06.25/outbox.cif.g09.slc.cpg/sg2_272_cif.got.tgz:543089.got - 2010.06.27 13:26:56.
