data_PCOD8029812
_publ_section_title
;
Structure prediction by ZEFSAII (Michael W. Deem and Ramdas Pophale) SiO2 
 PCOD8029812
Probable space group: P -1
;
_chemical_formula_sum "Si O2"
_cell_formula_units_Z 14
_cell_length_a 8.746301
_cell_length_b 20.591024
_cell_length_c 13.220942
_cell_angle_alpha 25.797724
_cell_angle_beta 48.845522
_cell_angle_gamma 66.449893
_cell_volume 630.592123
_symmetry_space_group_name_H-M "P -1"
_symmetry_group_IT_number 2
_symmetry_cell_setting 'triclinic'
loop_
_space_group_symop_operation_xyz
x,y,z
-x,-y,-z
loop_
_atom_site_type_symbol
_atom_site_label
_atom_site_fract_x
_atom_site_fract_y
_atom_site_fract_z
Si Si1 0.734977 0.329921 0.378258
Si Si2 0.716761 0.439195 0.708277
Si Si3 0.656291 0.722231 0.253447
Si Si4 0.429559 0.341396 0.175438
Si Si5 0.870374 0.096842 0.746769
Si Si6 0.305158 0.117909 0.194546
Si Si7 0.443885 0.085019 0.675466
O O1 0.622166 0.401083 0.405165
O O2 0.704432 0.152753 0.687961
O O3 0.587772 0.267030 0.425883
O O4 0.000000 0.500000 0.000000
O O5 0.771141 0.611022 0.379305
O O6 0.000000 0.500000 0.500000
O O7 0.633847 0.430914 0.871545
O O8 0.486985 0.243307 0.033401
O O9 0.625855 0.739632 0.124401
O O10 0.817934 0.917231 0.967762
O O11 0.392914 0.157310 0.494824
O O12 0.154454 0.265658 0.362292
O O13 0.500000 0.500000 0.000000
O O14 0.807315 0.068195 0.935822
O O15 0.378055 0.979046 0.334406
O O16 0.000000 0.000000 0.500000
#
# Coordination Sequence:
#
# PCOD8029812 Si02
#       7
#     2   2   2   2   2   2   2
#     4  11  21  39  73 105 135 171 237 300 346 412
#     4  12  31  48  70 107 147 192 236 291 359 429
#     4  11  23  47  71 101 139 184 237 297 349 420
#     4  12  27  46  70 103 143 189 235 293 356 427
#     4  11  21  44  73 106 135 179 243 294 356 414
#     4  12  27  47  74 101 143 190 243 289 358 423
#     4  11  24  42  71 104 137 186 235 292 354 419
#
# _framework density 22.201356000000001
#
# number of rings (size 3 to 8) (size 9 to 14) (size 15 to 20)
#    0.000    0.571    2.857    6.000    8.000    1.714 
#    0.000    0.000    0.000    0.000    0.000    0.000 
#    0.000    0.000    0.000    0.000    0.000    0.000 
#
# Total GULP energy -173474.585402 kJ/mol
# GULP energy per Si atom -12391.041814 kJ/mol
# Density = 2.215082 g / cm^3
# Si number density = 22.201356 Si / 1000 Ang^3
#
#
#
# Elastic Constant Matrix: (Units=GPa)
#
#
# Indices 1 2 3 4 5 6 
#
# 1 92.8654 35.7546 24.2525 0.6452 0.4942 -5.4522
# 2 35.7546 106.6404 37.0624 21.7616 -8.8249 0.2603
# 3 24.2525 37.0624 94.3603 9.1621 -21.8639 -0.4637
# 4 0.6452 21.7616 9.1621 27.7353 -8.8382 3.7001
# 5 0.4942 -8.8249 -21.8639 -8.8382 56.9379 1.5744
# 6 -5.4522 0.2603 -0.4637 3.7001 1.5744 38.5534
#
#
#
# Elastic Compliance Matrix: (Units=1/GPa)
#
#
# Indices 1 2 3 4 5 6 
#
# 1 0.013121 -0.004397 -0.002232 0.003292 -0.001185 0.001591
# 2 -0.004397 0.014086 -0.003595 -0.010023 -0.000721 0.000231
# 3 -0.002232 -0.003595 0.013683 -0.000106 0.004709 -0.000309
# 4 0.003292 -0.010023 -0.000106 0.046236 0.005669 -0.004137
# 5 -0.001185 -0.000721 0.004709 0.005669 0.020190 -0.001475
# 6 0.001591 0.000231 -0.000309 -0.004137 -0.001475 0.026615
#
#
# Mechanical properties :
#
#
# Convention : Reuss Voigt Hill
#
# Bulk Modulus (GPa) = 48.91983 54.22277 51.57130
# Shear Modulus (GPa) = 31.01837 37.76507 34.39172
#
# Velocity S-wave (km/s) = 3.74189 4.12882 3.94011
# Velocity P-wave (km/s) = 6.38368 6.87065 6.63164
#
# Compressibility (1/GPa) = 0.02044161
#
# Stress axis : x y z
#
# Youngs Moduli (GPa) = 76.21359 70.99065 73.08251
#
# Poissons Ratio (x) = 0.31218 0.16309
# Poissons Ratio (y) = 0.33515 0.26276
# Poissons Ratio (z) = 0.17008 0.25524
#
# Static dielectric constant tensor:
#      x y z
#    x 6.714700 -1.204960 0.839880 
#    y -1.204960 4.591610 -0.173780 
#    z 0.839880 -0.173780 4.331610 
# 
# 
# High freq. dielectric constant tensor:
#      x y z
#    x 1.884730 -0.007700 0.005470 
#    y -0.007700 1.873130 0.005800 
#    z 0.005470 0.005800 1.888000 
# 
# From -- ./inp_files/263275.got.cif
#   From: 2010.06.25/outbox.cif.g09.slc.cpg/sg2_132_cif.got.tgz:263275.got - 2010.06.27 13:26:56.
