data_PCOD8029473
_publ_section_title
;
Structure prediction by ZEFSAII (Michael W. Deem and Ramdas Pophale) SiO2 
 PCOD8029473
Probable space group: P -1
;
_chemical_formula_sum "Si O2"
_cell_formula_units_Z 16
_cell_length_a 10.815472
_cell_length_b 13.576690
_cell_length_c 12.077507
_cell_angle_alpha 126.746253
_cell_angle_beta 122.517422
_cell_angle_gamma 101.775547
_cell_volume 752.805916
_symmetry_space_group_name_H-M "P -1"
_symmetry_group_IT_number 2
_symmetry_cell_setting 'triclinic'
loop_
_space_group_symop_operation_xyz
x,y,z
-x,-y,-z
loop_
_atom_site_type_symbol
_atom_site_label
_atom_site_fract_x
_atom_site_fract_y
_atom_site_fract_z
Si Si1 0.199293 0.895781 0.069728
Si Si2 0.246569 0.283807 0.306777
Si Si3 0.064623 0.513720 0.250604
Si Si4 0.466836 0.720904 0.422428
Si Si5 0.589708 0.684164 0.820899
Si Si6 0.510784 0.116373 0.167434
Si Si7 0.655493 0.440399 0.979127
Si Si8 0.754699 0.774834 0.209191
O O1 0.034554 0.898301 0.941050
O O2 0.036057 0.680607 0.887660
O O3 0.367234 0.050445 0.355749
O O4 0.372140 0.970318 0.105755
O O5 0.390890 0.261820 0.404830
O O6 0.327070 0.459014 0.532211
O O7 0.282156 0.313608 0.210551
O O8 0.210659 0.586813 0.256663
O O9 0.225352 0.678848 0.533170
O O10 0.849461 0.463030 0.092873
O O11 0.463356 0.645892 0.256409
O O12 0.606437 0.840224 0.913766
O O13 0.707104 0.732599 0.027600
O O14 0.500000 0.000000 0.000000
O O15 0.457608 0.290437 0.876897
O O16 0.770030 0.649450 0.186874
O O17 0.000000 0.000000 0.500000
#
# Coordination Sequence:
#
# PCOD8029473 Si02
#       8
#     2   2   2   2   2   2   2   2
#     4  11  24  39  69 102 131 173 223 276 349 389
#     4  11  20  42  72 101 131 164 226 291 335 384
#     4  11  24  45  64  98 136 175 222 278 333 397
#     4  11  23  44  68 100 135 170 228 280 335 396
#     4  11  22  43  72  97 135 173 218 288 340 384
#     4  11  26  42  64 102 138 176 223 273 339 412
#     4  11  27  46  66  97 134 183 227 268 330 411
#     4  11  28  46  68  98 135 181 227 272 334 402
#
# _framework density 21.253817999999999
#
# number of rings (size 3 to 8) (size 9 to 14) (size 15 to 20)
#    0.000    1.000    5.000    1.500    5.250    3.000 
#    0.000    0.000    0.000    0.000    0.000    0.000 
#    0.000    0.000    0.000    0.000    0.000    0.000 
#
# Total GULP energy -198313.502410 kJ/mol
# GULP energy per Si atom -12394.593901 kJ/mol
# Density = 2.120544 g / cm^3
# Si number density = 21.253818 Si / 1000 Ang^3
#
#
#
# Elastic Constant Matrix: (Units=GPa)
#
#
# Indices 1 2 3 4 5 6 
#
# 1 99.7821 33.8702 66.0281 1.4857 -3.4634 -3.0642
# 2 33.8702 62.7041 45.9411 -2.2556 5.1000 4.9899
# 3 66.0281 45.9411 133.8305 13.8688 0.5611 18.7793
# 4 1.4857 -2.2556 13.8688 32.8223 0.4582 -0.4372
# 5 -3.4634 5.1000 0.5611 0.4582 41.0753 -6.2204
# 6 -3.0642 4.9899 18.7793 -0.4372 -6.2204 30.0056
#
#
#
# Elastic Compliance Matrix: (Units=1/GPa)
#
#
# Indices 1 2 3 4 5 6 
#
# 1 0.017525 -0.003855 -0.008843 0.002747 0.003364 0.008703
# 2 -0.003855 0.023219 -0.006401 0.004509 -0.003302 -0.000868
# 3 -0.008843 -0.006401 0.016232 -0.007014 -0.001677 -0.010448
# 4 0.002747 0.004509 -0.007014 0.033674 0.000062 0.004424
# 5 0.003364 -0.003302 -0.001677 0.000062 0.026178 0.007370
# 6 0.008703 -0.000868 -0.010448 0.004424 0.007370 0.042491
#
#
# Mechanical properties :
#
#
# Convention : Reuss Voigt Hill
#
# Bulk Modulus (GPa) = 53.24841 65.33283 59.29062
# Shear Modulus (GPa) = 24.53668 30.81246 27.67457
#
# Velocity S-wave (km/s) = 3.40142 3.81167 3.61238
# Velocity P-wave (km/s) = 6.36665 7.08363 6.73469
#
# Compressibility (1/GPa) = 0.01877991
#
# Stress axis : x y z
#
# Youngs Moduli (GPa) = 57.06092 43.06751 61.60596
#
# Poissons Ratio (x) = 0.16601 0.54479
# Poissons Ratio (y) = 0.21995 0.39431
# Poissons Ratio (z) = 0.50460 0.27566
#
# Static dielectric constant tensor:
#      x y z
#    x 3.792060 0.017980 -0.025480 
#    y 0.017980 3.758460 0.195990 
#    z -0.025480 0.195990 4.097670 
# 
# 
# High freq. dielectric constant tensor:
#      x y z
#    x 1.833170 -0.003320 -0.003570 
#    y -0.003320 1.825290 0.013650 
#    z -0.003570 0.013650 1.849700 
# 
# From -- ./inp_files/428809.got.cif
#   From: 2010.06.25/outbox.cif.g09.slc.cpg/sg2_215_cif.got.tgz:428809.got - 2010.06.27 13:26:56.
