data_PCOD8029655
_publ_section_title
;
Structure prediction by ZEFSAII (Michael W. Deem and Ramdas Pophale) SiO2 
 PCOD8029655
Probable space group: P -1
;
_chemical_formula_sum "Si O2"
_cell_formula_units_Z 16
_cell_length_a 15.524377
_cell_length_b 9.896764
_cell_length_c 12.552450
_cell_angle_alpha 132.723583
_cell_angle_beta 142.605952
_cell_angle_gamma 44.857805
_cell_volume 795.628310
_symmetry_space_group_name_H-M "P -1"
_symmetry_group_IT_number 2
_symmetry_cell_setting 'triclinic'
loop_
_space_group_symop_operation_xyz
x,y,z
-x,-y,-z
loop_
_atom_site_type_symbol
_atom_site_label
_atom_site_fract_x
_atom_site_fract_y
_atom_site_fract_z
Si Si1 0.432015 0.821969 0.572254
Si Si2 0.377384 0.951356 0.231433
Si Si3 0.411440 0.462078 0.238681
Si Si4 0.390691 0.482354 0.709168
Si Si5 0.195851 0.761564 0.843604
Si Si6 0.815750 0.725381 0.633436
Si Si7 0.138376 0.183070 0.510692
Si Si8 0.849736 0.485757 0.144421
O O1 0.385932 0.682256 0.371974
O O2 0.541737 0.696137 0.705719
O O3 0.523329 0.935646 0.661590
O O4 0.274143 0.971028 0.548936
O O5 0.484047 0.726245 0.240670
O O6 0.296199 0.059797 0.318643
O O7 0.241927 0.949084 0.017997
O O8 0.542705 0.402086 0.245655
O O9 0.258067 0.453855 0.032161
O O10 0.326420 0.626742 0.821470
O O11 0.254587 0.437838 0.493119
O O12 0.211278 0.635793 0.898957
O O13 0.025766 0.838770 0.667504
O O14 0.831424 0.723906 0.519861
O O15 0.983783 0.656259 0.812806
O O16 0.138847 0.323425 0.684174
#
# Coordination Sequence:
#
# PCOD8029655 Si02
#       8
#     2   2   2   2   2   2   2   2
#     4  11  25  45  60  90 126 162 203 257 302 362
#     4  12  23  37  66  95 120 161 211 250 300 360
#     4  11  26  42  65  87 124 166 204 249 311 360
#     4  12  20  41  62  94 124 160 204 252 303 359
#     4  11  23  37  63  98 126 157 199 259 306 358
#     4  11  21  37  65  93 126 158 199 257 305 356
#     4  11  22  40  62  92 131 158 199 253 310 358
#     4  11  22  40  62  94 127 162 198 251 313 361
#
# _framework density 20.109891999999999
#
# number of rings (size 3 to 8) (size 9 to 14) (size 15 to 20)
#    0.000    0.750    6.250    2.250    3.500    1.500 
#    0.000    2.500    0.000    0.000    0.000    0.000 
#    0.000    0.000    0.000    0.000    0.000    0.000 
#
# Total GULP energy -198422.552463 kJ/mol
# GULP energy per Si atom -12401.409529 kJ/mol
# Density = 2.006412 g / cm^3
# Si number density = 20.109892 Si / 1000 Ang^3
#
#
#
# Elastic Constant Matrix: (Units=GPa)
#
#
# Indices 1 2 3 4 5 6 
#
# 1 82.6687 24.1522 28.1529 -4.0906 2.3280 -16.6341
# 2 24.1522 48.4583 23.4945 -1.5527 -7.2022 -11.3016
# 3 28.1529 23.4945 136.6444 -3.9971 -3.8322 -0.3335
# 4 -4.0906 -1.5527 -3.9971 26.9777 -1.0628 -2.3802
# 5 2.3280 -7.2022 -3.8322 -1.0628 19.7631 1.7955
# 6 -16.6341 -11.3016 -0.3335 -2.3802 1.7955 22.5091
#
#
#
# Elastic Compliance Matrix: (Units=1/GPa)
#
#
# Indices 1 2 3 4 5 6 
#
# 1 0.016957 -0.005458 -0.002603 0.002584 -0.005301 0.010448
# 2 -0.005458 0.028815 -0.003489 0.001557 0.009663 0.009776
# 3 -0.002603 -0.003489 0.008486 0.000385 0.001027 -0.003591
# 4 0.002584 0.001557 0.000385 0.038259 0.001796 0.006600
# 5 -0.005301 0.009663 0.001027 0.001796 0.055339 -0.003275
# 6 0.010448 0.009776 -0.003591 0.006600 -0.003275 0.057962
#
#
# Mechanical properties :
#
#
# Convention : Reuss Voigt Hill
#
# Bulk Modulus (GPa) = 32.09560 46.59673 39.34616
# Shear Modulus (GPa) = 20.89398 26.64810 23.77104
#
# Velocity S-wave (km/s) = 3.22683 3.64417 3.44184
# Velocity P-wave (km/s) = 5.46608 6.39750 5.95004
#
# Compressibility (1/GPa) = 0.03115692
#
# Stress axis : x y z
#
# Youngs Moduli (GPa) = 58.97282 34.70470 117.84372
#
# Poissons Ratio (x) = 0.18942 0.30672
# Poissons Ratio (y) = 0.32187 0.41121
# Poissons Ratio (z) = 0.15349 0.12110
#
# Static dielectric constant tensor:
#      x y z
#    x 3.740250 -0.293490 0.171750 
#    y -0.293490 3.533830 0.036060 
#    z 0.171750 0.036060 3.951360 
# 
# 
# High freq. dielectric constant tensor:
#      x y z
#    x 1.782630 -0.028230 0.009650 
#    y -0.028230 1.760410 0.005430 
#    z 0.009650 0.005430 1.804430 
# 
# From -- ./inp_files/205730.got.cif
#   From: 2010.06.25/outbox.cif.g09.slc.cpg/sg2_103_cif.got.tgz:205730.got - 2010.06.27 13:26:56.
