data_PCOD8029273
_publ_section_title
;
Structure prediction by ZEFSAII (Michael W. Deem and Ramdas Pophale) SiO2 
 PCOD8029273
Probable space group: P -1
;
_chemical_formula_sum "Si O2"
_cell_formula_units_Z 16
_cell_length_a 9.226124
_cell_length_b 11.904252
_cell_length_c 11.167183
_cell_angle_alpha 51.865100
_cell_angle_beta 75.729602
_cell_angle_gamma 53.617128
_cell_volume 762.634230
_symmetry_space_group_name_H-M "P -1"
_symmetry_group_IT_number 2
_symmetry_cell_setting 'triclinic'
loop_
_space_group_symop_operation_xyz
x,y,z
-x,-y,-z
loop_
_atom_site_type_symbol
_atom_site_label
_atom_site_fract_x
_atom_site_fract_y
_atom_site_fract_z
Si Si1 0.640615 0.966215 0.094007
Si Si2 0.167283 0.744005 0.908405
Si Si3 0.161451 0.504003 0.905827
Si Si4 0.493109 0.788839 0.836052
Si Si5 0.717898 0.568396 0.727134
Si Si6 0.670300 0.458148 0.573285
Si Si7 0.134898 0.928180 0.129733
Si Si8 0.886755 0.559769 0.306220
O O1 0.808143 0.763486 0.196965
O O2 0.572449 0.027042 0.206756
O O3 0.500000 0.000000 0.000000
O O4 0.688987 0.093656 0.946531
O O5 0.144531 0.680580 0.826262
O O6 0.325498 0.773822 0.860511
O O7 0.209527 0.598278 0.092996
O O8 0.967839 0.924393 0.845008
O O9 0.158199 0.491244 0.774549
O O10 0.361918 0.349013 0.008557
O O11 0.000000 0.500000 0.000000
O O12 0.591828 0.748627 0.711789
O O13 0.601367 0.563877 0.644218
O O14 0.893697 0.554771 0.646566
O O15 0.500000 0.500000 0.500000
O O16 0.808930 0.253099 0.706843
O O17 0.792035 0.513633 0.453454
O O18 0.000000 0.000000 0.000000
#
# Coordination Sequence:
#
# PCOD8029273 Si02
#       8
#     2   2   2   2   2   2   2   2
#     4  12  22  38  68 103 134 171 237 290 332 398
#     4  11  22  38  72  99 135 170 242 285 335 398
#     4  11  20  39  65 105 136 175 228 289 343 405
#     4  11  23  36  67 104 136 174 235 291 334 398
#     4  11  22  43  65  97 131 184 225 278 341 410
#     4  12  28  44  67 100 145 182 227 282 356 412
#     4  12  22  44  69  99 133 183 234 282 331 414
#     4  12  24  42  68  99 138 180 224 283 353 410
#
# _framework density 20.979911999999999
#
# number of rings (size 3 to 8) (size 9 to 14) (size 15 to 20)
#    0.000    0.500    7.500    2.625    3.500    0.000 
#    0.000    1.250    0.000    0.000    0.000    0.000 
#    0.000    0.000    0.000    0.000    0.000    0.000 
#
# Total GULP energy -198262.496075 kJ/mol
# GULP energy per Si atom -12391.406005 kJ/mol
# Density = 2.093216 g / cm^3
# Si number density = 20.979912 Si / 1000 Ang^3
#
#
#
# Elastic Constant Matrix: (Units=GPa)
#
#
# Indices 1 2 3 4 5 6 
#
# 1 108.1353 59.1345 19.6635 8.4632 6.5661 11.4311
# 2 59.1345 163.7322 26.6992 20.1215 15.7465 20.5037
# 3 19.6635 26.6992 61.6758 4.0362 0.5911 6.0629
# 4 8.4632 20.1215 4.0362 25.4082 4.2060 5.2629
# 5 6.5661 15.7465 0.5911 4.2060 35.8233 10.9192
# 6 11.4311 20.5037 6.0629 5.2629 10.9192 42.5372
#
#
#
# Elastic Compliance Matrix: (Units=1/GPa)
#
#
# Indices 1 2 3 4 5 6 
#
# 1 0.011810 -0.003748 -0.002016 -0.000417 -0.000132 -0.000994
# 2 -0.003748 0.008806 -0.002111 -0.004672 -0.002041 -0.001834
# 3 -0.002016 -0.002111 0.017916 -0.000472 0.001457 -0.001310
# 4 -0.000417 -0.004672 -0.000472 0.044158 -0.002303 -0.002441
# 5 -0.000132 -0.002041 0.001457 -0.002303 0.031189 -0.006909
# 6 -0.000994 -0.001834 -0.001310 -0.002441 -0.006909 0.026923
#
#
# Mechanical properties :
#
#
# Convention : Reuss Voigt Hill
#
# Bulk Modulus (GPa) = 43.89771 60.50418 52.20094
# Shear Modulus (GPa) = 30.46077 35.95680 33.20878
#
# Velocity S-wave (km/s) = 3.81452 4.14438 3.98286
# Velocity P-wave (km/s) = 6.35373 7.19742 6.78869
#
# Compressibility (1/GPa) = 0.02278023
#
# Stress axis : x y z
#
# Youngs Moduli (GPa) = 84.67602 113.56396 55.81499
#
# Poissons Ratio (x) = 0.42564 0.11254
# Poissons Ratio (y) = 0.31736 0.11785
# Poissons Ratio (z) = 0.17074 0.23977
#
# Static dielectric constant tensor:
#      x y z
#    x 4.043980 0.436810 0.035720 
#    y 0.436810 4.462820 0.303540 
#    z 0.035720 0.303540 3.481300 
# 
# 
# High freq. dielectric constant tensor:
#      x y z
#    x 1.841950 0.008500 0.003580 
#    y 0.008500 1.847110 0.014940 
#    z 0.003580 0.014940 1.778360 
# 
# From -- ./inp_files/389057.got.cif
#   From: 2010.06.25/outbox.cif.g09.slc.cpg/sg2_195_cif.got.tgz:389057.got - 2010.06.27 13:26:56.
