data_PCOD8029856
_publ_section_title
;
Structure prediction by ZEFSAII (Michael W. Deem and Ramdas Pophale) SiO2 
 PCOD8029856
Probable space group: P -1
;
_chemical_formula_sum "Si O2"
_cell_formula_units_Z 12
_cell_length_a 12.426224
_cell_length_b 10.653174
_cell_length_c 14.969550
_cell_angle_alpha 25.732438
_cell_angle_beta 34.957650
_cell_angle_gamma 36.926625
_cell_volume 477.864138
_symmetry_space_group_name_H-M "P -1"
_symmetry_group_IT_number 2
_symmetry_cell_setting 'triclinic'
loop_
_space_group_symop_operation_xyz
x,y,z
-x,-y,-z
loop_
_atom_site_type_symbol
_atom_site_label
_atom_site_fract_x
_atom_site_fract_y
_atom_site_fract_z
Si Si1 0.605846 0.093544 0.783589
Si Si2 0.557970 0.197340 0.082330
Si Si3 0.996301 0.834351 0.763793
Si Si4 0.364670 0.789133 0.752682
Si Si5 0.421469 0.721256 0.563093
Si Si6 0.034981 0.822580 0.254645
O O1 0.560122 0.454467 0.585234
O O2 0.517837 0.994506 0.817791
O O3 0.837984 0.957227 0.716068
O O4 0.500000 0.000000 0.000000
O O5 0.524271 0.006612 0.315913
O O6 0.432545 0.544759 0.942851
O O7 0.780666 0.195072 0.921734
O O8 0.212173 0.841120 0.579391
O O9 0.929302 0.047188 0.757747
O O10 0.000000 0.500000 0.000000
O O11 0.374374 0.610740 0.765244
O O12 0.500000 0.000000 0.500000
O O13 0.147261 0.969910 0.805913
O O14 0.000000 0.500000 0.500000
#
# Coordination Sequence:
#
# PCOD8029856 Si02
#       6
#     2   2   2   2   2   2
#     4  12  20  39  69  92 129 168 207 259 324 382
#     4  12  24  42  66  98 128 165 214 268 317 376
#     4  11  21  40  67  94 128 172 213 258 325 383
#     4  11  23  43  65  86 129 175 208 255 323 378
#     4  11  25  40  65 101 126 161 218 268 311 381
#     4  11  22  40  66  94 127 173 214 259 323 385
#
# _framework density 25.111742
#
# number of rings (size 3 to 8) (size 9 to 14) (size 15 to 20)
#    0.000    0.667    6.667    1.500    0.000    2.667 
#    0.000    0.833    0.000    0.000    0.000    0.000 
#    0.000    0.000    0.000    0.000    0.000    0.000 
#
# Total GULP energy -148829.109888 kJ/mol
# GULP energy per Si atom -12402.425824 kJ/mol
# Density = 2.505459 g / cm^3
# Si number density = 25.111742 Si / 1000 Ang^3
#
#
#
# Elastic Constant Matrix: (Units=GPa)
#
#
# Indices 1 2 3 4 5 6 
#
# 1 78.4101 29.9068 27.8683 4.1661 16.4196 -28.9222
# 2 29.9068 146.5833 60.9477 -9.5906 -0.4907 -51.1098
# 3 27.8683 60.9477 165.5268 -5.9584 0.6621 -17.3157
# 4 4.1661 -9.5906 -5.9584 49.8563 -3.9364 -14.3648
# 5 16.4196 -0.4907 0.6621 -3.9364 44.1657 0.5876
# 6 -28.9222 -51.1098 -17.3157 -14.3648 0.5876 53.4946
#
#
#
# Elastic Compliance Matrix: (Units=1/GPa)
#
#
# Indices 1 2 3 4 5 6 
#
# 1 0.018449 0.000785 -0.002266 0.000754 -0.006886 0.010269
# 2 0.000785 0.013159 -0.003349 0.005980 0.000258 0.013516
# 3 -0.002266 -0.003349 0.007435 -0.000102 0.000712 -0.002054
# 4 0.000754 0.005980 -0.000102 0.024958 0.001842 0.012770
# 5 -0.006886 0.000258 0.000712 0.001842 0.025399 -0.003030
# 6 0.010269 0.013516 -0.002054 0.012770 -0.003030 0.039956
#
#
# Mechanical properties :
#
#
# Convention : Reuss Voigt Hill
#
# Bulk Modulus (GPa) = 34.03444 69.77400 51.90422
# Shear Modulus (GPa) = 33.59971 47.62316 40.61144
#
# Velocity S-wave (km/s) = 3.66185 4.35955 4.02584
# Velocity P-wave (km/s) = 5.60905 7.29292 6.50569
#
# Compressibility (1/GPa) = 0.02938200
#
# Stress axis : x y z
#
# Youngs Moduli (GPa) = 54.20289 75.99197 134.50383
#
# Poissons Ratio (x) = -0.05965 0.30482
# Poissons Ratio (y) = -0.04255 0.45050
# Poissons Ratio (z) = 0.12284 0.25452
#
# Static dielectric constant tensor:
#      x y z
#    x 7.950350 1.532270 0.515000 
#    y 1.532270 5.664500 0.281090 
#    z 0.515000 0.281090 4.930100 
# 
# 
# High freq. dielectric constant tensor:
#      x y z
#    x 2.021900 0.005370 -0.015050 
#    y 0.005370 2.008430 -0.016020 
#    z -0.015050 -0.016020 2.012840 
# 
# From -- ./inp_files/168947.got.cif
#   From: 2010.06.25/outbox.cif.g09.slc.cpg/sg2_85_cif.got.tgz:168947.got - 2010.06.27 13:26:56.
