data_PCOD8029520
_publ_section_title
;
Structure prediction by ZEFSAII (Michael W. Deem and Ramdas Pophale) SiO2 
 PCOD8029520
Probable space group: P -1
;
_chemical_formula_sum "Si O2"
_cell_formula_units_Z 12
_cell_length_a 10.961358
_cell_length_b 9.535281
_cell_length_c 9.972419
_cell_angle_alpha 42.983553
_cell_angle_beta 79.543685
_cell_angle_gamma 57.512169
_cell_volume 557.440359
_symmetry_space_group_name_H-M "P -1"
_symmetry_group_IT_number 2
_symmetry_cell_setting 'triclinic'
loop_
_space_group_symop_operation_xyz
x,y,z
-x,-y,-z
loop_
_atom_site_type_symbol
_atom_site_label
_atom_site_fract_x
_atom_site_fract_y
_atom_site_fract_z
Si Si1 0.638791 0.147435 0.447602
Si Si2 0.144774 0.497597 0.507149
Si Si3 0.715888 0.415114 0.812658
Si Si4 0.144771 0.712852 0.637635
Si Si5 0.361217 0.925010 0.808823
Si Si6 0.715900 0.653105 0.903224
O O1 0.453391 0.323176 0.372025
O O2 0.700846 0.301314 0.383451
O O3 0.692909 0.057096 0.346445
O O4 0.709830 0.900780 0.701263
O O5 0.167109 0.657555 0.282253
O O6 0.116929 0.633067 0.558471
O O7 0.000000 0.500000 0.500000
O O8 0.299153 0.203000 0.682623
O O9 0.782537 0.467459 0.891268
O O10 0.709804 0.179591 0.008535
O O11 0.167094 0.508238 0.884861
O O12 0.000000 0.000000 0.500000
O O13 0.546617 0.729973 0.918623
#
# Coordination Sequence:
#
# PCOD8029520 Si02
#       6
#     2   2   2   2   2   2
#     4  11  20  43  74 105 132 174 225 273 335 403
#     4  12  28  46  65  99 140 177 225 281 335 398
#     4  11  21  42  77 101 132 179 222 275 333 402
#     4  12  28  46  65  99 140 177 225 281 335 398
#     4  11  20  43  74 105 132 174 225 273 335 403
#     4  11  21  42  77 101 132 179 222 275 333 402
#
# _framework density 21.526966999999999
#
# number of rings (size 3 to 8) (size 9 to 14) (size 15 to 20)
#    0.000    0.667    6.667    3.000    0.000    4.000 
#    0.000    0.000    0.000    0.000    0.000    0.000 
#    0.000    0.000    0.000    0.000    0.000    0.000 
#
# Total GULP energy -148859.945716 kJ/mol
# GULP energy per Si atom -12404.995476 kJ/mol
# Density = 2.147797 g / cm^3
# Si number density = 21.526967 Si / 1000 Ang^3
#
#
#
# Elastic Constant Matrix: (Units=GPa)
#
#
# Indices 1 2 3 4 5 6 
#
# 1 66.9742 54.5208 48.8647 17.4540 -5.4519 8.4763
# 2 54.5208 123.8630 55.7838 24.7977 10.1222 21.7914
# 3 48.8647 55.7838 162.4406 25.3241 -23.4374 -3.2802
# 4 17.4540 24.7977 25.3241 27.8814 1.6250 -3.4835
# 5 -5.4519 10.1222 -23.4374 1.6250 36.4826 1.2183
# 6 8.4763 21.7914 -3.2802 -3.4835 1.2183 31.8625
#
#
#
# Elastic Compliance Matrix: (Units=1/GPa)
#
#
# Indices 1 2 3 4 5 6 
#
# 1 0.027199 -0.009185 -0.003395 -0.006325 0.004786 -0.002178
# 2 -0.009185 0.017723 -0.003458 -0.007739 -0.007813 -0.010581
# 3 -0.003395 -0.003458 0.010046 -0.003878 0.006958 0.003612
# 4 -0.006325 -0.007739 -0.003878 0.052017 -0.004021 0.012417
# 5 0.004786 -0.007813 0.006958 -0.004021 0.034842 0.003015
# 6 -0.002178 -0.010581 0.003612 0.012417 0.003015 0.040815
#
#
# Mechanical properties :
#
#
# Convention : Reuss Voigt Hill
#
# Bulk Modulus (GPa) = 43.68150 74.62405 59.15277
# Shear Modulus (GPa) = 22.48725 32.18587 27.33656
#
# Velocity S-wave (km/s) = 3.23555 3.87090 3.56740
# Velocity P-wave (km/s) = 5.85610 7.39724 6.67132
#
# Compressibility (1/GPa) = 0.02289299
#
# Stress axis : x y z
#
# Youngs Moduli (GPa) = 36.76656 56.42400 99.53874
#
# Poissons Ratio (x) = 0.51823 0.33793
# Poissons Ratio (y) = 0.33769 0.34419
# Poissons Ratio (z) = 0.12482 0.19510
#
# Static dielectric constant tensor:
#      x y z
#    x 3.850790 0.038300 -0.134790 
#    y 0.038300 3.845760 0.044130 
#    z -0.134790 0.044130 4.073790 
# 
# 
# High freq. dielectric constant tensor:
#      x y z
#    x 1.839610 -0.003480 -0.015480 
#    y -0.003480 1.827310 -0.001950 
#    z -0.015480 -0.001950 1.861370 
# 
# From -- ./inp_files/148552.got.cif
#   From: 2010.06.25/outbox.cif.g09.slc.cpg/sg2_75_cif.got.tgz:148552.got - 2010.06.27 13:26:56.
