data_PCOD8029056
_publ_section_title
;
Structure prediction by ZEFSAII (Michael W. Deem and Ramdas Pophale) SiO2 
 PCOD8029056
Probable space group: P -1
;
_chemical_formula_sum "Si O2"
_cell_formula_units_Z 14
_cell_length_a 16.306209
_cell_length_b 11.410085
_cell_length_c 9.136461
_cell_angle_alpha 142.284053
_cell_angle_beta 36.723435
_cell_angle_gamma 141.411266
_cell_volume 568.952254
_symmetry_space_group_name_H-M "P -1"
_symmetry_group_IT_number 2
_symmetry_cell_setting 'triclinic'
loop_
_space_group_symop_operation_xyz
x,y,z
-x,-y,-z
loop_
_atom_site_type_symbol
_atom_site_label
_atom_site_fract_x
_atom_site_fract_y
_atom_site_fract_z
Si Si1 0.019663 0.230969 0.663976
Si Si2 0.616100 0.694847 0.440984
Si Si3 0.345914 0.963527 0.758661
Si Si4 0.641455 0.654053 0.038843
Si Si5 0.689952 0.098280 0.917381
Si Si6 0.841158 0.518456 0.009065
Si Si7 0.866199 0.491586 0.477686
O O1 0.143740 0.358604 0.493178
O O2 0.868007 0.197711 0.767931
O O3 0.051328 0.378728 0.905108
O O4 0.000000 0.000000 0.500000
O O5 0.500000 0.500000 0.500000
O O6 0.618823 0.910357 0.717966
O O7 0.576810 0.695143 0.326535
O O8 0.781515 0.690065 0.207995
O O9 0.217013 0.746085 0.686238
O O10 0.500000 0.000000 0.500000
O O11 0.377513 0.981879 0.905876
O O12 0.287711 0.134388 0.949700
O O13 0.764306 0.553870 0.801627
O O14 0.500000 0.500000 0.000000
O O15 0.684789 0.311807 0.067994
O O16 0.962439 0.474426 0.684738
#
# Coordination Sequence:
#
# PCOD8029056 Si02
#       7
#     2   2   2   2   2   2   2
#     4  11  19  40  79 109 141 189 239 305 359 437
#     4  12  30  47  71 109 151 194 242 315 368 431
#     4  12  24  42  76 106 148 197 240 294 364 444
#     4  12  28  48  70 102 149 195 249 299 367 440
#     4  11  23  45  75 109 144 188 247 303 364 434
#     4  11  24  45  76 111 147 186 251 300 368 435
#     4  11  24  43  74 111 141 193 246 295 360 442
#
# _framework density 24.606632999999999
#
# number of rings (size 3 to 8) (size 9 to 14) (size 15 to 20)
#    0.000    0.571    5.714    2.571    4.000    2.286 
#    0.000    5.000    0.000    0.000    0.000    0.000 
#    0.000    0.000    0.000    0.000    0.000    0.000 
#
# Total GULP energy -173446.560814 kJ/mol
# GULP energy per Si atom -12389.040058 kJ/mol
# Density = 2.455063 g / cm^3
# Si number density = 24.606633 Si / 1000 Ang^3
#
#
#
# Elastic Constant Matrix: (Units=GPa)
#
#
# Indices 1 2 3 4 5 6 
#
# 1 32.6361 11.7000 11.6657 2.1667 7.5858 4.1369
# 2 11.7000 157.9503 40.0681 19.1474 15.2562 -1.8435
# 3 11.6657 40.0681 112.7419 6.9072 14.2000 -5.5087
# 4 2.1667 19.1474 6.9072 46.3587 -1.5056 0.2395
# 5 7.5858 15.2562 14.2000 -1.5056 51.2388 7.1767
# 6 4.1369 -1.8435 -5.5087 0.2395 7.1767 32.3726
#
#
#
# Elastic Compliance Matrix: (Units=1/GPa)
#
#
# Indices 1 2 3 4 5 6 
#
# 1 0.033435 -0.001451 -0.002700 -0.000644 -0.003215 -0.004097
# 2 -0.001451 0.007468 -0.002103 -0.002758 -0.001595 0.000627
# 3 -0.002700 -0.002103 0.010334 -0.000629 -0.002203 0.002477
# 4 -0.000644 -0.002758 -0.000629 0.022899 0.001871 -0.000766
# 5 -0.003215 -0.001595 -0.002203 0.001871 0.021820 -0.004906
# 6 -0.004097 0.000627 0.002477 -0.000766 -0.004906 0.032964
#
#
# Mechanical properties :
#
#
# Convention : Reuss Voigt Hill
#
# Bulk Modulus (GPa) = 25.82067 47.79954 36.81011
# Shear Modulus (GPa) = 32.39637 41.98699 37.19168
#
# Velocity S-wave (km/s) = 3.63239 4.13525 3.89195
# Velocity P-wave (km/s) = 5.30175 6.50139 5.93197
#
# Compressibility (1/GPa) = 0.03872865
#
# Stress axis : x y z
#
# Youngs Moduli (GPa) = 29.90833 133.90661 96.76995
#
# Poissons Ratio (x) = 0.19430 0.26126
# Poissons Ratio (y) = 0.04340 0.20355
# Poissons Ratio (z) = 0.08075 0.28167
#
# Static dielectric constant tensor:
#      x y z
#    x 4.258510 -0.216120 -0.041040 
#    y -0.216120 5.397500 -0.228830 
#    z -0.041040 -0.228830 4.440090 
# 
# 
# High freq. dielectric constant tensor:
#      x y z
#    x 1.968650 -0.005360 -0.021310 
#    y -0.005360 1.997160 0.003080 
#    z -0.021310 0.003080 1.990030 
# 
# From -- ./inp_files/332519.got.cif
#   From: 2010.06.25/outbox.cif.g09.slc.cpg/sg2_167_cif.got.tgz:332519.got - 2010.06.27 13:26:56.
