data_PCOD8029039
_publ_section_title
;
Structure prediction by ZEFSAII (Michael W. Deem and Ramdas Pophale) SiO2 
 PCOD8029039
Probable space group: P -1
;
_chemical_formula_sum "Si O2"
_cell_formula_units_Z 14
_cell_length_a 15.087543
_cell_length_b 7.471364
_cell_length_c 10.912917
_cell_angle_alpha 92.007540
_cell_angle_beta 139.963764
_cell_angle_gamma 92.417921
_cell_volume 786.267949
_symmetry_space_group_name_H-M "P -1"
_symmetry_group_IT_number 2
_symmetry_cell_setting 'triclinic'
loop_
_space_group_symop_operation_xyz
x,y,z
-x,-y,-z
loop_
_atom_site_type_symbol
_atom_site_label
_atom_site_fract_x
_atom_site_fract_y
_atom_site_fract_z
Si Si1 0.508140 0.505126 0.652988
Si Si2 0.312190 0.748847 0.024268
Si Si3 0.726421 0.540256 0.418450
Si Si4 0.380199 0.141150 0.085859
Si Si5 0.782378 0.840325 0.305403
Si Si6 0.370718 0.823167 0.820273
Si Si7 0.996928 0.361044 0.381194
O O1 0.500000 0.500000 0.500000
O O2 0.356681 0.430073 0.543263
O O3 0.622957 0.380924 0.815740
O O4 0.554680 0.710329 0.747929
O O5 0.384066 0.740886 0.967844
O O6 0.149706 0.685356 0.837836
O O7 0.336504 0.954173 0.106943
O O8 0.687741 0.687816 0.280880
O O9 0.678295 0.339024 0.324067
O O10 0.894688 0.561065 0.609481
O O11 0.248714 0.202383 0.873342
O O12 0.481407 0.092836 0.077455
O O13 0.944531 0.819639 0.504967
O O14 0.746865 0.039728 0.306670
O O15 0.000000 0.500000 0.500000
#
# Coordination Sequence:
#
# PCOD8029039 Si02
#       7
#     2   2   2   2   2   2   2
#     4  11  23  39  57  74 100 148 192 226 259 294
#     4  11  20  35  54  80 116 131 178 223 259 325
#     4   9  19  35  53  79 112 138 172 217 260 322
#     4  10  20  32  55  86 104 138 177 219 270 316
#     4   9  18  31  52  82 114 137 162 203 282 326
#     4  10  17  30  54  84 111 138 166 211 274 326
#     4  10  19  34  52  85 116 145 158 207 277 331
#
# _framework density 17.805634999999999
#
# number of rings (size 3 to 8) (size 9 to 14) (size 15 to 20)
#    0.857    1.143    1.429    5.143    0.000    5.143 
#    2.571    0.714    0.000    0.857    0.000    0.000 
#    0.000    0.000    0.000    0.000    0.000    0.000 
#
# Total GULP energy -173448.650191 kJ/mol
# GULP energy per Si atom -12389.189299 kJ/mol
# Density = 1.776511 g / cm^3
# Si number density = 17.805635 Si / 1000 Ang^3
#
#
#
# Elastic Constant Matrix: (Units=GPa)
#
#
# Indices 1 2 3 4 5 6 
#
# 1 78.8769 30.6058 62.7466 -7.7792 2.8788 1.8791
# 2 30.6058 86.9249 45.4858 -11.6133 -6.0775 -2.7683
# 3 62.7466 45.4858 100.9902 -9.9292 5.8465 -0.2154
# 4 -7.7792 -11.6133 -9.9292 22.8237 -2.1112 7.9339
# 5 2.8788 -6.0775 5.8465 -2.1112 28.2401 5.4963
# 6 1.8791 -2.7683 -0.2154 7.9339 5.4963 20.6171
#
#
#
# Elastic Compliance Matrix: (Units=1/GPa)
#
#
# Indices 1 2 3 4 5 6 
#
# 1 0.025478 -0.000505 -0.015371 0.003365 0.001557 -0.004261
# 2 -0.000505 0.016451 -0.006807 0.006418 0.005839 -0.001843
# 3 -0.015371 -0.006807 0.022817 0.000050 -0.005016 0.002043
# 4 0.003365 0.006418 0.000050 0.057628 0.010066 -0.024305
# 5 0.001557 0.005839 -0.005016 0.010066 0.041070 -0.014233
# 6 -0.004261 -0.001843 0.002043 -0.024305 -0.014233 0.061813
#
#
# Mechanical properties :
#
#
# Convention : Reuss Voigt Hill
#
# Bulk Modulus (GPa) = 51.59557 60.49650 56.04603
# Shear Modulus (GPa) = 18.04517 22.86640 20.45578
#
# Velocity S-wave (km/s) = 3.18693 3.58749 3.39313
# Velocity P-wave (km/s) = 6.52549 7.15611 6.84807
#
# Compressibility (1/GPa) = 0.01938151
#
# Stress axis : x y z
#
# Youngs Moduli (GPa) = 39.24974 60.78739 43.82603
#
# Poissons Ratio (x) = 0.03067 0.67364
# Poissons Ratio (y) = 0.01981 0.29832
# Poissons Ratio (z) = 0.60330 0.41377
#
# Static dielectric constant tensor:
#      x y z
#    x 3.313530 0.008920 0.313550 
#    y 0.008920 3.408270 0.066360 
#    z 0.313550 0.066360 3.055310 
# 
# 
# High freq. dielectric constant tensor:
#      x y z
#    x 1.670400 -0.003870 0.029430 
#    y -0.003870 1.707500 0.006910 
#    z 0.029430 0.006910 1.653860 
# 
# From -- ./inp_files/298625.got.cif
#   From: 2010.06.25/outbox.cif.g09.slc.cpg/sg2_150_cif.got.tgz:298625.got - 2010.06.27 13:26:56.
