data_PCOD8029787
_publ_section_title
;
Structure prediction by ZEFSAII (Michael W. Deem and Ramdas Pophale) SiO2 
 PCOD8029787
Probable space group: P -1
;
_chemical_formula_sum "Si O2"
_cell_formula_units_Z 12
_cell_length_a 19.815341
_cell_length_b 16.195427
_cell_length_c 12.581597
_cell_angle_alpha 26.588985
_cell_angle_beta 151.066018
_cell_angle_gamma 161.898093
_cell_volume 552.219283
_symmetry_space_group_name_H-M "P -1"
_symmetry_group_IT_number 2
_symmetry_cell_setting 'triclinic'
loop_
_space_group_symop_operation_xyz
x,y,z
-x,-y,-z
loop_
_atom_site_type_symbol
_atom_site_label
_atom_site_fract_x
_atom_site_fract_y
_atom_site_fract_z
Si Si1 0.930372 0.690463 0.035276
Si Si2 0.838314 0.662338 0.169393
Si Si3 0.411817 0.098851 0.313812
Si Si4 0.225836 0.851454 0.571768
Si Si5 0.436045 0.150070 0.729981
Si Si6 0.814388 0.815662 0.542512
O O1 0.787107 0.561124 0.093866
O O2 0.804600 0.390068 0.152374
O O3 0.905659 0.839903 0.753555
O O4 0.187985 0.930773 0.141149
O O5 0.604581 0.449832 0.152740
O O6 0.972378 0.640502 0.439170
O O7 0.000000 0.000000 0.000000
O O8 0.500000 0.000000 0.500000
O O9 0.377643 0.040175 0.460231
O O10 0.328301 0.072136 0.555344
O O11 0.637400 0.496414 0.616019
O O12 0.269615 0.058739 0.697524
O O13 0.500000 0.000000 0.000000
O O14 0.000000 0.000000 0.500000
#
# Coordination Sequence:
#
# PCOD8029787 Si02
#       6
#     2   2   2   2   2   2
#     4  11  22  41  66  95 137 174 227 286 331 405
#     4  11  23  39  62  98 136 169 217 283 338 401
#     4  11  21  39  68  98 130 182 223 265 345 415
#     4  11  22  40  67  99 132 177 230 274 338 409
#     4  11  25  47  71  96 138 185 228 288 346 400
#     4  11  27  47  69 103 136 181 239 286 342 409
#
# _framework density 21.730498000000001
#
# number of rings (size 3 to 8) (size 9 to 14) (size 15 to 20)
#    0.000    1.000    5.000    2.000    0.000   11.333 
#    0.000    0.000    0.000    0.000    0.000    0.000 
#    0.000    0.000    0.000    0.000    0.000    0.000 
#
# Total GULP energy -148698.017629 kJ/mol
# GULP energy per Si atom -12391.501469 kJ/mol
# Density = 2.168104 g / cm^3
# Si number density = 21.730498 Si / 1000 Ang^3
#
#
#
# Elastic Constant Matrix: (Units=GPa)
#
#
# Indices 1 2 3 4 5 6 
#
# 1 153.8167 78.6611 53.7988 9.4598 7.2183 8.7528
# 2 78.6611 123.3682 30.0134 -11.7732 -3.2704 15.9559
# 3 53.7988 30.0134 96.4859 -4.4995 9.1848 2.9755
# 4 9.4598 -11.7732 -4.4995 28.8434 -8.4755 -0.9242
# 5 7.2183 -3.2704 9.1848 -8.4755 37.2936 1.3941
# 6 8.7528 15.9559 2.9755 -0.9242 1.3941 49.5833
#
#
#
# Elastic Compliance Matrix: (Units=1/GPa)
#
#
# Indices 1 2 3 4 5 6 
#
# 1 0.013271 -0.008412 -0.004843 -0.009805 -0.004364 0.000595
# 2 -0.008412 0.015008 0.000093 0.010381 0.005404 -0.003309
# 3 -0.004843 0.000093 0.013336 0.003239 -0.001608 0.000130
# 4 -0.009805 0.010381 0.003239 0.046283 0.012577 -0.001295
# 5 -0.004364 0.005404 -0.001608 0.012577 0.031444 -0.001522
# 6 0.000595 -0.003309 0.000130 -0.001295 -0.001522 0.021139
#
#
# Mechanical properties :
#
#
# Convention : Reuss Voigt Hill
#
# Bulk Modulus (GPa) = 65.39398 77.62415 71.50907
# Shear Modulus (GPa) = 29.08660 37.22391 33.15526
#
# Velocity S-wave (km/s) = 3.66254 4.14331 3.91032
# Velocity P-wave (km/s) = 6.93139 7.66082 7.30521
#
# Compressibility (1/GPa) = 0.01529193
#
# Stress axis : x y z
#
# Youngs Moduli (GPa) = 75.35342 66.62917 74.98687
#
# Poissons Ratio (x) = 0.56046 0.36317
# Poissons Ratio (y) = 0.63385 -0.00700
# Poissons Ratio (z) = 0.36495 -0.00622
#
# Static dielectric constant tensor:
#      x y z
#    x 4.315230 0.154700 0.371290 
#    y 0.154700 4.046220 0.082530 
#    z 0.371290 0.082530 4.163000 
# 
# 
# High freq. dielectric constant tensor:
#      x y z
#    x 1.859940 -0.007780 0.010250 
#    y -0.007780 1.863180 0.000630 
#    z 0.010250 0.000630 1.853520 
# 
# From -- ./inp_files/131691.got.cif
#   From: 2010.06.25/outbox.cif.g09.slc.cpg/sg2_66_cif.got.tgz:131691.got - 2010.06.27 13:26:56.
