data_PCOD8029013
_publ_section_title
;
Structure prediction by ZEFSAII (Michael W. Deem and Ramdas Pophale) SiO2 
 PCOD8029013
Probable space group: P -1
;
_chemical_formula_sum "Si O2"
_cell_formula_units_Z 16
_cell_length_a 28.923231
_cell_length_b 17.535379
_cell_length_c 11.714508
_cell_angle_alpha 31.667793
_cell_angle_beta 20.996589
_cell_angle_gamma 20.585691
_cell_volume 736.075172
_symmetry_space_group_name_H-M "P -1"
_symmetry_group_IT_number 2
_symmetry_cell_setting 'triclinic'
loop_
_space_group_symop_operation_xyz
x,y,z
-x,-y,-z
loop_
_atom_site_type_symbol
_atom_site_label
_atom_site_fract_x
_atom_site_fract_y
_atom_site_fract_z
Si Si1 0.071311 0.060139 0.433422
Si Si2 0.317418 0.258816 0.082483
Si Si3 0.983268 0.545864 0.646602
Si Si4 0.351118 0.573823 0.343368
Si Si5 0.085492 0.073646 0.648515
Si Si6 0.964065 0.741215 0.956369
Si Si7 0.432061 0.707839 0.446701
Si Si8 0.723745 0.157720 0.125931
O O1 0.057214 0.115684 0.525590
O O2 0.103378 0.167699 0.134481
O O3 0.253600 0.796682 0.341849
O O4 0.864919 0.161806 0.741562
O O5 0.228848 0.332815 0.063807
O O6 0.148527 0.335509 0.453246
O O7 0.379861 0.364987 0.848300
O O8 0.500000 0.000000 0.000000
O O9 0.012327 0.694292 0.379196
O O10 0.021680 0.444242 0.814000
O O11 0.491327 0.371425 0.367026
O O12 0.182512 0.614438 0.633159
O O13 0.500000 0.500000 0.000000
O O14 0.316805 0.887121 0.381928
O O15 0.000000 0.000000 0.000000
O O16 0.807463 0.939031 0.156440
O O17 0.500000 0.500000 0.500000
O O18 0.267523 0.838064 0.761544
#
# Coordination Sequence:
#
# PCOD8029013 Si02
#       8
#     2   2   2   2   2   2   2   2
#     4  11  23  40  66  95 138 178 222 281 341 400
#     4  11  23  45  68  98 137 181 230 281 340 409
#     4  11  26  43  69  98 137 183 230 280 351 419
#     4  11  19  38  66 100 129 172 230 278 337 399
#     4  12  25  45  67  97 138 179 230 288 348 417
#     4  11  23  40  66 100 134 182 226 276 346 413
#     4  12  24  41  70 104 137 176 227 289 347 406
#     4  11  21  39  66  99 135 173 223 284 336 402
#
# _framework density 21.736912
#
# number of rings (size 3 to 8) (size 9 to 14) (size 15 to 20)
#    0.000    0.750    5.000    3.750    1.750    1.500 
#    0.000    0.000    0.000    1.500    0.000    0.000 
#    0.000    0.000    0.000    0.000    0.000    0.000 
#
# Total GULP energy -198214.172697 kJ/mol
# GULP energy per Si atom -12388.385794 kJ/mol
# Density = 2.168744 g / cm^3
# Si number density = 21.736912 Si / 1000 Ang^3
#
#
#
# Elastic Constant Matrix: (Units=GPa)
#
#
# Indices 1 2 3 4 5 6 
#
# 1 108.0012 54.1508 39.9088 -9.7675 9.5225 -3.7104
# 2 54.1508 133.6204 59.4325 -0.8504 -0.4323 -11.5534
# 3 39.9088 59.4325 80.1580 -3.3038 1.6430 -4.8618
# 4 -9.7675 -0.8504 -3.3038 48.3622 -3.5679 0.8275
# 5 9.5225 -0.4323 1.6430 -3.5679 29.8869 -3.2708
# 6 -3.7104 -11.5534 -4.8618 0.8275 -3.2708 33.0951
#
#
#
# Elastic Compliance Matrix: (Units=1/GPa)
#
#
# Indices 1 2 3 4 5 6 
#
# 1 0.012939 -0.003727 -0.003565 0.002036 -0.003825 -0.000803
# 2 -0.003727 0.012517 -0.007317 -0.000938 0.001998 0.003098
# 3 -0.003565 -0.007317 0.019692 0.000498 -0.000001 -0.000074
# 4 0.002036 -0.000938 0.000498 0.021246 0.001805 -0.000379
# 5 -0.003825 0.001998 -0.000001 0.001805 0.035329 0.003715
# 6 -0.000803 0.003098 -0.000074 -0.000379 0.003715 0.031573
#
#
# Mechanical properties :
#
#
# Convention : Reuss Voigt Hill
#
# Bulk Modulus (GPa) = 62.77568 69.86264 66.31916
# Shear Modulus (GPa) = 29.79328 33.48800 31.64064
#
# Velocity S-wave (km/s) = 3.70622 3.92931 3.81940
# Velocity P-wave (km/s) = 6.87439 7.26608 7.07294
#
# Compressibility (1/GPa) = 0.01592974
#
# Stress axis : x y z
#
# Youngs Moduli (GPa) = 77.28628 79.89160 50.78326
#
# Poissons Ratio (x) = 0.29773 0.18106
# Poissons Ratio (y) = 0.28802 0.37158
# Poissons Ratio (z) = 0.27555 0.58456
#
# Static dielectric constant tensor:
#      x y z
#    x 4.205870 -0.347590 -0.234540 
#    y -0.347590 3.820090 0.328520 
#    z -0.234540 0.328520 4.195670 
# 
# 
# High freq. dielectric constant tensor:
#      x y z
#    x 1.845350 -0.018620 0.008930 
#    y -0.018620 1.862860 0.011500 
#    z 0.008930 0.011500 1.848520 
# 
# From -- ./inp_files/477717.got.cif
#   From: 2010.06.25/outbox.cif.g09.slc.cpg/sg2_239_cif.got.tgz:477717.got - 2010.06.27 13:26:56.
