data_PCOD8029916
_publ_section_title
;
Structure prediction by ZEFSAII (Michael W. Deem and Ramdas Pophale) SiO2 
 PCOD8029916
Probable space group: P -1
;
_chemical_formula_sum "Si O2"
_cell_formula_units_Z 16
_cell_length_a 19.699549
_cell_length_b 11.187211
_cell_length_c 11.830770
_cell_angle_alpha 119.291504
_cell_angle_beta 41.847173
_cell_angle_gamma 150.961053
_cell_volume 731.048881
_symmetry_space_group_name_H-M "P -1"
_symmetry_group_IT_number 2
_symmetry_cell_setting 'triclinic'
loop_
_space_group_symop_operation_xyz
x,y,z
-x,-y,-z
loop_
_atom_site_type_symbol
_atom_site_label
_atom_site_fract_x
_atom_site_fract_y
_atom_site_fract_z
Si Si1 0.351471 0.408463 0.224806
Si Si2 0.529067 0.149975 0.284222
Si Si3 0.872037 0.660110 0.252163
Si Si4 0.774483 0.202625 0.904338
Si Si5 0.232869 0.701832 0.628483
Si Si6 0.291381 0.002140 0.872772
Si Si7 0.965847 0.059899 0.424615
Si Si8 0.174327 0.821313 0.412715
O O1 0.206558 0.341830 0.301108
O O2 0.496385 0.658956 0.253454
O O3 0.194558 0.122021 0.354191
O O4 0.500000 0.500000 0.000000
O O5 0.688263 0.440342 0.284794
O O6 0.417243 0.918652 0.407662
O O7 0.356342 0.035659 0.380164
O O8 0.656496 0.208068 0.064340
O O9 0.804496 0.496875 0.373477
O O10 0.918380 0.871257 0.320913
O O11 0.082453 0.839496 0.021789
O O12 0.715170 0.067966 0.795120
O O13 0.026423 0.522925 0.744247
O O14 0.709630 0.026383 0.004970
O O15 0.299916 0.872287 0.731905
O O16 0.939309 0.165291 0.432460
O O17 0.000000 0.500000 0.500000
#
# Coordination Sequence:
#
# PCOD8029916 Si02
#       8
#     2   2   2   2   2   2   2   2
#     4  11  23  42  69  99 137 173 213 280 351 397
#     4  12  24  42  73  94 138 190 220 276 333 391
#     4  11  22  42  67 104 136 169 225 281 340 399
#     4  11  23  42  66 103 135 171 231 276 332 397
#     4  11  22  40  69 108 134 168 225 285 343 390
#     4  11  21  40  72 109 137 164 220 289 344 401
#     4  11  27  43  65  99 137 176 224 277 337 406
#     4  12  28  48  66  95 138 185 234 271 325 408
#
# _framework density 21.886361000000001
#
# number of rings (size 3 to 8) (size 9 to 14) (size 15 to 20)
#    0.000    0.750    5.000    3.000    8.750    0.500 
#    2.250    0.000    0.000    2.250    0.000    0.000 
#    0.000    0.000    0.000    0.000    0.000    0.000 
#
# Total GULP energy -198454.450219 kJ/mol
# GULP energy per Si atom -12403.403139 kJ/mol
# Density = 2.183655 g / cm^3
# Si number density = 21.886361 Si / 1000 Ang^3
#
#
#
# Elastic Constant Matrix: (Units=GPa)
#
#
# Indices 1 2 3 4 5 6 
#
# 1 131.3541 52.8125 29.0429 -2.2750 -25.5674 13.1139
# 2 52.8125 111.7410 16.5190 -2.0354 -12.3442 10.3859
# 3 29.0429 16.5190 75.7318 0.1241 -5.8345 5.6055
# 4 -2.2750 -2.0354 0.1241 38.5781 8.8578 -11.9444
# 5 -25.5674 -12.3442 -5.8345 8.8578 35.0972 0.5021
# 6 13.1139 10.3859 5.6055 -11.9444 0.5021 41.8041
#
#
#
# Elastic Compliance Matrix: (Units=1/GPa)
#
#
# Indices 1 2 3 4 5 6 
#
# 1 0.011453 -0.003996 -0.002761 -0.002039 0.007035 -0.002897
# 2 -0.003996 0.011193 -0.000716 -0.000355 0.001019 -0.001545
# 3 -0.002761 -0.000716 0.014528 -0.000664 0.000335 -0.001098
# 4 -0.002039 -0.000355 -0.000664 0.031046 -0.009696 0.009804
# 5 0.007035 0.001019 0.000335 -0.009696 0.036560 -0.005715
# 6 -0.002897 -0.001545 -0.001098 0.009804 -0.005715 0.028231
#
#
# Mechanical properties :
#
#
# Convention : Reuss Voigt Hill
#
# Bulk Modulus (GPa) = 44.98567 57.28620 51.13594
# Shear Modulus (GPa) = 32.18201 37.79269 34.98735
#
# Velocity S-wave (km/s) = 3.83876 4.15995 4.00258
# Velocity P-wave (km/s) = 6.34405 7.02174 6.69148
#
# Compressibility (1/GPa) = 0.02222930
#
# Stress axis : x y z
#
# Youngs Moduli (GPa) = 87.31149 89.33923 68.83440
#
# Poissons Ratio (x) = 0.35698 0.19005
# Poissons Ratio (y) = 0.34887 0.04927
# Poissons Ratio (z) = 0.24106 0.06395
#
# Static dielectric constant tensor:
#      x y z
#    x 3.797960 0.228500 -0.122930 
#    y 0.228500 3.994520 -0.197120 
#    z -0.122930 -0.197120 4.138540 
# 
# 
# High freq. dielectric constant tensor:
#      x y z
#    x 1.835240 0.020120 -0.020920 
#    y 0.020120 1.863390 -0.003030 
#    z -0.020920 -0.003030 1.875150 
# 
# From -- ./inp_files/471203.got.cif
#   From: 2010.06.25/outbox.cif.g09.slc.cpg/sg2_236_cif.got.tgz:471203.got - 2010.06.27 13:26:56.
