data_PCOD8029900
_publ_section_title
;
Structure prediction by ZEFSAII (Michael W. Deem and Ramdas Pophale) SiO2 
 PCOD8029900
Probable space group: P -1
;
_chemical_formula_sum "Si O2"
_cell_formula_units_Z 16
_cell_length_a 14.757569
_cell_length_b 17.189907
_cell_length_c 23.439861
_cell_angle_alpha 23.017260
_cell_angle_beta 19.925235
_cell_angle_gamma 33.391020
_cell_volume 771.521934
_symmetry_space_group_name_H-M "P -1"
_symmetry_group_IT_number 2
_symmetry_cell_setting 'triclinic'
loop_
_space_group_symop_operation_xyz
x,y,z
-x,-y,-z
loop_
_atom_site_type_symbol
_atom_site_label
_atom_site_fract_x
_atom_site_fract_y
_atom_site_fract_z
Si Si1 0.631765 0.701868 0.819649
Si Si2 0.117220 0.849579 0.069939
Si Si3 0.020862 0.621970 0.747190
Si Si4 0.051914 0.938945 0.325226
Si Si5 0.333428 0.248510 0.040648
Si Si6 0.782625 0.734223 0.081022
Si Si7 0.679273 0.429335 0.620209
Si Si8 0.456970 0.069545 0.810268
O O1 0.832913 0.650359 0.785042
O O2 0.785402 0.857789 0.575674
O O3 0.500000 0.500000 0.000000
O O4 0.404628 0.808166 0.907398
O O5 0.897957 0.639471 0.345301
O O6 0.172649 0.986148 0.002250
O O7 0.000000 0.000000 0.000000
O O8 0.051693 0.388585 0.892960
O O9 0.319608 0.767117 0.467029
O O10 0.907654 0.663809 0.848353
O O11 0.172041 0.753822 0.355976
O O12 0.264578 0.085240 0.140971
O O13 0.007502 0.085703 0.199537
O O14 0.435332 0.136521 0.108585
O O15 0.568050 0.424948 0.754288
O O16 0.573385 0.579755 0.267611
O O17 0.591259 0.836660 0.164269
#
# Coordination Sequence:
#
# PCOD8029900 Si02
#       8
#     2   2   2   2   2   2   2   2
#     4  12  25  43  68  92 134 178 211 271 335 387
#     4  12  28  43  66 100 135 173 218 273 335 388
#     4  12  25  42  68 103 130 169 229 274 325 383
#     4  11  21  43  71  97 132 173 224 264 331 393
#     4  11  21  40  70  96 127 173 223 268 322 392
#     4  11  24  42  73  99 129 175 223 276 318 389
#     4  11  22  44  67  98 136 175 215 266 340 389
#     4  12  22  43  68  98 130 175 222 271 318 394
#
# _framework density 20.738230999999999
#
# number of rings (size 3 to 8) (size 9 to 14) (size 15 to 20)
#    0.000    0.500    6.250    3.000    1.750    3.500 
#    2.250    0.625    0.000    0.000    0.000    0.000 
#    0.000    0.000    0.000    0.000    0.000    0.000 
#
# Total GULP energy -198282.346807 kJ/mol
# GULP energy per Si atom -12392.646675 kJ/mol
# Density = 2.069103 g / cm^3
# Si number density = 20.738231 Si / 1000 Ang^3
#
#
#
# Elastic Constant Matrix: (Units=GPa)
#
#
# Indices 1 2 3 4 5 6 
#
# 1 77.0109 34.0790 57.1061 -15.0930 10.6038 -2.9067
# 2 34.0790 84.9465 56.4582 -16.7634 21.0439 -10.2236
# 3 57.1061 56.4582 169.1543 3.3145 20.9284 0.4853
# 4 -15.0930 -16.7634 3.3145 -18.2199 32.7363 1.0928
# 5 10.6038 21.0439 20.9284 32.7363 25.6401 4.3335
# 6 -2.9067 -10.2236 0.4853 1.0928 4.3335 35.4291
#
#
#
# Elastic Compliance Matrix: (Units=1/GPa)
#
#
# Indices 1 2 3 4 5 6 
#
# 1 0.017817 -0.005744 -0.004588 -0.002491 0.004371 -0.000591
# 2 -0.005744 0.014868 -0.003036 -0.007177 0.001147 0.003942
# 3 -0.004588 -0.003036 0.008953 0.000972 -0.004005 -0.000915
# 4 -0.002491 -0.007177 0.000972 -0.010308 0.020036 -0.004421
# 5 0.004371 0.001147 -0.004005 0.020036 0.014213 -0.001612
# 6 -0.000591 0.003942 -0.000915 -0.004421 -0.001612 0.029660
#
#
# Mechanical properties :
#
#
# Convention : Reuss Voigt Hill
#
# Bulk Modulus (GPa) = 67.10408 69.59983 68.35195
# Shear Modulus (GPa) = 46.76964 20.80109 33.78536
#
# Velocity S-wave (km/s) = 4.75409 3.17050 4.04063
# Velocity P-wave (km/s) = 7.90968 6.85833 7.40269
#
# Compressibility (1/GPa) = 0.01490222
#
# Stress axis : x y z
#
# Youngs Moduli (GPa) = 56.12653 67.25690 111.69290
#
# Poissons Ratio (x) = 0.38632 0.51246
# Poissons Ratio (y) = 0.32239 0.33911
# Poissons Ratio (z) = 0.25751 0.20420
#
# Static dielectric constant tensor:
#      x y z
#    x 3.479920 0.064860 -0.088210 
#    y 0.064860 3.699970 0.038740 
#    z -0.088210 0.038740 3.393010 
# 
# 
# High freq. dielectric constant tensor:
#      x y z
#    x 1.813540 0.007590 0.017200 
#    y 0.007590 1.813440 -0.004170 
#    z 0.017200 -0.004170 1.818340 
# 
# From -- ./inp_files/190264.got.cif
#   From: 2010.06.25/outbox.cif.g09.slc.cpg/sg2_96_cif.got.tgz:190264.got - 2010.06.27 13:26:56.
