data_PCOD8029262
_publ_section_title
;
Structure prediction by ZEFSAII (Michael W. Deem and Ramdas Pophale) SiO2 
 PCOD8029262
Probable space group: P -1
;
_chemical_formula_sum "Si O2"
_cell_formula_units_Z 14
_cell_length_a 15.128398
_cell_length_b 15.121094
_cell_length_c 24.074105
_cell_angle_alpha 20.598153
_cell_angle_beta 20.708598
_cell_angle_gamma 31.051379
_cell_volume 677.179267
_symmetry_space_group_name_H-M "P -1"
_symmetry_group_IT_number 2
_symmetry_cell_setting 'triclinic'
loop_
_space_group_symop_operation_xyz
x,y,z
-x,-y,-z
loop_
_atom_site_type_symbol
_atom_site_label
_atom_site_fract_x
_atom_site_fract_y
_atom_site_fract_z
Si Si1 0.865503 0.185768 0.349567
Si Si2 0.039988 0.234266 0.796704
Si Si3 0.907502 0.685814 0.678773
Si Si4 0.340983 0.596860 0.851931
Si Si5 0.660276 0.285144 0.518305
Si Si6 0.539510 0.889959 0.457096
Si Si7 0.533691 0.252620 0.026285
O O1 0.635369 0.237018 0.495361
O O2 0.737064 0.110590 0.409306
O O3 0.978433 0.945309 0.449640
O O4 0.075671 0.440547 0.077215
O O5 0.036278 0.484060 0.687819
O O6 0.291337 0.231635 0.615141
O O7 0.822618 0.246301 0.872869
O O8 0.000000 0.000000 0.000000
O O9 0.039997 0.667671 0.671934
O O10 0.610565 0.640357 0.898121
O O11 0.500797 0.707755 0.639871
O O12 0.321908 0.830176 0.769249
O O13 0.508901 0.411477 0.892133
O O14 0.500000 0.500000 0.500000
O O15 0.571228 0.039636 0.752438
#
# Coordination Sequence:
#
# PCOD8029262 Si02
#       7
#     2   2   2   2   2   2   2
#     4  11  21  43  67  90 128 168 211 262 319 374
#     4  12  24  39  62  97 132 160 211 275 315 368
#     4  11  20  39  62  94 125 159 212 255 318 390
#     4  11  23  45  67  88 129 173 217 252 320 385
#     4  11  21  35  62  98 125 155 210 265 310 378
#     4  11  26  42  64  97 124 169 221 261 307 384
#     4  11  21  38  63  91 126 170 204 255 325 375
#
# _framework density 20.673994
#
# number of rings (size 3 to 8) (size 9 to 14) (size 15 to 20)
#    0.000    0.857    2.857    6.857    2.000    0.571 
#    0.000    0.714    0.000    0.000    0.000    0.000 
#    0.000    0.000    0.000    0.000    0.000    0.000 
#
# Total GULP energy -173439.118502 kJ/mol
# GULP energy per Si atom -12388.508464 kJ/mol
# Density = 2.062694 g / cm^3
# Si number density = 20.673994 Si / 1000 Ang^3
#
#
#
# Elastic Constant Matrix: (Units=GPa)
#
#
# Indices 1 2 3 4 5 6 
#
# 1 114.7180 38.7116 41.3225 -5.8351 0.6120 -11.9934
# 2 38.7116 140.2557 41.5286 -17.2865 12.7055 2.9340
# 3 41.3225 41.5286 92.2979 -18.2120 4.6899 -4.2221
# 4 -5.8351 -17.2865 -18.2120 31.9434 -4.4928 -5.7366
# 5 0.6120 12.7055 4.6899 -4.4928 39.9781 -1.3387
# 6 -11.9934 2.9340 -4.2221 -5.7366 -1.3387 35.1004
#
#
#
# Elastic Compliance Matrix: (Units=1/GPa)
#
#
# Indices 1 2 3 4 5 6 
#
# 1 0.011235 -0.002137 -0.004096 -0.000674 0.001027 0.003454
# 2 -0.002137 0.009022 -0.002573 0.002434 -0.002309 -0.001484
# 3 -0.004096 -0.002573 0.015267 0.006871 -0.000079 0.001772
# 4 -0.000674 0.002434 0.006871 0.038035 0.002930 0.006721
# 5 0.001027 -0.002309 -0.000079 0.002930 0.026138 0.002010
# 6 0.003454 -0.001484 0.001772 0.006721 0.002010 0.031182
#
#
# Mechanical properties :
#
#
# Convention : Reuss Voigt Hill
#
# Bulk Modulus (GPa) = 55.82801 65.59966 60.71384
# Shear Modulus (GPa) = 32.37103 36.45165 34.41134
#
# Velocity S-wave (km/s) = 3.96129 4.20356 4.08422
# Velocity P-wave (km/s) = 6.92712 7.44038 7.18834
#
# Compressibility (1/GPa) = 0.01791216
#
# Stress axis : x y z
#
# Youngs Moduli (GPa) = 89.01050 110.84619 65.50236
#
# Poissons Ratio (x) = 0.23683 0.26828
# Poissons Ratio (y) = 0.19017 0.16854
# Poissons Ratio (z) = 0.36457 0.28520
#
# Static dielectric constant tensor:
#      x y z
#    x 3.960790 -0.017850 -0.198910 
#    y -0.017850 3.720450 -0.252020 
#    z -0.198910 -0.252020 3.736550 
# 
# 
# High freq. dielectric constant tensor:
#      x y z
#    x 1.821730 -0.012560 -0.011110 
#    y -0.012560 1.806580 -0.016170 
#    z -0.011110 -0.016170 1.801400 
# 
# From -- ./inp_files/227047.got.cif
#   From: 2010.06.25/outbox.cif.g09.slc.cpg/sg2_114_cif.got.tgz:227047.got - 2010.06.27 13:26:56.
