data_PCOD8029199
_publ_section_title
;
Structure prediction by ZEFSAII (Michael W. Deem and Ramdas Pophale) SiO2 
 PCOD8029199
Probable space group: P -1
;
_chemical_formula_sum "Si O2"
_cell_formula_units_Z 16
_cell_length_a 13.642906
_cell_length_b 8.373181
_cell_length_c 11.520387
_cell_angle_alpha 40.141396
_cell_angle_beta 111.934090
_cell_angle_gamma 92.695579
_cell_volume 721.684518
_symmetry_space_group_name_H-M "P -1"
_symmetry_group_IT_number 2
_symmetry_cell_setting 'triclinic'
loop_
_space_group_symop_operation_xyz
x,y,z
-x,-y,-z
loop_
_atom_site_type_symbol
_atom_site_label
_atom_site_fract_x
_atom_site_fract_y
_atom_site_fract_z
Si Si1 0.412854 0.551764 0.825094
Si Si2 0.793253 0.229067 0.108510
Si Si3 0.292641 0.533753 0.290756
Si Si4 0.034217 0.183161 0.202667
Si Si5 0.527218 0.196658 0.491106
Si Si6 0.123618 0.985617 0.110569
Si Si7 0.278794 0.262851 0.035991
Si Si8 0.782884 0.926024 0.481862
O O1 0.467834 0.550550 0.722858
O O2 0.325001 0.860540 0.618722
O O3 0.500000 0.500000 0.000000
O O4 0.349219 0.343700 0.921324
O O5 0.773723 0.997628 0.301643
O O6 0.924547 0.110585 0.192803
O O7 0.717977 0.281953 0.929708
O O8 0.760098 0.499652 0.018798
O O9 0.427392 0.333221 0.469808
O O10 0.233419 0.712264 0.277506
O O11 0.214579 0.365746 0.329383
O O12 0.116564 0.012170 0.230968
O O13 0.100148 0.072480 0.413819
O O14 0.000000 0.500000 0.000000
O O15 0.500000 0.000000 0.500000
O O16 0.641214 0.021458 0.710800
O O17 0.165477 0.225265 0.955055
O O18 0.000000 0.000000 0.000000
#
# Coordination Sequence:
#
# PCOD8029199 Si02
#       8
#     2   2   2   2   2   2   2   2
#     4  11  20  37  66 102 128 160 220 281 326 381
#     4  11  21  39  67  96 127 168 224 277 325 381
#     4  12  23  41  64  98 137 174 212 270 339 398
#     4  12  21  41  68  90 124 174 227 274 322 384
#     4  12  20  38  68  99 129 167 218 273 331 391
#     4  12  25  43  67  91 138 186 215 267 339 396
#     4  11  23  40  67 100 129 172 224 273 326 390
#     4  11  22  38  66  99 126 166 226 279 324 387
#
# _framework density 22.170351
#
# number of rings (size 3 to 8) (size 9 to 14) (size 15 to 20)
#    0.000    0.500    7.500    1.875    0.000    0.500 
#    0.000    5.000    0.000    0.000    0.000    0.000 
#    0.000    0.000    0.000    0.000    0.000    0.000 
#
# Total GULP energy -198248.414619 kJ/mol
# GULP energy per Si atom -12390.525914 kJ/mol
# Density = 2.211989 g / cm^3
# Si number density = 22.170351 Si / 1000 Ang^3
#
#
#
# Elastic Constant Matrix: (Units=GPa)
#
#
# Indices 1 2 3 4 5 6 
#
# 1 134.3087 33.7566 27.7732 -5.9974 -11.1502 -4.3512
# 2 33.7566 64.6725 24.1798 -6.1707 3.1713 -12.8412
# 3 27.7732 24.1798 93.2500 8.5928 -9.0453 -8.8310
# 4 -5.9974 -6.1707 8.5928 17.9204 -6.9047 9.5412
# 5 -11.1502 3.1713 -9.0453 -6.9047 36.5128 -6.5722
# 6 -4.3512 -12.8412 -8.8310 9.5412 -6.5722 43.1957
#
#
#
# Elastic Compliance Matrix: (Units=1/GPa)
#
#
# Indices 1 2 3 4 5 6 
#
# 1 0.009320 -0.004114 -0.001910 0.004540 0.003379 -0.001163
# 2 -0.004114 0.020565 -0.004527 0.005145 -0.002608 0.003240
# 3 -0.001910 -0.004527 0.013969 -0.010172 0.002045 0.003876
# 4 0.004540 0.005145 -0.010172 0.076011 0.010029 -0.015356
# 5 0.003379 -0.002608 0.002045 0.010029 0.031511 0.002562
# 6 -0.001163 0.003240 0.003876 -0.015356 0.002562 0.028571
#
#
# Mechanical properties :
#
#
# Convention : Reuss Voigt Hill
#
# Bulk Modulus (GPa) = 43.95293 51.51672 47.73483
# Shear Modulus (GPa) = 23.96555 33.29389 28.62972
#
# Velocity S-wave (km/s) = 3.29138 3.87942 3.59744
# Velocity P-wave (km/s) = 5.85768 6.58436 6.23162
#
# Compressibility (1/GPa) = 0.02275161
#
# Stress axis : x y z
#
# Youngs Moduli (GPa) = 107.29532 48.62654 71.58576
#
# Poissons Ratio (x) = 0.20006 0.13671
# Poissons Ratio (y) = 0.44144 0.32409
# Poissons Ratio (z) = 0.20490 0.22015
#
# Static dielectric constant tensor:
#      x y z
#    x 4.634060 -0.052800 0.129450 
#    y -0.052800 3.794770 0.089390 
#    z 0.129450 0.089390 4.393020 
# 
# 
# High freq. dielectric constant tensor:
#      x y z
#    x 1.900210 -0.007990 0.005220 
#    y -0.007990 1.833720 -0.002180 
#    z 0.005220 -0.002180 1.861670 
# 
# From -- ./inp_files/446664.got.cif
#   From: 2010.06.25/outbox.cif.g09.slc.cpg/sg2_224_cif.got.tgz:446664.got - 2010.06.27 13:26:56.
