data_PCOD8029640
_publ_section_title
;
Structure prediction by ZEFSAII (Michael W. Deem and Ramdas Pophale) SiO2 
 PCOD8029640
Probable space group: P -1
;
_chemical_formula_sum "Si O2"
_cell_formula_units_Z 12
_cell_length_a 12.395961
_cell_length_b 8.618707
_cell_length_c 13.605615
_cell_angle_alpha 137.214848
_cell_angle_beta 153.215645
_cell_angle_gamma 51.090412
_cell_volume 443.189526
_symmetry_space_group_name_H-M "P -1"
_symmetry_group_IT_number 2
_symmetry_cell_setting 'triclinic'
loop_
_space_group_symop_operation_xyz
x,y,z
-x,-y,-z
loop_
_atom_site_type_symbol
_atom_site_label
_atom_site_fract_x
_atom_site_fract_y
_atom_site_fract_z
Si Si1 0.929598 0.788015 0.062037
Si Si2 0.820162 0.560877 0.682865
Si Si3 0.467378 0.941436 0.560101
Si Si4 0.888169 0.272105 0.181002
Si Si5 0.479051 0.249468 0.140192
Si Si6 0.622492 0.583838 0.242254
O O1 0.202148 0.860879 0.342967
O O2 0.815489 0.999498 0.009613
O O3 0.914915 0.559195 0.872465
O O4 0.780612 0.738165 0.017010
O O5 0.615076 0.731976 0.606050
O O6 0.696506 0.320126 0.427721
O O7 0.037729 0.669236 0.843364
O O8 0.500000 0.000000 0.500000
O O9 0.531476 0.186297 0.785323
O O10 0.680377 0.444642 0.123744
O O11 0.118414 0.326934 0.463386
O O12 0.485191 0.417711 0.131578
O O13 0.500000 0.000000 0.000000
#
# Coordination Sequence:
#
# PCOD8029640 Si02
#       6
#     2   2   2   2   2   2
#     4  11  22  37  65  92 122 161 199 251 309 353
#     4  11  23  40  63  94 122 155 208 252 299 359
#     4  11  21  39  64  91 122 155 207 256 296 356
#     4   9  17  33  61  86 116 156 202 243 298 350
#     4  11  21  37  63  90 123 167 201 238 307 376
#     4   9  18  35  59  92 116 158 206 243 298 360
#
# _framework density 27.076453000000001
#
# number of rings (size 3 to 8) (size 9 to 14) (size 15 to 20)
#    0.000    1.667    6.667    1.000    2.333    0.667 
#    0.000    0.833    3.667    2.000    0.000    0.000 
#    0.000    0.000    0.000    0.000    0.000    0.000 
#
# Total GULP energy -148830.489880 kJ/mol
# GULP energy per Si atom -12402.540823 kJ/mol
# Density = 2.701483 g / cm^3
# Si number density = 27.076453 Si / 1000 Ang^3
#
#
#
# Elastic Constant Matrix: (Units=GPa)
#
#
# Indices 1 2 3 4 5 6 
#
# 1 198.6693 17.8579 79.1873 18.1628 9.1412 -31.9526
# 2 17.8579 107.1712 47.0623 16.8771 1.8773 -41.4893
# 3 79.1873 47.0623 143.9982 34.5359 -5.5269 -20.1372
# 4 18.1628 16.8771 34.5359 49.4162 -12.3787 0.9080
# 5 9.1412 1.8773 -5.5269 -12.3787 66.4909 5.6856
# 6 -31.9526 -41.4893 -20.1372 0.9080 5.6856 36.8462
#
#
#
# Elastic Compliance Matrix: (Units=1/GPa)
#
#
# Indices 1 2 3 4 5 6 
#
# 1 0.008625 0.005711 -0.004269 -0.003197 -0.003338 0.012171
# 2 0.005711 0.023648 -0.004743 -0.008940 -0.006089 0.030148
# 3 -0.004269 -0.004743 0.011602 -0.004602 0.001064 -0.002753
# 4 -0.003197 -0.008940 -0.004602 0.029835 0.007337 -0.017222
# 5 -0.003338 -0.006089 0.001064 0.007337 0.018164 -0.012154
# 6 0.012171 0.030148 -0.002753 -0.017222 -0.012154 0.072437
#
#
# Mechanical properties :
#
#
# Convention : Reuss Voigt Hill
#
# Bulk Modulus (GPa) = 26.82869 82.00597 54.41733
# Shear Modulus (GPa) = 27.27210 50.93273 39.10242
#
# Velocity S-wave (km/s) = 3.17713 4.34184 3.80432
# Velocity P-wave (km/s) = 4.83620 7.44902 6.28000
#
# Compressibility (1/GPa) = 0.03727352
#
# Stress axis : x y z
#
# Youngs Moduli (GPa) = 115.94116 42.28704 86.19245
#
# Poissons Ratio (x) = -0.24151 0.36795
# Poissons Ratio (y) = -0.66216 0.40880
# Poissons Ratio (z) = 0.49495 0.20056
#
# Static dielectric constant tensor:
#      x y z
#    x 4.832650 -0.514260 0.521030 
#    y -0.514260 5.401160 0.390110 
#    z 0.521030 0.390110 4.149950 
# 
# 
# High freq. dielectric constant tensor:
#      x y z
#    x 2.098090 -0.020060 -0.012870 
#    y -0.020060 2.110300 -0.007200 
#    z -0.012870 -0.007200 2.140560 
# 
# From -- ./inp_files/150918.got.cif
#   From: 2010.06.25/outbox.cif.g09.slc.cpg/sg2_76_cif.got.tgz:150918.got - 2010.06.27 13:26:56.
