data_PCOD8029388
_publ_section_title
;
Structure prediction by ZEFSAII (Michael W. Deem and Ramdas Pophale) SiO2 
 PCOD8029388
Probable space group: P -1
;
_chemical_formula_sum "Si O2"
_cell_formula_units_Z 12
_cell_length_a 6.625906
_cell_length_b 9.268291
_cell_length_c 17.385782
_cell_angle_alpha 137.366588
_cell_angle_beta 55.046310
_cell_angle_gamma 127.473395
_cell_volume 558.096849
_symmetry_space_group_name_H-M "P -1"
_symmetry_group_IT_number 2
_symmetry_cell_setting 'triclinic'
loop_
_space_group_symop_operation_xyz
x,y,z
-x,-y,-z
loop_
_atom_site_type_symbol
_atom_site_label
_atom_site_fract_x
_atom_site_fract_y
_atom_site_fract_z
Si Si1 0.305157 0.797161 0.005718
Si Si2 0.148808 0.057833 0.788797
Si Si3 0.826181 0.395162 0.423654
Si Si4 0.602586 0.298738 0.884295
Si Si5 0.169827 0.361251 0.767939
Si Si6 0.233467 0.247655 0.542222
O O1 0.316126 0.570252 0.874126
O O2 0.401940 0.823903 0.082168
O O3 0.019514 0.823205 0.077282
O O4 0.500000 0.000000 0.000000
O O5 0.432589 0.127014 0.791675
O O6 0.159356 0.135624 0.727970
O O7 0.043858 0.785324 0.707815
O O8 0.519232 0.252636 0.453011
O O9 0.861185 0.591671 0.430470
O O10 0.000000 0.500000 0.500000
O O11 0.889979 0.381346 0.818459
O O12 0.500000 0.500000 0.000000
O O13 0.299483 0.359512 0.656435
O O14 0.000000 0.000000 0.500000
#
# Coordination Sequence:
#
# PCOD8029388 Si02
#       6
#     2   2   2   2   2   2
#     4  11  25  38  60  99 135 165 209 264 322 387
#     4  11  23  43  66  93 131 169 215 266 321 389
#     4  11  27  46  70  98 131 175 225 276 329 392
#     4  11  20  41  64  90 129 171 213 253 324 388
#     4  11  23  41  67  94 129 171 214 267 321 387
#     4  11  26  48  69  98 133 172 225 277 331 389
#
# _framework density 21.501642
#
# number of rings (size 3 to 8) (size 9 to 14) (size 15 to 20)
#    0.000    1.000    3.333    3.000    4.667    8.667 
#    0.000    0.000    0.000    0.000    0.000    0.000 
#    0.000    0.000    0.000    0.000    0.000    0.000 
#
# Total GULP energy -148739.861642 kJ/mol
# GULP energy per Si atom -12394.988470 kJ/mol
# Density = 2.145270 g / cm^3
# Si number density = 21.501642 Si / 1000 Ang^3
#
#
#
# Elastic Constant Matrix: (Units=GPa)
#
#
# Indices 1 2 3 4 5 6 
#
# 1 103.2530 35.2584 20.6879 4.2893 8.7020 -8.0848
# 2 35.2584 125.4377 31.6889 1.1828 -4.7282 -9.6309
# 3 20.6879 31.6889 98.5732 5.9905 10.1771 -17.5075
# 4 4.2893 1.1828 5.9905 43.4082 -2.5125 -1.4176
# 5 8.7020 -4.7282 10.1771 -2.5125 27.9859 4.9147
# 6 -8.0848 -9.6309 -17.5075 -1.4176 4.9147 30.9229
#
#
#
# Elastic Compliance Matrix: (Units=1/GPa)
#
#
# Indices 1 2 3 4 5 6 
#
# 1 0.011437 -0.003070 -0.000452 -0.001162 -0.004441 0.002430
# 2 -0.003070 0.009701 -0.002892 0.000653 0.003700 0.000023
# 3 -0.000452 -0.002892 0.013299 -0.001853 -0.006665 0.007485
# 4 -0.001162 0.000653 -0.001853 0.023565 0.003367 -0.000604
# 5 -0.004441 0.003700 -0.006665 0.003367 0.042282 -0.010348
# 6 0.002430 0.000023 0.007485 -0.000604 -0.010348 0.038836
#
#
# Mechanical properties :
#
#
# Convention : Reuss Voigt Hill
#
# Bulk Modulus (GPa) = 46.27861 55.83714 51.05787
# Shear Modulus (GPa) = 31.41660 36.43863 33.92762
#
# Velocity S-wave (km/s) = 3.82661 4.12113 3.97660
# Velocity P-wave (km/s) = 6.41046 6.97639 6.69941
#
# Compressibility (1/GPa) = 0.02160826
#
# Stress axis : x y z
#
# Youngs Moduli (GPa) = 87.43614 103.08544 75.19080
#
# Poissons Ratio (x) = 0.31650 0.03402
# Poissons Ratio (y) = 0.26845 0.21743
# Poissons Ratio (z) = 0.03956 0.29809
#
# Static dielectric constant tensor:
#      x y z
#    x 4.589180 -0.077160 -0.167750 
#    y -0.077160 3.845440 0.039510 
#    z -0.167750 0.039510 3.829840 
# 
# 
# High freq. dielectric constant tensor:
#      x y z
#    x 1.858740 -0.007250 0.003170 
#    y -0.007250 1.838310 0.007210 
#    z 0.003170 0.007210 1.850650 
# 
# From -- ./inp_files/26399.got.cif
#   From: 2010.06.25/outbox.cif.g09.slc.cpg/sg2_14_cif.got.tgz:26399.got - 2010.06.27 13:26:56.
