data_PCOD8029970
_publ_section_title
;
Structure prediction by ZEFSAII (Michael W. Deem and Ramdas Pophale) SiO2 
 PCOD8029970
Probable space group: P -1
;
_chemical_formula_sum "Si O2"
_cell_formula_units_Z 16
_cell_length_a 15.707178
_cell_length_b 6.260285
_cell_length_c 15.399474
_cell_angle_alpha 125.671435
_cell_angle_beta 36.419520
_cell_angle_gamma 114.396334
_cell_volume 725.350395
_symmetry_space_group_name_H-M "P -1"
_symmetry_group_IT_number 2
_symmetry_cell_setting 'triclinic'
loop_
_space_group_symop_operation_xyz
x,y,z
-x,-y,-z
loop_
_atom_site_type_symbol
_atom_site_label
_atom_site_fract_x
_atom_site_fract_y
_atom_site_fract_z
Si Si1 0.006879 0.665291 0.184741
Si Si2 0.272937 0.593823 0.667224
Si Si3 0.920515 0.269896 0.665768
Si Si4 0.869345 0.842859 0.845652
Si Si5 0.563630 0.558447 0.329024
Si Si6 0.404690 0.877171 0.934960
Si Si7 0.602123 0.281635 0.912683
Si Si8 0.777940 0.821102 0.109093
O O1 0.842814 0.601013 0.313929
O O2 0.071389 0.753494 0.243150
O O3 0.025256 0.925918 0.173026
O O4 0.104025 0.409434 0.003119
O O5 0.392360 0.623336 0.501683
O O6 0.348983 0.457383 0.656908
O O7 0.189568 0.885629 0.821283
O O8 0.966682 0.563927 0.673423
O O9 0.765332 0.282666 0.750764
O O10 0.000000 0.000000 0.500000
O O11 0.785819 0.794158 0.992424
O O12 0.741284 0.914962 0.897440
O O13 0.590426 0.271391 0.195492
O O14 0.621518 0.773901 0.267208
O O15 0.551380 0.004879 0.859860
O O16 0.400287 0.675115 0.970921
O O17 0.500000 0.500000 0.000000
#
# Coordination Sequence:
#
# PCOD8029970 Si02
#       8
#     2   2   2   2   2   2   2   2
#     4  11  24  43  68  97 138 184 231 280 347 422
#     4  11  25  42  65 103 141 180 226 286 351 411
#     4  11  25  43  67  99 140 178 228 294 353 414
#     4  11  21  43  71  97 134 181 232 286 340 418
#     4  11  24  42  67  97 140 176 231 289 346 405
#     4  11  21  41  67  97 130 180 238 283 333 413
#     4  11  23  40  70  99 130 177 239 286 340 409
#     4  11  21  41  69  95 132 183 232 283 332 411
#
# _framework density 22.058302999999999
#
# number of rings (size 3 to 8) (size 9 to 14) (size 15 to 20)
#    0.000    1.000    5.000    1.500    1.750    4.500 
#    0.000    0.000    0.000    0.000    0.000    0.000 
#    0.000    0.000    0.000    0.000    0.000    0.000 
#
# Total GULP energy -198258.598445 kJ/mol
# GULP energy per Si atom -12391.162403 kJ/mol
# Density = 2.200810 g / cm^3
# Si number density = 22.058303 Si / 1000 Ang^3
#
#
#
# Elastic Constant Matrix: (Units=GPa)
#
#
# Indices 1 2 3 4 5 6 
#
# 1 84.7206 44.7501 37.4743 -6.2503 -12.8315 4.7348
# 2 44.7501 162.7008 66.9408 0.7009 -12.0965 7.2560
# 3 37.4743 66.9408 101.0904 6.5420 -15.1885 1.8690
# 4 -6.2503 0.7009 6.5420 46.0222 2.9877 -7.2080
# 5 -12.8315 -12.0965 -15.1885 2.9877 28.3604 -5.0476
# 6 4.7348 7.2560 1.8690 -7.2080 -5.0476 40.2519
#
#
#
# Elastic Compliance Matrix: (Units=1/GPa)
#
#
# Indices 1 2 3 4 5 6 
#
# 1 0.015493 -0.002457 -0.003714 0.002381 0.003665 -0.000321
# 2 -0.002457 0.008916 -0.005008 0.000084 -0.000194 -0.001095
# 3 -0.003714 -0.005008 0.015493 -0.002835 0.004909 0.000728
# 4 0.002381 0.000084 -0.002835 0.023177 -0.002186 0.003713
# 5 0.003665 -0.000194 0.004909 -0.002186 0.040416 0.004053
# 6 -0.000321 -0.001095 0.000728 0.003713 0.004053 0.026218
#
#
# Mechanical properties :
#
#
# Convention : Reuss Voigt Hill
#
# Bulk Modulus (GPa) = 56.99753 71.87132 64.43443
# Shear Modulus (GPa) = 31.66190 36.21668 33.93929
#
# Velocity S-wave (km/s) = 3.79274 4.05638 3.92678
# Velocity P-wave (km/s) = 6.71383 7.38865 7.05931
#
# Compressibility (1/GPa) = 0.01754462
#
# Stress axis : x y z
#
# Youngs Moduli (GPa) = 64.54726 112.15223 64.54645
#
# Poissons Ratio (x) = 0.27551 0.23972
# Poissons Ratio (y) = 0.15857 0.32325
# Poissons Ratio (z) = 0.23972 0.56166
#
# Static dielectric constant tensor:
#      x y z
#    x 3.862570 0.062190 0.051460 
#    y 0.062190 4.413530 0.049770 
#    z 0.051460 0.049770 3.708240 
# 
# 
# High freq. dielectric constant tensor:
#      x y z
#    x 1.860110 0.003920 -0.002560 
#    y 0.003920 1.890260 0.000180 
#    z -0.002560 0.000180 1.840190 
# 
# From -- ./inp_files/525981.got.cif
#   From: 2010.06.25/outbox.cif.g09.slc.cpg/sg2_263_cif.got.tgz:525981.got - 2010.06.27 13:26:56.
