data_PCOD8029146
_publ_section_title
;
Structure prediction by ZEFSAII (Michael W. Deem and Ramdas Pophale) SiO2 
 PCOD8029146
Probable space group: P -1
;
_chemical_formula_sum "Si O2"
_cell_formula_units_Z 16
_cell_length_a 15.083660
_cell_length_b 8.903759
_cell_length_c 11.745307
_cell_angle_alpha 138.557684
_cell_angle_beta 67.694332
_cell_angle_gamma 130.846628
_cell_volume 770.214847
_symmetry_space_group_name_H-M "P -1"
_symmetry_group_IT_number 2
_symmetry_cell_setting 'triclinic'
loop_
_space_group_symop_operation_xyz
x,y,z
-x,-y,-z
loop_
_atom_site_type_symbol
_atom_site_label
_atom_site_fract_x
_atom_site_fract_y
_atom_site_fract_z
Si Si1 0.394201 0.534263 0.817373
Si Si2 0.346507 0.189935 0.091526
Si Si3 0.389023 0.745214 0.478531
Si Si4 0.772160 0.096959 0.425161
Si Si5 0.838472 0.965613 0.089960
Si Si6 0.504695 0.241784 0.338367
Si Si7 0.099095 0.463236 0.190094
Si Si8 0.266093 0.764735 0.089948
O O1 0.515331 0.695936 0.928102
O O2 0.430086 0.716862 0.788843
O O3 0.339998 0.204799 0.637373
O O4 0.287759 0.529776 0.920562
O O5 0.348985 0.442133 0.286216
O O6 0.272380 0.928058 0.067418
O O7 0.278995 0.098042 0.951145
O O8 0.275636 0.746872 0.524052
O O9 0.422255 0.785194 0.617307
O O10 0.500000 0.000000 0.500000
O O11 0.862789 0.304888 0.598075
O O12 0.837052 0.033311 0.262221
O O13 0.839932 0.697129 0.915858
O O14 0.955994 0.242427 0.132546
O O15 0.500000 0.500000 0.500000
O O16 0.367787 0.966893 0.248023
O O17 0.139941 0.616977 0.133565
#
# Coordination Sequence:
#
# PCOD8029146 Si02
#       8
#     2   2   2   2   2   2   2   2
#     4  11  23  39  62 101 131 170 208 255 333 393
#     4  11  23  41  61  97 135 165 205 261 330 383
#     4  12  22  36  60  97 134 168 205 257 322 388
#     4  12  24  41  68  95 129 166 217 265 322 382
#     4  11  26  44  65  93 128 172 219 271 315 373
#     4  11  20  36  59  92 134 170 204 248 320 396
#     4  11  24  47  67  88 125 176 226 263 315 373
#     4  11  23  40  66  92 131 172 215 264 314 390
#
# _framework density 20.773423999999999
#
# number of rings (size 3 to 8) (size 9 to 14) (size 15 to 20)
#    0.000    0.750    6.250    3.375    3.500    1.000 
#    0.000    0.000    0.000    1.500    0.000    0.000 
#    0.000    0.000    0.000    0.000    0.000    0.000 
#
# Total GULP energy -198387.083536 kJ/mol
# GULP energy per Si atom -12399.192721 kJ/mol
# Density = 2.072614 g / cm^3
# Si number density = 20.773424 Si / 1000 Ang^3
#
#
#
# Elastic Constant Matrix: (Units=GPa)
#
#
# Indices 1 2 3 4 5 6 
#
# 1 58.7786 16.7101 17.3494 -0.7015 0.8045 -7.2418
# 2 16.7101 99.8024 25.5542 5.6395 0.8089 9.1317
# 3 17.3494 25.5542 97.1454 -1.6271 -1.5799 -0.9413
# 4 -0.7015 5.6395 -1.6271 32.1963 -2.7767 -4.1102
# 5 0.8045 0.8089 -1.5799 -2.7767 29.3872 0.4583
# 6 -7.2418 9.1317 -0.9413 -4.1102 0.4583 27.5539
#
#
#
# Elastic Compliance Matrix: (Units=1/GPa)
#
#
# Indices 1 2 3 4 5 6 
#
# 1 0.019511 -0.003290 -0.002538 0.001643 -0.000524 0.006385
# 2 -0.003290 0.011916 -0.002659 -0.003026 -0.000583 -0.005346
# 3 -0.002538 -0.002659 0.011487 0.001163 0.000858 0.000766
# 4 0.001643 -0.003026 0.001163 0.032757 0.003098 0.006309
# 5 -0.000524 -0.000583 0.000858 0.003098 0.034398 -0.000025
# 6 0.006385 -0.005346 0.000766 0.006309 -0.000025 0.040710
#
#
# Mechanical properties :
#
#
# Convention : Reuss Voigt Hill
#
# Bulk Modulus (GPa) = 38.54946 41.66154 40.10550
# Shear Modulus (GPa) = 28.34456 30.90166 29.62311
#
# Velocity S-wave (km/s) = 3.69787 3.86107 3.78035
# Velocity P-wave (km/s) = 6.06875 6.32265 6.19700
#
# Compressibility (1/GPa) = 0.02594070
#
# Stress axis : x y z
#
# Youngs Moduli (GPa) = 51.25341 83.91827 87.05118
#
# Poissons Ratio (x) = 0.27606 0.22096
# Poissons Ratio (y) = 0.16861 0.23148
# Poissons Ratio (z) = 0.13010 0.22315
#
# Static dielectric constant tensor:
#      x y z
#    x 3.689450 -0.334460 -0.016070 
#    y -0.334460 4.211130 -0.013120 
#    z -0.016070 -0.013120 3.856320 
# 
# 
# High freq. dielectric constant tensor:
#      x y z
#    x 1.787840 -0.009490 -0.011340 
#    y -0.009490 1.819820 0.005650 
#    z -0.011340 0.005650 1.827380 
# 
# From -- ./inp_files/258143.got.cif
#   From: 2010.06.25/outbox.cif.g09.slc.cpg/sg2_130_cif.got.tgz:258143.got - 2010.06.27 13:26:56.
