data_PCOD8029716
_publ_section_title
;
Structure prediction by ZEFSAII (Michael W. Deem and Ramdas Pophale) SiO2 
 PCOD8029716
Probable space group: P -1
;
_chemical_formula_sum "Si O2"
_cell_formula_units_Z 16
_cell_length_a 8.881002
_cell_length_b 17.896684
_cell_length_c 11.163877
_cell_angle_alpha 51.560513
_cell_angle_beta 40.063327
_cell_angle_gamma 80.374913
_cell_volume 707.358217
_symmetry_space_group_name_H-M "P -1"
_symmetry_group_IT_number 2
_symmetry_cell_setting 'triclinic'
loop_
_space_group_symop_operation_xyz
x,y,z
-x,-y,-z
loop_
_atom_site_type_symbol
_atom_site_label
_atom_site_fract_x
_atom_site_fract_y
_atom_site_fract_z
Si Si1 0.212345 0.822004 0.319044
Si Si2 0.438691 0.376032 0.136258
Si Si3 0.575992 0.738569 0.230513
Si Si4 0.909712 0.361543 0.920773
Si Si5 0.596431 0.420396 0.737601
Si Si6 0.740415 0.494943 0.215886
Si Si7 0.239431 0.975388 0.355559
Si Si8 0.233632 0.888743 0.697620
O O1 0.342380 0.764789 0.371509
O O2 0.908791 0.724150 0.533660
O O3 0.138794 0.888973 0.388312
O O4 0.444087 0.901165 0.993538
O O5 0.500000 0.500000 0.000000
O O6 0.626793 0.357092 0.132444
O O7 0.567353 0.368343 0.938703
O O8 0.517618 0.685998 0.182844
O O9 0.527272 0.642048 0.451077
O O10 0.909760 0.858735 0.933832
O O11 0.080673 0.452588 0.611925
O O12 0.158060 0.424147 0.808383
O O13 0.791682 0.224416 0.122524
O O14 0.367365 0.451360 0.861959
O O15 0.000000 0.500000 0.000000
O O16 0.301502 0.919419 0.484670
O O17 0.000000 0.000000 0.500000
O O18 0.500000 0.000000 0.500000
#
# Coordination Sequence:
#
# PCOD8029716 Si02
#       8
#     2   2   2   2   2   2   2   2
#     4  11  26  46  77 103 134 184 251 286 341 425
#     4  12  26  43  66 109 146 177 223 291 359 416
#     4  11  21  43  70 101 132 177 236 283 344 429
#     4  11  24  43  63 101 145 174 226 284 352 416
#     4  11  21  42  71  97 138 190 228 273 352 425
#     4  11  21  38  68  99 134 179 224 278 344 421
#     4  11  26  50  76  97 133 193 249 291 338 414
#     4  12  26  43  69 104 138 185 233 291 358 400
#
# _framework density 22.619375000000002
#
# number of rings (size 3 to 8) (size 9 to 14) (size 15 to 20)
#    0.000    0.750    3.750    4.875    3.500    1.000 
#    2.250    1.250    0.000    0.000    0.000    0.000 
#    0.000    0.000    0.000    0.000    0.000    0.000 
#
# Total GULP energy -198289.596890 kJ/mol
# GULP energy per Si atom -12393.099806 kJ/mol
# Density = 2.256789 g / cm^3
# Si number density = 22.619375 Si / 1000 Ang^3
#
#
#
# Elastic Constant Matrix: (Units=GPa)
#
#
# Indices 1 2 3 4 5 6 
#
# 1 61.9108 12.7924 41.4690 -3.3407 -25.5189 -12.0490
# 2 12.7924 102.5325 49.8560 1.5745 -19.6245 -17.6008
# 3 41.4690 49.8560 140.6602 -13.9469 -31.1447 12.6061
# 4 -3.3407 1.5745 -13.9469 42.0618 1.7511 -3.6193
# 5 -25.5189 -19.6245 -31.1447 1.7511 48.2115 9.3285
# 6 -12.0490 -17.6008 12.6061 -3.6193 9.3285 33.5311
#
#
#
# Elastic Compliance Matrix: (Units=1/GPa)
#
#
# Indices 1 2 3 4 5 6 
#
# 1 0.027230 0.004986 -0.009330 -0.000261 0.007770 0.013720
# 2 0.004986 0.015357 -0.007844 -0.001795 0.001531 0.012181
# 3 -0.009330 -0.007844 0.015153 0.003195 0.004252 -0.014005
# 4 -0.000261 -0.001795 0.003195 0.024905 0.000215 0.000391
# 5 0.007770 0.001531 0.004252 0.000215 0.029409 -0.006161
# 6 0.013720 0.012181 -0.014005 0.000391 -0.006161 0.048169
#
#
# Mechanical properties :
#
#
# Convention : Reuss Voigt Hill
#
# Bulk Modulus (GPa) = 29.97195 57.03756 43.50476
# Shear Modulus (GPa) = 25.54661 38.15995 31.85328
#
# Velocity S-wave (km/s) = 3.36432 4.11182 3.75671
# Velocity P-wave (km/s) = 5.32643 6.91475 6.17190
#
# Compressibility (1/GPa) = 0.03336453
#
# Stress axis : x y z
#
# Youngs Moduli (GPa) = 36.72360 65.11871 65.99179
#
# Poissons Ratio (x) = -0.32466 0.61571
# Poissons Ratio (y) = -0.18309 0.51761
# Poissons Ratio (z) = 0.34263 0.51076
#
# Static dielectric constant tensor:
#      x y z
#    x 4.368640 -0.092750 0.178800 
#    y -0.092750 4.008040 -0.005660 
#    z 0.178800 -0.005660 4.242900 
# 
# 
# High freq. dielectric constant tensor:
#      x y z
#    x 1.891160 -0.018440 -0.008230 
#    y -0.018440 1.884260 0.000040 
#    z -0.008230 0.000040 1.908360 
# 
# From -- ./inp_files/405473.got.cif
#   From: 2010.06.25/outbox.cif.g09.slc.cpg/sg2_203_cif.got.tgz:405473.got - 2010.06.27 13:26:56.
