data_PCOD8029070
_publ_section_title
;
Structure prediction by ZEFSAII (Michael W. Deem and Ramdas Pophale) SiO2 
 PCOD8029070
Probable space group: P -1
;
_chemical_formula_sum "Si O2"
_cell_formula_units_Z 16
_cell_length_a 8.251910
_cell_length_b 11.582923
_cell_length_c 9.320308
_cell_angle_alpha 97.040812
_cell_angle_beta 126.793775
_cell_angle_gamma 89.288727
_cell_volume 705.918554
_symmetry_space_group_name_H-M "P -1"
_symmetry_group_IT_number 2
_symmetry_cell_setting 'triclinic'
loop_
_space_group_symop_operation_xyz
x,y,z
-x,-y,-z
loop_
_atom_site_type_symbol
_atom_site_label
_atom_site_fract_x
_atom_site_fract_y
_atom_site_fract_z
Si Si1 0.681640 0.478643 0.194760
Si Si2 0.987096 0.324490 0.660151
Si Si3 0.295632 0.044950 0.571718
Si Si4 0.916016 0.909923 0.234907
Si Si5 0.703887 0.509353 0.531508
Si Si6 0.193029 0.223385 0.340849
Si Si7 0.787791 0.236419 0.255233
Si Si8 0.605083 0.888850 0.832377
O O1 0.832443 0.592052 0.292934
O O2 0.630374 0.461965 0.330756
O O3 0.767838 0.356824 0.176642
O O4 0.500000 0.500000 0.000000
O O5 0.066584 0.230276 0.797775
O O6 0.837929 0.414035 0.663743
O O7 0.885251 0.248664 0.465964
O O8 0.201668 0.058939 0.679791
O O9 0.335219 0.169141 0.530302
O O10 0.506679 0.984662 0.694580
O O11 0.143891 0.969922 0.371084
O O12 0.784165 0.949306 0.035804
O O13 0.500000 0.500000 0.500000
O O14 0.811872 0.638675 0.613846
O O15 0.285538 0.199216 0.229579
O O16 0.954888 0.171374 0.237452
O O17 0.566486 0.169594 0.157122
#
# Coordination Sequence:
#
# PCOD8029070 Si02
#       8
#     2   2   2   2   2   2   2   2
#     4  11  21  37  61  96 128 174 229 267 323 402
#     4  11  19  42  68  92 132 176 222 269 334 402
#     4  11  23  45  71  93 139 179 223 282 342 395
#     4  11  23  44  71 103 130 181 229 278 339 401
#     4  11  23  41  67  95 132 178 217 270 340 401
#     4  12  23  44  69 102 135 178 227 275 340 407
#     4  11  20  42  68  92 136 181 217 273 338 394
#     4  12  26  43  71 104 134 176 233 280 333 406
#
# _framework density 22.665506000000001
#
# number of rings (size 3 to 8) (size 9 to 14) (size 15 to 20)
#    0.000    0.750    5.000    4.500    0.000    0.500 
#    2.250    2.500    0.000    0.000    0.000    0.000 
#    0.000    0.000    0.000    0.000    0.000    0.000 
#
# Total GULP energy -198240.437523 kJ/mol
# GULP energy per Si atom -12390.027345 kJ/mol
# Density = 2.261392 g / cm^3
# Si number density = 22.665506 Si / 1000 Ang^3
#
#
#
# Elastic Constant Matrix: (Units=GPa)
#
#
# Indices 1 2 3 4 5 6 
#
# 1 124.0884 23.8291 28.5979 -3.5998 8.7371 -19.8512
# 2 23.8291 89.9641 24.4833 -13.3556 9.0824 -28.6883
# 3 28.5979 24.4833 117.3124 -13.2144 19.6719 -15.2434
# 4 -3.5998 -13.3556 -13.2144 26.0519 -6.6103 5.6019
# 5 8.7371 9.0824 19.6719 -6.6103 20.5245 -1.5492
# 6 -19.8512 -28.6883 -15.2434 5.6019 -1.5492 33.1103
#
#
#
# Elastic Compliance Matrix: (Units=1/GPa)
#
#
# Indices 1 2 3 4 5 6 
#
# 1 0.009345 -0.000596 -0.001272 -0.001300 -0.002567 0.004601
# 2 -0.000596 0.016572 -0.000432 0.004337 -0.004297 0.012868
# 3 -0.001272 -0.000432 0.011089 0.002283 -0.008921 0.003164
# 4 -0.001300 0.004337 0.002283 0.044962 0.010694 -0.003077
# 5 -0.002567 -0.004297 -0.008921 0.010694 0.063091 -0.008227
# 6 0.004601 0.012868 0.003164 -0.003077 -0.008227 0.045702
#
#
# Mechanical properties :
#
#
# Convention : Reuss Voigt Hill
#
# Bulk Modulus (GPa) = 30.85828 53.90954 42.38391
# Shear Modulus (GPa) = 24.25260 32.90097 28.57679
#
# Velocity S-wave (km/s) = 3.27467 3.81410 3.55463
# Velocity P-wave (km/s) = 5.28603 6.57518 5.96553
#
# Compressibility (1/GPa) = 0.03240622
#
# Stress axis : x y z
#
# Youngs Moduli (GPa) = 107.00450 60.34274 90.18038
#
# Poissons Ratio (x) = 0.03596 0.11471
# Poissons Ratio (y) = 0.06376 0.03898
# Poissons Ratio (z) = 0.13611 0.02608
#
# Static dielectric constant tensor:
#      x y z
#    x 4.166020 -0.248760 0.155530 
#    y -0.248760 4.363870 -0.260010 
#    z 0.155530 -0.260010 3.742090 
# 
# 
# High freq. dielectric constant tensor:
#      x y z
#    x 1.888570 -0.013040 0.015100 
#    y -0.013040 1.914880 -0.010030 
#    z 0.015100 -0.010030 1.868910 
# 
# From -- ./inp_files/188922.got.cif
#   From: 2010.06.25/outbox.cif.g09.slc.cpg/sg2_95_cif.got.tgz:188922.got - 2010.06.27 13:26:56.
