data_PCOD8029224
_publ_section_title
;
Structure prediction by ZEFSAII (Michael W. Deem and Ramdas Pophale) SiO2 
 PCOD8029224
Probable space group: P -1
;
_chemical_formula_sum "Si O2"
_cell_formula_units_Z 16
_cell_length_a 17.348284
_cell_length_b 9.522016
_cell_length_c 13.976460
_cell_angle_alpha 104.592161
_cell_angle_beta 158.096396
_cell_angle_gamma 78.181775
_cell_volume 830.816843
_symmetry_space_group_name_H-M "P -1"
_symmetry_group_IT_number 2
_symmetry_cell_setting 'triclinic'
loop_
_space_group_symop_operation_xyz
x,y,z
-x,-y,-z
loop_
_atom_site_type_symbol
_atom_site_label
_atom_site_fract_x
_atom_site_fract_y
_atom_site_fract_z
Si Si1 0.057288 0.033723 0.680325
Si Si2 0.978488 0.662628 0.849043
Si Si3 0.111092 0.094535 0.353797
Si Si4 0.704107 0.201860 0.299098
Si Si5 0.347624 0.598121 0.564991
Si Si6 0.323854 0.442300 0.213776
Si Si7 0.526304 0.054648 0.896533
Si Si8 0.993007 0.224428 0.889547
O O1 0.952924 0.188135 0.604738
O O2 0.000000 0.000000 0.500000
O O3 0.961793 0.906731 0.619651
O O4 0.305420 0.038296 0.979485
O O5 0.977683 0.769575 0.776688
O O6 0.764259 0.562507 0.590811
O O7 0.995781 0.755870 0.980923
O O8 0.171593 0.567487 0.041260
O O9 0.363741 0.112462 0.643029
O O10 0.016059 0.946280 0.170052
O O11 0.628790 0.345167 0.287860
O O12 0.602617 0.054022 0.201192
O O13 0.639849 0.191896 0.110969
O O14 0.571684 0.596930 0.773307
O O15 0.215394 0.710017 0.374981
O O16 0.500000 0.500000 0.500000
O O17 0.197085 0.300521 0.086913
#
# Coordination Sequence:
#
# PCOD8029224 Si02
#       8
#     2   2   2   2   2   2   2   2
#     4   9  18  35  59  86 115 148 194 246 285 339
#     4  11  24  39  56  84 129 156 187 248 291 352
#     4  11  23  38  56  91 124 155 188 237 313 341
#     4   9  18  33  58  89 107 147 199 244 282 334
#     4  11  20  38  62  84 115 154 202 239 291 342
#     4  11  21  39  63  83 113 159 205 239 287 342
#     4   9  18  34  57  83 118 145 189 243 291 343
#     4  11  21  39  60  86 115 156 199 247 277 354
#
# _framework density 19.258154999999999
#
# number of rings (size 3 to 8) (size 9 to 14) (size 15 to 20)
#    0.000    1.750    5.000    1.875    1.750    1.000 
#    0.000    1.250    0.000    3.750    0.000    0.000 
#    0.000    0.000    0.000    0.000    0.000    0.000 
#
# Total GULP energy -198290.889073 kJ/mol
# GULP energy per Si atom -12393.180567 kJ/mol
# Density = 1.921432 g / cm^3
# Si number density = 19.258155 Si / 1000 Ang^3
#
#
#
# Elastic Constant Matrix: (Units=GPa)
#
#
# Indices 1 2 3 4 5 6 
#
# 1 110.2901 35.1225 40.8669 -13.2780 12.8032 -13.1766
# 2 35.1225 61.8471 28.9951 -18.2421 -4.3366 1.1695
# 3 40.8669 28.9951 104.2659 -11.3111 10.7979 -9.9023
# 4 -13.2780 -18.2421 -11.3111 16.3636 -6.4869 -5.2026
# 5 12.8032 -4.3366 10.7979 -6.4869 26.2274 -6.6723
# 6 -13.1766 1.1695 -9.9023 -5.2026 -6.6723 27.9935
#
#
#
# Elastic Compliance Matrix: (Units=1/GPa)
#
#
# Indices 1 2 3 4 5 6 
#
# 1 0.013321 -0.006489 -0.002270 0.001547 -0.005031 0.004827
# 2 -0.006489 0.036662 -0.004582 0.044473 0.024101 0.007803
# 3 -0.002270 -0.004582 0.012542 0.001119 -0.003809 0.002860
# 4 0.001547 0.044473 0.001119 0.145653 0.052016 0.038734
# 5 -0.005031 0.024101 -0.003809 0.052016 0.064150 0.020235
# 6 0.004827 0.007803 0.002860 0.038734 0.020235 0.050702
#
#
# Mechanical properties :
#
#
# Convention : Reuss Voigt Hill
#
# Bulk Modulus (GPa) = 27.89841 54.04134 40.96987
# Shear Modulus (GPa) = 13.82514 25.54481 19.68498
#
# Velocity S-wave (km/s) = 2.68224 3.64599 3.20060
# Velocity P-wave (km/s) = 4.91025 6.77102 5.91428
#
# Compressibility (1/GPa) = 0.03584434
#
# Stress axis : x y z
#
# Youngs Moduli (GPa) = 75.06772 27.27628 79.73112
#
# Poissons Ratio (x) = 0.17699 0.18095
# Poissons Ratio (y) = 0.48709 0.36535
# Poissons Ratio (z) = 0.17037 0.12499
#
# Static dielectric constant tensor:
#      x y z
#    x 3.805360 -0.295330 0.106680 
#    y -0.295330 3.278020 0.024000 
#    z 0.106680 0.024000 4.033160 
# 
# 
# High freq. dielectric constant tensor:
#      x y z
#    x 1.752160 -0.023000 0.005910 
#    y -0.023000 1.713610 0.003230 
#    z 0.005910 0.003230 1.758200 
# 
# From -- ./inp_files/314972.got.cif
#   From: 2010.06.25/outbox.cif.g09.slc.cpg/sg2_158_cif.got.tgz:314972.got - 2010.06.27 13:26:56.
