data_PCOD8029569
_publ_section_title
;
Structure prediction by ZEFSAII (Michael W. Deem and Ramdas Pophale) SiO2 
 PCOD8029569
Probable space group: P -1
;
_chemical_formula_sum "Si O2"
_cell_formula_units_Z 16
_cell_length_a 17.221600
_cell_length_b 8.731159
_cell_length_c 20.438232
_cell_angle_alpha 131.649549
_cell_angle_beta 19.393416
_cell_angle_gamma 130.980183
_cell_volume 757.309626
_symmetry_space_group_name_H-M "P -1"
_symmetry_group_IT_number 2
_symmetry_cell_setting 'triclinic'
loop_
_space_group_symop_operation_xyz
x,y,z
-x,-y,-z
loop_
_atom_site_type_symbol
_atom_site_label
_atom_site_fract_x
_atom_site_fract_y
_atom_site_fract_z
Si Si1 0.811781 0.045502 0.109560
Si Si2 0.237728 0.036746 0.197166
Si Si3 0.064322 0.389013 0.663023
Si Si4 0.157998 0.413604 0.445099
Si Si5 0.166954 0.020749 0.721736
Si Si6 0.369529 0.355318 0.920873
Si Si7 0.148140 0.242378 0.196802
Si Si8 0.622875 0.285707 0.430678
O O1 0.687880 0.233648 0.289625
O O2 0.627248 0.842123 0.185338
O O3 0.936147 0.104753 0.958961
O O4 0.000000 0.000000 0.000000
O O5 0.107412 0.185469 0.390475
O O6 0.269601 0.125954 0.124233
O O7 0.052568 0.833096 0.285075
O O8 0.500000 0.000000 0.000000
O O9 0.174301 0.391222 0.503823
O O10 0.285805 0.475475 0.558148
O O11 0.869072 0.543329 0.872603
O O12 0.400913 0.496668 0.239128
O O13 0.948797 0.554121 0.636789
O O14 0.342369 0.230169 0.635583
O O15 0.270838 0.855826 0.639349
O O16 0.082568 0.901117 0.688303
O O17 0.353553 0.298356 0.995024
#
# Coordination Sequence:
#
# PCOD8029569 Si02
#       8
#     2   2   2   2   2   2   2   2
#     4   9  15  25  51  88 120 145 192 245 287 350
#     4  12  26  45  63  86 125 171 201 256 321 363
#     4  11  22  39  59  93 128 161 202 253 304 374
#     4  11  22  42  67  88 120 160 214 257 303 359
#     4   9  17  31  56  92 120 152 197 252 297 344
#     4  10  19  37  62  94 122 156 205 256 303 348
#     4  10  22  43  64  93 126 152 212 261 294 365
#     4  10  17  30  58  90 124 154 198 245 298 360
#
# _framework density 21.127420999999998
#
# number of rings (size 3 to 8) (size 9 to 14) (size 15 to 20)
#    0.000    1.750    6.250    1.500    3.500    0.500 
#    4.500    0.625    0.000    3.000    0.000    0.000 
#    0.000    0.000    0.000    0.000    0.000    0.000 
#
# Total GULP energy -198233.725544 kJ/mol
# GULP energy per Si atom -12389.607846 kJ/mol
# Density = 2.107933 g / cm^3
# Si number density = 21.127421 Si / 1000 Ang^3
#
#
#
# Elastic Constant Matrix: (Units=GPa)
#
#
# Indices 1 2 3 4 5 6 
#
# 1 64.3694 33.7331 22.8629 22.1662 13.8773 2.1263
# 2 33.7331 124.5816 35.7575 -4.5526 12.6485 22.6880
# 3 22.8629 35.7575 65.2569 -7.9360 16.5742 1.8754
# 4 22.1662 -4.5526 -7.9360 23.4357 2.1736 3.5836
# 5 13.8773 12.6485 16.5742 2.1736 25.7370 2.2057
# 6 2.1263 22.6880 1.8754 3.5836 2.2057 32.1076
#
#
#
# Elastic Compliance Matrix: (Units=1/GPa)
#
#
# Indices 1 2 3 4 5 6 
#
# 1 0.045456 -0.011592 -0.014644 -0.051507 -0.006078 0.012203
# 2 -0.011592 0.014118 -0.001558 0.014828 -0.000013 -0.010771
# 3 -0.014644 -0.001558 0.026940 0.023873 -0.010580 -0.001440
# 4 -0.051507 0.014828 0.023873 0.105619 -0.002085 -0.020106
# 5 -0.006078 -0.000013 -0.010580 -0.002085 0.049309 -0.002125
# 6 0.012203 -0.010771 -0.001440 -0.020106 -0.002125 0.040423
#
#
# Mechanical properties :
#
#
# Convention : Reuss Voigt Hill
#
# Bulk Modulus (GPa) = 32.33761 48.76834 40.55298
# Shear Modulus (GPa) = 14.37761 27.04638 20.71199
#
# Velocity S-wave (km/s) = 2.61151 3.58181 3.13443
# Velocity P-wave (km/s) = 4.94292 6.34341 5.68645
#
# Compressibility (1/GPa) = 0.03092374
#
# Stress axis : x y z
#
# Youngs Moduli (GPa) = 21.99937 70.83247 37.11916
#
# Poissons Ratio (x) = 0.82112 0.54359
# Poissons Ratio (y) = 0.25503 0.05784
# Poissons Ratio (z) = 0.32217 0.11038
#
# Static dielectric constant tensor:
#      x y z
#    x 3.723370 0.400460 0.370070 
#    y 0.400460 3.866370 0.023560 
#    z 0.370070 0.023560 3.985270 
# 
# 
# High freq. dielectric constant tensor:
#      x y z
#    x 1.814630 0.032910 0.024400 
#    y 0.032910 1.818910 -0.016120 
#    z 0.024400 -0.016120 1.823460 
# 
# From -- ./inp_files/599743.got.cif
#   From: 2010.06.25/outbox.cif.g09.slc.cpg/sg2_300_cif.got.tgz:599743.got - 2010.06.27 13:26:56.
