data_PCOD8029448
_publ_section_title
;
Structure prediction by ZEFSAII (Michael W. Deem and Ramdas Pophale) SiO2 
 PCOD8029448
Probable space group: P -1
;
_chemical_formula_sum "Si O2"
_cell_formula_units_Z 16
_cell_length_a 13.249376
_cell_length_b 13.998877
_cell_length_c 10.686719
_cell_angle_alpha 118.718397
_cell_angle_beta 35.579202
_cell_angle_gamma 137.541429
_cell_volume 741.590329
_symmetry_space_group_name_H-M "P -1"
_symmetry_group_IT_number 2
_symmetry_cell_setting 'triclinic'
loop_
_space_group_symop_operation_xyz
x,y,z
-x,-y,-z
loop_
_atom_site_type_symbol
_atom_site_label
_atom_site_fract_x
_atom_site_fract_y
_atom_site_fract_z
Si Si1 0.688404 0.603520 0.980571
Si Si2 0.361183 0.583498 0.492642
Si Si3 0.259276 0.182705 0.585728
Si Si4 0.109262 0.348309 0.800812
Si Si5 0.118529 0.508642 0.121608
Si Si6 0.228587 0.901116 0.196046
Si Si7 0.618201 0.802459 0.805905
Si Si8 0.951539 0.844485 0.675045
O O1 0.907703 0.760838 0.794315
O O2 0.813483 0.551438 0.881515
O O3 0.500000 0.500000 0.000000
O O4 0.548187 0.618051 0.227764
O O5 0.499864 0.736532 0.527849
O O6 0.303865 0.461753 0.571254
O O7 0.127577 0.533536 0.629021
O O8 0.166410 0.263779 0.769242
O O9 0.304057 0.216675 0.415005
O O10 0.080012 0.010298 0.690451
O O11 0.868901 0.225299 0.886900
O O12 0.082863 0.438335 0.977676
O O13 0.331389 0.689734 0.022404
O O14 0.104481 0.839926 0.418417
O O15 0.221904 0.021439 0.224973
O O16 0.500000 0.000000 0.000000
O O17 0.697398 0.756957 0.809577
#
# Coordination Sequence:
#
# PCOD8029448 Si02
#       8
#     2   2   2   2   2   2   2   2
#     4  12  26  46  68  90 134 186 222 266 328 403
#     4  12  26  42  67 101 133 170 223 279 332 388
#     4  11  21  40  69  96 130 172 218 274 339 392
#     4  12  21  41  69 102 132 168 222 279 334 390
#     4  12  26  43  69 102 132 172 227 276 331 391
#     4  11  23  38  67 104 134 166 217 279 333 387
#     4  11  20  42  65  97 131 169 216 279 333 382
#     4  11  23  43  65  94 134 176 220 264 332 397
#
# _framework density 21.575254999999999
#
# number of rings (size 3 to 8) (size 9 to 14) (size 15 to 20)
#    0.000    0.500    6.250    3.750    3.500    1.000 
#    2.250    0.625    0.000    0.000    0.000    0.000 
#    0.000    0.000    0.000    0.000    0.000    0.000 
#
# Total GULP energy -198312.836577 kJ/mol
# GULP energy per Si atom -12394.552286 kJ/mol
# Density = 2.152615 g / cm^3
# Si number density = 21.575255 Si / 1000 Ang^3
#
#
#
# Elastic Constant Matrix: (Units=GPa)
#
#
# Indices 1 2 3 4 5 6 
#
# 1 100.1719 33.9784 43.9226 -16.6986 4.3400 0.7514
# 2 33.9784 79.5814 19.9276 -24.3910 11.1077 19.0178
# 3 43.9226 19.9276 88.0631 -20.0313 0.3162 -6.0158
# 4 -16.6986 -24.3910 -20.0313 31.3108 0.0485 -3.9928
# 5 4.3400 11.1077 0.3162 0.0485 35.6562 -7.9467
# 6 0.7514 19.0178 -6.0158 -3.9928 -7.9467 40.0695
#
#
#
# Elastic Compliance Matrix: (Units=1/GPa)
#
#
# Indices 1 2 3 4 5 6 
#
# 1 0.014218 -0.004830 -0.005868 0.000216 0.000090 0.001184
# 2 -0.004830 0.022828 -0.000418 0.013519 -0.009046 -0.011254
# 3 -0.005868 -0.000418 0.016333 0.007477 0.001539 0.003811
# 4 0.000216 0.013519 0.007477 0.047180 -0.004709 -0.001530
# 5 0.000090 -0.009046 0.001539 -0.004709 0.033217 0.010641
# 6 0.001184 -0.011254 0.003811 -0.001530 0.010641 0.032806
#
#
# Mechanical properties :
#
#
# Convention : Reuss Voigt Hill
#
# Bulk Modulus (GPa) = 32.10753 51.49705 41.80229
# Shear Modulus (GPa) = 25.10087 32.73982 28.92035
#
# Velocity S-wave (km/s) = 3.41458 3.89970 3.66517
# Velocity P-wave (km/s) = 5.51904 6.64810 6.10971
#
# Compressibility (1/GPa) = 0.03114534
#
# Stress axis : x y z
#
# Youngs Moduli (GPa) = 70.33500 43.80569 61.22719
#
# Poissons Ratio (x) = 0.21159 0.35931
# Poissons Ratio (y) = 0.33973 0.02559
# Poissons Ratio (z) = 0.41276 0.01831
#
# Static dielectric constant tensor:
#      x y z
#    x 4.185000 0.761590 0.230950 
#    y 0.761590 3.063390 -0.248770 
#    z 0.230950 -0.248770 3.865270 
# 
# 
# High freq. dielectric constant tensor:
#      x y z
#    x 1.846170 0.012310 -0.015280 
#    y 0.012310 1.863750 -0.013430 
#    z -0.015280 -0.013430 1.829490 
# 
# From -- ./inp_files/404767.got.cif
#   From: 2010.06.25/outbox.cif.g09.slc.cpg/sg2_203_cif.got.tgz:404767.got - 2010.06.27 13:26:56.
