data_PCOD8029167
_publ_section_title
;
Structure prediction by ZEFSAII (Michael W. Deem and Ramdas Pophale) SiO2 
 PCOD8029167
Probable space group: P -1
;
_chemical_formula_sum "Si O2"
_cell_formula_units_Z 14
_cell_length_a 14.157413
_cell_length_b 22.484409
_cell_length_c 8.935609
_cell_angle_alpha 42.145292
_cell_angle_beta 41.664944
_cell_angle_gamma 21.733406
_cell_volume 687.008736
_symmetry_space_group_name_H-M "P -1"
_symmetry_group_IT_number 2
_symmetry_cell_setting 'triclinic'
loop_
_space_group_symop_operation_xyz
x,y,z
-x,-y,-z
loop_
_atom_site_type_symbol
_atom_site_label
_atom_site_fract_x
_atom_site_fract_y
_atom_site_fract_z
Si Si1 0.850410 0.283477 0.873013
Si Si2 0.718537 0.151198 0.971892
Si Si3 0.076006 0.947713 0.674357
Si Si4 0.925587 0.756504 0.026104
Si Si5 0.328284 0.016132 0.597855
Si Si6 0.555878 0.523561 0.237041
Si Si7 0.406521 0.938871 0.323252
O O1 0.578463 0.452116 0.796564
O O2 0.942641 0.305271 0.849187
O O3 0.821776 0.203974 0.133857
O O4 0.039906 0.177191 0.704729
O O5 0.543387 0.323912 0.912449
O O6 0.563008 0.140453 0.204562
O O7 0.801323 0.117214 0.764343
O O8 0.000000 0.000000 0.000000
O O9 0.320626 0.882322 0.551617
O O10 0.000000 0.000000 0.500000
O O11 0.721767 0.780528 0.221548
O O12 0.136543 0.633741 0.872966
O O13 0.751770 0.935428 0.863534
O O14 0.326069 0.035192 0.387959
O O15 0.500000 0.000000 0.500000
O O16 0.500000 0.500000 0.500000
#
# Coordination Sequence:
#
# PCOD8029167 Si02
#       7
#     2   2   2   2   2   2   2
#     4  11  21  39  62  99 122 165 223 257 312 391
#     4  11  21  39  65  91 118 166 218 255 307 390
#     4  11  20  36  67  94 122 162 215 267 311 374
#     4  11  24  36  62  94 129 165 209 263 315 388
#     4  11  20  37  67  94 123 166 211 262 314 371
#     4  12  24  42  65  93 134 170 214 266 320 374
#     4  11  21  39  62  95 126 167 212 256 330 374
#
# _framework density 20.378195999999999
#
# number of rings (size 3 to 8) (size 9 to 14) (size 15 to 20)
#    0.000    0.857    7.143    2.143    0.000    0.000 
#    0.000    2.857    0.000    2.571    0.000    0.000 
#    0.000    0.000    0.000    0.000    0.000    0.000 
#
# Total GULP energy -173543.040098 kJ/mol
# GULP energy per Si atom -12395.931436 kJ/mol
# Density = 2.033181 g / cm^3
# Si number density = 20.378196 Si / 1000 Ang^3
#
#
#
# Elastic Constant Matrix: (Units=GPa)
#
#
# Indices 1 2 3 4 5 6 
#
# 1 111.6406 28.2674 42.7329 1.2297 2.2591 -14.9083
# 2 28.2674 95.3685 35.8303 14.0229 -2.9148 -4.7814
# 3 42.7329 35.8303 98.9694 16.0120 0.0357 -13.5885
# 4 1.2297 14.0229 16.0120 31.1117 2.4830 2.0959
# 5 2.2591 -2.9148 0.0357 2.4830 52.1957 3.3097
# 6 -14.9083 -4.7814 -13.5885 2.0959 3.3097 27.1765
#
#
#
# Elastic Compliance Matrix: (Units=1/GPa)
#
#
# Indices 1 2 3 4 5 6 
#
# 1 0.011561 -0.002077 -0.004099 0.002406 -0.000973 0.003860
# 2 -0.002077 0.012914 -0.003133 -0.004192 0.001028 -0.000236
# 3 -0.004099 -0.003133 0.014729 -0.006345 -0.000026 0.005058
# 4 0.002406 -0.004192 -0.006345 0.037701 -0.001793 -0.005279
# 5 -0.000973 0.001028 -0.000026 -0.001793 0.019509 -0.002604
# 6 0.003860 -0.000236 0.005058 -0.005279 -0.002604 0.042126
#
#
# Mechanical properties :
#
#
# Convention : Reuss Voigt Hill
#
# Bulk Modulus (GPa) = 48.57468 57.73774 53.15621
# Shear Modulus (GPa) = 30.48427 35.37330 32.92879
#
# Velocity S-wave (km/s) = 3.87192 4.17086 4.02417
# Velocity P-wave (km/s) = 6.62400 7.18258 6.90893
#
# Compressibility (1/GPa) = 0.02058686
#
# Stress axis : x y z
#
# Youngs Moduli (GPa) = 86.50020 77.43310 67.89244
#
# Poissons Ratio (x) = 0.16080 0.27828
# Poissons Ratio (y) = 0.17963 0.21272
# Poissons Ratio (z) = 0.35455 0.24261
#
# Static dielectric constant tensor:
#      x y z
#    x 3.804960 -0.042720 0.751440 
#    y -0.042720 3.568610 0.682030 
#    z 0.751440 0.682030 3.017360 
# 
# 
# High freq. dielectric constant tensor:
#      x y z
#    x 1.804880 -0.001940 0.011720 
#    y -0.001940 1.763840 0.021250 
#    z 0.011720 0.021250 1.810440 
# 
# From -- ./inp_files/174471.got.cif
#   From: 2010.06.25/outbox.cif.g09.slc.cpg/sg2_88_cif.got.tgz:174471.got - 2010.06.27 13:26:56.
