data_PCOD8029407
_publ_section_title
;
Structure prediction by ZEFSAII (Michael W. Deem and Ramdas Pophale) SiO2 
 PCOD8029407
Probable space group: P -1
;
_chemical_formula_sum "Si O2"
_cell_formula_units_Z 14
_cell_length_a 9.105069
_cell_length_b 13.089036
_cell_length_c 8.828248
_cell_angle_alpha 102.211764
_cell_angle_beta 47.256517
_cell_angle_gamma 72.268884
_cell_volume 589.941093
_symmetry_space_group_name_H-M "P -1"
_symmetry_group_IT_number 2
_symmetry_cell_setting 'triclinic'
loop_
_space_group_symop_operation_xyz
x,y,z
-x,-y,-z
loop_
_atom_site_type_symbol
_atom_site_label
_atom_site_fract_x
_atom_site_fract_y
_atom_site_fract_z
Si Si1 0.251990 0.607472 0.859734
Si Si2 0.288352 0.157272 0.224020
Si Si3 0.615042 0.663073 0.290695
Si Si4 0.245438 0.943251 0.708991
Si Si5 0.782773 0.855789 0.409670
Si Si6 0.979915 0.644163 0.782867
Si Si7 0.665645 0.639227 0.597517
O O1 0.962551 0.714394 0.155209
O O2 0.375833 0.462002 0.798351
O O3 0.407329 0.658816 0.810841
O O4 0.229212 0.604870 0.690894
O O5 0.129053 0.168448 0.483819
O O6 0.122178 0.228102 0.210710
O O7 0.385361 0.241987 0.228295
O O8 0.500000 0.000000 0.000000
O O9 0.329375 0.804961 0.533456
O O10 0.720817 0.646383 0.383592
O O11 0.768859 0.677341 0.061341
O O12 0.484146 0.916477 0.626744
O O13 0.170429 0.045207 0.659364
O O14 0.000000 0.000000 0.000000
O O15 0.088921 0.510451 0.566781
#
# Coordination Sequence:
#
# PCOD8029407 Si02
#       7
#     2   2   2   2   2   2   2
#     4  11  23  43  75 104 132 176 246 294 343 408
#     4  12  26  45  65  97 144 190 228 278 359 418
#     4  11  20  41  69 104 130 176 236 290 339 409
#     4  11  23  40  73 101 135 181 244 275 347 405
#     4  11  24  45  69 100 142 186 226 299 343 411
#     4  11  22  41  72 101 137 182 229 290 355 412
#     4  11  23  43  68 104 138 180 234 293 345 417
#
# _framework density 23.731183999999999
#
# number of rings (size 3 to 8) (size 9 to 14) (size 15 to 20)
#    0.000    0.857    2.857    6.429    2.000    0.000 
#    0.000    5.714    0.000    0.000    0.000    0.000 
#    0.000    0.000    0.000    0.000    0.000    0.000 
#
# Total GULP energy -173459.492955 kJ/mol
# GULP energy per Si atom -12389.963783 kJ/mol
# Density = 2.367717 g / cm^3
# Si number density = 23.731184 Si / 1000 Ang^3
#
#
#
# Elastic Constant Matrix: (Units=GPa)
#
#
# Indices 1 2 3 4 5 6 
#
# 1 49.5807 44.6344 38.0836 1.6978 6.7283 7.4918
# 2 44.6344 220.3247 80.5206 20.5805 2.6562 -4.8666
# 3 38.0836 80.5206 121.8058 16.3766 -10.4968 2.9682
# 4 1.6978 20.5805 16.3766 54.9336 8.7697 17.4737
# 5 6.7283 2.6562 -10.4968 8.7697 32.0276 -3.0676
# 6 7.4918 -4.8666 2.9682 17.4737 -3.0676 31.5631
#
#
#
# Elastic Compliance Matrix: (Units=1/GPa)
#
#
# Indices 1 2 3 4 5 6 
#
# 1 0.037153 -0.004778 -0.010989 0.011699 -0.015797 -0.016534
# 2 -0.004778 0.006848 -0.002647 -0.003110 0.000826 0.004241
# 3 -0.010989 -0.002647 0.014953 -0.006336 0.009666 0.005241
# 4 0.011699 -0.003110 -0.006336 0.029715 -0.014377 -0.020508
# 5 -0.015797 0.000826 0.009666 -0.014377 0.043025 0.015109
# 6 -0.016534 0.004241 0.005241 -0.020508 0.015109 0.048590
#
#
# Mechanical properties :
#
#
# Convention : Reuss Voigt Hill
#
# Bulk Modulus (GPa) = 45.19720 79.79871 62.49795
# Shear Modulus (GPa) = 22.27294 38.93636 30.60465
#
# Velocity S-wave (km/s) = 3.06690 4.05498 3.59505
# Velocity P-wave (km/s) = 5.62388 7.45808 6.60496
#
# Compressibility (1/GPa) = 0.02212527
#
# Stress axis : x y z
#
# Youngs Moduli (GPa) = 26.91593 146.01875 66.87709
#
# Poissons Ratio (x) = 0.69769 0.73490
# Poissons Ratio (y) = 0.12861 0.17705
# Poissons Ratio (z) = 0.29578 0.38657
#
# Static dielectric constant tensor:
#      x y z
#    x 3.931530 0.028600 0.194880 
#    y 0.028600 4.923270 0.202450 
#    z 0.194880 0.202450 4.318370 
# 
# 
# High freq. dielectric constant tensor:
#      x y z
#    x 1.889610 0.013480 0.005200 
#    y 0.013480 1.973760 0.009000 
#    z 0.005200 0.009000 1.950100 
# 
# From -- ./inp_files/207499.got.cif
#   From: 2010.06.25/outbox.cif.g09.slc.cpg/sg2_104_cif.got.tgz:207499.got - 2010.06.27 13:26:56.
