data_PCOD8029197
_publ_section_title
;
Structure prediction by ZEFSAII (Michael W. Deem and Ramdas Pophale) SiO2 
 PCOD8029197
Probable space group: P -1
;
_chemical_formula_sum "Si O2"
_cell_formula_units_Z 12
_cell_length_a 9.512217
_cell_length_b 10.456408
_cell_length_c 10.139668
_cell_angle_alpha 123.763840
_cell_angle_beta 42.254033
_cell_angle_gamma 115.728270
_cell_volume 563.306308
_symmetry_space_group_name_H-M "P -1"
_symmetry_group_IT_number 2
_symmetry_cell_setting 'triclinic'
loop_
_space_group_symop_operation_xyz
x,y,z
-x,-y,-z
loop_
_atom_site_type_symbol
_atom_site_label
_atom_site_fract_x
_atom_site_fract_y
_atom_site_fract_z
Si Si1 0.279929 0.876923 0.447877
Si Si2 0.206464 0.338070 0.660275
Si Si3 0.831460 0.317290 0.084668
Si Si4 0.599289 0.194285 0.940164
Si Si5 0.417873 0.822650 0.604441
Si Si6 0.182216 0.112139 0.305644
O O1 0.343001 0.754104 0.220205
O O2 0.312861 0.799157 0.521678
O O3 0.039561 0.923908 0.631480
O O4 0.438594 0.023071 0.399147
O O5 0.169325 0.515129 0.751814
O O6 0.442311 0.321038 0.537517
O O7 0.153334 0.239153 0.510905
O O8 0.059992 0.281070 0.851342
O O9 0.763361 0.183569 0.160630
O O10 0.674411 0.317879 0.068210
O O11 0.730969 0.040145 0.777045
O O12 0.349748 0.169275 0.112075
#
# Coordination Sequence:
#
# PCOD8029197 Si02
#       6
#     2   2   2   2   2   2
#     4  11  23  39  61  93 128 154 198 256 306 351
#     4  11  22  41  67  88 122 160 206 251 292 364
#     4  11  23  39  67  92 116 163 211 240 300 364
#     4  11  20  37  65  93 114 160 210 245 295 359
#     4  11  23  40  61  92 126 160 195 253 309 354
#     4  11  21  38  66  91 118 159 208 251 293 357
#
# _framework density 21.302797000000002
#
# number of rings (size 3 to 8) (size 9 to 14) (size 15 to 20)
#    0.000    1.000    5.000    3.000    0.000    1.333 
#    0.000    5.833    0.000    0.000    0.000    0.000 
#    0.000    0.000    0.000    0.000    0.000    0.000 
#
# Total GULP energy -148770.067392 kJ/mol
# GULP energy per Si atom -12397.505616 kJ/mol
# Density = 2.125431 g / cm^3
# Si number density = 21.302797 Si / 1000 Ang^3
#
#
#
# Elastic Constant Matrix: (Units=GPa)
#
#
# Indices 1 2 3 4 5 6 
#
# 1 102.6449 23.3176 51.1179 -17.3450 17.2441 4.3955
# 2 23.3176 52.9569 32.7975 -4.0215 4.6166 13.5656
# 3 51.1179 32.7975 106.6023 -17.4105 10.1351 3.6108
# 4 -17.3450 -4.0215 -17.4105 44.5133 3.3497 0.6759
# 5 17.2441 4.6166 10.1351 3.3497 34.4358 -6.0677
# 6 4.3955 13.5656 3.6108 0.6759 -6.0677 22.4580
#
#
#
# Elastic Compliance Matrix: (Units=1/GPa)
#
#
# Indices 1 2 3 4 5 6 
#
# 1 0.014550 -0.001629 -0.005098 0.004060 -0.006476 -0.002916
# 2 -0.001629 0.028667 -0.007146 -0.000293 -0.003871 -0.016885
# 3 -0.005098 -0.007146 0.014480 0.003032 -0.000562 0.002743
# 4 0.004060 -0.000293 0.003032 0.025712 -0.006004 -0.003501
# 5 -0.006476 -0.003871 -0.000562 -0.006004 0.035945 0.013588
# 6 -0.002916 -0.016885 0.002743 -0.003501 0.013588 0.058633
#
#
# Mechanical properties :
#
#
# Convention : Reuss Voigt Hill
#
# Bulk Modulus (GPa) = 33.38984 52.96335 43.17659
# Shear Modulus (GPa) = 23.17833 30.61283 26.89558
#
# Velocity S-wave (km/s) = 3.30213 3.79493 3.55707
# Velocity P-wave (km/s) = 5.49970 6.64215 6.09774
#
# Compressibility (1/GPa) = 0.02994923
#
# Stress axis : x y z
#
# Youngs Moduli (GPa) = 68.72690 34.88294 69.06193
#
# Poissons Ratio (x) = 0.05684 0.35210
# Poissons Ratio (y) = 0.11199 0.49354
# Poissons Ratio (z) = 0.35039 0.24928
#
# Static dielectric constant tensor:
#      x y z
#    x 3.897350 0.249630 0.051410 
#    y 0.249630 3.641630 -0.253690 
#    z 0.051410 -0.253690 4.228140 
# 
# 
# High freq. dielectric constant tensor:
#      x y z
#    x 1.816920 0.032300 0.000630 
#    y 0.032300 1.805240 -0.017090 
#    z 0.000630 -0.017090 1.863390 
# 
# From -- ./inp_files/172591.got.cif
#   From: 2010.06.25/outbox.cif.g09.slc.cpg/sg2_87_cif.got.tgz:172591.got - 2010.06.27 13:26:56.
