data_PCOD8029499
_publ_section_title
;
Structure prediction by ZEFSAII (Michael W. Deem and Ramdas Pophale) SiO2 
 PCOD8029499
Probable space group: P -1
;
_chemical_formula_sum "Si O2"
_cell_formula_units_Z 14
_cell_length_a 10.419307
_cell_length_b 9.022917
_cell_length_c 11.014197
_cell_angle_alpha 110.131769
_cell_angle_beta 114.022090
_cell_angle_gamma 119.886373
_cell_volume 592.941393
_symmetry_space_group_name_H-M "P -1"
_symmetry_group_IT_number 2
_symmetry_cell_setting 'triclinic'
loop_
_space_group_symop_operation_xyz
x,y,z
-x,-y,-z
loop_
_atom_site_type_symbol
_atom_site_label
_atom_site_fract_x
_atom_site_fract_y
_atom_site_fract_z
Si Si1 0.011621 0.822117 0.463346
Si Si2 0.092817 0.434562 0.174351
Si Si3 0.446493 0.560306 0.878152
Si Si4 0.282856 0.909815 0.394904
Si Si5 0.894426 0.014342 0.827425
Si Si6 0.585914 0.539206 0.678398
Si Si7 0.862958 0.072272 0.193548
O O1 0.792316 0.572946 0.250086
O O2 0.214816 0.919223 0.501944
O O3 0.000000 0.000000 0.500000
O O4 0.050011 0.795115 0.607053
O O5 0.103971 0.630181 0.210286
O O6 0.333259 0.572850 0.323173
O O7 0.946026 0.270434 0.186518
O O8 0.007471 0.269884 0.979448
O O9 0.450161 0.463997 0.724167
O O10 0.500000 0.500000 0.000000
O O11 0.608715 0.843419 0.021618
O O12 0.287196 0.069819 0.356556
O O13 0.500000 0.000000 0.500000
O O14 0.049638 0.032650 0.817657
O O15 0.792217 0.830207 0.848369
O O16 0.500000 0.500000 0.500000
#
# Coordination Sequence:
#
# PCOD8029499 Si02
#       7
#     2   2   2   2   2   2   2
#     4  12  26  44  69 102 141 181 239 290 342 430
#     4  11  23  42  67 101 144 175 230 291 347 420
#     4  12  22  39  72 104 135 182 237 284 351 408
#     4  12  28  45  67 101 140 184 228 292 362 409
#     4  11  20  43  69  99 137 182 233 279 342 427
#     4  11  22  38  72 105 135 180 238 286 342 420
#     4  11  22  45  74 103 138 183 235 289 350 418
#
# _framework density 23.611104000000001
#
# number of rings (size 3 to 8) (size 9 to 14) (size 15 to 20)
#    0.000    0.571    5.714    3.857    2.000    0.571 
#    2.571    0.714    0.000    0.000    0.000    0.000 
#    0.000    0.000    0.000    0.000    0.000    0.000 
#
# Total GULP energy -173497.439236 kJ/mol
# GULP energy per Si atom -12392.674231 kJ/mol
# Density = 2.355736 g / cm^3
# Si number density = 23.611104 Si / 1000 Ang^3
#
#
#
# Elastic Constant Matrix: (Units=GPa)
#
#
# Indices 1 2 3 4 5 6 
#
# 1 112.7523 33.0653 30.4577 -4.5545 1.6081 19.4029
# 2 33.0653 87.1027 0.3704 -3.1456 -9.1044 -0.2290
# 3 30.4577 0.3704 83.3810 -15.0387 4.7827 12.1558
# 4 -4.5545 -3.1456 -15.0387 40.1218 5.1941 -8.8285
# 5 1.6081 -9.1044 4.7827 5.1941 42.6556 2.1624
# 6 19.4029 -0.2290 12.1558 -8.8285 2.1624 31.5435
#
#
#
# Elastic Compliance Matrix: (Units=1/GPa)
#
#
# Indices 1 2 3 4 5 6 
#
# 1 0.012400 -0.004827 -0.003834 -0.001806 -0.000510 -0.006655
# 2 -0.004827 0.013637 0.001389 0.001297 0.002641 0.002715
# 3 -0.003834 0.001389 0.014644 0.004999 -0.001720 -0.001758
# 4 -0.001806 0.001297 0.004999 0.028891 -0.004117 0.007563
# 5 -0.000510 0.002641 -0.001720 -0.004117 0.024815 -0.001857
# 6 -0.006655 0.002715 -0.001758 0.007563 -0.001857 0.038737
#
#
# Mechanical properties :
#
#
# Convention : Reuss Voigt Hill
#
# Bulk Modulus (GPa) = 38.25937 45.66921 41.96429
# Shear Modulus (GPa) = 31.97321 37.48703 34.73012
#
# Velocity S-wave (km/s) = 3.68388 3.98890 3.83942
# Velocity P-wave (km/s) = 5.85951 6.37176 6.12100
#
# Compressibility (1/GPa) = 0.02613739
#
# Stress axis : x y z
#
# Youngs Moduli (GPa) = 80.64597 73.32871 68.28712
#
# Poissons Ratio (x) = 0.35395 0.26183
# Poissons Ratio (y) = 0.38927 -0.09487
# Poissons Ratio (z) = 0.30922 -0.10188
#
# Static dielectric constant tensor:
#      x y z
#    x 4.122450 0.178420 0.219310 
#    y 0.178420 4.403550 0.329910 
#    z 0.219310 0.329910 5.009940 
# 
# 
# High freq. dielectric constant tensor:
#      x y z
#    x 1.910930 0.016780 0.003910 
#    y 0.016780 1.940840 0.004370 
#    z 0.003910 0.004370 1.957900 
# 
# From -- ./inp_files/383322.got.cif
#   From: 2010.06.25/outbox.cif.g09.slc.cpg/sg2_192_cif.got.tgz:383322.got - 2010.06.27 13:26:56.
