data_PCOD8029542
_publ_section_title
;
Structure prediction by ZEFSAII (Michael W. Deem and Ramdas Pophale) SiO2 
 PCOD8029542
Probable space group: P -1
;
_chemical_formula_sum "Si O2"
_cell_formula_units_Z 16
_cell_length_a 8.875173
_cell_length_b 6.739703
_cell_length_c 21.931261
_cell_angle_alpha 128.770623
_cell_angle_beta 131.218356
_cell_angle_gamma 57.706688
_cell_volume 752.618204
_symmetry_space_group_name_H-M "P -1"
_symmetry_group_IT_number 2
_symmetry_cell_setting 'triclinic'
loop_
_space_group_symop_operation_xyz
x,y,z
-x,-y,-z
loop_
_atom_site_type_symbol
_atom_site_label
_atom_site_fract_x
_atom_site_fract_y
_atom_site_fract_z
Si Si1 0.495837 0.338198 0.325506
Si Si2 0.970791 0.439352 0.910465
Si Si3 0.712104 0.301447 0.025481
Si Si4 0.814676 0.149074 0.160803
Si Si5 0.823980 0.666830 0.659748
Si Si6 0.573431 0.814503 0.850408
Si Si7 0.779557 0.174667 0.476384
Si Si8 0.542785 0.073986 0.593135
O O1 0.305640 0.284646 0.303382
O O2 0.519894 0.156028 0.237092
O O3 0.705009 0.285210 0.410810
O O4 0.449645 0.627650 0.342659
O O5 0.104673 0.586807 0.932345
O O6 0.731117 0.537848 0.848517
O O7 0.035752 0.132879 0.856212
O O8 0.000000 0.500000 0.000000
O O9 0.750290 0.251913 0.097036
O O10 0.500000 0.500000 0.000000
O O11 0.703290 0.035685 0.937396
O O12 0.609891 0.146464 0.142830
O O13 0.938184 0.348468 0.264242
O O14 0.777651 0.406146 0.567811
O O15 0.758523 0.902406 0.639900
O O16 0.632378 0.988803 0.422205
O O17 0.000000 0.000000 0.500000
O O18 0.500000 0.000000 0.500000
#
# Coordination Sequence:
#
# PCOD8029542 Si02
#       8
#     2   2   2   2   2   2   2   2
#     4  11  24  45  67  98 132 175 226 276 336 399
#     4  12  25  46  75 100 135 184 227 277 344 401
#     4  12  25  48  72  98 141 182 223 285 338 398
#     4  12  27  47  68 103 139 177 229 284 334 407
#     4  11  24  44  68  96 135 175 223 277 335 400
#     4  12  26  46  71 102 137 179 229 279 342 403
#     4  11  25  42  65  99 135 175 219 275 338 399
#     4  11  20  44  72  89 128 179 222 272 333 398
#
# _framework density 21.259118000000001
#
# number of rings (size 3 to 8) (size 9 to 14) (size 15 to 20)
#    0.000    0.500    5.000    3.750    3.500    2.500 
#    4.500    0.000    0.000    0.000    0.000    0.000 
#    0.000    0.000    0.000    0.000    0.000    0.000 
#
# Total GULP energy -198474.309185 kJ/mol
# GULP energy per Si atom -12404.644324 kJ/mol
# Density = 2.121073 g / cm^3
# Si number density = 21.259118 Si / 1000 Ang^3
#
#
#
# Elastic Constant Matrix: (Units=GPa)
#
#
# Indices 1 2 3 4 5 6 
#
# 1 82.5928 34.8150 29.8323 -8.9255 -12.2173 -4.5210
# 2 34.8150 112.7698 29.1697 -20.7082 -0.1556 -1.9995
# 3 29.8323 29.1697 127.8075 -17.4668 -13.1918 7.5338
# 4 -8.9255 -20.7082 -17.4668 16.7147 7.2388 7.8827
# 5 -12.2173 -0.1556 -13.1918 7.2388 39.2018 -7.5749
# 6 -4.5210 -1.9995 7.5338 7.8827 -7.5749 39.8834
#
#
#
# Elastic Compliance Matrix: (Units=1/GPa)
#
#
# Indices 1 2 3 4 5 6 
#
# 1 0.015775 -0.005003 -0.002923 -0.005288 0.005705 0.004218
# 2 -0.005003 0.013865 0.000397 0.019894 -0.006014 -0.005021
# 3 -0.002923 0.000397 0.010306 0.012234 -0.000627 -0.004795
# 4 -0.005288 0.019894 0.012234 0.119809 -0.025455 -0.030427
# 5 0.005705 -0.006014 -0.000627 -0.025455 0.034064 0.011964
# 6 0.004218 -0.005021 -0.004795 -0.030427 0.011964 0.034491
#
#
# Mechanical properties :
#
#
# Convention : Reuss Voigt Hill
#
# Bulk Modulus (GPa) = 40.17746 56.75600 48.46673
# Shear Modulus (GPa) = 19.86772 34.45019 27.15896
#
# Velocity S-wave (km/s) = 3.06036 4.02990 3.57812
# Velocity P-wave (km/s) = 5.60604 6.95763 6.31808
#
# Compressibility (1/GPa) = 0.02488958
#
# Stress axis : x y z
#
# Youngs Moduli (GPa) = 63.39001 72.12280 97.03329
#
# Poissons Ratio (x) = 0.36080 0.28363
# Poissons Ratio (y) = 0.31712 -0.03855
# Poissons Ratio (z) = 0.18529 -0.02866
#
# Static dielectric constant tensor:
#      x y z
#    x 3.886650 0.107490 0.102480 
#    y 0.107490 4.462200 0.085400 
#    z 0.102480 0.085400 4.254820 
# 
# 
# High freq. dielectric constant tensor:
#      x y z
#    x 1.833160 0.005260 -0.001900 
#    y 0.005260 1.844160 -0.007570 
#    z -0.001900 -0.007570 1.850930 
# 
# From -- ./inp_files/106241.got.cif
#   From: 2010.06.25/outbox.cif.g09.slc.cpg/sg2_54_cif.got.tgz:106241.got - 2010.06.27 13:26:56.
