data_PCOD8029909
_publ_section_title
;
Structure prediction by ZEFSAII (Michael W. Deem and Ramdas Pophale) SiO2 
 PCOD8029909
Probable space group: P -1
;
_chemical_formula_sum "Si O2"
_cell_formula_units_Z 14
_cell_length_a 8.849786
_cell_length_b 8.039845
_cell_length_c 11.840795
_cell_angle_alpha 39.774546
_cell_angle_beta 72.592271
_cell_angle_gamma 74.249067
_cell_volume 513.117027
_symmetry_space_group_name_H-M "P -1"
_symmetry_group_IT_number 2
_symmetry_cell_setting 'triclinic'
loop_
_space_group_symop_operation_xyz
x,y,z
-x,-y,-z
loop_
_atom_site_type_symbol
_atom_site_label
_atom_site_fract_x
_atom_site_fract_y
_atom_site_fract_z
Si Si1 0.420382 0.780627 0.854772
Si Si2 0.326936 0.947764 0.026741
Si Si3 0.966108 0.760863 0.052207
Si Si4 0.266473 0.506800 0.430860
Si Si5 0.132730 0.965478 0.697772
Si Si6 0.570662 0.163840 0.497806
Si Si7 0.902286 0.254060 0.437623
O O1 0.307740 0.810227 0.751796
O O2 0.560597 0.977491 0.708384
O O3 0.500000 0.500000 0.000000
O O4 0.313812 0.860388 0.945101
O O5 0.236845 0.727624 0.228310
O O6 0.500000 0.000000 0.000000
O O7 0.226299 0.221422 0.924350
O O8 0.009342 0.473522 0.244806
O O9 0.033849 0.801394 0.892025
O O10 0.000000 0.000000 0.000000
O O11 0.455436 0.420341 0.420044
O O12 0.214869 0.631068 0.496934
O O13 0.152715 0.269454 0.562874
O O14 0.020168 0.000747 0.588520
O O15 0.758986 0.188335 0.415860
O O16 0.500000 0.000000 0.500000
#
# Coordination Sequence:
#
# PCOD8029909 Si02
#       7
#     2   2   2   2   2   2   2
#     4  11  25  46  69  95 139 187 234 288 346 420
#     4  12  23  38  69 106 136 181 235 283 343 417
#     4  12  21  40  69 111 145 174 226 295 358 408
#     4  11  21  40  71 102 142 181 228 292 353 410
#     4  11  24  42  69 109 139 178 233 294 359 415
#     4  11  25  47  67  97 143 193 239 281 347 423
#     4  12  23  42  74 105 141 180 232 299 350 410
#
# _framework density 27.284224999999999
#
# number of rings (size 3 to 8) (size 9 to 14) (size 15 to 20)
#    0.000    0.571    4.286    5.143    0.000    0.000 
#    0.000    3.571    0.000    0.000    0.000    0.000 
#    0.000    0.000    0.000    0.000    0.000    0.000 
#
# Total GULP energy -173449.740522 kJ/mol
# GULP energy per Si atom -12389.267180 kJ/mol
# Density = 2.722212 g / cm^3
# Si number density = 27.284225 Si / 1000 Ang^3
#
#
#
# Elastic Constant Matrix: (Units=GPa)
#
#
# Indices 1 2 3 4 5 6 
#
# 1 150.8327 54.6129 48.2851 4.6847 12.9461 -5.4177
# 2 54.6129 83.3465 39.6567 -3.9048 17.2387 -6.0667
# 3 48.2851 39.6567 199.0264 -1.6207 8.2762 0.9603
# 4 4.6847 -3.9048 -1.6207 46.8119 -5.5125 6.3429
# 5 12.9461 17.2387 8.2762 -5.5125 47.9615 2.0560
# 6 -5.4177 -6.0667 0.9603 6.3429 2.0560 57.4292
#
#
#
# Elastic Compliance Matrix: (Units=1/GPa)
#
#
# Indices 1 2 3 4 5 6 
#
# 1 0.009019 -0.005300 -0.001125 -0.001513 -0.000531 0.000496
# 2 -0.005300 0.017506 -0.002015 0.001208 -0.004435 0.001408
# 3 -0.001125 -0.002015 0.005699 0.000212 0.000088 -0.000441
# 4 -0.001513 0.001208 0.000212 0.022277 0.002609 -0.002573
# 5 -0.000531 -0.004435 0.000088 0.002609 0.022942 -0.001630
# 6 0.000496 0.001408 -0.000441 -0.002573 -0.001630 0.017958
#
#
# Mechanical properties :
#
#
# Convention : Reuss Voigt Hill
#
# Bulk Modulus (GPa) = 65.16602 79.81279 72.48940
# Shear Modulus (GPa) = 42.59101 49.81723 46.20412
#
# Velocity S-wave (km/s) = 3.95525 4.27765 4.11960
# Velocity P-wave (km/s) = 6.69288 7.32895 7.01813
#
# Compressibility (1/GPa) = 0.01534542
#
# Stress axis : x y z
#
# Youngs Moduli (GPa) = 110.87465 57.12353 175.46875
#
# Poissons Ratio (x) = 0.30274 0.19736
# Poissons Ratio (y) = 0.58760 0.35355
# Poissons Ratio (z) = 0.12471 0.11510
#
# Static dielectric constant tensor:
#      x y z
#    x 5.398260 -0.288740 0.172920 
#    y -0.288740 5.305470 0.096850 
#    z 0.172920 0.096850 4.979590 
# 
# 
# High freq. dielectric constant tensor:
#      x y z
#    x 2.121860 -0.017300 0.002890 
#    y -0.017300 2.112450 0.022170 
#    z 0.002890 0.022170 2.122930 
# 
# From -- ./inp_files/380851.got.cif
#   From: 2010.06.25/outbox.cif.g09.slc.cpg/sg2_191_cif.got.tgz:380851.got - 2010.06.27 13:26:56.
