data_PCOD8029412
_publ_section_title
;
Structure prediction by ZEFSAII (Michael W. Deem and Ramdas Pophale) SiO2 
 PCOD8029412
Probable space group: P -1
;
_chemical_formula_sum "Si O2"
_cell_formula_units_Z 12
_cell_length_a 9.233070
_cell_length_b 17.203050
_cell_length_c 12.228483
_cell_angle_alpha 21.890975
_cell_angle_beta 68.824025
_cell_angle_gamma 58.592677
_cell_volume 570.599514
_symmetry_space_group_name_H-M "P -1"
_symmetry_group_IT_number 2
_symmetry_cell_setting 'triclinic'
loop_
_space_group_symop_operation_xyz
x,y,z
-x,-y,-z
loop_
_atom_site_type_symbol
_atom_site_label
_atom_site_fract_x
_atom_site_fract_y
_atom_site_fract_z
Si Si1 0.023507 0.155543 0.380817
Si Si2 0.123612 0.830960 0.381039
Si Si3 0.887883 0.407984 0.713347
Si Si4 0.373568 0.973767 0.655816
Si Si5 0.088487 0.405047 0.305777
Si Si6 0.511520 0.508352 0.615285
O O1 0.860269 0.255780 0.383929
O O2 0.212557 0.977868 0.625921
O O3 0.000000 0.000000 0.500000
O O4 0.021508 0.385180 0.029249
O O5 0.323240 0.753044 0.385887
O O6 0.034486 0.712364 0.484158
O O7 0.987079 0.122242 0.032605
O O8 0.885250 0.468393 0.762362
O O9 0.678139 0.542251 0.555375
O O10 0.000000 0.500000 0.500000
O O11 0.500000 0.000000 0.500000
O O12 0.287774 0.199039 0.471909
O O13 0.478976 0.722690 0.025205
O O14 0.500000 0.500000 0.500000
#
# Coordination Sequence:
#
# PCOD8029412 Si02
#       6
#     2   2   2   2   2   2
#     4  11  20  41  70 101 134 175 223 280 344 405
#     4  11  24  46  70  96 142 176 226 285 339 401
#     4  12  27  46  69 102 135 184 234 280 342 408
#     4  11  23  42  69 103 138 178 230 281 342 407
#     4  11  22  44  73  97 140 180 224 285 346 405
#     4  12  26  46  70 102 139 184 231 280 344 412
#
# _framework density 21.030514
#
# number of rings (size 3 to 8) (size 9 to 14) (size 15 to 20)
#    0.000    0.667    5.000    5.000    2.333    3.333 
#    3.000    3.333    0.000    0.000    0.000    0.000 
#    0.000    0.000    0.000    0.000    0.000    0.000 
#
# Total GULP energy -148803.664535 kJ/mol
# GULP energy per Si atom -12400.305378 kJ/mol
# Density = 2.098265 g / cm^3
# Si number density = 21.030514 Si / 1000 Ang^3
#
#
#
# Elastic Constant Matrix: (Units=GPa)
#
#
# Indices 1 2 3 4 5 6 
#
# 1 127.3417 73.6123 39.2618 2.1819 1.5583 -8.5199
# 2 73.6123 131.1102 26.3366 5.7975 10.4475 -13.7847
# 3 39.2618 26.3366 73.1776 9.7482 -7.0058 -0.1388
# 4 2.1819 5.7975 9.7482 42.2903 -0.7426 0.3071
# 5 1.5583 10.4475 -7.0058 -0.7426 33.5812 4.3998
# 6 -8.5199 -13.7847 -0.1388 0.3071 4.3998 47.9021
#
#
#
# Elastic Compliance Matrix: (Units=1/GPa)
#
#
# Indices 1 2 3 4 5 6 
#
# 1 0.013041 -0.006391 -0.004839 0.001322 0.000347 0.000426
# 2 -0.006391 0.012114 -0.001164 -0.001154 -0.004098 0.002730
# 3 -0.004839 -0.001164 0.017569 -0.003553 0.004373 -0.001524
# 4 0.001322 -0.001154 -0.003553 0.024560 0.000136 -0.000277
# 5 0.000347 -0.004098 0.004373 0.000136 0.032489 -0.004090
# 6 0.000426 0.002730 -0.001524 -0.000277 -0.004090 0.022110
#
#
# Mechanical properties :
#
#
# Convention : Reuss Voigt Hill
#
# Bulk Modulus (GPa) = 55.75261 67.78345 61.76803
# Shear Modulus (GPa) = 32.75473 37.58263 35.16868
#
# Velocity S-wave (km/s) = 3.95078 4.23194 4.09378
# Velocity P-wave (km/s) = 6.88327 7.49534 7.19582
#
# Compressibility (1/GPa) = 0.01793638
#
# Stress axis : x y z
#
# Youngs Moduli (GPa) = 76.68178 82.54898 56.91687
#
# Poissons Ratio (x) = 0.52759 0.27540
# Poissons Ratio (y) = 0.49009 0.06626
# Poissons Ratio (z) = 0.37103 0.09610
#
# Static dielectric constant tensor:
#      x y z
#    x 5.105000 -1.561520 -1.152580 
#    y -1.561520 5.777860 1.378290 
#    z -1.152580 1.378290 5.097240 
# 
# 
# High freq. dielectric constant tensor:
#      x y z
#    x 1.817630 0.000720 -0.006080 
#    y 0.000720 1.840170 0.006310 
#    z -0.006080 0.006310 1.833380 
# 
# From -- ./inp_files/221446.got.cif
#   From: 2010.06.25/outbox.cif.g09.slc.cpg/sg2_111_cif.got.tgz:221446.got - 2010.06.27 13:26:56.
