data_PCOD8029622
_publ_section_title
;
Structure prediction by ZEFSAII (Michael W. Deem and Ramdas Pophale) SiO2 
 PCOD8029622
Probable space group: P -1
;
_chemical_formula_sum "Si O2"
_cell_formula_units_Z 16
_cell_length_a 25.743978
_cell_length_b 9.202341
_cell_length_c 25.708563
_cell_angle_alpha 42.119355
_cell_angle_beta 10.950566
_cell_angle_gamma 42.265526
_cell_volume 772.615747
_symmetry_space_group_name_H-M "P -1"
_symmetry_group_IT_number 2
_symmetry_cell_setting 'triclinic'
loop_
_space_group_symop_operation_xyz
x,y,z
-x,-y,-z
loop_
_atom_site_type_symbol
_atom_site_label
_atom_site_fract_x
_atom_site_fract_y
_atom_site_fract_z
Si Si1 0.567787 0.746423 0.497154
Si Si2 0.932427 0.580547 0.383335
Si Si3 0.114443 0.650630 0.037577
Si Si4 0.410450 0.380374 0.904730
Si Si5 0.572927 0.734627 0.379565
Si Si6 0.454008 0.088958 0.079913
Si Si7 0.071679 0.615175 0.452798
Si Si8 0.992537 0.992634 0.150289
O O1 0.678429 0.695322 0.344743
O O2 0.795954 0.636191 0.341667
O O3 0.500000 0.000000 0.500000
O O4 0.285325 0.648427 0.816652
O O5 0.673889 0.512656 0.622161
O O6 0.885776 0.566515 0.494976
O O7 0.991035 0.826506 0.244621
O O8 0.202115 0.417114 0.148708
O O9 0.240641 0.453376 0.001011
O O10 0.128239 0.872195 0.998046
O O11 0.499307 0.127556 0.873674
O O12 0.500000 0.500000 0.500000
O O13 0.314683 0.912419 0.583693
O O14 0.809527 0.812971 0.087722
O O15 0.148557 0.191552 0.364160
O O16 0.648159 0.271456 0.858275
O O17 0.500000 0.000000 0.000000
O O18 0.000000 0.500000 0.500000
#
# Coordination Sequence:
#
# PCOD8029622 Si02
#       8
#     2   2   2   2   2   2   2   2
#     4  12  21  38  62  88 120 151 202 259 313 358
#     4  11  21  39  64  93 124 164 212 261 315 386
#     4  11  21  37  61  95 119 154 205 263 315 359
#     4  11  22  37  65  96 126 159 213 270 316 368
#     4  12  25  40  59  89 120 163 204 250 307 380
#     4  12  22  42  68  97 131 169 223 269 322 380
#     4  12  25  42  65 101 136 175 217 266 327 391
#     4  11  21  39  62  87 120 159 209 252 307 376
#
# _framework density 20.708872
#
# number of rings (size 3 to 8) (size 9 to 14) (size 15 to 20)
#    0.000    0.500    5.000    6.000    0.000    0.000 
#    0.000    3.750    0.000    0.000    0.000    0.000 
#    0.000    0.000    0.000    0.000    0.000    0.000 
#
# Total GULP energy -198343.691553 kJ/mol
# GULP energy per Si atom -12396.480722 kJ/mol
# Density = 2.066174 g / cm^3
# Si number density = 20.708872 Si / 1000 Ang^3
#
#
#
# Elastic Constant Matrix: (Units=GPa)
#
#
# Indices 1 2 3 4 5 6 
#
# 1 107.8566 51.8573 21.8988 -10.1450 -2.0776 -14.4323
# 2 51.8573 83.4630 17.0394 -9.4120 -3.7705 -15.9175
# 3 21.8988 17.0394 99.3438 -8.3966 -5.2806 -11.5034
# 4 -10.1450 -9.4120 -8.3966 41.0419 -4.7712 -4.1667
# 5 -2.0776 -3.7705 -5.2806 -4.7712 29.5112 -1.4580
# 6 -14.4323 -15.9175 -11.5034 -4.1667 -1.4580 30.5509
#
#
#
# Elastic Compliance Matrix: (Units=1/GPa)
#
#
# Indices 1 2 3 4 5 6 
#
# 1 0.013640 -0.007599 -0.001305 0.001602 0.000124 0.002217
# 2 -0.007599 0.018494 -0.000331 0.003258 0.002616 0.006490
# 3 -0.001305 -0.000331 0.011212 0.002580 0.002482 0.003904
# 4 0.001602 0.003258 0.002580 0.027467 0.005799 0.007448
# 5 0.000124 0.002616 0.002482 0.005799 0.035850 0.004858
# 6 0.002217 0.006490 0.003904 0.007448 0.004858 0.039879
#
#
# Mechanical properties :
#
#
# Convention : Reuss Voigt Hill
#
# Bulk Modulus (GPa) = 40.19850 52.47272 46.33561
# Shear Modulus (GPa) = 28.85107 33.54532 31.19820
#
# Velocity S-wave (km/s) = 3.73657 4.02911 3.88559
# Velocity P-wave (km/s) = 6.17004 6.85844 6.52333
#
# Compressibility (1/GPa) = 0.02487655
#
# Stress axis : x y z
#
# Youngs Moduli (GPa) = 73.31416 54.07176 89.18675
#
# Poissons Ratio (x) = 0.41091 0.11635
# Poissons Ratio (y) = 0.55714 0.02952
# Poissons Ratio (z) = 0.09564 0.01790
#
# Static dielectric constant tensor:
#      x y z
#    x 3.592110 -0.441360 0.295900 
#    y -0.441360 4.102590 -0.131380 
#    z 0.295900 -0.131380 4.452540 
# 
# 
# High freq. dielectric constant tensor:
#      x y z
#    x 1.793810 -0.029620 -0.000810 
#    y -0.029620 1.799890 0.005060 
#    z -0.000810 0.005060 1.832240 
# 
# From -- ./inp_files/226241.got.cif
#   From: 2010.06.25/outbox.cif.g09.slc.cpg/sg2_114_cif.got.tgz:226241.got - 2010.06.27 13:26:56.
