data_PCOD8029617
_publ_section_title
;
Structure prediction by ZEFSAII (Michael W. Deem and Ramdas Pophale) SiO2 
 PCOD8029617
Probable space group: P -1
;
_chemical_formula_sum "Si O2"
_cell_formula_units_Z 14
_cell_length_a 9.868847
_cell_length_b 21.836399
_cell_length_c 18.072303
_cell_angle_alpha 155.301615
_cell_angle_beta 149.137493
_cell_angle_gamma 30.727565
_cell_volume 774.876926
_symmetry_space_group_name_H-M "P -1"
_symmetry_group_IT_number 2
_symmetry_cell_setting 'triclinic'
loop_
_space_group_symop_operation_xyz
x,y,z
-x,-y,-z
loop_
_atom_site_type_symbol
_atom_site_label
_atom_site_fract_x
_atom_site_fract_y
_atom_site_fract_z
Si Si1 0.729616 0.953561 0.751946
Si Si2 0.820695 0.777338 0.371711
Si Si3 0.652585 0.108555 0.600486
Si Si4 0.799417 0.366030 0.012978
Si Si5 0.284063 0.481749 0.319476
Si Si6 0.656560 0.250482 0.966791
Si Si7 0.685654 0.239833 0.130114
O O1 0.474283 0.895407 0.545698
O O2 0.008812 0.799786 0.731079
O O3 0.784175 0.056777 0.821836
O O4 0.641651 0.072550 0.912406
O O5 0.620719 0.817098 0.393333
O O6 0.674219 0.700821 0.158163
O O7 0.132660 0.651961 0.397699
O O8 0.856989 0.933832 0.529340
O O9 0.836019 0.219859 0.813787
O O10 0.052129 0.427576 0.190116
O O11 0.500000 0.500000 0.000000
O O12 0.821061 0.308741 0.045694
O O13 0.500000 0.500000 0.500000
O O14 0.440554 0.353826 0.190885
O O15 0.678298 0.323297 0.137799
#
# Coordination Sequence:
#
# PCOD8029617 Si02
#       7
#     2   2   2   2   2   2   2
#     4   8  16  35  61  85 109 157 192 221 291 344
#     4   9  17  32  56  83 109 148 194 223 282 333
#     4   9  16  33  60  80 105 152 197 227 261 354
#     4  11  21  37  57  89 114 148 194 238 280 337
#     4  12  24  37  55  88 122 146 187 245 294 327
#     4   8  16  35  59  80 110 150 198 220 273 347
#     4   9  19  34  59  85 117 153 188 232 285 347
#
# _framework density 18.067385000000002
#
# number of rings (size 3 to 8) (size 9 to 14) (size 15 to 20)
#    0.857    1.714    2.857    1.714    0.000    0.571 
#    0.000    4.286    0.000    0.000    0.000    0.000 
#    0.000    0.000    0.000    0.000    0.000    0.000 
#
# Total GULP energy -173438.239924 kJ/mol
# GULP energy per Si atom -12388.445709 kJ/mol
# Density = 1.802626 g / cm^3
# Si number density = 18.067385 Si / 1000 Ang^3
#
#
#
# Elastic Constant Matrix: (Units=GPa)
#
#
# Indices 1 2 3 4 5 6 
#
# 1 70.3756 41.1335 39.4630 -6.0741 -8.7215 3.6958
# 2 41.1335 136.2699 51.7837 -9.8898 -6.7173 2.7366
# 3 39.4630 51.7837 115.6629 -11.9391 3.3845 6.5805
# 4 -6.0741 -9.8898 -11.9391 27.5509 5.7233 -7.2794
# 5 -8.7215 -6.7173 3.3845 5.7233 20.0490 -2.2488
# 6 3.6958 2.7366 6.5805 -7.2794 -2.2488 24.3241
#
#
#
# Elastic Compliance Matrix: (Units=1/GPa)
#
#
# Indices 1 2 3 4 5 6 
#
# 1 0.020623 -0.003678 -0.005749 -0.001329 0.009007 -0.000729
# 2 -0.003678 0.009798 -0.003116 0.001166 0.001969 0.000831
# 3 -0.005749 -0.003116 0.012732 0.004170 -0.007067 -0.001626
# 4 -0.001329 0.001166 0.004170 0.043621 -0.012124 0.010876
# 5 0.009007 0.001969 -0.007067 -0.012124 0.059354 0.002181
# 6 -0.000729 0.000831 -0.001626 0.010876 0.002181 0.045025
#
#
# Mechanical properties :
#
#
# Convention : Reuss Voigt Hill
#
# Bulk Modulus (GPa) = 55.35105 65.22985 60.29045
# Shear Modulus (GPa) = 22.49605 27.04669 24.77137
#
# Velocity S-wave (km/s) = 3.53245 3.87329 3.70679
# Velocity P-wave (km/s) = 6.88041 7.49568 7.19462
#
# Compressibility (1/GPa) = 0.01806650
#
# Stress axis : x y z
#
# Youngs Moduli (GPa) = 48.49019 102.06330 78.54219
#
# Poissons Ratio (x) = 0.37542 0.45151
# Poissons Ratio (y) = 0.17836 0.24475
# Poissons Ratio (z) = 0.27875 0.31804
#
# Static dielectric constant tensor:
#      x y z
#    x 3.082210 0.242230 -0.246030 
#    y 0.242230 3.372570 0.022690 
#    z -0.246030 0.022690 3.521910 
# 
# 
# High freq. dielectric constant tensor:
#      x y z
#    x 1.656160 0.021600 -0.028060 
#    y 0.021600 1.701130 -0.000670 
#    z -0.028060 -0.000670 1.695540 
# 
# From -- ./inp_files/562950.got.cif
#   From: 2010.06.25/outbox.cif.g09.slc.cpg/sg2_282_cif.got.tgz:562950.got - 2010.06.27 13:26:56.
