data_PCOD8029515
_publ_section_title
;
Structure prediction by ZEFSAII (Michael W. Deem and Ramdas Pophale) SiO2 
 PCOD8029515
Probable space group: P -1
;
_chemical_formula_sum "Si O2"
_cell_formula_units_Z 16
_cell_length_a 28.386646
_cell_length_b 12.730403
_cell_length_c 9.256451
_cell_angle_alpha 150.083505
_cell_angle_beta 140.745967
_cell_angle_gamma 26.301103
_cell_volume 739.147553
_symmetry_space_group_name_H-M "P -1"
_symmetry_group_IT_number 2
_symmetry_cell_setting 'triclinic'
loop_
_space_group_symop_operation_xyz
x,y,z
-x,-y,-z
loop_
_atom_site_type_symbol
_atom_site_label
_atom_site_fract_x
_atom_site_fract_y
_atom_site_fract_z
Si Si1 0.703114 0.436593 0.633835
Si Si2 0.799158 0.675571 0.209238
Si Si3 0.126653 0.253857 0.805716
Si Si4 0.896097 0.304602 0.540116
Si Si5 0.484539 0.705517 0.090305
Si Si6 0.046151 0.732559 0.680011
Si Si7 0.335971 0.372012 0.545132
Si Si8 0.400897 0.672862 0.570257
O O1 0.644848 0.642514 0.599505
O O2 0.622150 0.524415 0.673636
O O3 0.766433 0.095797 0.335612
O O4 0.777112 0.470013 0.912399
O O5 0.866788 0.597306 0.134894
O O6 0.866529 0.581407 0.401488
O O7 0.695718 0.029405 0.393027
O O8 0.035942 0.268358 0.579684
O O9 0.109899 0.434653 0.122255
O O10 0.903551 0.257200 0.328876
O O11 0.789435 0.393059 0.439320
O O12 0.000000 0.000000 0.500000
O O13 0.602895 0.553294 0.148159
O O14 0.403712 0.037776 0.364181
O O15 0.500000 0.500000 0.000000
O O16 0.422069 0.756016 0.864013
O O17 0.000000 0.000000 0.000000
O O18 0.500000 0.500000 0.500000
#
# Coordination Sequence:
#
# PCOD8029515 Si02
#       8
#     2   2   2   2   2   2   2   2
#     4  11  20  43  73  92 137 186 230 290 350 413
#     4  11  23  44  69  95 135 188 228 285 354 421
#     4  11  23  45  73  96 138 188 236 283 350 417
#     4  12  26  46  72 108 143 182 239 290 348 426
#     4  11  23  43  72  98 134 181 235 291 348 404
#     4  12  25  44  69 103 143 183 227 286 355 421
#     4  11  23  43  72 100 132 181 237 292 341 410
#     4  11  25  42  62 101 138 180 225 286 360 417
#
# _framework density 21.646556
#
# number of rings (size 3 to 8) (size 9 to 14) (size 15 to 20)
#    0.000    0.750    5.000    3.000    0.000    2.500 
#    2.250    0.000    0.000    0.000    0.000    0.000 
#    0.000    0.000    0.000    0.000    0.000    0.000 
#
# Total GULP energy -198339.488674 kJ/mol
# GULP energy per Si atom -12396.218042 kJ/mol
# Density = 2.159729 g / cm^3
# Si number density = 21.646556 Si / 1000 Ang^3
#
#
#
# Elastic Constant Matrix: (Units=GPa)
#
#
# Indices 1 2 3 4 5 6 
#
# 1 143.8264 51.5757 33.9532 12.0477 9.0316 -0.6623
# 2 51.5757 129.7463 6.7247 2.0504 4.1073 4.8196
# 3 33.9532 6.7247 60.3508 3.3326 15.3966 -1.5142
# 4 12.0477 2.0504 3.3326 32.0786 -1.3733 6.2129
# 5 9.0316 4.1073 15.3966 -1.3733 39.0406 -7.7146
# 6 -0.6623 4.8196 -1.5142 6.2129 -7.7146 42.7860
#
#
#
# Elastic Compliance Matrix: (Units=1/GPa)
#
#
# Indices 1 2 3 4 5 6 
#
# 1 0.009629 -0.003563 -0.004863 -0.003041 0.000125 0.000842
# 2 -0.003563 0.009127 0.001112 0.000859 -0.000804 -0.001314
# 3 -0.004863 0.001112 0.021106 -0.000620 -0.007478 -0.000712
# 4 -0.003041 0.000859 -0.000620 0.033302 0.001079 -0.004807
# 5 0.000125 -0.000804 -0.007478 0.001079 0.029649 0.005017
# 6 0.000842 -0.001314 -0.000712 -0.004807 0.005017 0.025111
#
#
# Mechanical properties :
#
#
# Convention : Reuss Voigt Hill
#
# Bulk Modulus (GPa) = 39.62852 57.60341 48.61597
# Shear Modulus (GPa) = 33.12078 38.89235 36.00657
#
# Velocity S-wave (km/s) = 3.91586 4.24335 4.08289
# Velocity P-wave (km/s) = 6.22833 7.11875 6.68838
#
# Compressibility (1/GPa) = 0.02523435
#
# Stress axis : x y z
#
# Youngs Moduli (GPa) = 103.84936 109.56914 47.37986
#
# Poissons Ratio (x) = 0.39038 0.23042
# Poissons Ratio (y) = 0.37000 -0.05270
# Poissons Ratio (z) = 0.50503 -0.12186
#
# Static dielectric constant tensor:
#      x y z
#    x 5.531280 -0.451520 0.789000 
#    y -0.451520 4.177680 -0.261420 
#    z 0.789000 -0.261420 4.000750 
# 
# 
# High freq. dielectric constant tensor:
#      x y z
#    x 1.850150 0.003700 0.025650 
#    y 0.003700 1.867530 -0.010000 
#    z 0.025650 -0.010000 1.839280 
# 
# From -- ./inp_files/332634.got.cif
#   From: 2010.06.25/outbox.cif.g09.slc.cpg/sg2_167_cif.got.tgz:332634.got - 2010.06.27 13:26:56.
