data_PCOD8029119
_publ_section_title
;
Structure prediction by ZEFSAII (Michael W. Deem and Ramdas Pophale) SiO2 
 PCOD8029119
Probable space group: P -1
;
_chemical_formula_sum "Si O2"
_cell_formula_units_Z 16
_cell_length_a 14.440682
_cell_length_b 20.958851
_cell_length_c 22.189328
_cell_angle_alpha 13.033599
_cell_angle_beta 148.456838
_cell_angle_gamma 149.842535
_cell_volume 757.991601
_symmetry_space_group_name_H-M "P -1"
_symmetry_group_IT_number 2
_symmetry_cell_setting 'triclinic'
loop_
_space_group_symop_operation_xyz
x,y,z
-x,-y,-z
loop_
_atom_site_type_symbol
_atom_site_label
_atom_site_fract_x
_atom_site_fract_y
_atom_site_fract_z
Si Si1 0.745708 0.734068 0.475280
Si Si2 0.285443 0.367109 0.162569
Si Si3 0.495465 0.044680 0.641300
Si Si4 0.893477 0.173716 0.060585
Si Si5 0.419341 0.693400 0.423668
Si Si6 0.921413 0.154926 0.762200
Si Si7 0.969342 0.798791 0.725126
Si Si8 0.172121 0.041863 0.907779
O O1 0.558092 0.693698 0.444831
O O2 0.750004 0.856117 0.296288
O O3 0.887372 0.037526 0.296581
O O4 0.818541 0.448935 0.785552
O O5 0.446763 0.204747 0.405597
O O6 0.108957 0.228439 0.149335
O O7 0.231079 0.290873 0.273323
O O8 0.359353 0.712638 0.872686
O O9 0.480428 0.198715 0.556132
O O10 0.701689 0.038791 0.748915
O O11 0.891800 0.162005 0.998450
O O12 0.293405 0.364045 0.661327
O O13 0.293734 0.903747 0.145834
O O14 0.000000 0.500000 0.500000
O O15 0.988273 0.064078 0.818874
O O16 0.000000 0.000000 0.000000
O O17 0.000000 0.000000 0.500000
O O18 0.000000 0.500000 0.000000
#
# Coordination Sequence:
#
# PCOD8029119 Si02
#       8
#     2   2   2   2   2   2   2   2
#     4  11  23  39  60  93 132 177 214 261 306 379
#     4  11  23  39  61  92 129 172 206 260 317 380
#     4  12  23  40  67  98 127 157 213 277 327 379
#     4  11  25  44  62  89 136 181 218 246 313 387
#     4  12  24  39  66 100 128 163 222 268 325 372
#     4  12  23  46  68  98 127 159 209 272 348 384
#     4  11  20  35  56  86 126 170 212 254 310 364
#     4  12  25  44  67  92 128 173 213 271 321 390
#
# _framework density 21.108412999999999
#
# number of rings (size 3 to 8) (size 9 to 14) (size 15 to 20)
#    0.000    0.500    2.500    8.250    0.000    3.000 
#    0.000    1.250    0.000    0.000    0.000    0.000 
#    0.000    0.000    0.000    0.000    0.000    0.000 
#
# Total GULP energy -198250.383036 kJ/mol
# GULP energy per Si atom -12390.648940 kJ/mol
# Density = 2.106037 g / cm^3
# Si number density = 21.108413 Si / 1000 Ang^3
#
#
#
# Elastic Constant Matrix: (Units=GPa)
#
#
# Indices 1 2 3 4 5 6 
#
# 1 104.4577 31.6274 11.1214 0.1859 4.4140 5.5084
# 2 31.6274 87.5825 32.8745 -1.1798 1.6171 5.2293
# 3 11.1214 32.8745 135.0840 -5.9148 6.7329 -11.1557
# 4 0.1859 -1.1798 -5.9148 37.4915 8.2615 -3.7150
# 5 4.4140 1.6171 6.7329 8.2615 25.2167 2.5329
# 6 5.5084 5.2293 -11.1557 -3.7150 2.5329 25.2840
#
#
#
# Elastic Compliance Matrix: (Units=1/GPa)
#
#
# Indices 1 2 3 4 5 6 
#
# 1 0.010866 -0.003807 -0.000010 0.000017 -0.001517 -0.001430
# 2 -0.003807 0.014350 -0.003611 -0.000797 0.001372 -0.003986
# 3 -0.000010 -0.003611 0.009030 0.002647 -0.003596 0.005482
# 4 0.000017 -0.000797 0.002647 0.030229 -0.011255 0.006898
# 5 -0.001517 0.001372 -0.003596 -0.011255 0.045257 -0.007727
# 6 -0.001430 -0.003986 0.005482 0.006898 -0.007727 0.044893
#
#
# Mechanical properties :
#
#
# Convention : Reuss Voigt Hill
#
# Bulk Modulus (GPa) = 51.57065 53.15230 52.36147
# Shear Modulus (GPa) = 28.41791 34.36518 31.39154
#
# Velocity S-wave (km/s) = 3.67315 4.03927 3.86055
# Velocity P-wave (km/s) = 6.51719 6.85489 6.68817
#
# Compressibility (1/GPa) = 0.01939088
#
# Stress axis : x y z
#
# Youngs Moduli (GPa) = 92.02704 69.68665 110.73783
#
# Poissons Ratio (x) = 0.26528 0.00110
# Poissons Ratio (y) = 0.35032 0.39991
# Poissons Ratio (z) = 0.00091 0.25166
#
# Static dielectric constant tensor:
#      x y z
#    x 2.434490 1.017160 1.374230 
#    y 1.017160 3.460870 -0.723910 
#    z 1.374230 -0.723910 2.675010 
# 
# 
# High freq. dielectric constant tensor:
#      x y z
#    x 1.819980 0.008180 -0.007500 
#    y 0.008180 1.830370 0.000720 
#    z -0.007500 0.000720 1.854650 
# 
# From -- ./inp_files/454749.got.cif
#   From: 2010.06.25/outbox.cif.g09.slc.cpg/sg2_228_cif.got.tgz:454749.got - 2010.06.27 13:26:56.
