data_PCOD8029868
_publ_section_title
;
Structure prediction by ZEFSAII (Michael W. Deem and Ramdas Pophale) SiO2 
 PCOD8029868
Probable space group: P -1
;
_chemical_formula_sum "Si O2"
_cell_formula_units_Z 12
_cell_length_a 13.447180
_cell_length_b 8.617272
_cell_length_c 12.556432
_cell_angle_alpha 51.278377
_cell_angle_beta 58.033927
_cell_angle_gamma 100.546053
_cell_volume 606.406227
_symmetry_space_group_name_H-M "P -1"
_symmetry_group_IT_number 2
_symmetry_cell_setting 'triclinic'
loop_
_space_group_symop_operation_xyz
x,y,z
-x,-y,-z
loop_
_atom_site_type_symbol
_atom_site_label
_atom_site_fract_x
_atom_site_fract_y
_atom_site_fract_z
Si Si1 0.168656 0.347110 0.710420
Si Si2 0.522022 0.186904 0.500301
Si Si3 0.528293 0.437049 0.698282
Si Si4 0.692600 0.184358 0.020836
Si Si5 0.934384 0.398950 0.460798
Si Si6 0.524545 0.714899 0.970948
O O1 0.291428 0.604454 0.625623
O O2 0.291839 0.362505 0.562183
O O3 0.089320 0.413336 0.652684
O O4 0.000000 0.000000 0.000000
O O5 0.537852 0.425422 0.338763
O O6 0.500000 0.000000 0.500000
O O7 0.341334 0.926859 0.790332
O O8 0.364343 0.070671 0.915542
O O9 0.574888 0.462217 0.784554
O O10 0.566694 0.209392 0.058431
O O11 0.910530 0.513555 0.735349
O O12 0.000000 0.500000 0.500000
O O13 0.744595 0.027591 0.725000
O O14 0.500000 0.500000 0.000000
#
# Coordination Sequence:
#
# PCOD8029868 Si02
#       6
#     2   2   2   2   2   2
#     4  11  23  42  65  97 125 168 225 260 311 392
#     4  11  23  42  65  94 133 168 209 276 325 368
#     4  11  21  40  68  90 127 174 212 260 319 383
#     4  11  22  44  67  93 127 172 222 258 317 392
#     4  12  23  41  70  95 127 172 219 262 314 391
#     4  12  25  43  65  98 135 166 212 274 326 372
#
# _framework density 19.788713999999999
#
# number of rings (size 3 to 8) (size 9 to 14) (size 15 to 20)
#    0.000    0.667    5.000    6.500    0.000    0.667 
#    3.000    1.667    0.000    0.000    0.000    0.000 
#    0.000    0.000    0.000    0.000    0.000    0.000 
#
# Total GULP energy -148844.782723 kJ/mol
# GULP energy per Si atom -12403.731894 kJ/mol
# Density = 1.974367 g / cm^3
# Si number density = 19.788714 Si / 1000 Ang^3
#
#
#
# Elastic Constant Matrix: (Units=GPa)
#
#
# Indices 1 2 3 4 5 6 
#
# 1 110.2419 52.9911 31.1912 -15.3844 10.6047 -8.2834
# 2 52.9911 150.8944 40.8381 -2.1705 5.7403 -6.8402
# 3 31.1912 40.8381 122.3669 -5.7109 -10.8395 3.0374
# 4 -15.3844 -2.1705 -5.7109 23.7338 1.5498 4.3839
# 5 10.6047 5.7403 -10.8395 1.5498 42.1693 2.4241
# 6 -8.2834 -6.8402 3.0374 4.3839 2.4241 26.1957
#
#
#
# Elastic Compliance Matrix: (Units=1/GPa)
#
#
# Indices 1 2 3 4 5 6 
#
# 1 0.012997 -0.003617 -0.002157 0.007352 -0.003746 0.002532
# 2 -0.003617 0.008563 -0.002165 -0.002364 -0.000830 0.001816
# 3 -0.002157 -0.002165 0.009877 0.001087 0.003503 -0.002899
# 4 0.007352 -0.002364 0.001087 0.048273 -0.002662 -0.006251
# 5 -0.003746 -0.000830 0.003503 -0.002662 0.025984 -0.003766
# 6 0.002532 0.001816 -0.002899 -0.006251 -0.003766 0.041179
#
#
# Mechanical properties :
#
#
# Convention : Reuss Voigt Hill
#
# Bulk Modulus (GPa) = 64.27206 70.39378 67.33292
# Shear Modulus (GPa) = 29.77286 35.65197 32.71241
#
# Velocity S-wave (km/s) = 3.88304 4.24917 4.07022
# Velocity P-wave (km/s) = 7.25629 7.72812 7.49592
#
# Compressibility (1/GPa) = 0.01555886
#
# Stress axis : x y z
#
# Youngs Moduli (GPa) = 76.94340 116.77883 101.24108
#
# Poissons Ratio (x) = 0.42242 0.21839
# Poissons Ratio (y) = 0.27833 0.21915
# Poissons Ratio (z) = 0.16598 0.25279
#
# Static dielectric constant tensor:
#      x y z
#    x 3.787060 0.041230 0.033280 
#    y 0.041230 3.455530 0.156920 
#    z 0.033280 0.156920 3.835340 
# 
# 
# High freq. dielectric constant tensor:
#      x y z
#    x 1.784710 0.000250 0.012940 
#    y 0.000250 1.759220 0.008730 
#    z 0.012940 0.008730 1.787970 
# 
# From -- ./inp_files/157552.got.cif
#   From: 2010.06.25/outbox.cif.g09.slc.cpg/sg2_79_cif.got.tgz:157552.got - 2010.06.27 13:26:56.
