data_PCOD8029711
_publ_section_title
;
Structure prediction by ZEFSAII (Michael W. Deem and Ramdas Pophale) SiO2 
 PCOD8029711
Probable space group: P -1
;
_chemical_formula_sum "Si O2"
_cell_formula_units_Z 16
_cell_length_a 14.698624
_cell_length_b 12.062099
_cell_length_c 20.090163
_cell_angle_alpha 28.881623
_cell_angle_beta 149.836668
_cell_angle_gamma 150.368839
_cell_volume 766.578476
_symmetry_space_group_name_H-M "P -1"
_symmetry_group_IT_number 2
_symmetry_cell_setting 'triclinic'
loop_
_space_group_symop_operation_xyz
x,y,z
-x,-y,-z
loop_
_atom_site_type_symbol
_atom_site_label
_atom_site_fract_x
_atom_site_fract_y
_atom_site_fract_z
Si Si1 0.140375 0.667119 0.656305
Si Si2 0.712760 0.552190 0.481896
Si Si3 0.231253 0.719383 0.539693
Si Si4 0.373724 0.011765 0.745709
Si Si5 0.280912 0.303380 0.992199
Si Si6 0.772700 0.239791 0.803313
Si Si7 0.422593 0.290438 0.319224
Si Si8 0.225213 0.492596 0.991577
O O1 0.270838 0.764015 0.620296
O O2 0.120897 0.390764 0.813080
O O3 0.911811 0.627900 0.522048
O O4 0.255640 0.881943 0.671680
O O5 0.720606 0.813339 0.376775
O O6 0.713661 0.378488 0.634838
O O7 0.511432 0.396675 0.392316
O O8 0.392800 0.636122 0.655003
O O9 0.000000 0.500000 0.500000
O O10 0.270201 0.984470 0.388411
O O11 0.612035 0.177804 0.793446
O O12 0.353963 0.798179 0.899406
O O13 0.275577 0.326142 0.056362
O O14 0.500000 0.500000 0.000000
O O15 0.218620 0.012503 0.086515
O O16 0.988769 0.426862 0.874385
O O17 0.288339 0.427190 0.137393
#
# Coordination Sequence:
#
# PCOD8029711 Si02
#       8
#     2   2   2   2   2   2   2   2
#     4  11  22  42  70  99 128 178 219 277 334 385
#     4  12  25  46  69  98 134 182 224 271 325 400
#     4  11  24  41  67  98 141 177 215 271 344 401
#     4  11  25  46  70  95 135 175 229 277 323 385
#     4  11  21  38  67  96 133 163 213 278 338 379
#     4  12  24  41  70 100 129 173 225 277 333 387
#     4  11  27  42  65 101 140 173 222 271 333 404
#     4  11  25  42  65  99 131 176 218 278 332 395
#
# _framework density 20.871964999999999
#
# number of rings (size 3 to 8) (size 9 to 14) (size 15 to 20)
#    0.000    0.750    6.250    2.625    5.250    0.500 
#    0.000    0.625    0.000    0.000    0.000    0.000 
#    0.000    0.000    0.000    0.000    0.000    0.000 
#
# Total GULP energy -198468.377196 kJ/mol
# GULP energy per Si atom -12404.273575 kJ/mol
# Density = 2.082446 g / cm^3
# Si number density = 20.871965 Si / 1000 Ang^3
#
#
#
# Elastic Constant Matrix: (Units=GPa)
#
#
# Indices 1 2 3 4 5 6 
#
# 1 51.5378 42.7365 57.6906 -6.0405 -0.4639 8.0177
# 2 42.7365 82.4796 49.1097 5.5443 -12.4080 14.2329
# 3 57.6906 49.1097 143.8056 1.4305 -15.0257 -8.5318
# 4 -6.0405 5.5443 1.4305 37.8634 -6.7687 4.2036
# 5 -0.4639 -12.4080 -15.0257 -6.7687 31.4161 -3.7436
# 6 8.0177 14.2329 -8.5318 4.2036 -3.7436 32.5604
#
#
#
# Elastic Compliance Matrix: (Units=1/GPa)
#
#
# Indices 1 2 3 4 5 6 
#
# 1 0.065827 -0.021797 -0.021842 0.013239 -0.017148 -0.016086
# 2 -0.021797 0.025183 0.000856 -0.005269 0.008450 -0.003765
# 3 -0.021842 0.000856 0.017013 -0.003930 0.008612 0.010960
# 4 0.013239 -0.005269 -0.003930 0.030452 0.002120 -0.005674
# 5 -0.017148 0.008450 0.008612 0.002120 0.040343 0.007150
# 6 -0.016086 -0.003765 0.010960 -0.005674 0.007150 0.040745
#
#
# Mechanical properties :
#
#
# Convention : Reuss Voigt Hill
#
# Bulk Modulus (GPa) = 44.52752 64.09962 54.31357
# Shear Modulus (GPa) = 15.99414 28.92041 22.45728
#
# Velocity S-wave (km/s) = 2.77121 3.72642 3.28373
# Velocity P-wave (km/s) = 5.62312 7.02086 6.36050
#
# Compressibility (1/GPa) = 0.02245802
#
# Stress axis : x y z
#
# Youngs Moduli (GPa) = 15.19131 39.70856 58.77855
#
# Poissons Ratio (x) = 0.86552 1.28384
# Poissons Ratio (y) = 0.33112 -0.05032
# Poissons Ratio (z) = 0.33181 -0.03399
#
# Static dielectric constant tensor:
#      x y z
#    x 3.869890 0.192700 0.051790 
#    y 0.192700 3.794680 -0.083070 
#    z 0.051790 -0.083070 3.932320 
# 
# 
# High freq. dielectric constant tensor:
#      x y z
#    x 1.813970 0.017380 0.000450 
#    y 0.017380 1.816320 -0.000920 
#    z 0.000450 -0.000920 1.819900 
# 
# From -- ./inp_files/597817.got.cif
#   From: 2010.06.25/outbox.cif.g09.slc.cpg/sg2_299_cif.got.tgz:597817.got - 2010.06.27 13:26:56.
