data_PCOD8029807
_publ_section_title
;
Structure prediction by ZEFSAII (Michael W. Deem and Ramdas Pophale) SiO2 
 PCOD8029807
Probable space group: P -1
;
_chemical_formula_sum "Si O2"
_cell_formula_units_Z 16
_cell_length_a 11.124518
_cell_length_b 11.460984
_cell_length_c 12.420256
_cell_angle_alpha 70.361148
_cell_angle_beta 101.839799
_cell_angle_gamma 40.747920
_cell_volume 646.204651
_symmetry_space_group_name_H-M "P -1"
_symmetry_group_IT_number 2
_symmetry_cell_setting 'triclinic'
loop_
_space_group_symop_operation_xyz
x,y,z
-x,-y,-z
loop_
_atom_site_type_symbol
_atom_site_label
_atom_site_fract_x
_atom_site_fract_y
_atom_site_fract_z
Si Si1 0.312963 0.025936 0.538348
Si Si2 0.708956 0.013655 0.922763
Si Si3 0.320195 0.195545 0.136695
Si Si4 0.402072 0.629783 0.246730
Si Si5 0.805838 0.440755 0.700980
Si Si6 0.801082 0.521886 0.164245
Si Si7 0.724680 0.316197 0.186622
Si Si8 0.935744 0.228353 0.573137
O O1 0.484710 0.949202 0.681383
O O2 0.525366 0.769403 0.573528
O O3 0.120981 0.103641 0.544059
O O4 0.098462 0.301510 0.338131
O O5 0.815397 0.058218 0.905084
O O6 0.416096 0.296716 0.837551
O O7 0.633326 0.992388 0.816398
O O8 0.951715 0.727614 0.124207
O O9 0.362052 0.245556 0.024587
O O10 0.000000 0.500000 0.000000
O O11 0.243062 0.660673 0.260501
O O12 0.573125 0.430155 0.236509
O O13 0.614931 0.501883 0.406419
O O14 0.934373 0.331879 0.637505
O O15 0.860251 0.329723 0.190699
O O16 0.958407 0.003428 0.303993
O O17 0.500000 0.500000 0.000000
#
# Coordination Sequence:
#
# PCOD8029807 Si02
#       8
#     2   2   2   2   2   2   2   2
#     4  12  25  51  77 106 149 196 240 307 366 432
#     4  11  24  48  68 104 143 186 248 296 359 440
#     4  12  27  48  73 104 146 190 249 310 364 427
#     4  11  23  43  69 108 145 184 238 298 361 441
#     4  12  25  42  75 109 146 189 238 302 366 434
#     4  11  26  47  75 106 142 196 250 298 365 439
#     4  11  21  39  71 104 146 190 233 295 369 434
#     4  12  23  44  71 108 148 187 240 293 369 440
#
# _framework density 24.759955999999999
#
# number of rings (size 3 to 8) (size 9 to 14) (size 15 to 20)
#    0.000    0.500    5.000    5.250    0.000    3.000 
#    2.250    0.000    0.000    0.000    0.000    0.000 
#    0.000    0.000    0.000    0.000    0.000    0.000 
#
# Total GULP energy -198265.521155 kJ/mol
# GULP energy per Si atom -12391.595072 kJ/mol
# Density = 2.470360 g / cm^3
# Si number density = 24.759956 Si / 1000 Ang^3
#
#
#
# Elastic Constant Matrix: (Units=GPa)
#
#
# Indices 1 2 3 4 5 6 
#
# 1 40.6560 17.6843 -6.8789 4.7739 3.3009 4.9667
# 2 17.6843 106.8924 10.3965 2.1863 -0.5401 10.6456
# 3 -6.8789 10.3965 102.8587 6.0947 25.8566 -2.2488
# 4 4.7739 2.1863 6.0947 37.5922 1.2705 10.6293
# 5 3.3009 -0.5401 25.8566 1.2705 33.7760 3.3293
# 6 4.9667 10.6456 -2.2488 10.6293 3.3293 21.4686
#
#
#
# Elastic Compliance Matrix: (Units=1/GPa)
#
#
# Indices 1 2 3 4 5 6 
#
# 1 0.028429 -0.004941 0.004012 -0.003468 -0.005689 -0.001107
# 2 -0.004941 0.010986 -0.002459 0.001986 0.003060 -0.006020
# 3 0.004012 -0.002459 0.013336 -0.003624 -0.011016 0.005191
# 4 -0.003468 0.001986 -0.003624 0.032220 0.003616 -0.017075
# 5 -0.005689 0.003060 -0.011016 0.003616 0.039422 -0.009259
# 6 -0.001107 -0.006020 0.005191 -0.017075 -0.009259 0.060255
#
#
# Mechanical properties :
#
#
# Convention : Reuss Voigt Hill
#
# Bulk Modulus (GPa) = 21.75096 32.53456 27.14276
# Shear Modulus (GPa) = 24.18381 33.84768 29.01574
#
# Velocity S-wave (km/s) = 3.12866 3.70135 3.42699
# Velocity P-wave (km/s) = 4.67495 5.60671 5.16190
#
# Compressibility (1/GPa) = 0.04597498
#
# Stress axis : x y z
#
# Youngs Moduli (GPa) = 35.17528 91.02280 74.98222
#
# Poissons Ratio (x) = 0.44975 -0.30083
# Poissons Ratio (y) = 0.17380 0.18441
# Poissons Ratio (z) = -0.14113 0.22386
#
# Static dielectric constant tensor:
#      x y z
#    x 3.897990 -0.186970 0.146280 
#    y -0.186970 4.447220 0.426790 
#    z 0.146280 0.426790 4.905930 
# 
# 
# High freq. dielectric constant tensor:
#      x y z
#    x 1.973370 0.004860 0.007490 
#    y 0.004860 1.990240 -0.002190 
#    z 0.007490 -0.002190 2.001700 
# 
# From -- ./inp_files/428183.got.cif
#   From: 2010.06.25/outbox.cif.g09.slc.cpg/sg2_215_cif.got.tgz:428183.got - 2010.06.27 13:26:56.
