data_PCOD8029153
_publ_section_title
;
Structure prediction by ZEFSAII (Michael W. Deem and Ramdas Pophale) SiO2 
 PCOD8029153
Probable space group: P -1
;
_chemical_formula_sum "Si O2"
_cell_formula_units_Z 16
_cell_length_a 17.203831
_cell_length_b 16.671003
_cell_length_c 17.069760
_cell_angle_alpha 148.776316
_cell_angle_beta 163.616364
_cell_angle_gamma 33.251640
_cell_volume 711.625019
_symmetry_space_group_name_H-M "P -1"
_symmetry_group_IT_number 2
_symmetry_cell_setting 'triclinic'
loop_
_space_group_symop_operation_xyz
x,y,z
-x,-y,-z
loop_
_atom_site_type_symbol
_atom_site_label
_atom_site_fract_x
_atom_site_fract_y
_atom_site_fract_z
Si Si1 0.394260 0.959559 0.210330
Si Si2 0.127423 0.257122 0.288943
Si Si3 0.375560 0.276660 0.178365
Si Si4 0.566965 0.502366 0.438438
Si Si5 0.934791 0.378022 0.043320
Si Si6 0.570225 0.326893 0.890496
Si Si7 0.946420 0.033749 0.725794
Si Si8 0.898953 0.084163 0.550540
O O1 0.518438 0.800749 0.240135
O O2 0.221050 0.080945 0.203583
O O3 0.650426 0.035037 0.482848
O O4 0.181950 0.920482 0.903660
O O5 0.400824 0.320648 0.640894
O O6 0.985631 0.368463 0.177198
O O7 0.894858 0.270985 0.143495
O O8 0.463968 0.340960 0.232758
O O9 0.456509 0.386624 0.417143
O O10 0.569721 0.117763 0.249897
O O11 0.055326 0.242219 0.839372
O O12 0.883454 0.490710 0.705552
O O13 0.382344 0.571923 0.244717
O O14 0.033989 0.209252 0.960931
O O15 0.500000 0.500000 0.000000
O O16 0.945562 0.983558 0.591641
O O17 0.000000 0.000000 0.500000
#
# Coordination Sequence:
#
# PCOD8029153 Si02
#       8
#     2   2   2   2   2   2   2   2
#     4  11  23  41  70  96 124 165 220 272 312 377
#     4  11  23  41  68  98 127 167 218 264 318 383
#     4  11  22  38  59  88 119 167 212 258 320 373
#     4  11  20  36  62  90 124 154 205 270 319 368
#     4  11  20  37  62  95 126 157 208 274 313 359
#     4  12  25  45  66  96 135 172 203 257 331 401
#     4  11  21  39  63  94 123 164 220 265 315 363
#     4  12  24  41  60  87 130 173 216 260 311 385
#
# _framework density 22.483751000000002
#
# number of rings (size 3 to 8) (size 9 to 14) (size 15 to 20)
#    0.000    0.750    2.500    7.500    0.000    2.000 
#    0.000    7.500    0.000    0.000    0.000    0.000 
#    0.000    0.000    0.000    0.000    0.000    0.000 
#
# Total GULP energy -198349.571953 kJ/mol
# GULP energy per Si atom -12396.848247 kJ/mol
# Density = 2.243258 g / cm^3
# Si number density = 22.483751 Si / 1000 Ang^3
#
#
#
# Elastic Constant Matrix: (Units=GPa)
#
#
# Indices 1 2 3 4 5 6 
#
# 1 106.5260 40.7577 28.5073 4.8367 -8.9487 8.2768
# 2 40.7577 74.5688 30.0169 1.9104 -14.0390 8.7339
# 3 28.5073 30.0169 96.9409 -16.5657 0.0907 4.6346
# 4 4.8367 1.9104 -16.5657 23.9489 9.4062 0.9061
# 5 -8.9487 -14.0390 0.0907 9.4062 48.7082 -4.3299
# 6 8.2768 8.7339 4.6346 0.9061 -4.3299 29.1548
#
#
#
# Elastic Compliance Matrix: (Units=1/GPa)
#
#
# Indices 1 2 3 4 5 6 
#
# 1 0.012563 -0.005157 -0.002843 -0.004687 0.001627 -0.001182
# 2 -0.005157 0.020145 -0.005766 -0.006795 0.005954 -0.002559
# 3 -0.002843 -0.005766 0.015317 0.013607 -0.004934 -0.001056
# 4 -0.004687 -0.006795 0.013607 0.058403 -0.014368 -0.002746
# 5 0.001627 0.005954 -0.004934 -0.014368 0.025577 0.002784
# 6 -0.001182 -0.002559 -0.001056 -0.002746 0.002784 0.036069
#
#
# Mechanical properties :
#
#
# Convention : Reuss Voigt Hill
#
# Bulk Modulus (GPa) = 48.79751 52.95548 50.87650
# Shear Modulus (GPa) = 24.69907 32.27930 28.48918
#
# Velocity S-wave (km/s) = 3.31800 3.79314 3.56350
# Velocity P-wave (km/s) = 6.03568 6.54124 6.29354
#
# Compressibility (1/GPa) = 0.02049285
#
# Stress axis : x y z
#
# Youngs Moduli (GPa) = 79.60022 49.64035 65.28539
#
# Poissons Ratio (x) = 0.25600 0.18563
# Poissons Ratio (y) = 0.41051 0.37641
# Poissons Ratio (z) = 0.22633 0.28621
#
# Static dielectric constant tensor:
#      x y z
#    x 4.167160 0.329230 -0.022710 
#    y 0.329230 3.821340 -0.234470 
#    z -0.022710 -0.234470 4.361530 
# 
# 
# High freq. dielectric constant tensor:
#      x y z
#    x 1.890790 0.025910 0.003240 
#    y 0.025910 1.846290 -0.020390 
#    z 0.003240 -0.020390 1.902660 
# 
# From -- ./inp_files/534480.got.cif
#   From: 2010.06.25/outbox.cif.g09.slc.cpg/sg2_268_cif.got.tgz:534480.got - 2010.06.27 13:26:56.
