data_PCOD8029652
_publ_section_title
;
Structure prediction by ZEFSAII (Michael W. Deem and Ramdas Pophale) SiO2 
 PCOD8029652
Probable space group: P -1
;
_chemical_formula_sum "Si O2"
_cell_formula_units_Z 12
_cell_length_a 7.718128
_cell_length_b 12.679286
_cell_length_c 11.388386
_cell_angle_alpha 34.135646
_cell_angle_beta 110.775765
_cell_angle_gamma 91.354539
_cell_volume 501.382807
_symmetry_space_group_name_H-M "P -1"
_symmetry_group_IT_number 2
_symmetry_cell_setting 'triclinic'
loop_
_space_group_symop_operation_xyz
x,y,z
-x,-y,-z
loop_
_atom_site_type_symbol
_atom_site_label
_atom_site_fract_x
_atom_site_fract_y
_atom_site_fract_z
Si Si1 0.389583 0.719579 0.839490
Si Si2 0.026501 0.773890 0.553793
Si Si3 0.860331 0.065064 0.790811
Si Si4 0.938205 0.662605 0.049615
Si Si5 0.304241 0.157197 0.404149
Si Si6 0.409144 0.451222 0.289621
O O1 0.148087 0.838053 0.620376
O O2 0.477995 0.889678 0.672979
O O3 0.500000 0.500000 0.000000
O O4 0.404102 0.661959 0.035060
O O5 0.007701 0.898871 0.313539
O O6 0.141424 0.511904 0.788979
O O7 0.795116 0.853803 0.482911
O O8 0.633015 0.288070 0.560486
O O9 0.000000 0.000000 0.000000
O O10 0.826060 0.864634 0.928034
O O11 0.200364 0.537738 0.242918
O O12 0.888155 0.738258 0.832596
O O13 0.412218 0.302480 0.316657
#
# Coordination Sequence:
#
# PCOD8029652 Si02
#       6
#     2   2   2   2   2   2
#     4  12  20  31  61  99 127 152 193 247 321 372
#     4  11  21  39  63  93 124 158 196 255 312 364
#     4  12  28  44  60  86 126 175 214 244 290 363
#     4  11  22  41  66  93 129 155 197 262 313 365
#     4  11  21  37  65 100 127 149 192 261 330 365
#     4  11  23  39  64  96 123 157 203 255 315 365
#
# _framework density 23.933807999999999
#
# number of rings (size 3 to 8) (size 9 to 14) (size 15 to 20)
#    0.000    0.667    6.667    2.500    2.333    2.667 
#    0.000    3.333    0.000    0.000    0.000    0.000 
#    0.000    0.000    0.000    0.000    0.000    0.000 
#
# Total GULP energy -148729.520657 kJ/mol
# GULP energy per Si atom -12394.126721 kJ/mol
# Density = 2.387933 g / cm^3
# Si number density = 23.933808 Si / 1000 Ang^3
#
#
#
# Elastic Constant Matrix: (Units=GPa)
#
#
# Indices 1 2 3 4 5 6 
#
# 1 53.5278 -1.8700 24.4236 9.7773 -1.5167 7.0798
# 2 -1.8700 58.4363 41.2520 -2.2775 -9.7575 14.3183
# 3 24.4236 41.2520 140.2495 9.2484 -3.8937 16.9620
# 4 9.7773 -2.2775 9.2484 44.6528 13.5418 -3.3463
# 5 -1.5167 -9.7575 -3.8937 13.5418 25.9492 -12.9430
# 6 7.0798 14.3183 16.9620 -3.3463 -12.9430 33.0050
#
#
#
# Elastic Compliance Matrix: (Units=1/GPa)
#
#
# Indices 1 2 3 4 5 6 
#
# 1 0.022477 0.005262 -0.004560 -0.004983 0.003209 -0.004007
# 2 0.005262 0.024850 -0.007308 -0.000613 0.005939 -0.005887
# 3 -0.004560 -0.007308 0.010337 -0.001090 -0.001903 -0.002021
# 4 -0.004983 -0.000613 -0.001090 0.028529 -0.016391 -0.001641
# 5 0.003209 0.005939 -0.001903 -0.016391 0.058747 0.019089
# 6 -0.004007 -0.005887 -0.002021 -0.001641 0.019089 0.042070
#
#
# Mechanical properties :
#
#
# Convention : Reuss Voigt Hill
#
# Bulk Modulus (GPa) = 22.49601 42.20275 32.34938
# Shear Modulus (GPa) = 23.25147 33.28195 28.26671
#
# Velocity S-wave (km/s) = 3.12026 3.73310 3.44035
# Velocity P-wave (km/s) = 4.73297 6.02103 5.41543
#
# Compressibility (1/GPa) = 0.04445233
#
# Stress axis : x y z
#
# Youngs Moduli (GPa) = 44.48943 40.24087 96.73785
#
# Poissons Ratio (x) = -0.21173 0.44108
# Poissons Ratio (y) = -0.23409 0.70699
# Poissons Ratio (z) = 0.20285 0.29409
#
# Static dielectric constant tensor:
#      x y z
#    x 4.430650 0.147670 -0.434660 
#    y 0.147670 4.134760 -0.834260 
#    z -0.434660 -0.834260 4.560420 
# 
# 
# High freq. dielectric constant tensor:
#      x y z
#    x 1.962460 -0.000920 -0.006690 
#    y -0.000920 1.909220 -0.051390 
#    z -0.006690 -0.051390 1.953450 
# 
# From -- ./inp_files/161869.got.cif
#   From: 2010.06.25/outbox.cif.g09.slc.cpg/sg2_81_cif.got.tgz:161869.got - 2010.06.27 13:26:56.
