data_PCOD8029561
_publ_section_title
;
Structure prediction by ZEFSAII (Michael W. Deem and Ramdas Pophale) SiO2 
 PCOD8029561
Probable space group: P -1
;
_chemical_formula_sum "Si O2"
_cell_formula_units_Z 16
_cell_length_a 13.674343
_cell_length_b 11.225314
_cell_length_c 10.393017
_cell_angle_alpha 80.264605
_cell_angle_beta 66.825910
_cell_angle_gamma 32.798065
_cell_volume 751.379572
_symmetry_space_group_name_H-M "P -1"
_symmetry_group_IT_number 2
_symmetry_cell_setting 'triclinic'
loop_
_space_group_symop_operation_xyz
x,y,z
-x,-y,-z
loop_
_atom_site_type_symbol
_atom_site_label
_atom_site_fract_x
_atom_site_fract_y
_atom_site_fract_z
Si Si1 0.374257 0.066023 0.312613
Si Si2 0.361897 0.704488 0.639064
Si Si3 0.174759 0.337190 0.830954
Si Si4 0.991816 0.322321 0.352411
Si Si5 0.240212 0.088867 0.634687
Si Si6 0.985551 0.966932 0.657455
Si Si7 0.425273 0.523398 0.167584
Si Si8 0.792849 0.513495 0.689772
O O1 0.332565 0.093742 0.482289
O O2 0.311682 0.259132 0.258440
O O3 0.229411 0.108731 0.309294
O O4 0.613175 0.809101 0.199883
O O5 0.500000 0.500000 0.500000
O O6 0.127860 0.900990 0.694454
O O7 0.415781 0.611729 0.772827
O O8 0.380704 0.832132 0.599231
O O9 0.073256 0.510125 0.738942
O O10 0.247962 0.138392 0.765813
O O11 0.000000 0.500000 0.000000
O O12 0.961096 0.224595 0.318197
O O13 0.838048 0.474045 0.522977
O O14 0.003376 0.288595 0.696994
O O15 0.000000 0.000000 0.500000
O O16 0.755205 0.208906 0.767666
O O17 0.358902 0.448336 0.205747
O O18 0.500000 0.500000 0.000000
#
# Coordination Sequence:
#
# PCOD8029561 Si02
#       8
#     2   2   2   2   2   2   2   2
#     4  11  23  41  76  99 131 185 232 288 354 414
#     4  12  25  43  78 106 136 191 247 292 355 424
#     4  12  27  43  65 108 145 180 227 286 359 426
#     4  11  23  42  68 102 134 179 236 289 344 419
#     4  11  22  45  75 104 136 180 241 295 347 420
#     4  12  23  44  69 101 145 182 244 301 338 427
#     4  12  28  46  68 106 144 190 235 299 370 416
#     4  11  20  46  74  96 138 181 238 294 345 419
#
# _framework density 21.294165
#
# number of rings (size 3 to 8) (size 9 to 14) (size 15 to 20)
#    0.000    0.500    6.250    2.625    3.500    3.000 
#    4.500    0.000    0.000    0.000    0.000    0.000 
#    0.000    0.000    0.000    0.000    0.000    0.000 
#
# Total GULP energy -198360.609170 kJ/mol
# GULP energy per Si atom -12397.538073 kJ/mol
# Density = 2.124570 g / cm^3
# Si number density = 21.294165 Si / 1000 Ang^3
#
#
#
# Elastic Constant Matrix: (Units=GPa)
#
#
# Indices 1 2 3 4 5 6 
#
# 1 93.7671 30.5522 42.3825 -5.7822 -9.4548 1.2806
# 2 30.5522 99.3105 47.9210 -0.2558 -0.1986 -8.0526
# 3 42.3825 47.9210 131.0290 -4.1777 -15.8555 -5.6837
# 4 -5.7822 -0.2558 -4.1777 33.4277 -3.6350 4.4720
# 5 -9.4548 -0.1986 -15.8555 -3.6350 25.5577 6.6545
# 6 1.2806 -8.0526 -5.6837 4.4720 6.6545 49.7568
#
#
#
# Elastic Compliance Matrix: (Units=1/GPa)
#
#
# Indices 1 2 3 4 5 6 
#
# 1 0.013491 -0.002948 -0.002785 0.002670 0.004123 -0.001934
# 2 -0.002948 0.013298 -0.004420 -0.001800 -0.004638 0.002505
# 3 -0.002785 -0.004420 0.010912 0.001548 0.006013 -0.000341
# 4 0.002670 -0.001800 0.001548 0.031919 0.007530 -0.004059
# 5 0.004123 -0.004638 0.006013 0.007530 0.047285 -0.007170
# 6 -0.001934 0.002505 -0.000341 -0.004059 -0.007170 0.021838
#
#
# Mechanical properties :
#
#
# Convention : Reuss Voigt Hill
#
# Bulk Modulus (GPa) = 57.49033 62.86867 60.17950
# Shear Modulus (GPa) = 30.33104 35.29849 32.81477
#
# Velocity S-wave (km/s) = 3.77819 4.07585 3.92984
# Velocity P-wave (km/s) = 6.78894 7.19292 6.99385
#
# Compressibility (1/GPa) = 0.01739423
#
# Stress axis : x y z
#
# Youngs Moduli (GPa) = 74.12282 75.19717 91.64570
#
# Poissons Ratio (x) = 0.22169 0.25527
# Poissons Ratio (y) = 0.21852 0.40507
# Poissons Ratio (z) = 0.20647 0.33236
#
# Static dielectric constant tensor:
#      x y z
#    x 4.016050 -0.076490 0.056180 
#    y -0.076490 4.053640 0.075190 
#    z 0.056180 0.075190 3.344170 
# 
# 
# High freq. dielectric constant tensor:
#      x y z
#    x 1.845540 -0.005170 0.000040 
#    y -0.005170 1.855790 -0.002230 
#    z 0.000040 -0.002230 1.802650 
# 
# From -- ./inp_files/307305.got.cif
#   From: 2010.06.25/outbox.cif.g09.slc.cpg/sg2_154_cif.got.tgz:307305.got - 2010.06.27 13:26:56.
