data_PCOD8029399
_publ_section_title
;
Structure prediction by ZEFSAII (Michael W. Deem and Ramdas Pophale) SiO2 
 PCOD8029399
Probable space group: P -1
;
_chemical_formula_sum "Si O2"
_cell_formula_units_Z 14
_cell_length_a 12.062767
_cell_length_b 9.695697
_cell_length_c 17.602043
_cell_angle_alpha 71.153130
_cell_angle_beta 137.719852
_cell_angle_gamma 142.450893
_cell_volume 646.593202
_symmetry_space_group_name_H-M "P -1"
_symmetry_group_IT_number 2
_symmetry_cell_setting 'triclinic'
loop_
_space_group_symop_operation_xyz
x,y,z
-x,-y,-z
loop_
_atom_site_type_symbol
_atom_site_label
_atom_site_fract_x
_atom_site_fract_y
_atom_site_fract_z
Si Si1 0.912423 0.150857 0.973770
Si Si2 0.667078 0.826964 0.212811
Si Si3 0.778105 0.250019 0.536096
Si Si4 0.371370 0.161798 0.267835
Si Si5 0.987955 0.808668 0.440702
Si Si6 0.323854 0.909700 0.724864
Si Si7 0.784863 0.833745 0.101753
O O1 0.834068 0.996549 0.886240
O O2 0.695815 0.132439 0.866360
O O3 0.301191 0.489154 0.110913
O O4 0.808991 0.977681 0.025109
O O5 0.963849 0.960389 0.379897
O O6 0.722151 0.864511 0.144054
O O7 0.709852 0.026514 0.225255
O O8 0.589283 0.181687 0.381622
O O9 0.949504 0.235132 0.596792
O O10 0.056951 0.573246 0.653067
O O11 0.500000 0.000000 0.500000
O O12 0.618890 0.487872 0.339581
O O13 0.122634 0.996151 0.242145
O O14 0.262261 0.979168 0.612947
O O15 0.500000 0.500000 0.000000
#
# Coordination Sequence:
#
# PCOD8029399 Si02
#       7
#     2   2   2   2   2   2   2
#     4  12  23  44  69  95 139 176 220 273 334 397
#     4  12  26  44  68 101 138 176 219 278 336 394
#     4  11  23  40  69 101 130 172 229 277 327 398
#     4  11  20  41  67  99 126 173 230 274 322 391
#     4  11  21  46  70  92 131 181 225 271 330 398
#     4  11  25  45  67  98 136 177 218 274 346 392
#     4  12  25  39  69 101 136 175 228 273 326 398
#
# _framework density 21.651945999999999
#
# number of rings (size 3 to 8) (size 9 to 14) (size 15 to 20)
#    0.000    0.571    5.714    3.857    2.000    0.571 
#    2.571    3.571    0.000    0.000    0.000    0.000 
#    0.000    0.000    0.000    0.000    0.000    0.000 
#
# Total GULP energy -173591.411083 kJ/mol
# GULP energy per Si atom -12399.386506 kJ/mol
# Density = 2.160266 g / cm^3
# Si number density = 21.651946 Si / 1000 Ang^3
#
#
#
# Elastic Constant Matrix: (Units=GPa)
#
#
# Indices 1 2 3 4 5 6 
#
# 1 137.0744 37.0171 45.3987 -1.8399 3.3572 8.8026
# 2 37.0171 61.7971 24.7463 -4.5985 4.4935 15.5161
# 3 45.3987 24.7463 92.6580 -7.7620 17.5654 -1.0746
# 4 -1.8399 -4.5985 -7.7620 23.3212 0.8999 6.2765
# 5 3.3572 4.4935 17.5654 0.8999 39.6579 -0.5549
# 6 8.8026 15.5161 -1.0746 6.2765 -0.5549 33.1631
#
#
#
# Elastic Compliance Matrix: (Units=1/GPa)
#
#
# Indices 1 2 3 4 5 6 
#
# 1 0.009775 -0.004351 -0.004027 -0.001375 0.001475 -0.000405
# 2 -0.004351 0.023557 -0.003582 0.006153 -0.001010 -0.011164
# 3 -0.004027 -0.003582 0.015196 0.003606 -0.006031 0.002454
# 4 -0.001375 0.006153 0.003606 0.048446 -0.003440 -0.011624
# 5 0.001475 -0.001010 -0.006031 -0.003440 0.027969 0.001005
# 6 -0.000405 -0.011164 0.002454 -0.011624 0.001005 0.037781
#
#
# Mechanical properties :
#
#
# Convention : Reuss Voigt Hill
#
# Bulk Modulus (GPa) = 40.63651 56.20599 48.42125
# Shear Modulus (GPa) = 25.66111 31.51958 28.59035
#
# Velocity S-wave (km/s) = 3.44636 3.81955 3.63774
# Velocity P-wave (km/s) = 5.88603 6.74294 6.32900
#
# Compressibility (1/GPa) = 0.02460842
#
# Stress axis : x y z
#
# Youngs Moduli (GPa) = 102.29733 42.44978 65.80657
#
# Poissons Ratio (x) = 0.18470 0.26500
# Poissons Ratio (y) = 0.44509 0.23573
# Poissons Ratio (z) = 0.41195 0.15206
#
# Static dielectric constant tensor:
#      x y z
#    x 4.091420 -0.016270 0.213690 
#    y -0.016270 3.831520 -0.249400 
#    z 0.213690 -0.249400 4.269790 
# 
# 
# High freq. dielectric constant tensor:
#      x y z
#    x 1.862080 0.000640 0.018370 
#    y 0.000640 1.833490 -0.009070 
#    z 0.018370 -0.009070 1.860150 
# 
# From -- ./inp_files/261188.got.cif
#   From: 2010.06.25/outbox.cif.g09.slc.cpg/sg2_131_cif.got.tgz:261188.got - 2010.06.27 13:26:56.
