data_PCOD8029672
_publ_section_title
;
Structure prediction by ZEFSAII (Michael W. Deem and Ramdas Pophale) SiO2 
 PCOD8029672
Probable space group: P -1
;
_chemical_formula_sum "Si O2"
_cell_formula_units_Z 16
_cell_length_a 14.259233
_cell_length_b 14.514678
_cell_length_c 11.649547
_cell_angle_alpha 150.273158
_cell_angle_beta 139.752678
_cell_angle_gamma 51.299232
_cell_volume 767.118549
_symmetry_space_group_name_H-M "P -1"
_symmetry_group_IT_number 2
_symmetry_cell_setting 'triclinic'
loop_
_space_group_symop_operation_xyz
x,y,z
-x,-y,-z
loop_
_atom_site_type_symbol
_atom_site_label
_atom_site_fract_x
_atom_site_fract_y
_atom_site_fract_z
Si Si1 0.091297 0.980050 0.809717
Si Si2 0.077526 0.674786 0.912338
Si Si3 0.395534 0.603404 0.736397
Si Si4 0.258766 0.258254 0.132617
Si Si5 0.855569 0.306949 0.267254
Si Si6 0.933597 0.681594 0.177717
Si Si7 0.452349 0.786126 0.750312
Si Si8 0.696620 0.449404 0.836830
O O1 0.100161 0.878660 0.829569
O O2 0.047583 0.826642 0.505921
O O3 0.248785 0.079751 0.016723
O O4 0.988664 0.146513 0.902868
O O5 0.128864 0.725838 0.887535
O O6 0.961375 0.489337 0.605723
O O7 0.223006 0.644763 0.086756
O O8 0.261084 0.445268 0.410776
O O9 0.318907 0.690862 0.868383
O O10 0.412060 0.751754 0.808078
O O11 0.545586 0.519353 0.817684
O O12 0.403744 0.310920 0.248566
O O13 0.119159 0.219560 0.878040
O O14 0.798896 0.629267 0.081734
O O15 0.000000 0.500000 0.000000
O O16 0.327188 0.699752 0.451684
O O17 0.500000 0.000000 0.000000
#
# Coordination Sequence:
#
# PCOD8029672 Si02
#       8
#     2   2   2   2   2   2   2   2
#     4  12  24  41  69  97 134 175 230 274 331 403
#     4  11  25  45  68  98 130 177 234 284 331 377
#     4  11  21  44  66  93 140 176 216 269 340 398
#     4  11  21  38  58  98 129 173 209 255 332 404
#     4  11  24  45  71  93 130 181 232 284 327 386
#     4  12  23  37  63 100 137 175 210 270 337 400
#     4  11  23  36  64  92 134 174 212 261 331 413
#     4  11  23  41  65  96 141 170 216 279 334 402
#
# _framework density 20.85727
#
# number of rings (size 3 to 8) (size 9 to 14) (size 15 to 20)
#    0.000    0.750    5.000    3.750    3.500    0.500 
#    0.000    0.000    0.000    4.500    0.000    0.000 
#    0.000    0.000    0.000    0.000    0.000    0.000 
#
# Total GULP energy -198288.822695 kJ/mol
# GULP energy per Si atom -12393.051418 kJ/mol
# Density = 2.080980 g / cm^3
# Si number density = 20.857270 Si / 1000 Ang^3
#
#
#
# Elastic Constant Matrix: (Units=GPa)
#
#
# Indices 1 2 3 4 5 6 
#
# 1 115.7705 35.1936 30.7940 -0.6699 10.4190 13.4035
# 2 35.1936 118.0110 29.0177 -1.1936 1.4354 13.7862
# 3 30.7940 29.0177 74.1698 11.3278 3.5117 8.3560
# 4 -0.6699 -1.1936 11.3278 34.9577 4.4237 5.8877
# 5 10.4190 1.4354 3.5117 4.4237 28.7265 8.7675
# 6 13.4035 13.7862 8.3560 5.8877 8.7675 34.6676
#
#
#
# Elastic Compliance Matrix: (Units=1/GPa)
#
#
# Indices 1 2 3 4 5 6 
#
# 1 0.010732 -0.002017 -0.003602 0.002035 -0.003037 -0.002057
# 2 -0.002017 0.010212 -0.003123 0.001687 0.001303 -0.003144
# 3 -0.003602 -0.003123 0.017117 -0.005670 0.000438 -0.000639
# 4 0.002035 0.001687 -0.005670 0.031768 -0.003627 -0.004569
# 5 -0.003037 0.001303 0.000438 -0.003627 0.039007 -0.008699
# 6 -0.002057 -0.003144 -0.000639 -0.004569 -0.008699 0.034021
#
#
# Mechanical properties :
#
#
# Convention : Reuss Voigt Hill
#
# Bulk Modulus (GPa) = 48.59710 55.32909 51.96309
# Shear Modulus (GPa) = 29.90428 33.86676 31.88552
#
# Velocity S-wave (km/s) = 3.79061 4.03394 3.91416
# Velocity P-wave (km/s) = 6.51987 6.94852 6.73760
#
# Compressibility (1/GPa) = 0.02057736
#
# Stress axis : x y z
#
# Youngs Moduli (GPa) = 93.17687 97.92667 58.42148
#
# Poissons Ratio (x) = 0.19753 0.21043
# Poissons Ratio (y) = 0.18795 0.18243
# Poissons Ratio (z) = 0.33562 0.30580
#
# Static dielectric constant tensor:
#      x y z
#    x 4.480670 -0.276090 0.086970 
#    y -0.276090 3.917950 0.093190 
#    z 0.086970 0.093190 3.736350 
# 
# 
# High freq. dielectric constant tensor:
#      x y z
#    x 1.829900 -0.000280 0.013960 
#    y -0.000280 1.817970 0.014780 
#    z 0.013960 0.014780 1.803610 
# 
# From -- ./inp_files/390288.got.cif
#   From: 2010.06.25/outbox.cif.g09.slc.cpg/sg2_196_cif.got.tgz:390288.got - 2010.06.27 13:26:56.
