data_PCOD8029595
_publ_section_title
;
Structure prediction by ZEFSAII (Michael W. Deem and Ramdas Pophale) SiO2 
 PCOD8029595
Probable space group: P -1
;
_chemical_formula_sum "Si O2"
_cell_formula_units_Z 16
_cell_length_a 14.732690
_cell_length_b 9.837391
_cell_length_c 8.670508
_cell_angle_alpha 92.856234
_cell_angle_beta 39.523611
_cell_angle_gamma 92.724028
_cell_volume 798.637709
_symmetry_space_group_name_H-M "P -1"
_symmetry_group_IT_number 2
_symmetry_cell_setting 'triclinic'
loop_
_space_group_symop_operation_xyz
x,y,z
-x,-y,-z
loop_
_atom_site_type_symbol
_atom_site_label
_atom_site_fract_x
_atom_site_fract_y
_atom_site_fract_z
Si Si1 0.577582 0.892878 0.612072
Si Si2 0.430904 0.673508 0.990337
Si Si3 0.831683 0.794635 0.797808
Si Si4 0.150319 0.795715 0.390821
Si Si5 0.568071 0.168241 0.502139
Si Si6 0.564563 0.615900 0.127732
Si Si7 0.834774 0.082836 0.954821
Si Si8 0.847107 0.918073 0.451005
O O1 0.469090 0.815474 0.864372
O O2 0.556246 0.836785 0.464046
O O3 0.739569 0.870160 0.454054
O O4 0.536784 0.053032 0.668162
O O5 0.439616 0.546962 0.851794
O O6 0.268875 0.683150 0.268536
O O7 0.541371 0.648768 0.980603
O O8 0.823273 0.829640 0.630244
O O9 0.989780 0.740169 0.628187
O O10 0.798083 0.926506 0.952819
O O11 0.718014 0.676768 0.980477
O O12 0.167507 0.829311 0.190841
O O13 0.182413 0.925523 0.462435
O O14 0.559282 0.315215 0.603422
O O15 0.723539 0.142754 0.225696
O O16 0.992208 0.096741 0.824122
#
# Coordination Sequence:
#
# PCOD8029595 Si02
#       8
#     2   2   2   2   2   2   2   2
#     4  11  21  36  58  85 112 148 184 228 278 333
#     4  11  23  39  57  83 112 149 194 226 272 330
#     4   9  17  34  58  84 111 141 188 232 274 323
#     4   9  18  33  58  85 109 145 186 231 274 324
#     4  11  23  36  56  85 117 145 183 232 280 331
#     4  11  24  38  57  84 114 148 186 235 274 326
#     4   9  18  35  55  87 115 139 183 231 280 331
#     4   9  18  32  60  85 110 145 182 232 277 323
#
# _framework density 20.034116000000001
#
# number of rings (size 3 to 8) (size 9 to 14) (size 15 to 20)
#    0.000    2.000    2.500    3.750    1.750    2.500 
#    0.000    1.250    0.000    0.750    0.000    0.000 
#    0.000    0.000    0.000    0.000    0.000    0.000 
#
# Total GULP energy -198338.343631 kJ/mol
# GULP energy per Si atom -12396.146477 kJ/mol
# Density = 1.998852 g / cm^3
# Si number density = 20.034116 Si / 1000 Ang^3
#
#
#
# Elastic Constant Matrix: (Units=GPa)
#
#
# Indices 1 2 3 4 5 6 
#
# 1 95.8610 20.0164 37.5684 -2.2958 -26.9086 10.1799
# 2 20.0164 47.4647 53.1089 13.1189 -11.4307 6.6685
# 3 37.5684 53.1089 130.4405 14.9222 -19.7341 14.6591
# 4 -2.2958 13.1189 14.9222 28.1336 -0.5464 2.6725
# 5 -26.9086 -11.4307 -19.7341 -0.5464 29.0506 -3.2902
# 6 10.1799 6.6685 14.6591 2.6725 -3.2902 21.9190
#
#
#
# Elastic Compliance Matrix: (Units=1/GPa)
#
#
# Indices 1 2 3 4 5 6 
#
# 1 0.015416 -0.002189 -0.001741 0.003814 0.011852 -0.004015
# 2 -0.002189 0.043066 -0.014793 -0.012325 0.004638 0.000007
# 3 -0.001741 -0.014793 0.015126 -0.000807 0.002333 -0.004358
# 4 0.003814 -0.012325 -0.000807 0.042275 -0.001393 -0.002845
# 5 0.011852 0.004638 0.002333 -0.001393 0.048671 -0.001000
# 6 -0.004015 0.000007 -0.004358 -0.002845 -0.001000 0.050597
#
#
# Mechanical properties :
#
#
# Convention : Reuss Voigt Hill
#
# Bulk Modulus (GPa) = 27.65313 55.01706 41.33509
# Shear Modulus (GPa) = 18.89292 26.69215 22.79253
#
# Velocity S-wave (km/s) = 3.07422 3.65408 3.37662
# Velocity P-wave (km/s) = 5.14141 6.73234 5.98993
#
# Compressibility (1/GPa) = 0.03616228
#
# Stress axis : x y z
#
# Youngs Moduli (GPa) = 64.86886 23.22019 66.11234
#
# Poissons Ratio (x) = 0.05083 0.11507
# Poissons Ratio (y) = 0.14200 0.97800
# Poissons Ratio (z) = 0.11291 0.34350
#
# Static dielectric constant tensor:
#      x y z
#    x 3.731500 0.046340 -0.255990 
#    y 0.046340 3.434780 0.039950 
#    z -0.255990 0.039950 3.584580 
# 
# 
# High freq. dielectric constant tensor:
#      x y z
#    x 1.787050 0.004580 -0.017370 
#    y 0.004580 1.744520 0.001510 
#    z -0.017370 0.001510 1.776590 
# 
# From -- ./inp_files/298651.got.cif
#   From: 2010.06.25/outbox.cif.g09.slc.cpg/sg2_150_cif.got.tgz:298651.got - 2010.06.27 13:26:56.
