data_PCOD8029420
_publ_section_title
;
Structure prediction by ZEFSAII (Michael W. Deem and Ramdas Pophale) SiO2 
 PCOD8029420
Probable space group: P -1
;
_chemical_formula_sum "Si O2"
_cell_formula_units_Z 14
_cell_length_a 8.735671
_cell_length_b 21.176985
_cell_length_c 8.574639
_cell_angle_alpha 143.336757
_cell_angle_beta 106.601576
_cell_angle_gamma 48.417760
_cell_volume 590.637625
_symmetry_space_group_name_H-M "P -1"
_symmetry_group_IT_number 2
_symmetry_cell_setting 'triclinic'
loop_
_space_group_symop_operation_xyz
x,y,z
-x,-y,-z
loop_
_atom_site_type_symbol
_atom_site_label
_atom_site_fract_x
_atom_site_fract_y
_atom_site_fract_z
Si Si1 0.839830 0.036947 0.669070
Si Si2 0.823654 0.479758 0.231438
Si Si3 0.748242 0.441450 0.474694
Si Si4 0.182718 0.731213 0.332904
Si Si5 0.322835 0.307351 0.908501
Si Si6 0.509800 0.220942 0.466014
Si Si7 0.001960 0.140994 0.126601
O O1 0.564214 0.154128 0.770070
O O2 0.000000 0.000000 0.500000
O O3 0.940334 0.874453 0.440548
O O4 0.852780 0.114013 0.968515
O O5 0.817849 0.468258 0.391155
O O6 0.664072 0.663783 0.503404
O O7 0.705077 0.437259 0.024341
O O8 0.101050 0.352505 0.004344
O O9 0.500000 0.500000 0.500000
O O10 0.970418 0.251984 0.213179
O O11 0.717619 0.546128 0.804185
O O12 0.360142 0.738279 0.354016
O O13 0.125173 0.758641 0.553049
O O14 0.345309 0.262827 0.645325
O O15 0.711057 0.030648 0.103497
#
# Coordination Sequence:
#
# PCOD8029420 Si02
#       7
#     2   2   2   2   2   2   2
#     4  11  20  41  71 102 129 171 225 279 326 391
#     4  12  27  44  65 102 136 177 218 275 338 392
#     4  12  24  44  71  98 130 173 230 272 324 400
#     4  11  23  42  71  97 132 174 232 266 325 399
#     4  12  25  43  69  97 142 170 215 282 342 387
#     4  11  23  44  70  95 134 178 223 267 328 400
#     4  11  23  42  72 101 125 171 234 276 315 385
#
# _framework density 23.703196999999999
#
# number of rings (size 3 to 8) (size 9 to 14) (size 15 to 20)
#    0.000    0.571    4.286    6.429    2.000    0.571 
#    0.000    1.429    0.000    0.000    0.000    0.000 
#    0.000    0.000    0.000    0.000    0.000    0.000 
#
# Total GULP energy -173662.973376 kJ/mol
# GULP energy per Si atom -12404.498098 kJ/mol
# Density = 2.364925 g / cm^3
# Si number density = 23.703197 Si / 1000 Ang^3
#
#
#
# Elastic Constant Matrix: (Units=GPa)
#
#
# Indices 1 2 3 4 5 6 
#
# 1 60.9435 4.7725 -6.5659 7.1254 -26.0620 11.5536
# 2 4.7725 131.8148 27.5188 25.4158 -15.1238 35.2494
# 3 -6.5659 27.5188 76.6097 6.6968 -10.6487 19.1142
# 4 7.1254 25.4158 6.6968 49.4688 -1.2498 0.5582
# 5 -26.0620 -15.1238 -10.6487 -1.2498 37.4214 -1.9365
# 6 11.5536 35.2494 19.1142 0.5582 -1.9365 34.3433
#
#
#
# Elastic Compliance Matrix: (Units=1/GPa)
#
#
# Indices 1 2 3 4 5 6 
#
# 1 0.035599 0.008371 0.011289 -0.009922 0.029762 -0.025011
# 2 0.008371 0.014640 0.002345 -0.008555 0.011177 -0.018379
# 3 0.011289 0.002345 0.019518 -0.004953 0.013359 -0.016235
# 4 -0.009922 -0.008555 -0.004953 0.026296 -0.010181 0.013874
# 5 0.029762 0.011177 0.013359 -0.010181 0.054099 -0.025704
# 6 -0.025011 -0.018379 -0.016235 0.013874 -0.025704 0.063756
#
#
# Mechanical properties :
#
#
# Convention : Reuss Voigt Hill
#
# Bulk Modulus (GPa) = 8.78991 35.64655 22.21823
# Shear Modulus (GPa) = 24.05910 40.48955 32.27432
#
# Velocity S-wave (km/s) = 3.18939 4.13751 3.69399
# Velocity P-wave (km/s) = 4.15684 6.15603 5.25243
#
# Compressibility (1/GPa) = 0.11376682
#
# Stress axis : x y z
#
# Youngs Moduli (GPa) = 28.09106 68.30378 51.23350
#
# Poissons Ratio (x) = -0.57174 -0.57836
# Poissons Ratio (y) = -0.23514 -0.12016
# Poissons Ratio (z) = -0.31711 -0.16020
#
# Static dielectric constant tensor:
#      x y z
#    x 3.992120 0.082670 0.032000 
#    y 0.082670 4.541780 0.258230 
#    z 0.032000 0.258230 4.426300 
# 
# 
# High freq. dielectric constant tensor:
#      x y z
#    x 1.912180 0.014900 -0.007790 
#    y 0.014900 1.955650 0.010970 
#    z -0.007790 0.010970 1.945520 
# 
# From -- ./inp_files/152262.got.cif
#   From: 2010.06.25/outbox.cif.g09.slc.cpg/sg2_77_cif.got.tgz:152262.got - 2010.06.27 13:26:56.
