data_PCOD8029294
_publ_section_title
;
Structure prediction by ZEFSAII (Michael W. Deem and Ramdas Pophale) SiO2 
 PCOD8029294
Probable space group: P -1
;
_chemical_formula_sum "Si O2"
_cell_formula_units_Z 16
_cell_length_a 22.832667
_cell_length_b 13.941878
_cell_length_c 16.663893
_cell_angle_alpha 23.576290
_cell_angle_beta 159.363526
_cell_angle_gamma 147.758451
_cell_volume 745.087330
_symmetry_space_group_name_H-M "P -1"
_symmetry_group_IT_number 2
_symmetry_cell_setting 'triclinic'
loop_
_space_group_symop_operation_xyz
x,y,z
-x,-y,-z
loop_
_atom_site_type_symbol
_atom_site_label
_atom_site_fract_x
_atom_site_fract_y
_atom_site_fract_z
Si Si1 0.698868 0.159149 0.308102
Si Si2 0.832937 0.151080 0.648918
Si Si3 0.213535 0.378860 0.672564
Si Si4 0.606246 0.514441 0.333440
Si Si5 0.859047 0.260229 0.268255
Si Si6 0.672976 0.848174 0.311183
Si Si7 0.663135 0.637023 0.620277
Si Si8 0.510587 0.001452 0.608441
O O1 0.843155 0.151486 0.565026
O O2 0.759731 0.252670 0.229859
O O3 0.618019 0.902974 0.395091
O O4 0.562555 0.356514 0.018067
O O5 0.839636 0.417044 0.488002
O O6 0.671652 0.025807 0.568861
O O7 0.000000 0.000000 0.000000
O O8 0.264283 0.505838 0.558062
O O9 0.054737 0.235698 0.556372
O O10 0.360475 0.207622 0.031631
O O11 0.659998 0.682704 0.344795
O O12 0.576161 0.251944 0.529867
O O13 0.811638 0.033608 0.327887
O O14 0.797483 0.500492 0.956319
O O15 0.743324 0.674595 0.606907
O O16 0.500000 0.000000 0.000000
O O17 0.500000 0.500000 0.500000
O O18 0.500000 0.000000 0.500000
#
# Coordination Sequence:
#
# PCOD8029294 Si02
#       8
#     2   2   2   2   2   2   2   2
#     4  11  24  41  67 105 139 178 240 290 341 417
#     4  12  27  46  74 108 136 183 248 293 345 426
#     4  12  28  49  68 104 150 183 232 295 358 426
#     4  12  24  45  74 101 142 193 231 282 361 424
#     4  11  25  43  69 102 143 184 234 295 348 415
#     4  11  22  42  69 108 142 180 240 292 345 423
#     4  11  20  39  69 101 139 177 232 289 348 407
#     4  12  27  48  73  99 145 192 229 289 367 416
#
# _framework density 21.473993
#
# number of rings (size 3 to 8) (size 9 to 14) (size 15 to 20)
#    0.000    0.500    6.250    1.875    7.000    4.000 
#    0.000    1.250    0.000    0.000    0.000    0.000 
#    0.000    0.000    0.000    0.000    0.000    0.000 
#
# Total GULP energy -198373.750388 kJ/mol
# GULP energy per Si atom -12398.359399 kJ/mol
# Density = 2.142512 g / cm^3
# Si number density = 21.473993 Si / 1000 Ang^3
#
#
#
# Elastic Constant Matrix: (Units=GPa)
#
#
# Indices 1 2 3 4 5 6 
#
# 1 82.6560 31.9829 52.2940 0.2759 -22.4051 -14.4680
# 2 31.9829 137.6694 63.9551 -0.6285 1.0996 -4.0185
# 3 52.2940 63.9551 135.6411 0.0405 -9.6418 -0.1318
# 4 0.2759 -0.6285 0.0405 40.6996 0.5216 1.1222
# 5 -22.4051 1.0996 -9.6418 0.5216 33.2626 -0.0392
# 6 -14.4680 -4.0185 -0.1318 1.1222 -0.0392 41.9795
#
#
#
# Elastic Compliance Matrix: (Units=1/GPa)
#
#
# Indices 1 2 3 4 5 6 
#
# 1 0.021748 -0.001889 -0.006575 -0.000536 0.012823 0.007320
# 2 -0.001889 0.009584 -0.003986 0.000193 -0.002747 0.000246
# 3 -0.006575 -0.003986 0.011720 0.000055 -0.000904 -0.002613
# 4 -0.000536 0.000193 0.000055 0.024609 -0.000739 -0.000825
# 5 0.012823 -0.002747 -0.000904 -0.000739 0.038546 0.004209
# 6 0.007320 0.000246 -0.002613 -0.000825 0.004209 0.026385
#
#
# Mechanical properties :
#
#
# Convention : Reuss Voigt Hill
#
# Bulk Modulus (GPa) = 55.09001 72.49228 63.79115
# Shear Modulus (GPa) = 30.57285 37.03730 33.80507
#
# Velocity S-wave (km/s) = 3.77731 4.15752 3.97197
# Velocity P-wave (km/s) = 6.68835 7.54175 7.12784
#
# Compressibility (1/GPa) = 0.01815211
#
# Stress axis : x y z
#
# Youngs Moduli (GPa) = 45.98106 104.33728 85.32543
#
# Poissons Ratio (x) = 0.19711 0.56102
# Poissons Ratio (y) = 0.08686 0.34009
# Poissons Ratio (z) = 0.30233 0.41587
#
# Static dielectric constant tensor:
#      x y z
#    x 4.040860 -0.114850 -0.251110 
#    y -0.114850 4.255840 -0.131680 
#    z -0.251110 -0.131680 3.990230 
# 
# 
# High freq. dielectric constant tensor:
#      x y z
#    x 1.845810 -0.011830 -0.022570 
#    y -0.011830 1.859520 -0.005960 
#    z -0.022570 -0.005960 1.838870 
# 
# From -- ./inp_files/579297.got.cif
#   From: 2010.06.25/outbox.cif.g09.slc.cpg/sg2_290_cif.got.tgz:579297.got - 2010.06.27 13:26:56.
