data_PCOD8029431
_publ_section_title
;
Structure prediction by ZEFSAII (Michael W. Deem and Ramdas Pophale) SiO2 
 PCOD8029431
Probable space group: P -1
;
_chemical_formula_sum "Si O2"
_cell_formula_units_Z 16
_cell_length_a 17.591418
_cell_length_b 14.043842
_cell_length_c 9.006669
_cell_angle_alpha 42.823169
_cell_angle_beta 150.257371
_cell_angle_gamma 138.330628
_cell_volume 709.186470
_symmetry_space_group_name_H-M "P -1"
_symmetry_group_IT_number 2
_symmetry_cell_setting 'triclinic'
loop_
_space_group_symop_operation_xyz
x,y,z
-x,-y,-z
loop_
_atom_site_type_symbol
_atom_site_label
_atom_site_fract_x
_atom_site_fract_y
_atom_site_fract_z
Si Si1 0.136335 0.448626 0.712642
Si Si2 0.332777 0.127042 0.878786
Si Si3 0.615214 0.175259 0.756467
Si Si4 0.571146 0.375174 0.196549
Si Si5 0.885854 0.198091 0.405073
Si Si6 0.187776 0.230037 0.257103
Si Si7 0.258987 0.046276 0.350186
Si Si8 0.069834 0.006813 0.790116
O O1 0.283290 0.565577 0.742465
O O2 0.000000 0.500000 0.500000
O O3 0.045208 0.330399 0.568519
O O4 0.218544 0.392322 0.056880
O O5 0.334109 0.211115 0.627614
O O6 0.144399 0.056412 0.696675
O O7 0.428415 0.249772 0.016937
O O8 0.399701 0.989655 0.138931
O O9 0.641194 0.297400 0.533041
O O10 0.443958 0.146522 0.580193
O O11 0.759672 0.248194 0.033756
O O12 0.500000 0.500000 0.000000
O O13 0.937041 0.084197 0.518165
O O14 0.786730 0.120740 0.472769
O O15 0.151105 0.124839 0.168987
O O16 0.021798 0.170804 0.141342
O O17 0.224256 0.051016 0.111871
#
# Coordination Sequence:
#
# PCOD8029431 Si02
#       8
#     2   2   2   2   2   2   2   2
#     4  12  28  43  68  99 142 198 234 275 339 440
#     4  12  26  42  75 108 133 174 240 303 341 401
#     4  12  26  42  75 108 133 174 240 303 341 401
#     4  12  29  50  66  95 151 199 226 277 360 435
#     4  11  23  42  70 104 135 177 230 288 354 409
#     4  11  23  42  70 104 135 177 230 288 354 409
#     4  11  20  41  72 100 138 175 219 294 362 400
#     4  11  20  41  72 100 138 175 219 294 362 400
#
# _framework density 22.561060999999999
#
# number of rings (size 3 to 8) (size 9 to 14) (size 15 to 20)
#    0.000    0.500    6.250    3.375    3.500    2.000 
#    0.000    0.000    0.000    0.000    0.000    0.000 
#    0.000    0.000    0.000    0.000    0.000    0.000 
#
# Total GULP energy -198316.394358 kJ/mol
# GULP energy per Si atom -12394.774647 kJ/mol
# Density = 2.250971 g / cm^3
# Si number density = 22.561061 Si / 1000 Ang^3
#
#
#
# Elastic Constant Matrix: (Units=GPa)
#
#
# Indices 1 2 3 4 5 6 
#
# 1 103.0335 31.3685 29.6142 -16.0225 -6.5840 22.4084
# 2 31.3685 79.7972 31.8223 -10.4247 -7.3289 19.1509
# 3 29.6142 31.8223 137.4542 -23.2533 -22.6608 10.0726
# 4 -16.0225 -10.4247 -23.2533 38.1414 5.7217 0.4820
# 5 -6.5840 -7.3289 -22.6608 5.7217 36.1767 2.2004
# 6 22.4084 19.1509 10.0726 0.4820 2.2004 45.2256
#
#
#
# Elastic Compliance Matrix: (Units=1/GPa)
#
#
# Indices 1 2 3 4 5 6 
#
# 1 0.012545 -0.002811 -0.000896 0.003892 0.000835 -0.004908
# 2 -0.002811 0.016078 -0.002233 0.001708 0.001381 -0.005004
# 3 -0.000896 -0.002233 0.009545 0.004129 0.004772 -0.001012
# 4 0.003892 0.001708 0.004129 0.031041 -0.001034 -0.003852
# 5 0.000835 0.001381 0.004772 -0.001034 0.031444 -0.003580
# 6 -0.004908 -0.005004 -0.001012 -0.003852 -0.003580 0.027103
#
#
# Mechanical properties :
#
#
# Convention : Reuss Voigt Hill
#
# Bulk Modulus (GPa) = 38.04226 56.21053 47.12640
# Shear Modulus (GPa) = 33.69284 39.07405 36.38345
#
# Velocity S-wave (km/s) = 3.86865 4.16615 4.02016
# Velocity P-wave (km/s) = 6.07074 6.93624 6.51787
#
# Compressibility (1/GPa) = 0.02628655
#
# Stress axis : x y z
#
# Youngs Moduli (GPa) = 79.71290 62.19583 104.77083
#
# Poissons Ratio (x) = 0.17483 0.09390
# Poissons Ratio (y) = 0.22407 0.23400
# Poissons Ratio (z) = 0.07144 0.13891
#
# Static dielectric constant tensor:
#      x y z
#    x 4.050380 0.165610 -0.188350 
#    y 0.165610 4.121860 -0.084520 
#    z -0.188350 -0.084520 4.216820 
# 
# 
# High freq. dielectric constant tensor:
#      x y z
#    x 1.895010 0.015900 -0.015560 
#    y 0.015900 1.872640 0.011510 
#    z -0.015560 0.011510 1.907030 
# 
# From -- ./inp_files/226510.got.cif
#   From: 2010.06.25/outbox.cif.g09.slc.cpg/sg2_114_cif.got.tgz:226510.got - 2010.06.27 13:26:56.
