data_PCOD8029249
_publ_section_title
;
Structure prediction by ZEFSAII (Michael W. Deem and Ramdas Pophale) SiO2 
 PCOD8029249
Probable space group: P -1
;
_chemical_formula_sum "Si O2"
_cell_formula_units_Z 14
_cell_length_a 15.376963
_cell_length_b 21.149288
_cell_length_c 12.407044
_cell_angle_alpha 29.257408
_cell_angle_beta 142.090636
_cell_angle_gamma 161.100953
_cell_volume 621.603340
_symmetry_space_group_name_H-M "P -1"
_symmetry_group_IT_number 2
_symmetry_cell_setting 'triclinic'
loop_
_space_group_symop_operation_xyz
x,y,z
-x,-y,-z
loop_
_atom_site_type_symbol
_atom_site_label
_atom_site_fract_x
_atom_site_fract_y
_atom_site_fract_z
Si Si1 0.000648 0.052749 0.304628
Si Si2 0.498741 0.714704 0.589999
Si Si3 0.398162 0.214129 0.034001
Si Si4 0.544779 0.309285 0.792281
Si Si5 0.192728 0.343838 0.651737
Si Si6 0.424149 0.934033 0.146069
Si Si7 0.835407 0.539745 0.152027
O O1 0.237045 0.165726 0.299785
O O2 0.032350 0.225818 0.108815
O O3 0.000000 0.000000 0.500000
O O4 0.721701 0.816220 0.316656
O O5 0.372776 0.579857 0.551466
O O6 0.575725 0.927553 0.354348
O O7 0.278622 0.511769 0.767027
O O8 0.601758 0.312967 0.176297
O O9 0.555880 0.323195 0.911984
O O10 0.336131 0.316346 0.838649
O O11 0.117274 0.910639 0.225528
O O12 0.795268 0.579016 0.571214
O O13 0.527703 0.143557 0.995906
O O14 0.093430 0.644534 0.261236
O O15 0.500000 0.000000 0.000000
#
# Coordination Sequence:
#
# PCOD8029249 Si02
#       7
#     2   2   2   2   2   2   2
#     4  11  20  38  68 100 124 165 225 276 316 375
#     4  12  22  41  69  97 128 165 228 272 322 376
#     4  11  25  41  63  99 140 170 213 261 336 399
#     4  11  23  44  68  96 136 169 217 273 328 387
#     4  11  22  40  66  97 132 175 210 270 328 383
#     4  11  23  45  70  93 124 170 225 274 323 382
#     4  11  24  41  65  99 129 171 216 273 324 388
#
# _framework density 22.522400999999999
#
# number of rings (size 3 to 8) (size 9 to 14) (size 15 to 20)
#    0.000    0.857    4.286    3.857    4.000    0.000 
#    2.571    3.571    0.000    0.000    0.000    0.000 
#    0.000    0.000    0.000    0.000    0.000    0.000 
#
# Total GULP energy -173524.235938 kJ/mol
# GULP energy per Si atom -12394.588281 kJ/mol
# Density = 2.247114 g / cm^3
# Si number density = 22.522401 Si / 1000 Ang^3
#
#
#
# Elastic Constant Matrix: (Units=GPa)
#
#
# Indices 1 2 3 4 5 6 
#
# 1 109.7212 11.3433 19.7495 0.6578 -16.4352 2.1844
# 2 11.3433 40.5230 4.5783 -1.8023 1.6862 1.5857
# 3 19.7495 4.5783 79.8748 -14.2097 -2.0388 -6.5313
# 4 0.6578 -1.8023 -14.2097 21.8162 8.1599 -6.1532
# 5 -16.4352 1.6862 -2.0388 8.1599 44.5037 0.4747
# 6 2.1844 1.5857 -6.5313 -6.1532 0.4747 22.9336
#
#
#
# Elastic Compliance Matrix: (Units=1/GPa)
#
#
# Indices 1 2 3 4 5 6 
#
# 1 0.010977 -0.002984 -0.003771 -0.005973 0.005128 -0.003622
# 2 -0.002984 0.025818 -0.000397 0.002694 -0.002583 -0.000838
# 3 -0.003771 -0.000397 0.016796 0.014915 -0.003441 0.009243
# 4 -0.005973 0.002694 0.014915 0.067829 -0.014308 0.023125
# 5 0.005128 -0.002583 -0.003441 -0.014308 0.026988 -0.005687
# 6 -0.003622 -0.000838 0.009243 0.023125 -0.005687 0.052962
#
#
# Mechanical properties :
#
#
# Convention : Reuss Voigt Hill
#
# Bulk Modulus (GPa) = 25.45411 33.49570 29.47490
# Shear Modulus (GPa) = 21.85598 30.81389 26.33493
#
# Velocity S-wave (km/s) = 3.11852 3.70286 3.42318
# Velocity P-wave (km/s) = 4.92880 5.76073 5.36093
#
# Compressibility (1/GPa) = 0.03928639
#
# Stress axis : x y z
#
# Youngs Moduli (GPa) = 91.09642 38.73321 59.53761
#
# Poissons Ratio (x) = 0.11558 0.22452
# Poissons Ratio (y) = 0.27184 0.02365
# Poissons Ratio (z) = 0.34354 0.01538
#
# Static dielectric constant tensor:
#      x y z
#    x 4.055250 0.005160 -0.250820 
#    y 0.005160 3.678490 -0.497010 
#    z -0.250820 -0.497010 4.218310 
# 
# 
# High freq. dielectric constant tensor:
#      x y z
#    x 1.894880 0.012070 -0.011690 
#    y 0.012070 1.866690 -0.002160 
#    z -0.011690 -0.002160 1.900080 
# 
# From -- ./inp_files/153805.got.cif
#   From: 2010.06.25/outbox.cif.g09.slc.cpg/sg2_77_cif.got.tgz:153805.got - 2010.06.27 13:26:56.
