data_PCOD8029461
_publ_section_title
;
Structure prediction by ZEFSAII (Michael W. Deem and Ramdas Pophale) SiO2 
 PCOD8029461
Probable space group: P -1
;
_chemical_formula_sum "Si O2"
_cell_formula_units_Z 16
_cell_length_a 10.069337
_cell_length_b 14.539233
_cell_length_c 11.517237
_cell_angle_alpha 149.813279
_cell_angle_beta 113.613092
_cell_angle_gamma 77.343914
_cell_volume 746.666304
_symmetry_space_group_name_H-M "P -1"
_symmetry_group_IT_number 2
_symmetry_cell_setting 'triclinic'
loop_
_space_group_symop_operation_xyz
x,y,z
-x,-y,-z
loop_
_atom_site_type_symbol
_atom_site_label
_atom_site_fract_x
_atom_site_fract_y
_atom_site_fract_z
Si Si1 0.407931 0.740118 0.473841
Si Si2 0.499193 0.919991 0.283522
Si Si3 0.743897 0.724065 0.609163
Si Si4 0.825563 0.348644 0.508380
Si Si5 0.372911 0.396629 0.934262
Si Si6 0.941149 0.751594 0.915396
Si Si7 0.090340 0.164436 0.437913
Si Si8 0.784874 0.317101 0.191041
O O1 0.577775 0.746450 0.570899
O O2 0.318093 0.744852 0.565161
O O3 0.399767 0.919365 0.589003
O O4 0.328182 0.552114 0.167441
O O5 0.567107 0.741283 0.111351
O O6 0.500000 0.000000 0.500000
O O7 0.329700 0.858585 0.106476
O O8 0.811584 0.795282 0.836643
O O9 0.849240 0.853912 0.690551
O O10 0.740078 0.506422 0.346501
O O11 0.869282 0.579194 0.790393
O O12 0.775849 0.283902 0.289473
O O13 0.964605 0.275923 0.519620
O O14 0.225752 0.274336 0.685404
O O15 0.500000 0.500000 0.000000
O O16 0.047547 0.667877 0.777272
O O17 0.023754 0.946880 0.223487
#
# Coordination Sequence:
#
# PCOD8029461 Si02
#       8
#     2   2   2   2   2   2   2   2
#     4  12  27  44  68 104 141 180 224 286 341 403
#     4  12  24  42  70 103 131 177 236 278 333 403
#     4  11  20  42  69  98 136 175 228 278 335 399
#     4  11  27  45  64 106 144 177 219 286 357 390
#     4  12  24  45  71  99 132 179 231 282 330 403
#     4  11  23  40  71 102 134 179 228 278 340 405
#     4  12  23  43  73  98 134 177 233 281 334 409
#     4  11  21  42  72 101 137 176 230 288 331 408
#
# _framework density 21.428581999999999
#
# number of rings (size 3 to 8) (size 9 to 14) (size 15 to 20)
#    0.000    0.500    6.250    2.625    1.750    5.000 
#    0.000    1.250    0.000    0.000    0.000    0.000 
#    0.000    0.000    0.000    0.000    0.000    0.000 
#
# Total GULP energy -198486.610085 kJ/mol
# GULP energy per Si atom -12405.413130 kJ/mol
# Density = 2.137981 g / cm^3
# Si number density = 21.428582 Si / 1000 Ang^3
#
#
#
# Elastic Constant Matrix: (Units=GPa)
#
#
# Indices 1 2 3 4 5 6 
#
# 1 97.5477 50.9393 14.8801 3.6912 13.4425 1.5607
# 2 50.9393 117.4284 37.9486 21.1471 9.0669 -0.4973
# 3 14.8801 37.9486 108.9439 2.0662 22.0531 -6.6156
# 4 3.6912 21.1471 2.0662 33.6896 2.2736 1.8687
# 5 13.4425 9.0669 22.0531 2.2736 19.3180 -0.5127
# 6 1.5607 -0.4973 -6.6156 1.8687 -0.5127 36.7597
#
#
#
# Elastic Compliance Matrix: (Units=1/GPa)
#
#
# Indices 1 2 3 4 5 6 
#
# 1 0.014841 -0.007030 0.002376 0.003360 -0.010152 -0.000610
# 2 -0.007030 0.014223 -0.004769 -0.008184 0.004626 0.000113
# 3 0.002376 -0.004769 0.013679 0.002820 -0.015312 0.001940
# 4 0.003360 -0.008184 0.002820 0.034762 -0.005849 -0.001595
# 5 -0.010152 0.004626 -0.015312 -0.005849 0.074802 -0.000921
# 6 -0.000610 0.000113 0.001940 -0.001595 -0.000921 0.027648
#
#
# Mechanical properties :
#
#
# Convention : Reuss Voigt Hill
#
# Bulk Modulus (GPa) = 41.84227 59.05066 50.44646
# Shear Modulus (GPa) = 24.18175 32.63027 28.40601
#
# Velocity S-wave (km/s) = 3.36293 3.90647 3.64485
# Velocity P-wave (km/s) = 5.88624 6.92561 6.42697
#
# Compressibility (1/GPa) = 0.02389928
#
# Stress axis : x y z
#
# Youngs Moduli (GPa) = 67.37889 70.30697 73.10285
#
# Poissons Ratio (x) = 0.49423 -0.17367
# Poissons Ratio (y) = 0.47365 0.34860
# Poissons Ratio (z) = -0.16008 0.33527
#
# Static dielectric constant tensor:
#      x y z
#    x 3.751230 -0.176070 0.105660 
#    y -0.176070 4.041630 0.197290 
#    z 0.105660 0.197290 4.028060 
# 
# 
# High freq. dielectric constant tensor:
#      x y z
#    x 1.821400 -0.018860 0.013110 
#    y -0.018860 1.846400 0.013750 
#    z 0.013110 0.013750 1.855150 
# 
# From -- ./inp_files/346466.got.cif
#   From: 2010.06.25/outbox.cif.g09.slc.cpg/sg2_174_cif.got.tgz:346466.got - 2010.06.27 13:26:56.
