data_PCOD8029626
_publ_section_title
;
Structure prediction by ZEFSAII (Michael W. Deem and Ramdas Pophale) SiO2 
 PCOD8029626
Probable space group: P -1
;
_chemical_formula_sum "Si O2"
_cell_formula_units_Z 16
_cell_length_a 9.814274
_cell_length_b 17.207239
_cell_length_c 13.767860
_cell_angle_alpha 136.211351
_cell_angle_beta 147.222512
_cell_angle_gamma 42.590455
_cell_volume 817.564692
_symmetry_space_group_name_H-M "P -1"
_symmetry_group_IT_number 2
_symmetry_cell_setting 'triclinic'
loop_
_space_group_symop_operation_xyz
x,y,z
-x,-y,-z
loop_
_atom_site_type_symbol
_atom_site_label
_atom_site_fract_x
_atom_site_fract_y
_atom_site_fract_z
Si Si1 0.580843 0.147344 0.497970
Si Si2 0.443197 0.612586 0.231306
Si Si3 0.905717 0.000339 0.210838
Si Si4 0.686810 0.347926 0.124972
Si Si5 0.774803 0.644392 0.276610
Si Si6 0.920309 0.823876 0.647184
Si Si7 0.553060 0.856438 0.797890
Si Si8 0.982912 0.619962 0.832131
O O1 0.549047 0.288044 0.596485
O O2 0.352657 0.130449 0.414332
O O3 0.567110 0.097013 0.337611
O O4 0.867631 0.072909 0.645411
O O5 0.587547 0.477991 0.235957
O O6 0.599529 0.627490 0.244118
O O7 0.142064 0.633374 0.035987
O O8 0.677438 0.103805 0.224265
O O9 0.787683 0.909077 0.006462
O O10 0.026922 0.059243 0.252560
O O11 0.892023 0.345824 0.159821
O O12 0.832881 0.251135 0.205337
O O13 0.425941 0.319911 0.904116
O O14 0.895786 0.746992 0.468228
O O15 0.013171 0.516617 0.289783
O O16 0.681044 0.711991 0.745458
#
# Coordination Sequence:
#
# PCOD8029626 Si02
#       8
#     2   2   2   2   2   2   2   2
#     4  11  21  37  62  85 105 147 193 233 270 320
#     4   8  16  30  57  87 116 133 179 242 265 322
#     4  11  26  42  51  82 117 148 190 228 276 322
#     4   9  17  32  54  91 115 139 177 223 288 328
#     4   8  18  30  55  86 118 140 170 236 279 323
#     4  11  22  35  59  86 118 142 174 234 285 334
#     4  11  23  40  62  75 107 158 192 228 263 330
#     4   9  15  34  57  84 110 143 188 222 273 324
#
# _framework density 19.570315999999998
#
# number of rings (size 3 to 8) (size 9 to 14) (size 15 to 20)
#    0.000    2.250    2.500    2.250    1.750    3.000 
#    0.000    0.625    0.000    1.500    0.000    0.000 
#    0.000    0.000    0.000    0.000    0.000    0.000 
#
# Total GULP energy -198361.356358 kJ/mol
# GULP energy per Si atom -12397.584772 kJ/mol
# Density = 1.952577 g / cm^3
# Si number density = 19.570316 Si / 1000 Ang^3
#
#
#
# Elastic Constant Matrix: (Units=GPa)
#
#
# Indices 1 2 3 4 5 6 
#
# 1 25.6267 -0.2704 15.4944 3.7145 -4.5206 -5.6182
# 2 -0.2704 56.2956 24.6505 -12.6530 -3.5725 -18.1023
# 3 15.4944 24.6505 84.9738 -20.1224 -5.7303 0.1569
# 4 3.7145 -12.6530 -20.1224 22.5294 2.9480 1.4040
# 5 -4.5206 -3.5725 -5.7303 2.9480 15.1618 2.3461
# 6 -5.6182 -18.1023 0.1569 1.4040 2.3461 20.2808
#
#
#
# Elastic Compliance Matrix: (Units=1/GPa)
#
#
# Indices 1 2 3 4 5 6 
#
# 1 0.065384 0.015173 -0.021359 -0.025280 0.014986 0.031838
# 2 0.015173 0.035627 -0.012013 0.004294 0.002040 0.035563
# 3 -0.021359 -0.012013 0.023639 0.019168 -0.001205 -0.018010
# 4 -0.025280 0.004294 0.019168 0.070061 -0.011852 -0.006797
# 5 0.014986 0.002040 -0.001205 -0.011852 0.073008 -0.001643
# 6 0.031838 0.035563 -0.018010 -0.006797 -0.001643 0.090670
#
#
# Mechanical properties :
#
#
# Convention : Reuss Voigt Hill
#
# Bulk Modulus (GPa) = 11.33114 27.40501 19.36808
# Shear Modulus (GPa) = 11.78684 20.06252 15.92468
#
# Velocity S-wave (km/s) = 2.45681 3.20527 2.85567
# Velocity P-wave (km/s) = 3.72161 5.26613 4.55974
#
# Compressibility (1/GPa) = 0.08825238
#
# Stress axis : x y z
#
# Youngs Moduli (GPa) = 15.29435 28.06896 42.30295
#
# Poissons Ratio (x) = -0.42590 0.90353
# Poissons Ratio (y) = -0.23206 0.50818
# Poissons Ratio (z) = 0.32667 0.33719
#
# Static dielectric constant tensor:
#      x y z
#    x 3.080830 -0.283280 -0.165080 
#    y -0.283280 3.756070 0.238500 
#    z -0.165080 0.238500 4.122320 
# 
# 
# High freq. dielectric constant tensor:
#      x y z
#    x 1.708790 -0.021480 -0.010780 
#    y -0.021480 1.770070 -0.006670 
#    z -0.010780 -0.006670 1.773060 
# 
# From -- ./inp_files/280249.got.cif
#   From: 2010.06.25/outbox.cif.g09.slc.cpg/sg2_141_cif.got.tgz:280249.got - 2010.06.27 13:26:56.
