data_PCOD8029766
_publ_section_title
;
Structure prediction by ZEFSAII (Michael W. Deem and Ramdas Pophale) SiO2 
 PCOD8029766
Probable space group: P -1
;
_chemical_formula_sum "Si O2"
_cell_formula_units_Z 16
_cell_length_a 11.427676
_cell_length_b 8.961262
_cell_length_c 11.405979
_cell_angle_alpha 133.500196
_cell_angle_beta 94.020168
_cell_angle_gamma 59.161351
_cell_volume 648.181273
_symmetry_space_group_name_H-M "P -1"
_symmetry_group_IT_number 2
_symmetry_cell_setting 'triclinic'
loop_
_space_group_symop_operation_xyz
x,y,z
-x,-y,-z
loop_
_atom_site_type_symbol
_atom_site_label
_atom_site_fract_x
_atom_site_fract_y
_atom_site_fract_z
Si Si1 0.132264 0.228696 0.691837
Si Si2 0.659018 0.174485 0.081863
Si Si3 0.450102 0.939474 0.206962
Si Si4 0.614579 0.253784 0.683159
Si Si5 0.970617 0.711738 0.772156
Si Si6 0.255226 0.201827 0.919376
Si Si7 0.149402 0.685807 0.327166
Si Si8 0.818084 0.495441 0.523474
O O1 0.064702 0.507662 0.776088
O O2 0.131989 0.255467 0.846326
O O3 0.040317 0.110605 0.590892
O O4 0.305647 0.004026 0.534762
O O5 0.549345 0.497624 0.249064
O O6 0.657947 0.082868 0.163289
O O7 0.583112 0.095834 0.946510
O O8 0.836834 0.018325 0.972765
O O9 0.413583 0.797600 0.216882
O O10 0.627201 0.798099 0.149692
O O11 0.349525 0.254548 0.400016
O O12 0.737395 0.300983 0.734120
O O13 0.084379 0.706226 0.688072
O O14 0.895816 0.615029 0.639874
O O15 0.171086 0.427784 0.137018
O O16 0.195021 0.649493 0.448123
#
# Coordination Sequence:
#
# PCOD8029766 Si02
#       8
#     2   2   2   2   2   2   2   2
#     4  11  24  42  64  97 128 169 210 264 315 380
#     4  11  22  39  67  94 125 167 216 262 309 380
#     4  11  21  39  66  97 122 168 213 269 303 375
#     4  12  25  41  64  99 133 156 211 274 326 351
#     4   9  18  37  65  91 120 164 215 255 301 376
#     4  12  23  40  69  91 129 173 217 248 314 391
#     4  11  22  41  69  94 124 170 214 264 308 381
#     4   9  17  36  66  93 117 161 225 257 295 371
#
# _framework density 24.684452
#
# number of rings (size 3 to 8) (size 9 to 14) (size 15 to 20)
#    0.000    1.250    6.250    2.250    1.750    1.000 
#    0.000    0.000    0.000    1.500    0.000    0.000 
#    0.000    0.000    0.000    0.000    0.000    0.000 
#
# Total GULP energy -198346.824084 kJ/mol
# GULP energy per Si atom -12396.676505 kJ/mol
# Density = 2.462827 g / cm^3
# Si number density = 24.684452 Si / 1000 Ang^3
#
#
#
# Elastic Constant Matrix: (Units=GPa)
#
#
# Indices 1 2 3 4 5 6 
#
# 1 58.7994 45.1726 35.4494 -17.0207 -29.1883 16.2687
# 2 45.1726 151.8110 63.6821 -3.3107 -17.2355 9.7110
# 3 35.4494 63.6821 112.0165 12.8161 -34.7037 -6.8750
# 4 -17.0207 -3.3107 12.8161 51.6683 -5.7774 -9.1047
# 5 -29.1883 -17.2355 -34.7037 -5.7774 34.3558 -7.2872
# 6 16.2687 9.7110 -6.8750 -9.1047 -7.2872 26.9350
#
#
#
# Elastic Compliance Matrix: (Units=1/GPa)
#
#
# Indices 1 2 3 4 5 6 
#
# 1 0.055593 -0.009473 -0.002896 0.020629 0.040257 -0.013038
# 2 -0.009473 0.011093 -0.006347 -0.002577 -0.010069 -0.003493
# 3 -0.002896 -0.006347 0.019592 -0.002123 0.016500 0.012785
# 4 0.020629 -0.002577 -0.002123 0.029266 0.019678 0.003144
# 5 0.040257 -0.010069 0.016500 0.019678 0.080786 0.012035
# 6 -0.013038 -0.003493 0.012785 0.003144 0.012035 0.053842
#
#
# Mechanical properties :
#
#
# Convention : Reuss Voigt Hill
#
# Bulk Modulus (GPa) = 20.47326 67.91502 44.19414
# Shear Modulus (GPa) = 16.45351 34.48002 25.46676
#
# Velocity S-wave (km/s) = 2.58457 3.74148 3.21548
# Velocity P-wave (km/s) = 4.14954 6.79984 5.63278
#
# Compressibility (1/GPa) = 0.04884421
#
# Stress axis : x y z
#
# Youngs Moduli (GPa) = 17.98778 90.15035 51.04188
#
# Poissons Ratio (x) = 0.85399 0.14784
# Poissons Ratio (y) = 0.17040 0.32398
# Poissons Ratio (z) = 0.05210 0.57222
#
# Static dielectric constant tensor:
#      x y z
#    x 4.061820 -0.101970 -0.503000 
#    y -0.101970 4.445780 0.328870 
#    z -0.503000 0.328870 4.875920 
# 
# 
# High freq. dielectric constant tensor:
#      x y z
#    x 1.951950 -0.000110 -0.036270 
#    y -0.000110 1.983360 0.011500 
#    z -0.036270 0.011500 1.995360 
# 
# From -- ./inp_files/419739.got.cif
#   From: 2010.06.25/outbox.cif.g09.slc.cpg/sg2_210_cif.got.tgz:419739.got - 2010.06.27 13:26:56.
