data_PCOD8029112
_publ_section_title
;
Structure prediction by ZEFSAII (Michael W. Deem and Ramdas Pophale) SiO2 
 PCOD8029112
Probable space group: P -1
;
_chemical_formula_sum "Si O2"
_cell_formula_units_Z 14
_cell_length_a 11.594477
_cell_length_b 24.234398
_cell_length_c 15.916594
_cell_angle_alpha 19.446581
_cell_angle_beta 142.241889
_cell_angle_gamma 149.874845
_cell_volume 738.893994
_symmetry_space_group_name_H-M "P -1"
_symmetry_group_IT_number 2
_symmetry_cell_setting 'triclinic'
loop_
_space_group_symop_operation_xyz
x,y,z
-x,-y,-z
loop_
_atom_site_type_symbol
_atom_site_label
_atom_site_fract_x
_atom_site_fract_y
_atom_site_fract_z
Si Si1 0.724116 0.050872 0.663962
Si Si2 0.274617 0.269930 0.191615
Si Si3 0.473129 0.214829 0.911990
Si Si4 0.833689 0.131237 0.230716
Si Si5 0.221151 0.338076 0.482838
Si Si6 0.108738 0.399207 0.159352
Si Si7 0.556144 0.787859 0.787732
O O1 0.527087 0.087568 0.485430
O O2 0.981392 0.258442 0.506757
O O3 0.691719 0.893907 0.799440
O O4 0.703418 0.963436 0.869678
O O5 0.265912 0.213630 0.169550
O O6 0.041240 0.247428 0.115129
O O7 0.284101 0.111750 0.484445
O O8 0.500000 0.500000 0.000000
O O9 0.326937 0.218870 0.746156
O O10 0.607367 0.423035 0.742842
O O11 0.646365 0.168911 0.038064
O O12 0.919951 0.221161 0.245182
O O13 0.178682 0.301491 0.411001
O O14 0.332648 0.559698 0.003615
O O15 0.000000 0.500000 0.000000
#
# Coordination Sequence:
#
# PCOD8029112 Si02
#       7
#     2   2   2   2   2   2   2
#     4  11  20  36  59  86 117 152 184 243 297 341
#     4  11  23  37  56  89 113 154 198 243 281 334
#     4  11  22  38  55  90 120 154 187 233 295 351
#     4  11  22  38  62  83 119 152 195 240 287 336
#     4  11  23  34  57  89 125 151 184 232 296 359
#     4  12  19  36  60  91 116 149 187 242 295 339
#     4  11  20  34  60  87 117 142 196 246 286 337
#
# _framework density 18.947237000000001
#
# number of rings (size 3 to 8) (size 9 to 14) (size 15 to 20)
#    0.000    0.857    7.143    1.286    0.000    0.000 
#    0.000    0.000    0.000    8.571    0.000    0.000 
#    0.000    0.000    0.000    0.000    0.000    0.000 
#
# Total GULP energy -173631.286243 kJ/mol
# GULP energy per Si atom -12402.234732 kJ/mol
# Density = 1.890411 g / cm^3
# Si number density = 18.947237 Si / 1000 Ang^3
#
#
#
# Elastic Constant Matrix: (Units=GPa)
#
#
# Indices 1 2 3 4 5 6 
#
# 1 131.0975 27.1631 32.8074 11.0512 -8.3720 7.8372
# 2 27.1631 60.8404 24.7247 11.7099 -0.8874 1.3133
# 3 32.8074 24.7247 90.1692 6.0044 -14.2552 2.4141
# 4 11.0512 11.7099 6.0044 39.9646 6.7553 -1.6269
# 5 -8.3720 -0.8874 -14.2552 6.7553 29.3766 -4.5669
# 6 7.8372 1.3133 2.4141 -1.6269 -4.5669 20.2250
#
#
#
# Elastic Compliance Matrix: (Units=1/GPa)
#
#
# Indices 1 2 3 4 5 6 
#
# 1 0.009158 -0.002796 -0.002144 -0.001752 0.001433 -0.002929
# 2 -0.002796 0.020318 -0.004486 -0.004279 -0.001433 -0.000368
# 3 -0.002144 -0.004486 0.014205 -0.001305 0.006572 0.000805
# 4 -0.001752 -0.004279 -0.001305 0.028294 -0.007505 0.001694
# 5 0.001433 -0.001433 0.006572 -0.007505 0.040453 0.007284
# 6 -0.002929 -0.000368 0.000805 0.001694 0.007284 0.052288
#
#
# Mechanical properties :
#
#
# Convention : Reuss Voigt Hill
#
# Bulk Modulus (GPa) = 40.27437 50.16640 45.22038
# Shear Modulus (GPa) = 26.06289 31.07402 28.56845
#
# Velocity S-wave (km/s) = 3.71287 4.05412 3.88724
# Velocity P-wave (km/s) = 6.29942 6.96052 6.63821
#
# Compressibility (1/GPa) = 0.02482969
#
# Stress axis : x y z
#
# Youngs Moduli (GPa) = 109.19338 49.21639 70.40002
#
# Poissons Ratio (x) = 0.13762 0.15092
# Poissons Ratio (y) = 0.30532 0.31580
# Poissons Ratio (z) = 0.23408 0.22077
#
# Static dielectric constant tensor:
#      x y z
#    x 3.579020 0.071430 -0.105030 
#    y 0.071430 3.389970 -0.056620 
#    z -0.105030 -0.056620 3.627960 
# 
# 
# High freq. dielectric constant tensor:
#      x y z
#    x 1.733910 0.011410 -0.018410 
#    y 0.011410 1.713300 -0.018120 
#    z -0.018410 -0.018120 1.742750 
# 
# From -- ./inp_files/253665.got.cif
#   From: 2010.06.25/outbox.cif.g09.slc.cpg/sg2_127_cif.got.tgz:253665.got - 2010.06.27 13:26:56.
