data_PCOD8029949
_publ_section_title
;
Structure prediction by ZEFSAII (Michael W. Deem and Ramdas Pophale) SiO2 
 PCOD8029949
Probable space group: P -1
;
_chemical_formula_sum "Si O2"
_cell_formula_units_Z 16
_cell_length_a 14.518680
_cell_length_b 15.032814
_cell_length_c 9.087288
_cell_angle_alpha 93.101774
_cell_angle_beta 54.587493
_cell_angle_gamma 138.783429
_cell_volume 749.040651
_symmetry_space_group_name_H-M "P -1"
_symmetry_group_IT_number 2
_symmetry_cell_setting 'triclinic'
loop_
_space_group_symop_operation_xyz
x,y,z
-x,-y,-z
loop_
_atom_site_type_symbol
_atom_site_label
_atom_site_fract_x
_atom_site_fract_y
_atom_site_fract_z
Si Si1 0.892549 0.675174 0.506696
Si Si2 0.987270 0.816485 0.758635
Si Si3 0.607991 0.158387 0.492429
Si Si4 0.098555 0.428335 0.063923
Si Si5 0.213435 0.578715 0.278612
Si Si6 0.542498 0.587943 0.322261
Si Si7 0.564785 0.782734 0.475580
Si Si8 0.572732 0.970770 0.034819
O O1 0.945098 0.765560 0.619016
O O2 0.797089 0.508101 0.602238
O O3 0.700906 0.588287 0.568090
O O4 0.139178 0.838075 0.198832
O O5 0.030388 0.757567 0.810172
O O6 0.749009 0.696197 0.032879
O O7 0.222172 0.045035 0.587992
O O8 0.483361 0.164127 0.572253
O O9 0.569590 0.107641 0.692248
O O10 0.895234 0.360023 0.203917
O O11 0.500000 0.000000 0.500000
O O12 0.217218 0.537686 0.114736
O O13 0.313277 0.574687 0.761398
O O14 0.474369 0.807767 0.055859
O O15 0.000000 0.500000 0.500000
O O16 0.500000 0.500000 0.500000
O O17 0.633314 0.749827 0.300533
O O18 0.500000 0.000000 0.000000
#
# Coordination Sequence:
#
# PCOD8029949 Si02
#       8
#     2   2   2   2   2   2   2   2
#     4  11  26  45  74 100 141 191 232 293 355 416
#     4  11  24  51  70 101 138 185 241 289 352 419
#     4  12  26  40  68 106 145 181 230 283 354 433
#     4  11  23  43  69 101 142 181 229 287 354 422
#     4  11  21  41  66 101 137 181 230 276 346 425
#     4  12  27  49  74 101 141 189 243 304 347 405
#     4  12  26  44  75 102 141 188 229 298 361 413
#     4  12  24  42  68 102 144 184 227 282 352 429
#
# _framework density 21.360655000000001
#
# number of rings (size 3 to 8) (size 9 to 14) (size 15 to 20)
#    0.000    0.500    5.000    3.375    5.250    0.000 
#    2.250    0.625    0.000    0.000    0.000    0.000 
#    0.000    0.000    0.000    0.000    0.000    0.000 
#
# Total GULP energy -198336.633035 kJ/mol
# GULP energy per Si atom -12396.039565 kJ/mol
# Density = 2.131204 g / cm^3
# Si number density = 21.360655 Si / 1000 Ang^3
#
#
#
# Elastic Constant Matrix: (Units=GPa)
#
#
# Indices 1 2 3 4 5 6 
#
# 1 109.3262 45.8752 26.7679 -2.2263 -10.4854 7.7965
# 2 45.8752 120.0642 27.9672 -13.5927 -4.0753 -9.3577
# 3 26.7679 27.9672 98.7015 -6.7346 -16.1078 7.0351
# 4 -2.2263 -13.5927 -6.7346 38.2207 -1.2044 -7.7040
# 5 -10.4854 -4.0753 -16.1078 -1.2044 32.8726 -2.2914
# 6 7.7965 -9.3577 7.0351 -7.7040 -2.2914 33.3669
#
#
#
# Elastic Compliance Matrix: (Units=1/GPa)
#
#
# Indices 1 2 3 4 5 6 
#
# 1 0.011923 -0.004705 -0.001386 -0.001985 0.002181 -0.004122
# 2 -0.004705 0.011600 -0.002204 0.004623 -0.000566 0.005846
# 3 -0.001386 -0.002204 0.012201 0.000986 0.005140 -0.002286
# 4 -0.001985 0.004623 0.000986 0.029655 0.002105 0.008544
# 5 0.002181 -0.000566 0.005140 0.002105 0.033715 0.001049
# 6 -0.004122 0.005846 -0.002286 0.008544 0.001049 0.035099
#
#
# Mechanical properties :
#
#
# Convention : Reuss Voigt Hill
#
# Bulk Modulus (GPa) = 52.26501 58.81251 55.53876
# Shear Modulus (GPa) = 31.81437 36.05749 33.93593
#
# Velocity S-wave (km/s) = 3.86345 4.11302 3.99019
# Velocity P-wave (km/s) = 6.66503 7.08158 6.87646
#
# Compressibility (1/GPa) = 0.01913326
#
# Stress axis : x y z
#
# Youngs Moduli (GPa) = 83.86996 86.20807 81.95897
#
# Poissons Ratio (x) = 0.40559 0.11362
# Poissons Ratio (y) = 0.39459 0.18068
# Poissons Ratio (z) = 0.11627 0.19004
#
# Static dielectric constant tensor:
#      x y z
#    x 4.076590 -0.183210 -0.224570 
#    y -0.183210 4.285710 -0.156130 
#    z -0.224570 -0.156130 4.335180 
# 
# 
# High freq. dielectric constant tensor:
#      x y z
#    x 1.831280 -0.000670 -0.003410 
#    y -0.000670 1.857700 0.001060 
#    z -0.003410 0.001060 1.847700 
# 
# From -- ./inp_files/304594.got.cif
#   From: 2010.06.25/outbox.cif.g09.slc.cpg/sg2_153_cif.got.tgz:304594.got - 2010.06.27 13:26:56.
