data_PCOD8029428
_publ_section_title
;
Structure prediction by ZEFSAII (Michael W. Deem and Ramdas Pophale) SiO2 
 PCOD8029428
Probable space group: P -1
;
_chemical_formula_sum "Si O2"
_cell_formula_units_Z 16
_cell_length_a 24.964151
_cell_length_b 9.709640
_cell_length_c 9.712575
_cell_angle_alpha 55.926622
_cell_angle_beta 134.509315
_cell_angle_gamma 153.078645
_cell_volume 744.688697
_symmetry_space_group_name_H-M "P -1"
_symmetry_group_IT_number 2
_symmetry_cell_setting 'triclinic'
loop_
_space_group_symop_operation_xyz
x,y,z
-x,-y,-z
loop_
_atom_site_type_symbol
_atom_site_label
_atom_site_fract_x
_atom_site_fract_y
_atom_site_fract_z
Si Si1 0.454945 0.438714 0.298537
Si Si2 0.961747 0.574236 0.703810
Si Si3 0.261933 0.779636 0.273417
Si Si4 0.123898 0.600868 0.851035
Si Si5 0.227532 0.259994 0.899918
Si Si6 0.630583 0.720932 0.212328
Si Si7 0.261047 0.424240 0.567321
Si Si8 0.056814 0.235520 0.689058
O O1 0.500000 0.500000 0.500000
O O2 0.590982 0.725103 0.287016
O O3 0.387522 0.144455 0.282650
O O4 0.351818 0.402961 0.125233
O O5 0.848653 0.348126 0.746885
O O6 0.904208 0.594844 0.475359
O O7 0.988370 0.446912 0.749821
O O8 0.110851 0.906469 0.848835
O O9 0.324336 0.718919 0.467850
O O10 0.193895 0.628928 0.084990
O O11 0.065994 0.365591 0.766596
O O12 0.232014 0.932473 0.792380
O O13 0.288101 0.454589 0.761287
O O14 0.164616 0.284457 0.871619
O O15 0.664835 0.590110 0.367960
O O16 0.500000 0.500000 0.000000
O O17 0.097034 0.128297 0.400762
#
# Coordination Sequence:
#
# PCOD8029428 Si02
#       8
#     2   2   2   2   2   2   2   2
#     4  12  29  46  68  98 134 185 238 273 331 402
#     4  11  20  41  71  99 134 179 221 273 348 407
#     4  12  24  43  68 103 134 181 224 285 341 396
#     4  12  25  40  70 103 141 179 222 281 342 399
#     4  11  20  47  69  96 138 181 218 282 343 404
#     4  12  23  49  67  89 137 194 225 264 330 413
#     4  11  22  41  76  98 138 177 221 282 341 409
#     4  11  23  40  70 112 131 169 231 279 351 399
#
# _framework density 21.485489000000001
#
# number of rings (size 3 to 8) (size 9 to 14) (size 15 to 20)
#    0.000    0.500    8.750    1.500    1.750    2.000 
#    2.250    1.250    0.000    0.000    0.000    0.000 
#    0.000    0.000    0.000    0.000    0.000    0.000 
#
# Total GULP energy -198480.044655 kJ/mol
# GULP energy per Si atom -12405.002791 kJ/mol
# Density = 2.143659 g / cm^3
# Si number density = 21.485489 Si / 1000 Ang^3
#
#
#
# Elastic Constant Matrix: (Units=GPa)
#
#
# Indices 1 2 3 4 5 6 
#
# 1 136.3454 12.3165 56.7521 -5.4002 10.9128 -4.2212
# 2 12.3165 36.8054 23.5389 -14.0321 1.2605 -5.4578
# 3 56.7521 23.5389 132.9331 -4.5847 10.5434 -3.4545
# 4 -5.4002 -14.0321 -4.5847 23.5181 -7.2268 -0.3959
# 5 10.9128 1.2605 10.5434 -7.2268 49.3042 -5.7434
# 6 -4.2212 -5.4578 -3.4545 -0.3959 -5.7434 31.6425
#
#
#
# Elastic Compliance Matrix: (Units=1/GPa)
#
#
# Indices 1 2 3 4 5 6 
#
# 1 0.009024 -0.000168 -0.003695 0.000956 -0.000992 0.000603
# 2 -0.000168 0.042241 -0.006725 0.025533 0.005042 0.007764
# 3 -0.003695 -0.006725 0.010294 -0.003429 -0.001819 -0.000902
# 4 0.000956 0.025533 -0.003429 0.060332 0.009485 0.006634
# 5 -0.000992 0.005042 -0.001819 0.009485 0.022709 0.004779
# 6 0.000603 0.007764 -0.000902 0.006634 0.004779 0.033875
#
#
# Mechanical properties :
#
#
# Convention : Reuss Voigt Hill
#
# Bulk Modulus (GPa) = 24.76469 54.58876 39.67672
# Shear Modulus (GPa) = 23.46189 35.12473 29.29331
#
# Velocity S-wave (km/s) = 3.30811 4.04767 3.69643
# Velocity P-wave (km/s) = 5.11299 6.87803 6.06011
#
# Compressibility (1/GPa) = 0.04038008
#
# Stress axis : x y z
#
# Youngs Moduli (GPa) = 110.82076 23.67387 97.14758
#
# Poissons Ratio (x) = 0.00398 0.35898
# Poissons Ratio (y) = 0.01865 0.65336
# Poissons Ratio (z) = 0.40951 0.15922
#
# Static dielectric constant tensor:
#      x y z
#    x 4.151770 0.135280 0.137730 
#    y 0.135280 3.774820 -0.128660 
#    z 0.137730 -0.128660 4.021450 
# 
# 
# High freq. dielectric constant tensor:
#      x y z
#    x 1.855560 0.002660 0.005370 
#    y 0.002660 1.821420 -0.015450 
#    z 0.005370 -0.015450 1.847600 
# 
# From -- ./inp_files/218806.got.cif
#   From: 2010.06.25/outbox.cif.g09.slc.cpg/sg2_110_cif.got.tgz:218806.got - 2010.06.27 13:26:56.
