data_PCOD8029021
_publ_section_title
;
Structure prediction by ZEFSAII (Michael W. Deem and Ramdas Pophale) SiO2 
 PCOD8029021
Probable space group: P -1
;
_chemical_formula_sum "Si O2"
_cell_formula_units_Z 16
_cell_length_a 17.133556
_cell_length_b 12.310554
_cell_length_c 11.696329
_cell_angle_alpha 62.240590
_cell_angle_beta 33.890602
_cell_angle_gamma 38.043391
_cell_volume 709.649826
_symmetry_space_group_name_H-M "P -1"
_symmetry_group_IT_number 2
_symmetry_cell_setting 'triclinic'
loop_
_space_group_symop_operation_xyz
x,y,z
-x,-y,-z
loop_
_atom_site_type_symbol
_atom_site_label
_atom_site_fract_x
_atom_site_fract_y
_atom_site_fract_z
Si Si1 0.641714 0.993045 0.748757
Si Si2 0.337337 0.223995 0.795966
Si Si3 0.006715 0.373170 0.826158
Si Si4 0.368184 0.804826 0.169046
Si Si5 0.635092 0.685682 0.526245
Si Si6 0.100889 0.754854 0.577330
Si Si7 0.104252 0.558800 0.326581
Si Si8 0.856409 0.886053 0.022018
O O1 0.932147 0.768786 0.508652
O O2 0.573442 0.025805 0.681614
O O3 0.582327 0.172575 0.776732
O O4 0.500000 0.000000 0.000000
O O5 0.388556 0.275543 0.600597
O O6 0.210662 0.191575 0.923968
O O7 0.162856 0.414632 0.002761
O O8 0.256850 0.270823 0.563128
O O9 0.046164 0.217252 0.920806
O O10 0.900862 0.406861 0.818133
O O11 0.276405 0.731739 0.324038
O O12 0.617648 0.627210 0.880109
O O13 0.171717 0.036501 0.239670
O O14 0.787869 0.456490 0.484070
O O15 0.367490 0.861745 0.816374
O O16 0.068839 0.796651 0.732941
O O17 0.000000 0.500000 0.500000
#
# Coordination Sequence:
#
# PCOD8029021 Si02
#       8
#     2   2   2   2   2   2   2   2
#     4  12  23  41  67  95 129 165 206 267 333 371
#     4  11  19  39  64  98 131 164 211 267 321 373
#     4  11  20  38  65 100 130 162 211 269 317 377
#     4  11  27  45  63  93 128 172 219 263 312 392
#     4  11  22  37  66  95 130 170 212 263 320 374
#     4  11  25  45  64  88 132 176 217 257 316 384
#     4  12  25  40  67  98 127 163 210 266 327 378
#     4  11  21  38  65  97 131 167 211 263 317 374
#
# _framework density 22.546332
#
# number of rings (size 3 to 8) (size 9 to 14) (size 15 to 20)
#    0.000    0.750    5.000    4.500    3.500    1.000 
#    0.000    5.000    0.000    3.000    0.000    0.000 
#    0.000    0.000    0.000    0.000    0.000    0.000 
#
# Total GULP energy -198367.022573 kJ/mol
# GULP energy per Si atom -12397.938911 kJ/mol
# Density = 2.249502 g / cm^3
# Si number density = 22.546332 Si / 1000 Ang^3
#
#
#
# Elastic Constant Matrix: (Units=GPa)
#
#
# Indices 1 2 3 4 5 6 
#
# 1 42.4264 11.4254 3.9983 -2.2541 1.3910 -11.3806
# 2 11.4254 117.8295 48.5733 6.2288 -0.0439 -15.5570
# 3 3.9983 48.5733 120.0065 26.1441 -8.6830 1.1578
# 4 -2.2541 6.2288 26.1441 39.9678 2.4090 3.3311
# 5 1.3910 -0.0439 -8.6830 2.4090 26.6473 6.3900
# 6 -11.3806 -15.5570 1.1578 3.3311 6.3900 24.3794
#
#
#
# Elastic Compliance Matrix: (Units=1/GPa)
#
#
# Indices 1 2 3 4 5 6 
#
# 1 0.027888 -0.000183 -0.001825 0.001951 -0.005632 0.014198
# 2 -0.000183 0.011791 -0.005392 0.001201 -0.003887 0.008550
# 3 -0.001825 -0.005392 0.012712 -0.007495 0.006226 -0.005504
# 4 0.001951 0.001201 -0.007495 0.030216 -0.005091 -0.000761
# 5 -0.005632 -0.003887 0.006226 -0.005091 0.044212 -0.016297
# 6 0.014198 0.008550 -0.005504 -0.000761 -0.016297 0.057739
#
#
# Mechanical properties :
#
#
# Convention : Reuss Voigt Hill
#
# Bulk Modulus (GPa) = 26.60034 45.36182 35.98108
# Shear Modulus (GPa) = 23.59743 32.61661 28.10702
#
# Velocity S-wave (km/s) = 3.23866 3.80761 3.53460
# Velocity P-wave (km/s) = 5.08025 6.28439 5.71413
#
# Compressibility (1/GPa) = 0.03759350
#
# Stress axis : x y z
#
# Youngs Moduli (GPa) = 35.85744 84.81002 78.66379
#
# Poissons Ratio (x) = 0.01549 0.14354
# Poissons Ratio (y) = 0.00655 0.42413
# Poissons Ratio (z) = 0.06543 0.45727
#
# Static dielectric constant tensor:
#      x y z
#    x 4.052530 -0.348300 0.394820 
#    y -0.348300 4.371760 0.314730 
#    z 0.394820 0.314730 4.423730 
# 
# 
# High freq. dielectric constant tensor:
#      x y z
#    x 1.855630 -0.019280 0.029300 
#    y -0.019280 1.898610 0.021620 
#    z 0.029300 0.021620 1.892890 
# 
# From -- ./inp_files/471919.got.cif
#   From: 2010.06.25/outbox.cif.g09.slc.cpg/sg2_236_cif.got.tgz:471919.got - 2010.06.27 13:26:56.
