data_PCOD8029568
_publ_section_title
;
Structure prediction by ZEFSAII (Michael W. Deem and Ramdas Pophale) SiO2 
 PCOD8029568
Probable space group: P -1
;
_chemical_formula_sum "Si O2"
_cell_formula_units_Z 14
_cell_length_a 9.399988
_cell_length_b 11.308863
_cell_length_c 8.942145
_cell_angle_alpha 114.949500
_cell_angle_beta 95.621573
_cell_angle_gamma 123.930940
_cell_volume 641.033575
_symmetry_space_group_name_H-M "P -1"
_symmetry_group_IT_number 2
_symmetry_cell_setting 'triclinic'
loop_
_space_group_symop_operation_xyz
x,y,z
-x,-y,-z
loop_
_atom_site_type_symbol
_atom_site_label
_atom_site_fract_x
_atom_site_fract_y
_atom_site_fract_z
Si Si1 0.871432 0.539513 0.064958
Si Si2 0.444256 0.084482 0.389390
Si Si3 0.809395 0.182306 0.546076
Si Si4 0.599468 0.187483 0.981488
Si Si5 0.703722 0.880806 0.875266
Si Si6 0.076616 0.679940 0.673798
Si Si7 0.110174 0.260516 0.096212
O O1 0.665826 0.360381 0.998345
O O2 0.983383 0.662088 0.284735
O O3 0.838362 0.633798 0.993731
O O4 0.000000 0.500000 0.000000
O O5 0.290892 0.994407 0.462521
O O6 0.657803 0.213032 0.550367
O O7 0.414985 0.188959 0.331088
O O8 0.417918 0.936522 0.208786
O O9 0.844389 0.174151 0.369884
O O10 0.400849 0.095684 0.996778
O O11 0.757086 0.244137 0.149882
O O12 0.724035 0.744410 0.858196
O O13 0.906694 0.066801 0.956513
O O14 0.000000 0.500000 0.500000
O O15 0.899038 0.642893 0.716760
#
# Coordination Sequence:
#
# PCOD8029568 Si02
#       7
#     2   2   2   2   2   2   2
#     4  12  20  40  64  93 122 163 208 260 307 364
#     4  11  21  37  64  95 121 161 212 259 299 367
#     4  11  21  33  62  95 121 149 216 261 300 348
#     4  12  22  38  68  93 122 164 215 254 303 372
#     4  11  22  41  64  91 127 168 204 255 308 381
#     4  12  21  36  64  93 117 161 211 255 302 370
#     4  11  24  41  65  89 129 168 205 250 322 368
#
# _framework density 21.839729999999999
#
# number of rings (size 3 to 8) (size 9 to 14) (size 15 to 20)
#    0.000    0.571    8.571    1.286    0.000    0.571 
#    0.000    1.429    6.286    0.000    0.000    0.000 
#    0.000    0.000    0.000    0.000    0.000    0.000 
#
# Total GULP energy -173512.225170 kJ/mol
# GULP energy per Si atom -12393.730369 kJ/mol
# Density = 2.179002 g / cm^3
# Si number density = 21.839730 Si / 1000 Ang^3
#
#
#
# Elastic Constant Matrix: (Units=GPa)
#
#
# Indices 1 2 3 4 5 6 
#
# 1 72.2724 25.6454 20.7476 -13.5741 8.6062 -19.9393
# 2 25.6454 130.8410 31.9925 -38.7750 12.5222 -9.9107
# 3 20.7476 31.9925 66.5331 -27.9781 -0.4291 -12.8548
# 4 -13.5741 -38.7750 -27.9781 38.6868 -4.0127 4.2104
# 5 8.6062 12.5222 -0.4291 -4.0127 25.9285 -8.4048
# 6 -19.9393 -9.9107 -12.8548 4.2104 -8.4048 38.1308
#
#
#
# Elastic Compliance Matrix: (Units=1/GPa)
#
#
# Indices 1 2 3 4 5 6 
#
# 1 0.017778 -0.001522 -0.002725 0.001685 -0.002609 0.007221
# 2 -0.001522 0.011432 -0.000863 0.009936 -0.003486 0.000019
# 3 -0.002725 -0.000863 0.024043 0.015537 0.006096 0.006084
# 4 0.001685 0.009936 0.015537 0.047549 0.003636 0.004253
# 5 -0.002609 -0.003486 0.006096 0.003636 0.044781 0.009253
# 6 0.007221 0.000019 0.006084 0.004253 0.009253 0.033628
#
#
# Mechanical properties :
#
#
# Convention : Reuss Voigt Hill
#
# Bulk Modulus (GPa) = 23.23804 47.37970 35.30887
# Shear Modulus (GPa) = 24.53675 33.29997 28.91836
#
# Velocity S-wave (km/s) = 3.35549 3.90903 3.64279
# Velocity P-wave (km/s) = 5.06713 6.48964 5.82199
#
# Compressibility (1/GPa) = 0.04303289
#
# Stress axis : x y z
#
# Youngs Moduli (GPa) = 56.24790 87.47449 41.59173
#
# Poissons Ratio (x) = 0.13316 0.11334
# Poissons Ratio (y) = 0.08563 0.03589
# Poissons Ratio (z) = 0.15328 0.07548
#
# Static dielectric constant tensor:
#      x y z
#    x 3.932920 0.199260 0.175740 
#    y 0.199260 4.605690 -0.231700 
#    z 0.175740 -0.231700 4.257540 
# 
# 
# High freq. dielectric constant tensor:
#      x y z
#    x 1.814050 0.015000 0.018010 
#    y 0.015000 1.873070 -0.025680 
#    z 0.018010 -0.025680 1.861560 
# 
# From -- ./inp_files/181213.got.cif
#   From: 2010.06.25/outbox.cif.g09.slc.cpg/sg2_91_cif.got.tgz:181213.got - 2010.06.27 13:26:56.
