data_PCOD8029738
_publ_section_title
;
Structure prediction by ZEFSAII (Michael W. Deem and Ramdas Pophale) SiO2 
 PCOD8029738
Probable space group: P -1
;
_chemical_formula_sum "Si O2"
_cell_formula_units_Z 16
_cell_length_a 14.339679
_cell_length_b 14.491991
_cell_length_c 14.743307
_cell_angle_alpha 30.228174
_cell_angle_beta 38.995345
_cell_angle_gamma 29.484718
_cell_volume 755.289910
_symmetry_space_group_name_H-M "P -1"
_symmetry_group_IT_number 2
_symmetry_cell_setting 'triclinic'
loop_
_space_group_symop_operation_xyz
x,y,z
-x,-y,-z
loop_
_atom_site_type_symbol
_atom_site_label
_atom_site_fract_x
_atom_site_fract_y
_atom_site_fract_z
Si Si1 0.897517 0.467022 0.025689
Si Si2 0.391181 0.536388 0.273949
Si Si3 0.516399 0.619392 0.469818
Si Si4 0.200424 0.297691 0.793706
Si Si5 0.987209 0.256917 0.552411
Si Si6 0.886061 0.071815 0.433553
Si Si7 0.539223 0.798842 0.900222
Si Si8 0.593028 0.006473 0.513476
O O1 0.837821 0.311864 0.232245
O O2 0.704489 0.709702 0.926016
O O3 0.000000 0.500000 0.000000
O O4 0.048792 0.328409 0.949173
O O5 0.408375 0.553977 0.354216
O O6 0.478436 0.272801 0.406049
O O7 0.159972 0.716110 0.285322
O O8 0.502404 0.609221 0.073991
O O9 0.500000 0.500000 0.500000
O O10 0.662814 0.663151 0.292311
O O11 0.315038 0.868120 0.440368
O O12 0.092768 0.479040 0.637075
O O13 0.332949 0.030719 0.887579
O O14 0.003052 0.132196 0.551514
O O15 0.189694 0.107493 0.575930
O O16 0.000000 0.000000 0.500000
O O17 0.599967 0.843376 0.722536
O O18 0.500000 0.000000 0.500000
#
# Coordination Sequence:
#
# PCOD8029738 Si02
#       8
#     2   2   2   2   2   2   2   2
#     4  12  25  40  61  99 136 184 234 273 335 404
#     4  11  24  45  68 101 136 180 226 283 348 404
#     4  11  21  39  62  96 135 179 226 269 335 399
#     4  11  24  39  66  95 137 183 219 279 342 389
#     4  11  21  45  67  97 139 173 225 284 338 411
#     4  12  23  39  65  94 136 186 227 274 337 403
#     4  12  24  47  69  97 143 176 233 292 335 420
#     4  12  26  48  77 102 132 181 228 293 359 407
#
# _framework density 21.183917999999998
#
# number of rings (size 3 to 8) (size 9 to 14) (size 15 to 20)
#    0.000    0.500    6.250    3.750    1.750    1.500 
#    0.000    0.625    0.000    0.000    0.000    0.000 
#    0.000    0.000    0.000    0.000    0.000    0.000 
#
# Total GULP energy -198360.932298 kJ/mol
# GULP energy per Si atom -12397.558269 kJ/mol
# Density = 2.113570 g / cm^3
# Si number density = 21.183918 Si / 1000 Ang^3
#
#
#
# Elastic Constant Matrix: (Units=GPa)
#
#
# Indices 1 2 3 4 5 6 
#
# 1 119.7685 38.0806 37.5788 -6.9615 -0.5696 -13.7872
# 2 38.0806 125.5725 25.8904 -1.6448 -4.6817 -29.6539
# 3 37.5788 25.8904 96.3802 -6.0603 -7.4729 2.5896
# 4 -6.9615 -1.6448 -6.0603 30.0934 -7.3802 -7.4846
# 5 -0.5696 -4.6817 -7.4729 -7.3802 21.4792 1.4806
# 6 -13.7872 -29.6539 2.5896 -7.4846 1.4806 30.8097
#
#
#
# Elastic Compliance Matrix: (Units=1/GPa)
#
#
# Indices 1 2 3 4 5 6 
#
# 1 0.010630 -0.001407 -0.003786 0.002515 -0.000779 0.004369
# 2 -0.001407 0.011772 -0.002578 0.003151 0.001915 0.011590
# 3 -0.003786 -0.002578 0.013150 0.001528 0.004792 -0.005140
# 4 0.002515 0.003151 0.001528 0.041167 0.014511 0.013333
# 5 -0.000779 0.001915 0.004792 0.014511 0.053466 0.002048
# 6 0.004369 0.011590 -0.005140 0.013333 0.002048 0.049141
#
#
# Mechanical properties :
#
#
# Convention : Reuss Voigt Hill
#
# Bulk Modulus (GPa) = 49.97929 60.53566 55.25747
# Shear Modulus (GPa) = 24.80911 32.48786 28.64849
#
# Velocity S-wave (km/s) = 3.42589 3.92038 3.68145
# Velocity P-wave (km/s) = 6.26843 7.00934 6.64921
#
# Compressibility (1/GPa) = 0.02000829
#
# Stress axis : x y z
#
# Youngs Moduli (GPa) = 94.06986 84.94983 76.04413
#
# Poissons Ratio (x) = 0.11956 0.28793
# Poissons Ratio (y) = 0.13239 0.19606
# Poissons Ratio (z) = 0.35619 0.21902
#
# Static dielectric constant tensor:
#      x y z
#    x 3.786110 -0.379260 -0.022690 
#    y -0.379260 4.148560 0.119530 
#    z -0.022690 0.119530 4.006620 
# 
# 
# High freq. dielectric constant tensor:
#      x y z
#    x 1.804370 -0.025810 -0.013250 
#    y -0.025810 1.851010 0.002950 
#    z -0.013250 0.002950 1.829760 
# 
# From -- ./inp_files/533587.got.cif
#   From: 2010.06.25/outbox.cif.g09.slc.cpg/sg2_267_cif.got.tgz:533587.got - 2010.06.27 13:26:56.
