data_PCOD8029522
_publ_section_title
;
Structure prediction by ZEFSAII (Michael W. Deem and Ramdas Pophale) SiO2 
 PCOD8029522
Probable space group: P -1
;
_chemical_formula_sum "Si O2"
_cell_formula_units_Z 10
_cell_length_a 12.794190
_cell_length_b 10.083352
_cell_length_c 11.939756
_cell_angle_alpha 26.684746
_cell_angle_beta 34.956344
_cell_angle_gamma 35.743721
_cell_volume 377.015630
_symmetry_space_group_name_H-M "P -1"
_symmetry_group_IT_number 2
_symmetry_cell_setting 'triclinic'
loop_
_space_group_symop_operation_xyz
x,y,z
-x,-y,-z
loop_
_atom_site_type_symbol
_atom_site_label
_atom_site_fract_x
_atom_site_fract_y
_atom_site_fract_z
Si Si1 0.171796 0.663953 0.164523
Si Si2 0.904159 0.789391 0.576936
Si Si3 0.094389 0.194808 0.981545
Si Si4 0.500473 0.757440 0.394338
Si Si5 0.500036 0.662928 0.719887
O O1 0.058153 0.415618 0.419519
O O2 0.306031 0.575218 0.223414
O O3 0.306118 0.618350 0.971142
O O4 0.058089 0.025914 0.022934
O O5 0.003008 0.564859 0.762463
O O6 0.681809 0.939154 0.689409
O O7 0.995052 0.069014 0.266441
O O8 0.316370 0.123512 0.871241
O O9 0.500000 0.500000 0.500000
O O10 0.500058 0.611058 0.627113
O O11 0.500000 0.000000 0.500000
#
# Coordination Sequence:
#
# PCOD8029522 Si02
#       5
#     2   2   2   2   2
#     4  11  22  42  76 115 154 192 250 329 386 437
#     4  12  27  47  78 116 152 201 258 317 383 462
#     4  12  27  47  78 116 152 201 258 317 383 462
#     4  12  28  52  77 110 159 209 249 316 386 451
#     4  11  20  43  77 109 148 194 262 304 375 460
#
# _framework density 26.524101000000002
#
# number of rings (size 3 to 8) (size 9 to 14) (size 15 to 20)
#    0.000    0.400    4.000    4.800    0.000    3.200 
#    0.000   14.000    0.000    0.000    0.000    0.000 
#    0.000    0.000    0.000    0.000    0.000    0.000 
#
# Total GULP energy -124050.119897 kJ/mol
# GULP energy per Si atom -12405.011990 kJ/mol
# Density = 2.646373 g / cm^3
# Si number density = 26.524101 Si / 1000 Ang^3
#
#
#
# Elastic Constant Matrix: (Units=GPa)
#
#
# Indices 1 2 3 4 5 6 
#
# 1 96.9205 51.9787 62.1099 5.3143 -5.3505 20.0118
# 2 51.9787 130.4259 53.0370 -4.7624 -0.3077 -23.5838
# 3 62.1099 53.0370 161.1479 -7.9491 14.2694 -22.0093
# 4 5.3143 -4.7624 -7.9491 29.6686 -4.2300 -20.0704
# 5 -5.3505 -0.3077 14.2694 -4.2300 41.5939 -3.6833
# 6 20.0118 -23.5838 -22.0093 -20.0704 -3.6833 50.9658
#
#
#
# Elastic Compliance Matrix: (Units=1/GPa)
#
#
# Indices 1 2 3 4 5 6 
#
# 1 0.115319 -0.056831 -0.054212 -0.146790 0.004583 -0.152464
# 2 -0.056831 0.037855 0.024326 0.077369 -0.000354 0.080779
# 3 -0.054212 0.024326 0.033354 0.072952 -0.004143 0.075376
# 4 -0.146790 0.077369 0.072952 0.240733 0.000607 0.219787
# 5 0.004583 -0.000354 -0.004143 0.000607 0.025967 -0.001637
# 6 -0.152464 0.080779 0.075376 0.219787 -0.001637 0.235851
#
#
# Mechanical properties :
#
#
# Convention : Reuss Voigt Hill
#
# Bulk Modulus (GPa) = 76.37764 80.30508 78.34136
# Shear Modulus (GPa) = 5.76782 39.20357 22.48569
#
# Velocity S-wave (km/s) = 1.47624 3.84869 2.91477
# Velocity P-wave (km/s) = 5.63594 7.07756 6.39749
#
# Compressibility (1/GPa) = 0.01309284
#
# Stress axis : x y z
#
# Youngs Moduli (GPa) = 8.67157 26.41656 29.98131
#
# Poissons Ratio (x) = 1.50128 1.62536
# Poissons Ratio (y) = 0.49281 -0.72931
# Poissons Ratio (z) = 0.47011 -0.64260
#
# Static dielectric constant tensor:
#      x y z
#    x 4.386090 -0.189120 -0.557560 
#    y -0.189120 4.792550 0.521010 
#    z -0.557560 0.521010 2.988510 
# 
# 
# High freq. dielectric constant tensor:
#      x y z
#    x 2.046120 -0.022030 -0.003230 
#    y -0.022030 2.074750 -0.001300 
#    z -0.003230 -0.001300 2.086170 
# 
# From -- ./inp_files/20635.got.cif
#   From: 2010.06.25/outbox.cif.g09.slc.cpg/sg2_11_cif.got.tgz:20635.got - 2010.06.27 13:26:56.
