data_PCOD8029783
_publ_section_title
;
Structure prediction by ZEFSAII (Michael W. Deem and Ramdas Pophale) SiO2 
 PCOD8029783
Probable space group: P -1
;
_chemical_formula_sum "Si O2"
_cell_formula_units_Z 14
_cell_length_a 9.848129
_cell_length_b 22.241257
_cell_length_c 11.888141
_cell_angle_alpha 30.233138
_cell_angle_beta 52.619139
_cell_angle_gamma 33.228982
_cell_volume 652.380341
_symmetry_space_group_name_H-M "P -1"
_symmetry_group_IT_number 2
_symmetry_cell_setting 'triclinic'
loop_
_space_group_symop_operation_xyz
x,y,z
-x,-y,-z
loop_
_atom_site_type_symbol
_atom_site_label
_atom_site_fract_x
_atom_site_fract_y
_atom_site_fract_z
Si Si1 0.285794 0.864716 0.433723
Si Si2 0.020913 0.755268 0.734259
Si Si3 0.960335 0.391734 0.437561
Si Si4 0.076896 0.735225 0.124119
Si Si5 0.125390 0.531357 0.242523
Si Si6 0.503709 0.142849 0.439776
Si Si7 0.356595 0.447495 0.882515
O O1 0.107447 0.844702 0.544147
O O2 0.583216 0.682439 0.526008
O O3 0.306698 0.890004 0.512988
O O4 0.148424 0.041720 0.141931
O O5 0.101556 0.646764 0.753295
O O6 0.169982 0.604996 0.003323
O O7 0.690957 0.936948 0.622401
O O8 0.930134 0.532781 0.292688
O O9 0.250057 0.221937 0.503654
O O10 0.930759 0.296839 0.689968
O O11 0.713727 0.520760 0.264771
O O12 0.999287 0.662634 0.203716
O O13 0.374574 0.619945 0.124966
O O14 0.396648 0.291794 0.158473
#
# Coordination Sequence:
#
# PCOD8029783 Si02
#       7
#     2   2   2   2   2   2   2
#     4  11  21  39  68 104 126 163 225 271 324 374
#     4  12  21  39  68 104 124 167 222 271 326 374
#     4  11  27  46  61 100 138 177 209 264 338 388
#     4  12  24  45  70  93 136 174 217 269 320 397
#     4  11  23  41  71  98 130 168 220 278 322 380
#     4  11  23  40  68  97 133 165 219 278 318 378
#     4  12  24  45  68  94 136 174 220 266 319 396
#
# _framework density 21.459873999999999
#
# number of rings (size 3 to 8) (size 9 to 14) (size 15 to 20)
#    0.000    0.571    7.143    3.000    0.000    2.857 
#    2.571    0.714    0.000    0.000    0.000    0.000 
#    0.000    0.000    0.000    0.000    0.000    0.000 
#
# Total GULP energy -173677.600034 kJ/mol
# GULP energy per Si atom -12405.542860 kJ/mol
# Density = 2.141103 g / cm^3
# Si number density = 21.459874 Si / 1000 Ang^3
#
#
#
# Elastic Constant Matrix: (Units=GPa)
#
#
# Indices 1 2 3 4 5 6 
#
# 1 58.3684 17.0653 30.3729 -0.5994 5.7294 6.5636
# 2 17.0653 85.3378 58.0313 2.8403 -3.8055 5.8875
# 3 30.3729 58.0313 158.1670 4.3909 3.9548 16.5571
# 4 -0.5994 2.8403 4.3909 37.8734 11.9196 7.7221
# 5 5.7294 -3.8055 3.9548 11.9196 21.0870 4.2024
# 6 6.5636 5.8875 16.5571 7.7221 4.2024 16.5125
#
#
#
# Elastic Compliance Matrix: (Units=1/GPa)
#
#
# Indices 1 2 3 4 5 6 
#
# 1 0.020385 -0.002531 -0.002413 0.003925 -0.006787 -0.004889
# 2 -0.002531 0.016400 -0.005665 -0.002639 0.006098 0.000521
# 3 -0.002413 -0.005665 0.009579 0.001112 -0.001441 -0.006779
# 4 0.003925 -0.002639 0.001112 0.035245 -0.019007 -0.013379
# 5 -0.006787 0.006098 -0.001441 -0.019007 0.062381 -0.005019
# 6 -0.004889 0.000521 -0.006779 -0.013379 -0.005019 0.076649
#
#
# Mechanical properties :
#
#
# Convention : Reuss Voigt Hill
#
# Bulk Modulus (GPa) = 39.76915 56.97913 48.37414
# Shear Modulus (GPa) = 19.98077 28.18816 24.08447
#
# Velocity S-wave (km/s) = 3.05466 3.62820 3.35371
# Velocity P-wave (km/s) = 5.56897 6.64536 6.13083
#
# Compressibility (1/GPa) = 0.02514512
#
# Stress axis : x y z
#
# Youngs Moduli (GPa) = 49.05640 60.97413 104.39373
#
# Poissons Ratio (x) = 0.15435 0.25192
# Poissons Ratio (y) = 0.12418 0.59138
# Poissons Ratio (z) = 0.11838 0.34541
#
# Static dielectric constant tensor:
#      x y z
#    x 3.773910 0.065340 -0.003730 
#    y 0.065340 3.835200 -0.130480 
#    z -0.003730 -0.130480 3.952770 
# 
# 
# High freq. dielectric constant tensor:
#      x y z
#    x 1.832610 0.002100 0.000610 
#    y 0.002100 1.836300 -0.004770 
#    z 0.000610 -0.004770 1.850550 
# 
# From -- ./inp_files/246718.got.cif
#   From: 2010.06.25/outbox.cif.g09.slc.cpg/sg2_124_cif.got.tgz:246718.got - 2010.06.27 13:26:56.
