data_PCOD8029432
_publ_section_title
;
Structure prediction by ZEFSAII (Michael W. Deem and Ramdas Pophale) SiO2 
 PCOD8029432
Probable space group: P -1
;
_chemical_formula_sum "Si O2"
_cell_formula_units_Z 16
_cell_length_a 9.972434
_cell_length_b 10.949191
_cell_length_c 9.833295
_cell_angle_alpha 94.138582
_cell_angle_beta 134.029163
_cell_angle_gamma 84.162088
_cell_volume 767.968816
_symmetry_space_group_name_H-M "P -1"
_symmetry_group_IT_number 2
_symmetry_cell_setting 'triclinic'
loop_
_space_group_symop_operation_xyz
x,y,z
-x,-y,-z
loop_
_atom_site_type_symbol
_atom_site_label
_atom_site_fract_x
_atom_site_fract_y
_atom_site_fract_z
Si Si1 0.437068 0.139457 0.434439
Si Si2 0.889735 0.625053 0.481682
Si Si3 0.009377 0.199001 0.208867
Si Si4 0.517205 0.508945 0.176702
Si Si5 0.836335 0.059946 0.303041
Si Si6 0.536051 0.238483 0.224199
Si Si7 0.360556 0.742798 0.174160
Si Si8 0.336359 0.183462 0.819510
O O1 0.481803 0.167463 0.313563
O O2 0.552799 0.227694 0.616800
O O3 0.215472 0.160133 0.298932
O O4 0.500000 0.000000 0.500000
O O5 0.680673 0.589971 0.351371
O O6 0.856790 0.743192 0.365091
O O7 0.000000 0.500000 0.500000
O O8 0.985140 0.675300 0.688144
O O9 0.930484 0.088758 0.229516
O O10 0.860245 0.213597 0.981937
O O11 0.549250 0.382723 0.270435
O O12 0.346649 0.596560 0.123167
O O13 0.500000 0.500000 0.000000
O O14 0.736676 0.184025 0.306527
O O15 0.682195 0.960448 0.180536
O O16 0.000000 0.000000 0.500000
O O17 0.374137 0.237447 0.997969
O O18 0.481430 0.806344 0.147208
#
# Coordination Sequence:
#
# PCOD8029432 Si02
#       8
#     2   2   2   2   2   2   2   2
#     4  12  28  50  64 100 150 186 228 287 353 415
#     4  11  21  38  67 107 139 168 231 288 345 405
#     4  12  24  44  71  98 134 193 224 283 354 411
#     4  11  20  41  72 101 133 175 229 291 344 405
#     4  12  22  39  67 100 132 172 245 290 336 406
#     4  12  25  42  70 101 135 183 232 287 351 405
#     4  11  23  46  71  94 141 183 229 281 356 411
#     4  11  22  40  69 102 133 180 232 297 334 408
#
# _framework density 20.83418
#
# number of rings (size 3 to 8) (size 9 to 14) (size 15 to 20)
#    0.000    0.500    7.500    3.375    1.750    1.000 
#    2.250    0.625    0.000    0.000    0.000    0.000 
#    0.000    0.000    0.000    0.000    0.000    0.000 
#
# Total GULP energy -198262.090747 kJ/mol
# GULP energy per Si atom -12391.380672 kJ/mol
# Density = 2.078676 g / cm^3
# Si number density = 20.834180 Si / 1000 Ang^3
#
#
#
# Elastic Constant Matrix: (Units=GPa)
#
#
# Indices 1 2 3 4 5 6 
#
# 1 62.1147 0.8118 28.0705 -12.6170 4.4556 -0.7907
# 2 0.8118 82.2192 -4.5411 -3.9919 7.8043 1.6844
# 3 28.0705 -4.5411 98.0582 -6.2566 14.3885 -4.9866
# 4 -12.6170 -3.9919 -6.2566 34.0408 -3.8668 2.1290
# 5 4.4556 7.8043 14.3885 -3.8668 37.6776 -6.7141
# 6 -0.7907 1.6844 -4.9866 2.1290 -6.7141 33.9766
#
#
#
# Elastic Compliance Matrix: (Units=1/GPa)
#
#
# Indices 1 2 3 4 5 6 
#
# 1 0.019787 -0.000192 -0.005339 0.006403 0.000278 -0.000660
# 2 -0.000192 0.012608 0.001118 0.001335 -0.003085 -0.001159
# 3 -0.005339 0.001118 0.012432 -0.000092 -0.004211 0.000818
# 4 0.006403 0.001335 -0.000092 0.032217 0.002032 -0.001548
# 5 0.000278 -0.003085 -0.004211 0.002032 0.029913 0.005325
# 6 -0.000660 -0.001159 0.000818 -0.001548 0.005325 0.030743
#
#
# Mechanical properties :
#
#
# Convention : Reuss Voigt Hill
#
# Bulk Modulus (GPa) = 27.77831 32.34161 30.05996
# Shear Modulus (GPa) = 31.54057 35.67573 33.60815
#
# Velocity S-wave (km/s) = 3.89509 4.14256 4.02073
# Velocity P-wave (km/s) = 5.79577 6.19985 6.00121
#
# Compressibility (1/GPa) = 0.03599931
#
# Stress axis : x y z
#
# Youngs Moduli (GPa) = 50.53891 79.31703 80.43878
#
# Poissons Ratio (x) = 0.01525 0.42946
# Poissons Ratio (y) = 0.00972 -0.08992
# Poissons Ratio (z) = 0.26983 -0.08866
#
# Static dielectric constant tensor:
#      x y z
#    x 3.593910 0.011610 0.261550 
#    y 0.011610 4.507640 -0.058810 
#    z 0.261550 -0.058810 4.102240 
# 
# 
# High freq. dielectric constant tensor:
#      x y z
#    x 1.782960 -0.006410 0.020740 
#    y -0.006410 1.836720 -0.002680 
#    z 0.020740 -0.002680 1.828330 
# 
# From -- ./inp_files/188008.got.cif
#   From: 2010.06.25/outbox.cif.g09.slc.cpg/sg2_95_cif.got.tgz:188008.got - 2010.06.27 13:26:56.
