data_PCOD8029386
_publ_section_title
;
Structure prediction by ZEFSAII (Michael W. Deem and Ramdas Pophale) SiO2 
 PCOD8029386
Probable space group: P -1
;
_chemical_formula_sum "Si O2"
_cell_formula_units_Z 16
_cell_length_a 6.724174
_cell_length_b 9.006095
_cell_length_c 20.320628
_cell_angle_alpha 111.789959
_cell_angle_beta 52.381553
_cell_angle_gamma 128.412000
_cell_volume 763.706508
_symmetry_space_group_name_H-M "P -1"
_symmetry_group_IT_number 2
_symmetry_cell_setting 'triclinic'
loop_
_space_group_symop_operation_xyz
x,y,z
-x,-y,-z
loop_
_atom_site_type_symbol
_atom_site_label
_atom_site_fract_x
_atom_site_fract_y
_atom_site_fract_z
Si Si1 0.792799 0.052526 0.585860
Si Si2 0.861322 0.822597 0.336560
Si Si3 0.150372 0.845961 0.657002
Si Si4 0.824495 0.332675 0.825245
Si Si5 0.114280 0.402940 0.915380
Si Si6 0.196779 0.331134 0.177393
Si Si7 0.130503 0.053203 0.908499
Si Si8 0.234974 0.713371 0.481744
O O1 0.801557 0.220491 0.571270
O O2 0.874567 0.099892 0.652194
O O3 0.455475 0.879208 0.628838
O O4 0.000000 0.000000 0.500000
O O5 0.555262 0.736904 0.425143
O O6 0.905631 0.674491 0.263800
O O7 0.893311 0.977647 0.303179
O O8 0.160071 0.811299 0.571227
O O9 0.910603 0.687969 0.728007
O O10 0.862524 0.527240 0.826651
O O11 0.489945 0.148420 0.850386
O O12 0.896693 0.346198 0.888771
O O13 0.455391 0.569918 0.864122
O O14 0.069904 0.210511 0.921015
O O15 0.000000 0.500000 0.000000
O O16 0.035641 0.131598 0.136647
O O17 0.000000 0.000000 0.000000
O O18 0.000000 0.500000 0.500000
#
# Coordination Sequence:
#
# PCOD8029386 Si02
#       8
#     2   2   2   2   2   2   2   2
#     4  11  20  41  63  83 117 167 217 259 317 375
#     4  11  23  42  63  88 126 167 215 264 317 376
#     4  11  23  41  62  90 125 167 215 264 317 377
#     4  11  26  43  66 100 133 170 217 267 320 385
#     4  11  25  45  70 100 133 169 213 263 322 391
#     4  11  26  43  66 100 134 170 215 269 320 383
#     4  11  24  46  71  98 134 169 212 265 323 388
#     4  11  25  38  59  91 126 164 213 266 316 374
#
# _framework density 20.950457
#
# number of rings (size 3 to 8) (size 9 to 14) (size 15 to 20)
#    0.000    1.000    2.500    3.750    3.500   11.500 
#    0.000    0.000    0.000    0.000    0.000    0.000 
#    0.000    0.000    0.000    0.000    0.000    0.000 
#
# Total GULP energy -198256.134502 kJ/mol
# GULP energy per Si atom -12391.008406 kJ/mol
# Density = 2.090277 g / cm^3
# Si number density = 20.950457 Si / 1000 Ang^3
#
#
#
# Elastic Constant Matrix: (Units=GPa)
#
#
# Indices 1 2 3 4 5 6 
#
# 1 114.5094 36.4366 25.9504 -10.2404 -6.8536 -4.4845
# 2 36.4366 104.5775 27.2415 -12.8446 -18.6539 2.8303
# 3 25.9504 27.2415 108.1471 -12.9075 -12.3821 -11.0854
# 4 -10.2404 -12.8446 -12.9075 40.9716 -2.4986 -2.7213
# 5 -6.8536 -18.6539 -12.3821 -2.4986 35.4760 4.3532
# 6 -4.4845 2.8303 -11.0854 -2.7213 4.3532 26.5055
#
#
#
# Elastic Compliance Matrix: (Units=1/GPa)
#
#
# Indices 1 2 3 4 5 6 
#
# 1 0.010201 -0.003141 -0.001372 0.001226 -0.000277 0.001659
# 2 -0.003141 0.012614 -0.001744 0.002767 0.006019 -0.003312
# 3 -0.001372 -0.001744 0.011114 0.003056 0.002357 0.004529
# 4 0.001226 0.002767 0.003056 0.027021 0.004261 0.003264
# 5 -0.000277 0.006019 0.002357 0.004261 0.032997 -0.004686
# 6 0.001659 -0.003312 0.004529 0.003264 -0.004686 0.041361
#
#
# Mechanical properties :
#
#
# Convention : Reuss Voigt Hill
#
# Bulk Modulus (GPa) = 46.69386 56.27676 51.48531
# Shear Modulus (GPa) = 32.26651 36.43097 34.34874
#
# Velocity S-wave (km/s) = 3.92871 4.17455 4.05349
# Velocity P-wave (km/s) = 6.55102 7.08209 6.82172
#
# Compressibility (1/GPa) = 0.02141609
#
# Stress axis : x y z
#
# Youngs Moduli (GPa) = 98.02767 79.27808 89.97674
#
# Poissons Ratio (x) = 0.24897 0.12345
# Poissons Ratio (y) = 0.30786 0.15691
# Poissons Ratio (z) = 0.13450 0.13825
#
# Static dielectric constant tensor:
#      x y z
#    x 4.244910 -0.020470 0.045020 
#    y -0.020470 3.731320 -0.062850 
#    z 0.045020 -0.062850 3.756990 
# 
# 
# High freq. dielectric constant tensor:
#      x y z
#    x 1.840300 -0.002000 -0.002810 
#    y -0.002000 1.816620 -0.000510 
#    z -0.002810 -0.000510 1.836470 
# 
# From -- ./inp_files/548152.got.cif
#   From: 2010.06.25/outbox.cif.g09.slc.cpg/sg2_275_cif.got.tgz:548152.got - 2010.06.27 13:26:56.
