data_PCOD8029245
_publ_section_title
;
Structure prediction by ZEFSAII (Michael W. Deem and Ramdas Pophale) SiO2 
 PCOD8029245
Probable space group: P -1
;
_chemical_formula_sum "Si O2"
_cell_formula_units_Z 14
_cell_length_a 8.955449
_cell_length_b 13.925284
_cell_length_c 17.459816
_cell_angle_alpha 158.198724
_cell_angle_beta 116.282553
_cell_angle_gamma 75.771318
_cell_volume 629.366521
_symmetry_space_group_name_H-M "P -1"
_symmetry_group_IT_number 2
_symmetry_cell_setting 'triclinic'
loop_
_space_group_symop_operation_xyz
x,y,z
-x,-y,-z
loop_
_atom_site_type_symbol
_atom_site_label
_atom_site_fract_x
_atom_site_fract_y
_atom_site_fract_z
Si Si1 0.621963 0.823504 0.732131
Si Si2 0.279088 0.915312 0.898510
Si Si3 0.140754 0.174342 0.925867
Si Si4 0.229397 0.344373 0.501353
Si Si5 0.509365 0.292161 0.037550
Si Si6 0.950355 0.353709 0.796294
Si Si7 0.698165 0.665893 0.213708
O O1 0.500000 0.500000 0.500000
O O2 0.731162 0.836619 0.689051
O O3 0.766347 0.019363 0.977374
O O4 0.488311 0.966615 0.788602
O O5 0.161369 0.554584 0.597711
O O6 0.216208 0.097497 0.963700
O O7 0.500000 0.000000 0.000000
O O8 0.291522 0.230953 0.933342
O O9 0.116078 0.464478 0.140145
O O10 0.933980 0.888360 0.650673
O O11 0.417042 0.547197 0.744531
O O12 0.657679 0.505676 0.167066
O O13 0.142940 0.375294 0.824563
O O14 0.773922 0.015129 0.504769
O O15 0.000000 0.500000 0.000000
O O16 0.500000 0.500000 0.000000
#
# Coordination Sequence:
#
# PCOD8029245 Si02
#       7
#     2   2   2   2   2   2   2
#     4  11  20  38  66  91 131 176 221 272 326 402
#     4  11  21  42  62  96 139 173 225 275 330 407
#     4  12  23  41  70  96 132 184 219 279 346 397
#     4  11  23  41  65  95 136 178 227 275 333 406
#     4  11  24  43  65  96 136 173 226 277 340 408
#     4  11  26  48  72 105 140 173 237 292 346 418
#     4  11  26  48  73 101 137 181 228 294 355 414
#
# _framework density 22.244591
#
# number of rings (size 3 to 8) (size 9 to 14) (size 15 to 20)
#    0.000    0.857    4.286    3.000    0.000    7.429 
#    0.000    8.571    0.000    0.000    0.000    0.000 
#    0.000    0.000    0.000    0.000    0.000    0.000 
#
# Total GULP energy -173491.875206 kJ/mol
# GULP energy per Si atom -12392.276800 kJ/mol
# Density = 2.219396 g / cm^3
# Si number density = 22.244591 Si / 1000 Ang^3
#
#
#
# Elastic Constant Matrix: (Units=GPa)
#
#
# Indices 1 2 3 4 5 6 
#
# 1 122.0044 41.1236 78.4360 7.7946 -1.1543 3.7642
# 2 41.1236 103.9163 49.9465 24.4235 -13.9109 -6.7740
# 3 78.4360 49.9465 144.6993 27.5210 -11.7756 -1.5290
# 4 7.7946 24.4235 27.5210 50.9686 8.5394 -6.3378
# 5 -1.1543 -13.9109 -11.7756 8.5394 38.3937 5.2257
# 6 3.7642 -6.7740 -1.5290 -6.3378 5.2257 42.4097
#
#
#
# Elastic Compliance Matrix: (Units=1/GPa)
#
#
# Indices 1 2 3 4 5 6 
#
# 1 0.013870 -0.003462 -0.007426 0.004080 -0.003892 -0.000963
# 2 -0.003462 0.013917 -0.001233 -0.006355 0.005863 0.000814
# 3 -0.007426 -0.001233 0.012900 -0.006101 0.004721 -0.000566
# 4 0.004080 -0.006355 -0.006101 0.027609 -0.010716 0.003849
# 5 -0.003892 0.005863 0.004721 -0.010716 0.032449 -0.004148
# 6 -0.000963 0.000814 -0.000566 0.003849 -0.004148 0.024861
#
#
# Mechanical properties :
#
#
# Convention : Reuss Voigt Hill
#
# Bulk Modulus (GPa) = 60.80751 78.84803 69.82777
# Shear Modulus (GPa) = 32.18946 39.76197 35.97572
#
# Velocity S-wave (km/s) = 3.80816 4.23246 4.02590
# Velocity P-wave (km/s) = 6.83603 7.70765 7.28489
#
# Compressibility (1/GPa) = 0.01644534
#
# Stress axis : x y z
#
# Youngs Moduli (GPa) = 72.09894 71.85308 77.51758
#
# Poissons Ratio (x) = 0.24876 0.57566
# Poissons Ratio (y) = 0.24962 0.09556
# Poissons Ratio (z) = 0.53542 0.08858
#
# Static dielectric constant tensor:
#      x y z
#    x 4.200420 0.088820 -0.124690 
#    y 0.088820 4.208120 0.272610 
#    z -0.124690 0.272610 4.335990 
# 
# 
# High freq. dielectric constant tensor:
#      x y z
#    x 1.879780 0.005640 -0.000140 
#    y 0.005640 1.881710 0.020480 
#    z -0.000140 0.020480 1.880470 
# 
# From -- ./inp_files/561271.got.cif
#   From: 2010.06.25/outbox.cif.g09.slc.cpg/sg2_281_cif.got.tgz:561271.got - 2010.06.27 13:26:56.
