data_PCOD8029588
_publ_section_title
;
Structure prediction by ZEFSAII (Michael W. Deem and Ramdas Pophale) SiO2 
 PCOD8029588
Probable space group: P -1
;
_chemical_formula_sum "Si O2"
_cell_formula_units_Z 16
_cell_length_a 24.597765
_cell_length_b 6.997079
_cell_length_c 14.086131
_cell_angle_alpha 108.091550
_cell_angle_beta 150.046834
_cell_angle_gamma 51.249776
_cell_volume 758.562450
_symmetry_space_group_name_H-M "P -1"
_symmetry_group_IT_number 2
_symmetry_cell_setting 'triclinic'
loop_
_space_group_symop_operation_xyz
x,y,z
-x,-y,-z
loop_
_atom_site_type_symbol
_atom_site_label
_atom_site_fract_x
_atom_site_fract_y
_atom_site_fract_z
Si Si1 0.852386 0.849587 0.859205
Si Si2 0.187597 0.945689 0.516162
Si Si3 0.347604 0.911726 0.585136
Si Si4 0.609906 0.753770 0.851451
Si Si5 0.309359 0.138376 0.834578
Si Si6 0.145315 0.715738 0.014109
Si Si7 0.689387 0.624960 0.305409
Si Si8 0.358426 0.191005 0.391145
O O1 0.757379 0.043011 0.649891
O O2 0.729724 0.904011 0.753858
O O3 0.909860 0.975206 0.015660
O O4 0.000000 0.500000 0.000000
O O5 0.334936 0.783762 0.637949
O O6 0.196851 0.099508 0.637329
O O7 0.197102 0.714187 0.540947
O O8 0.012352 0.203064 0.236224
O O9 0.274491 0.231732 0.552196
O O10 0.536273 0.681941 0.798879
O O11 0.720162 0.498819 0.898555
O O12 0.450895 0.095567 0.617900
O O13 0.715563 0.760107 0.077703
O O14 0.260869 0.388734 0.729461
O O15 0.499827 0.817851 0.053398
O O16 0.221052 0.544786 0.205107
O O17 0.500000 0.000000 0.500000
#
# Coordination Sequence:
#
# PCOD8029588 Si02
#       8
#     2   2   2   2   2   2   2   2
#     4  11  22  37  57  85 119 153 190 240 294 343
#     4  11  21  35  60  90 117 151 195 238 289 348
#     4   9  20  35  57  82 112 149 191 241 284 337
#     4   9  20  41  60  83 120 156 195 244 290 342
#     4   9  19  36  59  83 115 152 193 243 288 337
#     4  11  24  39  58  88 124 157 191 237 297 354
#     4   9  18  36  57  86 115 145 195 247 289 336
#     4   9  21  41  62  86 116 154 197 239 286 346
#
# _framework density 21.092528000000001
#
# number of rings (size 3 to 8) (size 9 to 14) (size 15 to 20)
#    0.000    2.250    0.000    2.625    0.000   11.000 
#    0.000    6.875    0.000    0.000    0.000    0.000 
#    0.000    0.000    0.000    0.000    0.000    0.000 
#
# Total GULP energy -198289.558429 kJ/mol
# GULP energy per Si atom -12393.097402 kJ/mol
# Density = 2.104452 g / cm^3
# Si number density = 21.092528 Si / 1000 Ang^3
#
#
#
# Elastic Constant Matrix: (Units=GPa)
#
#
# Indices 1 2 3 4 5 6 
#
# 1 92.5618 37.9882 29.4981 5.4864 -11.8000 2.8245
# 2 37.9882 112.1109 45.9512 14.8623 -11.9421 1.8463
# 3 29.4981 45.9512 91.3481 16.0426 -5.7585 0.0707
# 4 5.4864 14.8623 16.0426 36.0001 1.4081 -6.4149
# 5 -11.8000 -11.9421 -5.7585 1.4081 24.2272 1.2076
# 6 2.8245 1.8463 0.0707 -6.4149 1.2076 28.0505
#
#
#
# Elastic Compliance Matrix: (Units=1/GPa)
#
#
# Indices 1 2 3 4 5 6 
#
# 1 0.013473 -0.003006 -0.002532 -0.000107 0.004553 -0.001373
# 2 -0.003006 0.012687 -0.004612 -0.003129 0.003945 -0.001406
# 3 -0.002532 -0.004612 0.014886 -0.004447 0.000316 -0.000510
# 4 -0.000107 -0.003129 -0.004447 0.032671 -0.004945 0.007912
# 5 0.004553 0.003945 0.000316 -0.004945 0.045992 -0.003830
# 6 -0.001373 -0.001406 -0.000510 0.007912 -0.003830 0.037856
#
#
# Mechanical properties :
#
#
# Convention : Reuss Voigt Hill
#
# Bulk Modulus (GPa) = 48.20058 58.09953 53.15006
# Shear Modulus (GPa) = 27.05940 29.82777 28.44359
#
# Velocity S-wave (km/s) = 3.58563 3.76458 3.67620
# Velocity P-wave (km/s) = 6.32803 6.81916 6.57818
#
# Compressibility (1/GPa) = 0.02074664
#
# Stress axis : x y z
#
# Youngs Moduli (GPa) = 74.22432 78.82236 67.17761
#
# Poissons Ratio (x) = 0.23691 0.17008
# Poissons Ratio (y) = 0.22309 0.30982
# Poissons Ratio (z) = 0.18792 0.36352
#
# Static dielectric constant tensor:
#      x y z
#    x 4.298510 -0.046230 -0.425270 
#    y -0.046230 3.594150 0.275240 
#    z -0.425270 0.275240 4.085120 
# 
# 
# High freq. dielectric constant tensor:
#      x y z
#    x 1.828980 0.010120 -0.014140 
#    y 0.010120 1.795580 0.021820 
#    z -0.014140 0.021820 1.825560 
# 
# From -- ./inp_files/542210.got.cif
#   From: 2010.06.25/outbox.cif.g09.slc.cpg/sg2_272_cif.got.tgz:542210.got - 2010.06.27 13:26:56.
