data_PCOD8029763
_publ_section_title
;
Structure prediction by ZEFSAII (Michael W. Deem and Ramdas Pophale) SiO2 
 PCOD8029763
Probable space group: P -1
;
_chemical_formula_sum "Si O2"
_cell_formula_units_Z 16
_cell_length_a 15.196298
_cell_length_b 14.762142
_cell_length_c 9.197926
_cell_angle_alpha 95.488365
_cell_angle_beta 62.534147
_cell_angle_gamma 148.736715
_cell_volume 723.281906
_symmetry_space_group_name_H-M "P -1"
_symmetry_group_IT_number 2
_symmetry_cell_setting 'triclinic'
loop_
_space_group_symop_operation_xyz
x,y,z
-x,-y,-z
loop_
_atom_site_type_symbol
_atom_site_label
_atom_site_fract_x
_atom_site_fract_y
_atom_site_fract_z
Si Si1 0.281826 0.227403 0.275058
Si Si2 0.653664 0.050726 0.310474
Si Si3 0.440896 0.559065 0.175611
Si Si4 0.464039 0.205919 0.291348
Si Si5 0.805295 0.196079 0.903058
Si Si6 0.697359 0.299160 0.887646
Si Si7 0.361254 0.633350 0.491257
Si Si8 0.009887 0.719968 0.653199
O O1 0.416907 0.436899 0.234882
O O2 0.406574 0.255698 0.280904
O O3 0.311960 0.226434 0.081067
O O4 0.000000 0.000000 0.500000
O O5 0.871852 0.188223 0.261503
O O6 0.500000 0.000000 0.500000
O O7 0.444691 0.800430 0.386818
O O8 0.787088 0.203927 0.089477
O O9 0.472028 0.649288 0.305100
O O10 0.208771 0.389621 0.218607
O O11 0.690254 0.350024 0.052518
O O12 0.528157 0.279322 0.419358
O O13 0.234716 0.939917 0.409528
O O14 0.064062 0.368152 0.685845
O O15 0.582352 0.937927 0.999495
O O16 0.793438 0.278714 0.832936
O O17 0.889221 0.518965 0.672807
#
# Coordination Sequence:
#
# PCOD8029763 Si02
#       8
#     2   2   2   2   2   2   2   2
#     4  11  24  44  73  95 127 172 223 275 344 404
#     4  11  24  40  63  99 141 182 222 271 323 390
#     4  11  24  43  69 100 129 170 222 282 330 399
#     4  11  23  42  68  97 131 179 214 273 334 396
#     4  11  24  40  64  97 135 182 222 274 323 391
#     4  11  23  40  65  96 132 178 230 264 324 394
#     4  11  25  42  67 101 138 172 224 272 331 392
#     4  11  21  39  66  91 130 171 218 266 325 389
#
# _framework density 22.121390000000002
#
# number of rings (size 3 to 8) (size 9 to 14) (size 15 to 20)
#    0.000    1.000    2.500    4.500    0.000    3.000 
#    0.000    5.000    0.000    0.000    0.000    0.000 
#    0.000    0.000    0.000    0.000    0.000    0.000 
#
# Total GULP energy -198333.568080 kJ/mol
# GULP energy per Si atom -12395.848005 kJ/mol
# Density = 2.207104 g / cm^3
# Si number density = 22.121390 Si / 1000 Ang^3
#
#
#
# Elastic Constant Matrix: (Units=GPa)
#
#
# Indices 1 2 3 4 5 6 
#
# 1 88.6952 38.7085 32.3719 -7.8261 19.3511 -23.1080
# 2 38.7085 112.0945 42.9963 -5.2021 -1.3601 -14.5961
# 3 32.3719 42.9963 115.2573 1.6274 -4.9835 -12.0497
# 4 -7.8261 -5.2021 1.6274 41.4935 -15.2618 -4.0761
# 5 19.3511 -1.3601 -4.9835 -15.2618 28.7477 -2.5410
# 6 -23.1080 -14.5961 -12.0497 -4.0761 -2.5410 30.3008
#
#
#
# Elastic Compliance Matrix: (Units=1/GPa)
#
#
# Indices 1 2 3 4 5 6 
#
# 1 0.020231 -0.004457 -0.003496 -0.000651 -0.013840 0.010643
# 2 -0.004457 0.011996 -0.002849 0.002693 0.004681 0.002001
# 3 -0.003496 -0.002849 0.010978 0.000202 0.004292 0.000714
# 4 -0.000651 0.002693 0.000202 0.031557 0.017940 0.006630
# 5 -0.013840 0.004681 0.004292 0.017940 0.054626 0.000401
# 6 0.010643 0.002001 0.000714 0.006630 0.000401 0.043292
#
#
# Mechanical properties :
#
#
# Convention : Reuss Voigt Hill
#
# Bulk Modulus (GPa) = 46.29799 60.46670 53.38235
# Shear Modulus (GPa) = 24.81572 33.57307 29.19439
#
# Velocity S-wave (km/s) = 3.35296 3.89996 3.63676
# Velocity P-wave (km/s) = 5.99702 6.90456 6.46673
#
# Compressibility (1/GPa) = 0.02159921
#
# Stress axis : x y z
#
# Youngs Moduli (GPa) = 49.42998 83.36433 91.08751
#
# Poissons Ratio (x) = 0.37159 0.31843
# Poissons Ratio (y) = 0.22033 0.25955
# Poissons Ratio (z) = 0.17280 0.23754
#
# Static dielectric constant tensor:
#      x y z
#    x 3.691880 0.011610 0.197450 
#    y 0.011610 3.984310 -0.207140 
#    z 0.197450 -0.207140 4.319500 
# 
# 
# High freq. dielectric constant tensor:
#      x y z
#    x 1.868360 -0.006610 0.016660 
#    y -0.006610 1.859940 -0.008710 
#    z 0.016660 -0.008710 1.889980 
# 
# From -- ./inp_files/315252.got.cif
#   From: 2010.06.25/outbox.cif.g09.slc.cpg/sg2_158_cif.got.tgz:315252.got - 2010.06.27 13:26:56.
