data_PCOD8029543
_publ_section_title
;
Structure prediction by ZEFSAII (Michael W. Deem and Ramdas Pophale) SiO2 
 PCOD8029543
Probable space group: P -1
;
_chemical_formula_sum "Si O2"
_cell_formula_units_Z 16
_cell_length_a 6.715597
_cell_length_b 8.874597
_cell_length_c 20.205251
_cell_angle_alpha 52.718459
_cell_angle_beta 54.812930
_cell_angle_gamma 58.090908
_cell_volume 752.633991
_symmetry_space_group_name_H-M "P -1"
_symmetry_group_IT_number 2
_symmetry_cell_setting 'triclinic'
loop_
_space_group_symop_operation_xyz
x,y,z
-x,-y,-z
loop_
_atom_site_type_symbol
_atom_site_label
_atom_site_fract_x
_atom_site_fract_y
_atom_site_fract_z
Si Si1 0.641967 0.295418 0.838378
Si Si2 0.253250 0.176720 0.510838
Si Si3 0.348964 0.343115 0.586722
Si Si4 0.836922 0.609023 0.658900
Si Si5 0.371129 0.030710 0.172694
Si Si6 0.790986 0.997243 0.647808
Si Si7 0.816915 0.713442 0.978851
Si Si8 0.056000 0.025429 0.907280
O O1 0.630042 0.515677 0.758298
O O2 0.390539 0.276600 0.927711
O O3 0.877073 0.232413 0.860734
O O4 0.681994 0.155264 0.804191
O O5 0.244853 0.272955 0.558309
O O6 0.249528 0.343804 0.412717
O O7 0.500000 0.000000 0.500000
O O8 0.009175 0.100807 0.565099
O O9 0.500000 0.500000 0.500000
O O10 0.111528 0.447986 0.651012
O O11 0.522246 0.153086 0.641820
O O12 0.842159 0.807764 0.641829
O O13 0.196039 0.075285 0.259375
O O14 0.656233 0.980452 0.157565
O O15 0.312827 0.222145 0.084901
O O16 0.000000 0.500000 0.000000
O O17 0.990675 0.854410 0.923504
O O18 0.000000 0.000000 0.000000
#
# Coordination Sequence:
#
# PCOD8029543 Si02
#       8
#     2   2   2   2   2   2   2   2
#     4  11  24  44  66 100 134 176 229 279 336 401
#     4  12  25  48  74  98 143 183 224 287 339 403
#     4  12  25  46  75 100 134 183 230 279 346 404
#     4  12  26  46  70 104 140 179 231 282 341 407
#     4  11  24  45  70  96 136 178 225 279 338 400
#     4  12  27  47  70 104 140 180 231 283 339 410
#     4  11  25  42  67  98 138 175 222 278 338 404
#     4  11  20  44  72  91 127 180 225 274 338 399
#
# _framework density 21.258673000000002
#
# number of rings (size 3 to 8) (size 9 to 14) (size 15 to 20)
#    0.000    0.500    5.000    3.750    3.500    3.500 
#    4.500    0.000    0.000    0.000    0.000    0.000 
#    0.000    0.000    0.000    0.000    0.000    0.000 
#
# Total GULP energy -198474.639852 kJ/mol
# GULP energy per Si atom -12404.664991 kJ/mol
# Density = 2.121029 g / cm^3
# Si number density = 21.258673 Si / 1000 Ang^3
#
#
#
# Elastic Constant Matrix: (Units=GPa)
#
#
# Indices 1 2 3 4 5 6 
#
# 1 105.2817 35.0213 32.2683 -8.7787 7.6283 -4.5529
# 2 35.0213 118.4095 26.0854 -7.2718 13.9226 -6.2844
# 3 32.2683 26.0854 119.3393 -9.0754 13.0709 4.7905
# 4 -8.7787 -7.2718 -9.0754 34.0810 7.5281 0.8928
# 5 7.6283 13.9226 13.0709 7.5281 27.2766 -1.3932
# 6 -4.5529 -6.2844 4.7905 0.8928 -1.3932 35.0942
#
#
#
# Elastic Compliance Matrix: (Units=1/GPa)
#
#
# Indices 1 2 3 4 5 6 
#
# 1 0.011347 -0.002512 -0.002271 0.002038 -0.001303 0.001229
# 2 -0.002512 0.010141 -0.000920 0.002248 -0.004583 0.001376
# 3 -0.002271 -0.000920 0.010008 0.002958 -0.004614 -0.002084
# 4 0.002038 0.002248 0.002958 0.033937 -0.012557 -0.001099
# 5 -0.001303 -0.004583 -0.004614 -0.012557 0.045131 0.001751
# 6 0.001229 0.001376 -0.002084 -0.001099 0.001751 0.029283
#
#
# Mechanical properties :
#
#
# Convention : Reuss Voigt Hill
#
# Bulk Modulus (GPa) = 49.77301 58.86450 54.31876
# Shear Modulus (GPa) = 31.65561 35.93406 33.79483
#
# Velocity S-wave (km/s) = 3.86303 4.11582 3.99142
# Velocity P-wave (km/s) = 6.58492 7.09481 6.84462
#
# Compressibility (1/GPa) = 0.02009121
#
# Stress axis : x y z
#
# Youngs Moduli (GPa) = 88.12535 98.61041 99.91536
#
# Poissons Ratio (x) = 0.24775 0.22689
# Poissons Ratio (y) = 0.22141 0.09188
# Poissons Ratio (z) = 0.20011 0.09068
#
# Static dielectric constant tensor:
#      x y z
#    x 4.465070 -0.218090 -0.174120 
#    y -0.218090 3.919380 0.060610 
#    z -0.174120 0.060610 4.211290 
# 
# 
# High freq. dielectric constant tensor:
#      x y z
#    x 1.843660 -0.001850 0.004600 
#    y -0.001850 1.831910 -0.000110 
#    z 0.004600 -0.000110 1.849470 
# 
# From -- ./inp_files/47202.got.cif
#   From: 2010.06.25/outbox.cif.g09.slc.cpg/sg2_24_cif.got.tgz:47202.got - 2010.06.27 13:26:56.
