data_PCOD8029903
_publ_section_title
;
Structure prediction by ZEFSAII (Michael W. Deem and Ramdas Pophale) SiO2 
 PCOD8029903
Probable space group: P -1
;
_chemical_formula_sum "Si O2"
_cell_formula_units_Z 10
_cell_length_a 11.698009
_cell_length_b 10.133711
_cell_length_c 15.485710
_cell_angle_alpha 152.769966
_cell_angle_beta 137.232761
_cell_angle_gamma 60.471112
_cell_volume 489.026022
_symmetry_space_group_name_H-M "P -1"
_symmetry_group_IT_number 2
_symmetry_cell_setting 'triclinic'
loop_
_space_group_symop_operation_xyz
x,y,z
-x,-y,-z
loop_
_atom_site_type_symbol
_atom_site_label
_atom_site_fract_x
_atom_site_fract_y
_atom_site_fract_z
Si Si1 0.583346 0.287864 0.464946
Si Si2 0.021852 0.765085 0.943589
Si Si3 0.464738 0.571064 0.904460
Si Si4 0.590292 0.835379 0.514992
Si Si5 0.823671 0.682454 0.263909
O O1 0.500000 0.500000 0.500000
O O2 0.521204 0.241073 0.501772
O O3 0.817537 0.496770 0.716667
O O4 0.506920 0.940616 0.167996
O O5 0.106392 0.575874 0.824693
O O6 0.174940 0.954133 0.216236
O O7 0.000000 0.000000 0.000000
O O8 0.441919 0.500712 0.748180
O O9 0.266230 0.276495 0.671738
O O10 0.642720 0.519409 0.001949
O O11 0.500000 0.000000 0.500000
O O12 0.000000 0.000000 0.500000
#
# Coordination Sequence:
#
# PCOD8029903 Si02
#       5
#     2   2   2   2   2
#     4  12  25  47  70  96 146 187 220 288 353 402
#     4  12  24  45  69  98 142 183 223 282 351 404
#     4  11  23  42  68 101 137 175 232 285 333 410
#     4  12  25  43  70 106 135 175 237 285 335 412
#     4  11  21  40  70  98 138 183 222 280 349 404
#
# _framework density 20.448810000000002
#
# number of rings (size 3 to 8) (size 9 to 14) (size 15 to 20)
#    0.000    0.400    8.000    1.200    0.000    3.200 
#    0.000    2.000    0.000    0.000    0.000    0.000 
#    0.000    0.000    0.000    0.000    0.000    0.000 
#
# Total GULP energy -123899.148371 kJ/mol
# GULP energy per Si atom -12389.914837 kJ/mol
# Density = 2.040227 g / cm^3
# Si number density = 20.448810 Si / 1000 Ang^3
#
#
#
# Elastic Constant Matrix: (Units=GPa)
#
#
# Indices 1 2 3 4 5 6 
#
# 1 155.4023 54.4514 100.2784 -4.6132 -0.3912 1.0605
# 2 54.4514 143.6884 51.7998 -1.7583 -6.1311 -11.8382
# 3 100.2784 51.7998 132.2501 -5.8159 5.6884 5.0167
# 4 -4.6132 -1.7583 -5.8159 32.9006 -0.8463 3.3044
# 5 -0.3912 -6.1311 5.6884 -0.8463 48.6640 -7.4574
# 6 1.0605 -11.8382 5.0167 3.3044 -7.4574 35.6412
#
#
#
# Elastic Compliance Matrix: (Units=1/GPa)
#
#
# Indices 1 2 3 4 5 6 
#
# 1 0.012966 -0.001443 -0.009338 0.000051 0.001119 0.000679
# 2 -0.001443 0.008844 -0.002623 -0.000525 0.001985 0.003814
# 3 -0.009338 -0.002623 0.015999 0.001667 -0.002796 -0.003585
# 4 0.000051 -0.000525 0.001667 0.030997 -0.000232 -0.003333
# 5 0.001119 0.001985 -0.002796 -0.000232 0.021996 0.005643
# 6 0.000679 0.003814 -0.003585 -0.003333 0.005643 0.031298
#
#
# Mechanical properties :
#
#
# Convention : Reuss Voigt Hill
#
# Bulk Modulus (GPa) = 90.89922 93.82222 92.36072
# Shear Modulus (GPa) = 32.77084 38.42855 35.59969
#
# Velocity S-wave (km/s) = 4.00757 4.33974 4.17696
# Velocity P-wave (km/s) = 8.12174 8.43162 8.27813
#
# Compressibility (1/GPa) = 0.01100119
#
# Stress axis : x y z
#
# Youngs Moduli (GPa) = 77.12731 113.06516 62.50499
#
# Poissons Ratio (x) = 0.16314 0.58365
# Poissons Ratio (y) = 0.11128 0.16397
# Poissons Ratio (z) = 0.72019 0.29660
#
# Static dielectric constant tensor:
#      x y z
#    x 4.065300 -0.287660 0.133910 
#    y -0.287660 3.733290 0.044650 
#    z 0.133910 0.044650 4.108390 
# 
# 
# High freq. dielectric constant tensor:
#      x y z
#    x 1.817340 -0.019220 0.012500 
#    y -0.019220 1.799800 0.002800 
#    z 0.012500 0.002800 1.799080 
# 
# From -- ./inp_files/144463.got.cif
#   From: 2010.06.25/outbox.cif.g09.slc.cpg/sg2_73_cif.got.tgz:144463.got - 2010.06.27 13:26:56.
