data_PCOD8029269
_publ_section_title
;
Structure prediction by ZEFSAII (Michael W. Deem and Ramdas Pophale) SiO2 
 PCOD8029269
Probable space group: P -1
;
_chemical_formula_sum "Si O2"
_cell_formula_units_Z 14
_cell_length_a 11.950044
_cell_length_b 18.177580
_cell_length_c 8.556623
_cell_angle_alpha 72.608849
_cell_angle_beta 104.569715
_cell_angle_gamma 158.939143
_cell_volume 635.372097
_symmetry_space_group_name_H-M "P -1"
_symmetry_group_IT_number 2
_symmetry_cell_setting 'triclinic'
loop_
_space_group_symop_operation_xyz
x,y,z
-x,-y,-z
loop_
_atom_site_type_symbol
_atom_site_label
_atom_site_fract_x
_atom_site_fract_y
_atom_site_fract_z
Si Si1 0.363174 0.703609 0.692318
Si Si2 0.834745 0.556147 0.400349
Si Si3 0.243158 0.081771 0.004315
Si Si4 0.841584 0.485928 0.766554
Si Si5 0.192495 0.335291 0.911457
Si Si6 0.186779 0.804605 0.912701
Si Si7 0.505325 0.936247 0.416340
O O1 0.389861 0.645592 0.629090
O O2 0.559468 0.889697 0.551663
O O3 0.011176 0.517260 0.725152
O O4 0.539243 0.791311 0.853092
O O5 0.816024 0.538747 0.593994
O O6 0.756239 0.594906 0.287663
O O7 0.172833 0.738883 0.339035
O O8 0.484266 0.246045 0.841764
O O9 0.000000 0.000000 0.000000
O O10 0.058927 0.888427 0.035407
O O11 0.068844 0.651659 0.886713
O O12 0.500000 0.500000 0.000000
O O13 0.089417 0.342120 0.979027
O O14 0.227469 0.889787 0.730120
O O15 0.500000 0.000000 0.000000
O O16 0.500000 0.000000 0.500000
#
# Coordination Sequence:
#
# PCOD8029269 Si02
#       7
#     2   2   2   2   2   2   2
#     4  11  23  41  70  98 138 170 222 273 332 386
#     4  11  23  43  68  98 139 169 223 273 330 389
#     4  12  27  47  67  95 135 174 223 275 333 396
#     4  11  24  44  69 103 133 175 221 275 330 388
#     4  12  27  47  68  95 133 180 221 271 334 402
#     4  12  23  39  71 100 137 173 224 268 334 389
#     4  11  20  39  64 103 134 173 217 277 325 387
#
# _framework density 22.034331999999999
#
# number of rings (size 3 to 8) (size 9 to 14) (size 15 to 20)
#    0.000    0.571    4.286    6.429    4.000    0.000 
#    2.571    2.857    0.000    0.000    0.000    0.000 
#    0.000    0.000    0.000    0.000    0.000    0.000 
#
# Total GULP energy -173491.115789 kJ/mol
# GULP energy per Si atom -12392.222556 kJ/mol
# Density = 2.198418 g / cm^3
# Si number density = 22.034332 Si / 1000 Ang^3
#
#
#
# Elastic Constant Matrix: (Units=GPa)
#
#
# Indices 1 2 3 4 5 6 
#
# 1 72.1885 30.2165 32.1847 0.6235 8.3022 -5.8597
# 2 30.2165 98.9441 46.3484 -2.7163 2.3389 -12.0652
# 3 32.1847 46.3484 130.5023 -0.0597 18.9231 2.9139
# 4 0.6235 -2.7163 -0.0597 33.6118 -5.9809 2.3925
# 5 8.3022 2.3389 18.9231 -5.9809 35.6831 5.6091
# 6 -5.8597 -12.0652 2.9139 2.3925 5.6091 45.2600
#
#
#
# Elastic Compliance Matrix: (Units=1/GPa)
#
#
# Indices 1 2 3 4 5 6 
#
# 1 0.017031 -0.003792 -0.002474 -0.001268 -0.002894 0.001779
# 2 -0.003792 0.013627 -0.004260 0.001295 0.001978 0.003103
# 3 -0.002474 -0.004260 0.010492 -0.000998 -0.004640 -0.001504
# 4 -0.001268 0.001295 -0.000998 0.031155 0.006305 -0.002183
# 5 -0.002894 0.001978 -0.004640 0.006305 0.032704 -0.003935
# 6 0.001779 0.003103 -0.001504 -0.002183 -0.003935 0.023852
#
#
# Mechanical properties :
#
#
# Convention : Reuss Voigt Hill
#
# Bulk Modulus (GPa) = 49.75549 57.68156 53.71852
# Shear Modulus (GPa) = 31.92587 35.77000 33.84793
#
# Velocity S-wave (km/s) = 3.81059 4.03348 3.92362
# Velocity P-wave (km/s) = 6.48002 6.92292 6.70513
#
# Compressibility (1/GPa) = 0.02009829
#
# Stress axis : x y z
#
# Youngs Moduli (GPa) = 58.71630 73.38201 95.31206
#
# Poissons Ratio (x) = 0.27823 0.23583
# Poissons Ratio (y) = 0.22262 0.40604
# Poissons Ratio (z) = 0.14528 0.31262
#
# Static dielectric constant tensor:
#      x y z
#    x 3.714360 -0.164730 0.028430 
#    y -0.164730 4.130550 -0.170440 
#    z 0.028430 -0.170440 4.403910 
# 
# 
# High freq. dielectric constant tensor:
#      x y z
#    x 1.836650 -0.025440 0.002410 
#    y -0.025440 1.871290 -0.000590 
#    z 0.002410 -0.000590 1.890920 
# 
# From -- ./inp_files/239647.got.cif
#   From: 2010.06.25/outbox.cif.g09.slc.cpg/sg2_120_cif.got.tgz:239647.got - 2010.06.27 13:26:56.
