data_PCOD8029933
_publ_section_title
;
Structure prediction by ZEFSAII (Michael W. Deem and Ramdas Pophale) SiO2 
 PCOD8029933
Probable space group: P -1
;
_chemical_formula_sum "Si O2"
_cell_formula_units_Z 16
_cell_length_a 8.638654
_cell_length_b 8.337922
_cell_length_c 12.997991
_cell_angle_alpha 98.811127
_cell_angle_beta 95.023528
_cell_angle_gamma 125.858291
_cell_volume 731.223114
_symmetry_space_group_name_H-M "P -1"
_symmetry_group_IT_number 2
_symmetry_cell_setting 'triclinic'
loop_
_space_group_symop_operation_xyz
x,y,z
-x,-y,-z
loop_
_atom_site_type_symbol
_atom_site_label
_atom_site_fract_x
_atom_site_fract_y
_atom_site_fract_z
Si Si1 0.519195 0.364237 0.414101
Si Si2 0.159860 0.198285 0.854182
Si Si3 0.425223 0.943072 0.130432
Si Si4 0.219529 0.467602 0.069557
Si Si5 0.492041 0.404729 0.734437
Si Si6 0.212148 0.924753 0.304088
Si Si7 0.190411 0.888941 0.929555
Si Si8 0.641157 0.229691 0.568031
O O1 0.500000 0.500000 0.500000
O O2 0.568551 0.465419 0.313792
O O3 0.688339 0.358191 0.476911
O O4 0.303899 0.142037 0.383802
O O5 0.317149 0.242566 0.783724
O O6 0.979534 0.160852 0.779431
O O7 0.099739 0.001197 0.896195
O O8 0.242907 0.383164 0.956697
O O9 0.328753 0.706173 0.081413
O O10 0.390214 0.978407 0.246988
O O11 0.660547 0.093765 0.143305
O O12 0.320249 0.000604 0.050858
O O13 0.319800 0.438145 0.168271
O O14 0.991134 0.345223 0.076282
O O15 0.536408 0.285312 0.647854
O O16 0.177005 0.750930 0.365156
O O17 0.500000 0.000000 0.500000
#
# Coordination Sequence:
#
# PCOD8029933 Si02
#       8
#     2   2   2   2   2   2   2   2
#     4   9  21  40  66  93 117 165 218 275 334 383
#     4  12  25  39  61  98 136 175 217 263 321 393
#     4  11  24  40  61  91 130 179 217 263 315 376
#     4  12  23  41  64  94 139 180 217 262 314 390
#     4  11  22  40  65  94 130 174 217 266 328 386
#     4  11  21  41  64  92 130 170 213 272 332 383
#     4  11  24  40  60  90 132 177 219 260 308 379
#     4   9  19  41  67  88 121 165 220 276 335 379
#
# _framework density 21.881148
#
# number of rings (size 3 to 8) (size 9 to 14) (size 15 to 20)
#    0.000    1.250    3.750    1.875    1.750    1.000 
#    0.000    6.250    0.000    6.000    0.000    0.000 
#    0.000    0.000    0.000    0.000    0.000    0.000 
#
# Total GULP energy -198213.202084 kJ/mol
# GULP energy per Si atom -12388.325130 kJ/mol
# Density = 2.183135 g / cm^3
# Si number density = 21.881148 Si / 1000 Ang^3
#
#
#
# Elastic Constant Matrix: (Units=GPa)
#
#
# Indices 1 2 3 4 5 6 
#
# 1 78.6734 31.8944 50.3410 -7.6871 19.0011 -5.9410
# 2 31.8944 80.1226 31.6041 -11.5806 5.2739 -7.4289
# 3 50.3410 31.6041 132.8004 -6.5344 17.9436 -17.7873
# 4 -7.6871 -11.5806 -6.5344 34.1454 -20.8680 7.1584
# 5 19.0011 5.2739 17.9436 -20.8680 35.5266 -13.5049
# 6 -5.9410 -7.4289 -17.7873 7.1584 -13.5049 42.7074
#
#
#
# Elastic Compliance Matrix: (Units=1/GPa)
#
#
# Indices 1 2 3 4 5 6 
#
# 1 0.020911 -0.006400 -0.005527 -0.004907 -0.011599 -0.003352
# 2 -0.006400 0.016613 -0.001834 0.007869 0.007359 0.002244
# 3 -0.005527 -0.001834 0.010650 -0.001677 -0.001996 0.002998
# 4 -0.004907 0.007869 -0.001677 0.049888 0.032307 0.001842
# 5 -0.011599 0.007359 -0.001996 0.032307 0.057676 0.011658
# 6 -0.003352 0.002244 0.002998 0.001842 0.011658 0.027965
#
#
# Mechanical properties :
#
#
# Convention : Reuss Voigt Hill
#
# Bulk Modulus (GPa) = 48.42134 57.69726 53.05930
# Shear Modulus (GPa) = 22.92423 34.32633 28.62528
#
# Velocity S-wave (km/s) = 3.24028 3.96506 3.62085
# Velocity P-wave (km/s) = 6.01469 6.88389 6.46392
#
# Compressibility (1/GPa) = 0.02065205
#
# Stress axis : x y z
#
# Youngs Moduli (GPa) = 47.82260 60.19327 93.89402
#
# Poissons Ratio (x) = 0.38526 0.51892
# Poissons Ratio (y) = 0.30608 0.17220
# Poissons Ratio (z) = 0.26430 0.11039
#
# Static dielectric constant tensor:
#      x y z
#    x 4.330400 -0.645900 0.683320 
#    y -0.645900 4.434380 -0.801500 
#    z 0.683320 -0.801500 4.925370 
# 
# 
# High freq. dielectric constant tensor:
#      x y z
#    x 1.846250 -0.030970 0.016110 
#    y -0.030970 1.849620 -0.016940 
#    z 0.016110 -0.016940 1.879730 
# 
# From -- ./inp_files/219775.got.cif
#   From: 2010.06.25/outbox.cif.g09.slc.cpg/sg2_110_cif.got.tgz:219775.got - 2010.06.27 13:26:56.
