data_PCOD8029717
_publ_section_title
;
Structure prediction by ZEFSAII (Michael W. Deem and Ramdas Pophale) SiO2 
 PCOD8029717
Probable space group: P -1
;
_chemical_formula_sum "Si O2"
_cell_formula_units_Z 14
_cell_length_a 10.366785
_cell_length_b 5.538049
_cell_length_c 12.558261
_cell_angle_alpha 59.176317
_cell_angle_beta 100.434939
_cell_angle_gamma 74.323803
_cell_volume 549.793179
_symmetry_space_group_name_H-M "P -1"
_symmetry_group_IT_number 2
_symmetry_cell_setting 'triclinic'
loop_
_space_group_symop_operation_xyz
x,y,z
-x,-y,-z
loop_
_atom_site_type_symbol
_atom_site_label
_atom_site_fract_x
_atom_site_fract_y
_atom_site_fract_z
Si Si1 0.349692 0.794715 0.412535
Si Si2 0.797568 0.939946 0.464712
Si Si3 0.379027 0.211917 0.014510
Si Si4 0.507931 0.805851 0.732525
Si Si5 0.121635 0.786074 0.775399
Si Si6 0.033340 0.620790 0.238426
Si Si7 0.266475 0.781840 0.176593
O O1 0.500000 0.500000 0.500000
O O2 0.248275 0.810672 0.294902
O O3 0.258310 0.817716 0.499937
O O4 0.387579 0.087331 0.344078
O O5 0.882394 0.590658 0.599660
O O6 0.658581 0.969190 0.368073
O O7 0.896181 0.039770 0.379949
O O8 0.292022 0.561204 0.876127
O O9 0.465500 0.205515 0.135622
O O10 0.500000 0.000000 0.000000
O O11 0.252213 0.096381 0.045952
O O12 0.567498 0.453524 0.777865
O O13 0.038791 0.565168 0.798141
O O14 0.071499 0.038637 0.806629
O O15 0.138643 0.677845 0.153213
#
# Coordination Sequence:
#
# PCOD8029717 Si02
#       7
#     2   2   2   2   2   2   2
#     4  11  21  38  69 117 151 189 244 312 393 446
#     4  12  24  47  79 113 158 194 253 323 386 457
#     4  11  29  51  78 111 149 197 260 323 385 450
#     4  11  24  44  78 113 140 197 253 322 383 441
#     4  12  31  51  76 112 157 210 258 311 380 463
#     4  12  28  51  75 114 156 210 255 306 386 465
#     4  11  24  46  76 109 152 200 254 316 378 453
#
# _framework density 25.464120999999999
#
# number of rings (size 3 to 8) (size 9 to 14) (size 15 to 20)
#    0.000    0.571    2.857    3.857    8.000    3.429 
#    0.000    0.000    0.000    0.000    0.000    0.000 
#    0.000    0.000    0.000    0.000    0.000    0.000 
#
# Total GULP energy -173534.685155 kJ/mol
# GULP energy per Si atom -12395.334654 kJ/mol
# Density = 2.540616 g / cm^3
# Si number density = 25.464121 Si / 1000 Ang^3
#
#
#
# Elastic Constant Matrix: (Units=GPa)
#
#
# Indices 1 2 3 4 5 6 
#
# 1 77.5563 29.0306 11.1465 2.1388 -1.8792 2.3298
# 2 29.0306 142.8116 28.0565 -4.4674 5.6448 -12.7237
# 3 11.1465 28.0565 97.1860 -6.1313 3.0334 -7.8880
# 4 2.1388 -4.4674 -6.1313 40.6664 -13.2024 8.3093
# 5 -1.8792 5.6448 3.0334 -13.2024 34.7925 -1.7619
# 6 2.3298 -12.7237 -7.8880 8.3093 -1.7619 44.4749
#
#
#
# Elastic Compliance Matrix: (Units=1/GPa)
#
#
# Indices 1 2 3 4 5 6 
#
# 1 0.014208 -0.002895 -0.000991 -0.000552 0.001033 -0.001604
# 2 -0.002895 0.008186 -0.001823 -0.000062 -0.001241 0.002133
# 3 -0.000991 -0.001823 0.011115 0.001201 -0.000207 0.001269
# 4 -0.000552 -0.000062 0.001201 0.029263 0.010736 -0.004818
# 5 0.001033 -0.001241 -0.000207 0.010736 0.033033 -0.001143
# 6 -0.001604 0.002133 0.001269 -0.004818 -0.001143 0.024259
#
#
# Mechanical properties :
#
#
# Convention : Reuss Voigt Hill
#
# Bulk Modulus (GPa) = 45.26740 50.44679 47.85709
# Shear Modulus (GPa) = 36.01120 40.60813 38.30966
#
# Velocity S-wave (km/s) = 3.76466 3.99773 3.88294
# Velocity P-wave (km/s) = 6.05907 6.41584 6.24001
#
# Compressibility (1/GPa) = 0.02209095
#
# Stress axis : x y z
#
# Youngs Moduli (GPa) = 70.38192 122.16070 89.96986
#
# Poissons Ratio (x) = 0.35359 0.08918
# Poissons Ratio (y) = 0.20372 0.16404
# Poissons Ratio (z) = 0.06976 0.22274
#
# Static dielectric constant tensor:
#      x y z
#    x 4.614000 0.138550 -0.121870 
#    y 0.138550 4.563910 -0.195220 
#    z -0.121870 -0.195220 4.710020 
# 
# 
# High freq. dielectric constant tensor:
#      x y z
#    x 2.017700 0.000270 -0.005590 
#    y 0.000270 2.019430 -0.009820 
#    z -0.005590 -0.009820 2.023880 
# 
# From -- ./inp_files/118796.got.cif
#   From: 2010.06.25/outbox.cif.g09.slc.cpg/sg2_60_cif.got.tgz:118796.got - 2010.06.27 13:26:56.
