data_PCOD8029815
_publ_section_title
;
Structure prediction by ZEFSAII (Michael W. Deem and Ramdas Pophale) SiO2 
 PCOD8029815
Probable space group: P -1
;
_chemical_formula_sum "Si O2"
_cell_formula_units_Z 14
_cell_length_a 9.568884
_cell_length_b 23.671339
_cell_length_c 8.400343
_cell_angle_alpha 46.759234
_cell_angle_beta 148.385343
_cell_angle_gamma 138.933520
_cell_volume 650.113818
_symmetry_space_group_name_H-M "P -1"
_symmetry_group_IT_number 2
_symmetry_cell_setting 'triclinic'
loop_
_space_group_symop_operation_xyz
x,y,z
-x,-y,-z
loop_
_atom_site_type_symbol
_atom_site_label
_atom_site_fract_x
_atom_site_fract_y
_atom_site_fract_z
Si Si1 0.390719 0.720298 0.140025
Si Si2 0.655043 0.438975 0.789505
Si Si3 0.646762 0.208968 0.371520
Si Si4 0.268954 0.015061 0.346147
Si Si5 0.699421 0.698169 0.038048
Si Si6 0.086394 0.247291 0.189854
Si Si7 0.178328 0.948063 0.718132
O O1 0.383020 0.629216 0.255582
O O2 0.677746 0.763310 0.445743
O O3 0.414027 0.777232 0.897770
O O4 0.111338 0.715669 0.979052
O O5 0.500000 0.500000 0.500000
O O6 0.514221 0.392387 0.909939
O O7 0.000000 0.500000 0.000000
O O8 0.451235 0.109315 0.417510
O O9 0.000749 0.247509 0.671826
O O10 0.507177 0.253358 0.268403
O O11 0.500000 0.000000 0.500000
O O12 0.160280 0.944970 0.515766
O O13 0.000000 0.000000 0.000000
O O14 0.773840 0.685627 0.951831
O O15 0.922811 0.151627 0.134903
O O16 0.000000 0.000000 0.500000
O O17 0.500000 0.000000 0.000000
#
# Coordination Sequence:
#
# PCOD8029815 Si02
#       7
#     2   2   2   2   2   2   2
#     4  11  23  40  65  91 123 163 201 255 311 362
#     4  11  23  44  68  93 121 157 201 249 310 387
#     4  11  21  40  60  87 120 167 214 246 296 372
#     4  12  23  37  58  88 121 162 212 265 302 342
#     4  11  23  40  65  89 120 162 201 247 305 375
#     4  12  23  41  61  94 128 161 208 256 304 364
#     4  12  24  40  60  88 127 172 209 256 308 352
#
# _framework density 21.534690000000001
#
# number of rings (size 3 to 8) (size 9 to 14) (size 15 to 20)
#    0.000    0.571    0.000   11.143    0.000    0.000 
#    0.000    4.286    0.000    0.000    0.000    0.000 
#    0.000    0.000    0.000    0.000    0.000    0.000 
#
# Total GULP energy -173499.328218 kJ/mol
# GULP energy per Si atom -12392.809158 kJ/mol
# Density = 2.148568 g / cm^3
# Si number density = 21.534690 Si / 1000 Ang^3
#
#
#
# Elastic Constant Matrix: (Units=GPa)
#
#
# Indices 1 2 3 4 5 6 
#
# 1 151.2437 24.6215 35.4156 -14.4655 15.4545 10.1397
# 2 24.6215 99.6917 17.6785 -6.3628 11.4593 7.1056
# 3 35.4156 17.6785 120.1714 10.6997 13.9829 9.7663
# 4 -14.4655 -6.3628 10.6997 43.7366 -11.1137 11.6604
# 5 15.4545 11.4593 13.9829 -11.1137 47.4939 -3.4204
# 6 10.1397 7.1056 9.7663 11.6604 -3.4204 29.2622
#
#
#
# Elastic Compliance Matrix: (Units=1/GPa)
#
#
# Indices 1 2 3 4 5 6 
#
# 1 0.007957 -0.000988 -0.002116 0.003623 -0.001124 -0.003386
# 2 -0.000988 0.010994 -0.001043 0.001850 -0.001802 -0.002927
# 3 -0.002116 -0.001043 0.009861 -0.003691 -0.002911 -0.001174
# 4 0.003623 0.001850 -0.003691 0.029768 0.005586 -0.011682
# 5 -0.001124 -0.001802 -0.002911 0.005586 0.024193 0.002400
# 6 -0.003386 -0.002927 -0.001174 -0.011682 0.002400 0.041385
#
#
# Mechanical properties :
#
#
# Convention : Reuss Voigt Hill
#
# Bulk Modulus (GPa) = 48.74118 58.50421 53.62270
# Shear Modulus (GPa) = 35.89584 43.65797 39.77690
#
# Velocity S-wave (km/s) = 4.08718 4.50748 4.30246
# Velocity P-wave (km/s) = 6.70495 7.36995 7.04530
#
# Compressibility (1/GPa) = 0.02051653
#
# Stress axis : x y z
#
# Youngs Moduli (GPa) = 125.68326 90.96039 101.40579
#
# Poissons Ratio (x) = 0.08988 0.21459
# Poissons Ratio (y) = 0.12419 0.10580
# Poissons Ratio (z) = 0.26596 0.09490
#
# Static dielectric constant tensor:
#      x y z
#    x 4.122960 0.144370 0.096190 
#    y 0.144370 3.802010 -0.029160 
#    z 0.096190 -0.029160 4.023020 
# 
# 
# High freq. dielectric constant tensor:
#      x y z
#    x 1.860360 0.006400 0.011950 
#    y 0.006400 1.838440 -0.004000 
#    z 0.011950 -0.004000 1.865630 
# 
# From -- ./inp_files/47217.got.cif
#   From: 2010.06.25/outbox.cif.g09.slc.cpg/sg2_24_cif.got.tgz:47217.got - 2010.06.27 13:26:56.
