data_PCOD8029708
_publ_section_title
;
Structure prediction by ZEFSAII (Michael W. Deem and Ramdas Pophale) SiO2 
 PCOD8029708
Probable space group: P -1
;
_chemical_formula_sum "Si O2"
_cell_formula_units_Z 16
_cell_length_a 9.865587
_cell_length_b 16.367205
_cell_length_c 9.327582
_cell_angle_alpha 83.892440
_cell_angle_beta 72.392540
_cell_angle_gamma 139.404273
_cell_volume 785.125952
_symmetry_space_group_name_H-M "P -1"
_symmetry_group_IT_number 2
_symmetry_cell_setting 'triclinic'
loop_
_space_group_symop_operation_xyz
x,y,z
-x,-y,-z
loop_
_atom_site_type_symbol
_atom_site_label
_atom_site_fract_x
_atom_site_fract_y
_atom_site_fract_z
Si Si1 0.525846 0.425704 0.929846
Si Si2 0.962681 0.906517 0.830808
Si Si3 0.501146 0.918902 0.424127
Si Si4 0.671650 0.603742 0.291067
Si Si5 0.005829 0.393473 0.871654
Si Si6 0.429182 0.884647 0.126869
Si Si7 0.964457 0.078399 0.872051
Si Si8 0.916498 0.380681 0.217635
O O1 0.486078 0.421407 0.773129
O O2 0.801908 0.515332 0.844379
O O3 0.500000 0.500000 0.000000
O O4 0.306404 0.262492 0.107508
O O5 0.204835 0.970835 0.687935
O O6 0.013284 0.027244 0.752432
O O7 0.914051 0.881862 0.020596
O O8 0.401590 0.890801 0.302301
O O9 0.307289 0.759803 0.582626
O O10 0.500000 0.000000 0.500000
O O11 0.500000 0.500000 0.500000
O O12 0.909971 0.774413 0.245063
O O13 0.767846 0.564853 0.197484
O O14 0.827501 0.281170 0.818038
O O15 0.112026 0.535039 0.777994
O O16 0.858595 0.322841 0.084690
O O17 0.500000 0.000000 0.000000
O O18 0.657585 0.931500 0.016172
#
# Coordination Sequence:
#
# PCOD8029708 Si02
#       8
#     2   2   2   2   2   2   2   2
#     4  11  21  41  67  88 124 172 211 250 327 390
#     4   9  20  38  61  90 120 156 208 263 305 376
#     4  11  24  40  66  98 126 164 217 265 316 386
#     4  11  24  39  65  91 128 164 213 264 315 387
#     4  11  24  44  62  93 133 173 208 265 334 371
#     4  11  21  38  67  91 127 166 209 258 323 384
#     4   9  19  38  61  86 119 163 201 255 319 369
#     4  11  25  42  67  93 132 170 216 269 316 388
#
# _framework density 20.378895
#
# number of rings (size 3 to 8) (size 9 to 14) (size 15 to 20)
#    0.000    1.500    2.500    2.250    5.250    1.500 
#    0.000    0.000    0.000    3.750    0.000    0.000 
#    0.000    0.000    0.000    0.000    0.000    0.000 
#
# Total GULP energy -198340.434328 kJ/mol
# GULP energy per Si atom -12396.277145 kJ/mol
# Density = 2.033251 g / cm^3
# Si number density = 20.378895 Si / 1000 Ang^3
#
#
#
# Elastic Constant Matrix: (Units=GPa)
#
#
# Indices 1 2 3 4 5 6 
#
# 1 82.6738 44.7957 26.5141 2.2795 0.6449 -17.0685
# 2 44.7957 118.6809 56.3973 -2.3283 -5.0183 -17.8999
# 3 26.5141 56.3973 118.9390 -7.7390 9.6672 -10.5889
# 4 2.2795 -2.3283 -7.7390 34.9416 -0.6862 -1.2789
# 5 0.6449 -5.0183 9.6672 -0.6862 29.3211 3.1769
# 6 -17.0685 -17.8999 -10.5889 -1.2789 3.1769 45.9246
#
#
#
# Elastic Compliance Matrix: (Units=1/GPa)
#
#
# Indices 1 2 3 4 5 6 
#
# 1 0.015986 -0.005200 -0.000736 -0.001441 -0.001445 0.003805
# 2 -0.005200 0.013360 -0.005328 0.000192 0.003969 0.001777
# 3 -0.000736 -0.005328 0.011696 0.002217 -0.004780 0.000739
# 4 -0.001441 0.000192 0.002217 0.029247 -0.000076 0.000870
# 5 -0.001445 0.003969 -0.004780 -0.000076 0.036676 -0.002631
# 6 0.003805 0.001777 0.000739 0.000870 -0.002631 0.024258
#
#
# Mechanical properties :
#
#
# Convention : Reuss Voigt Hill
#
# Bulk Modulus (GPa) = 54.00709 63.96753 58.98731
# Shear Modulus (GPa) = 31.26543 34.87657 33.07100
#
# Velocity S-wave (km/s) = 3.92114 4.14140 4.03278
# Velocity P-wave (km/s) = 6.85999 7.37059 7.11987
#
# Compressibility (1/GPa) = 0.01851609
#
# Stress axis : x y z
#
# Youngs Moduli (GPa) = 62.55650 74.85084 85.49600
#
# Poissons Ratio (x) = 0.38920 0.06289
# Poissons Ratio (y) = 0.32527 0.45549
# Poissons Ratio (z) = 0.04602 0.39878
#
# Static dielectric constant tensor:
#      x y z
#    x 3.492130 -0.474640 0.138750 
#    y -0.474640 5.442430 0.002880 
#    z 0.138750 0.002880 3.535600 
# 
# 
# High freq. dielectric constant tensor:
#      x y z
#    x 1.803780 -0.011610 -0.004660 
#    y -0.011610 1.810540 -0.005090 
#    z -0.004660 -0.005090 1.778510 
# 
# From -- ./inp_files/189910.got.cif
#   From: 2010.06.25/outbox.cif.g09.slc.cpg/sg2_95_cif.got.tgz:189910.got - 2010.06.27 13:26:56.
