data_PCOD8029853
_publ_section_title
;
Structure prediction by ZEFSAII (Michael W. Deem and Ramdas Pophale) SiO2 
 PCOD8029853
Probable space group: P -1
;
_chemical_formula_sum "Si O2"
_cell_formula_units_Z 16
_cell_length_a 14.508193
_cell_length_b 23.687497
_cell_length_c 9.085285
_cell_angle_alpha 56.630850
_cell_angle_beta 65.946865
_cell_angle_gamma 19.387313
_cell_volume 792.817188
_symmetry_space_group_name_H-M "P -1"
_symmetry_group_IT_number 2
_symmetry_cell_setting 'triclinic'
loop_
_space_group_symop_operation_xyz
x,y,z
-x,-y,-z
loop_
_atom_site_type_symbol
_atom_site_label
_atom_site_fract_x
_atom_site_fract_y
_atom_site_fract_z
Si Si1 0.741964 0.980664 0.034978
Si Si2 0.350891 0.201674 0.685902
Si Si3 0.719954 0.522395 0.056891
Si Si4 0.568340 0.944160 0.706572
Si Si5 0.820207 0.073300 0.628245
Si Si6 0.702992 0.159609 0.888174
Si Si7 0.255109 0.400884 0.341958
Si Si8 0.687697 0.339592 0.991654
O O1 0.598117 0.018938 0.187640
O O2 0.604916 0.060767 0.843447
O O3 0.675279 0.096256 0.982205
O O4 0.114281 0.736236 0.136788
O O5 0.245931 0.324814 0.457046
O O6 0.058688 0.366538 0.737686
O O7 0.455254 0.073803 0.702407
O O8 0.600395 0.623390 0.146866
O O9 0.073213 0.286766 0.175681
O O10 0.645154 0.628435 0.834683
O O11 0.543573 0.564588 0.075226
O O12 0.500000 0.000000 0.500000
O O13 0.741819 0.166572 0.690165
O O14 0.496303 0.259403 0.513376
O O15 0.000000 0.000000 0.500000
O O16 0.031689 0.875982 0.806866
O O17 0.000000 0.000000 0.000000
O O18 0.500000 0.500000 0.000000
#
# Coordination Sequence:
#
# PCOD8029853 Si02
#       8
#     2   2   2   2   2   2   2   2
#     4  11  23  46  72  97 136 190 222 283 345 405
#     4  11  24  45  68 101 137 178 236 279 336 416
#     4  12  25  44  71 102 138 183 225 289 352 402
#     4  12  30  47  66 102 142 183 229 287 352 412
#     4  11  21  40  67 103 131 177 230 278 329 408
#     4  11  22  43  67 102 144 172 225 283 343 405
#     4  11  23  40  71 104 129 181 232 282 335 403
#     4  11  23  41  70 102 136 176 227 276 348 405
#
# _framework density 20.181197000000001
#
# number of rings (size 3 to 8) (size 9 to 14) (size 15 to 20)
#    0.000    0.750    7.500    1.125    5.250    0.500 
#    0.000    0.625    0.000    0.000    0.000    0.000 
#    0.000    0.000    0.000    0.000    0.000    0.000 
#
# Total GULP energy -198217.688501 kJ/mol
# GULP energy per Si atom -12388.605531 kJ/mol
# Density = 2.013526 g / cm^3
# Si number density = 20.181197 Si / 1000 Ang^3
#
#
#
# Elastic Constant Matrix: (Units=GPa)
#
#
# Indices 1 2 3 4 5 6 
#
# 1 138.7053 82.1455 43.5410 5.1032 4.4870 2.3706
# 2 82.1455 180.4738 45.1083 13.0082 -2.4370 -0.1974
# 3 43.5410 45.1083 96.7695 17.1983 7.3101 -5.4037
# 4 5.1032 13.0082 17.1983 36.6391 -4.0674 3.3531
# 5 4.4870 -2.4370 7.3101 -4.0674 20.9438 0.9572
# 6 2.3706 -0.1974 -5.4037 3.3531 0.9572 51.3968
#
#
#
# Elastic Compliance Matrix: (Units=1/GPa)
#
#
# Indices 1 2 3 4 5 6 
#
# 1 0.010666 -0.004219 -0.003015 0.001351 -0.001421 -0.000887
# 2 -0.004219 0.008026 -0.001799 -0.001176 0.002234 0.000071
# 3 -0.003015 -0.001799 0.014247 -0.006481 -0.005893 0.002163
# 4 0.001351 -0.001176 -0.006481 0.031740 0.008136 -0.002970
# 5 -0.001421 0.002234 -0.005893 0.008136 0.052042 -0.002045
# 6 -0.000887 0.000071 0.002163 -0.002970 -0.002045 0.019957
#
#
# Mechanical properties :
#
#
# Convention : Reuss Voigt Hill
#
# Bulk Modulus (GPa) = 67.23255 84.17091 75.70173
# Shear Modulus (GPa) = 31.30901 38.13953 34.72427
#
# Velocity S-wave (km/s) = 3.94305 4.35196 4.15254
# Velocity P-wave (km/s) = 7.35642 8.18846 7.78357
#
# Compressibility (1/GPa) = 0.01487375
#
# Stress axis : x y z
#
# Youngs Moduli (GPa) = 93.75816 124.59891 70.19259
#
# Poissons Ratio (x) = 0.52564 0.21161
# Poissons Ratio (y) = 0.39554 0.12625
# Poissons Ratio (z) = 0.28266 0.22412
#
# Static dielectric constant tensor:
#      x y z
#    x 4.032190 -0.298600 0.000420 
#    y -0.298600 4.131120 0.370240 
#    z 0.000420 0.370240 2.639540 
# 
# 
# High freq. dielectric constant tensor:
#      x y z
#    x 1.795220 -0.016290 0.004880 
#    y -0.016290 1.815040 0.004720 
#    z 0.004880 0.004720 1.774770 
# 
# From -- ./inp_files/320298.got.cif
#   From: 2010.06.25/outbox.cif.g09.slc.cpg/sg2_161_cif.got.tgz:320298.got - 2010.06.27 13:26:56.
