data_PCOD8029985
_publ_section_title
;
Structure prediction by ZEFSAII (Michael W. Deem and Ramdas Pophale) SiO2 
 PCOD8029985
Probable space group: P -1
;
_chemical_formula_sum "Si O2"
_cell_formula_units_Z 14
_cell_length_a 15.727030
_cell_length_b 11.163320
_cell_length_c 15.939821
_cell_angle_alpha 157.047859
_cell_angle_beta 146.136613
_cell_angle_gamma 45.200147
_cell_volume 584.451913
_symmetry_space_group_name_H-M "P -1"
_symmetry_group_IT_number 2
_symmetry_cell_setting 'triclinic'
loop_
_space_group_symop_operation_xyz
x,y,z
-x,-y,-z
loop_
_atom_site_type_symbol
_atom_site_label
_atom_site_fract_x
_atom_site_fract_y
_atom_site_fract_z
Si Si1 0.218499 0.102230 0.395492
Si Si2 0.108686 0.259863 0.086766
Si Si3 0.505644 0.139920 0.487017
Si Si4 0.449839 0.801745 0.914632
Si Si5 0.616125 0.300953 0.497392
Si Si6 0.789762 0.314038 0.127568
Si Si7 0.115294 0.469723 0.413474
O O1 0.268721 0.435418 0.701933
O O2 0.140849 0.147270 0.270186
O O3 0.374364 0.978218 0.428978
O O4 0.076166 0.843556 0.159782
O O5 0.205127 0.502448 0.252339
O O6 0.128627 0.452909 0.314355
O O7 0.172977 0.948043 0.948766
O O8 0.460946 0.440452 0.683545
O O9 0.604976 0.241992 0.548814
O O10 0.349001 0.851797 0.157180
O O11 0.262592 0.770518 0.757050
O O12 0.500000 0.000000 0.000000
O O13 0.560816 0.961277 0.185593
O O14 0.500000 0.500000 0.500000
O O15 0.946951 0.511193 0.332766
#
# Coordination Sequence:
#
# PCOD8029985 Si02
#       7
#     2   2   2   2   2   2   2
#     4  11  26  40  65 100 137 170 212 274 342 379
#     4  11  22  43  66 100 124 178 222 269 321 388
#     4  12  26  45  64 103 135 172 218 273 333 388
#     4  12  23  42  71 100 125 179 220 270 329 380
#     4  12  23  43  72  95 132 167 233 270 311 401
#     4  11  21  41  68  95 128 174 220 265 325 391
#     4  11  22  42  69  95 132 165 229 267 318 400
#
# _framework density 23.954066999999998
#
# number of rings (size 3 to 8) (size 9 to 14) (size 15 to 20)
#    0.000    0.571    5.714    4.714    2.000    1.143 
#    5.143    0.714    0.000    0.000    0.000    0.000 
#    0.000    0.000    0.000    0.000    0.000    0.000 
#
# Total GULP energy -173628.048932 kJ/mol
# GULP energy per Si atom -12402.003495 kJ/mol
# Density = 2.389955 g / cm^3
# Si number density = 23.954067 Si / 1000 Ang^3
#
#
#
# Elastic Constant Matrix: (Units=GPa)
#
#
# Indices 1 2 3 4 5 6 
#
# 1 74.9960 3.2008 24.0911 -0.7100 10.0240 -9.0018
# 2 3.2008 81.7403 19.9674 -17.6805 1.7202 -19.0675
# 3 24.0911 19.9674 134.5749 -10.7280 19.7350 -23.1139
# 4 -0.7100 -17.6805 -10.7280 27.9569 -10.0895 6.1066
# 5 10.0240 1.7202 19.7350 -10.0895 59.3155 -1.1470
# 6 -9.0018 -19.0675 -23.1139 6.1066 -1.1470 38.0474
#
#
#
# Elastic Compliance Matrix: (Units=1/GPa)
#
#
# Indices 1 2 3 4 5 6 
#
# 1 0.014531 0.000220 -0.002034 -0.001540 -0.001999 0.002499
# 2 0.000220 0.015716 -0.000835 0.008808 0.001400 0.006049
# 3 -0.002034 -0.000835 0.009110 0.001094 -0.002392 0.004387
# 4 -0.001540 0.008808 0.001094 0.044821 0.007221 -0.002261
# 5 -0.001999 0.001400 -0.002392 0.007221 0.019145 -0.001806
# 6 0.002499 0.006049 0.004387 -0.002261 -0.001806 0.032879
#
#
# Mechanical properties :
#
#
# Convention : Reuss Voigt Hill
#
# Bulk Modulus (GPa) = 29.36186 42.86996 36.11591
# Shear Modulus (GPa) = 32.71081 41.33410 37.02246
#
# Velocity S-wave (km/s) = 3.69936 4.15849 3.93563
# Velocity P-wave (km/s) = 5.52551 6.40257 5.98014
#
# Compressibility (1/GPa) = 0.03405779
#
# Stress axis : x y z
#
# Youngs Moduli (GPa) = 68.81995 63.62864 109.76424
#
# Poissons Ratio (x) = -0.01399 0.22329
# Poissons Ratio (y) = -0.01514 0.09170
# Poissons Ratio (z) = 0.14000 0.05316
#
# Static dielectric constant tensor:
#      x y z
#    x 5.248000 0.840580 0.067180 
#    y 0.840580 5.522040 -0.540560 
#    z 0.067180 -0.540560 4.871980 
# 
# 
# High freq. dielectric constant tensor:
#      x y z
#    x 1.980010 -0.004910 0.012410 
#    y -0.004910 1.899020 -0.012980 
#    z 0.012410 -0.012980 1.967120 
# 
# From -- ./inp_files/426029.got.cif
#   From: 2010.06.25/outbox.cif.g09.slc.cpg/sg2_214_cif.got.tgz:426029.got - 2010.06.27 13:26:56.
