data_PCOD8029035
_publ_section_title
;
Structure prediction by ZEFSAII (Michael W. Deem and Ramdas Pophale) SiO2 
 PCOD8029035
Probable space group: P -1
;
_chemical_formula_sum "Si O2"
_cell_formula_units_Z 16
_cell_length_a 12.063015
_cell_length_b 15.289998
_cell_length_c 9.621212
_cell_angle_alpha 36.915265
_cell_angle_beta 111.193070
_cell_angle_gamma 131.900322
_cell_volume 731.939539
_symmetry_space_group_name_H-M "P -1"
_symmetry_group_IT_number 2
_symmetry_cell_setting 'triclinic'
loop_
_space_group_symop_operation_xyz
x,y,z
-x,-y,-z
loop_
_atom_site_type_symbol
_atom_site_label
_atom_site_fract_x
_atom_site_fract_y
_atom_site_fract_z
Si Si1 0.982206 0.270987 0.855418
Si Si2 0.773367 0.834262 0.243204
Si Si3 0.759877 0.895315 0.584118
Si Si4 0.372914 0.289225 0.953120
Si Si5 0.099703 0.298803 0.160884
Si Si6 0.493618 0.291140 0.519127
Si Si7 0.225199 0.633559 0.320057
Si Si8 0.279116 0.518634 0.216677
O O1 0.823309 0.238469 0.847613
O O2 0.080633 0.409971 0.591683
O O3 0.097067 0.370446 0.916875
O O4 0.924347 0.057372 0.077214
O O5 0.761645 0.825833 0.082229
O O6 0.605195 0.754316 0.328911
O O7 0.801491 0.695039 0.487503
O O8 0.794629 0.761015 0.717186
O O9 0.621738 0.849605 0.481176
O O10 0.699865 0.854816 0.765689
O O11 0.917948 0.123080 0.351947
O O12 0.403864 0.481644 0.766108
O O13 0.532472 0.340879 0.907546
O O14 0.186378 0.478692 0.081236
O O15 0.614358 0.259784 0.651113
O O16 0.254068 0.625922 0.180137
#
# Coordination Sequence:
#
# PCOD8029035 Si02
#       8
#     2   2   2   2   2   2   2   2
#     4  11  26  43  61  89 126 170 203 245 311 372
#     4  11  20  40  63  94 122 154 207 261 304 355
#     4  11  22  36  61  98 125 159 198 259 312 358
#     4  11  21  35  62  99 123 154 202 261 310 352
#     4  11  22  40  59  90 131 160 201 249 311 368
#     4  11  19  40  62  90 125 158 205 254 305 358
#     4  11  25  43  64  89 123 166 209 249 305 369
#     4  11  22  39  65  94 125 156 205 260 307 354
#
# _framework density 21.859729000000002
#
# number of rings (size 3 to 8) (size 9 to 14) (size 15 to 20)
#    0.000    1.000    6.250    2.625    3.500    1.500 
#    0.000    0.000    0.000    1.500    0.000    0.000 
#    0.000    0.000    0.000    0.000    0.000    0.000 
#
# Total GULP energy -198480.646061 kJ/mol
# GULP energy per Si atom -12405.040379 kJ/mol
# Density = 2.180998 g / cm^3
# Si number density = 21.859729 Si / 1000 Ang^3
#
#
#
# Elastic Constant Matrix: (Units=GPa)
#
#
# Indices 1 2 3 4 5 6 
#
# 1 57.4387 24.3602 0.1671 12.3275 -1.9123 2.6144
# 2 24.3602 122.1432 16.7672 32.2268 -6.8136 9.8157
# 3 0.1671 16.7672 43.2231 8.2471 -15.0360 -10.5461
# 4 12.3275 32.2268 8.2471 28.9720 -5.3271 2.4624
# 5 -1.9123 -6.8136 -15.0360 -5.3271 26.0050 14.3190
# 6 2.6144 9.8157 -10.5461 2.4624 14.3190 24.4685
#
#
#
# Elastic Compliance Matrix: (Units=1/GPa)
#
#
# Indices 1 2 3 4 5 6 
#
# 1 0.019850 -0.002661 0.002434 -0.006022 0.000893 0.000079
# 2 -0.002661 0.012819 -0.003628 -0.011048 0.002547 -0.006800
# 3 0.002434 -0.003628 0.031582 -0.004470 0.012058 0.008201
# 4 -0.006022 -0.011048 -0.004470 0.052935 0.009031 -0.007463
# 5 0.000893 0.002547 0.012058 0.009031 0.068257 -0.036773
# 6 0.000079 -0.006800 0.008201 -0.007463 -0.036773 0.069394
#
#
# Mechanical properties :
#
#
# Convention : Reuss Voigt Hill
#
# Bulk Modulus (GPa) = 17.68570 33.93266 25.80918
# Shear Modulus (GPa) = 17.76866 27.98979 22.87923
#
# Velocity S-wave (km/s) = 2.85414 3.58219 3.23869
# Velocity P-wave (km/s) = 4.35541 5.71542 5.08112
#
# Compressibility (1/GPa) = 0.05654286
#
# Stress axis : x y z
#
# Youngs Moduli (GPa) = 50.37843 78.00656 31.66333
#
# Poissons Ratio (x) = 0.20755 -0.07708
# Poissons Ratio (y) = 0.13404 0.11487
# Poissons Ratio (z) = -0.12264 0.28300
#
# Static dielectric constant tensor:
#      x y z
#    x 3.848660 0.105190 -0.181990 
#    y 0.105190 3.904340 0.252490 
#    z -0.181990 0.252490 3.778330 
# 
# 
# High freq. dielectric constant tensor:
#      x y z
#    x 1.848360 0.014560 -0.025060 
#    y 0.014560 1.861830 0.020700 
#    z -0.025060 0.020700 1.840990 
# 
# From -- ./inp_files/175345.got.cif
#   From: 2010.06.25/outbox.cif.g09.slc.cpg/sg2_88_cif.got.tgz:175345.got - 2010.06.27 13:26:56.
