data_PCOD8029532
_publ_section_title
;
Structure prediction by ZEFSAII (Michael W. Deem and Ramdas Pophale) SiO2 
 PCOD8029532
Probable space group: P -1
;
_chemical_formula_sum "Si O2"
_cell_formula_units_Z 16
_cell_length_a 18.955501
_cell_length_b 6.693469
_cell_length_c 16.410802
_cell_angle_alpha 113.267252
_cell_angle_beta 22.283914
_cell_angle_gamma 111.569185
_cell_volume 725.325949
_symmetry_space_group_name_H-M "P -1"
_symmetry_group_IT_number 2
_symmetry_cell_setting 'triclinic'
loop_
_space_group_symop_operation_xyz
x,y,z
-x,-y,-z
loop_
_atom_site_type_symbol
_atom_site_label
_atom_site_fract_x
_atom_site_fract_y
_atom_site_fract_z
Si Si1 0.649903 0.667302 0.395425
Si Si2 0.219414 0.038345 0.094355
Si Si3 0.099280 0.509830 0.310042
Si Si4 0.698064 0.063989 0.828245
Si Si5 0.428083 0.090212 0.724092
Si Si6 0.110660 0.230464 0.549957
Si Si7 0.276631 0.531761 0.543013
Si Si8 0.918530 0.802575 0.003510
O O1 0.500000 0.500000 0.500000
O O2 0.717972 0.603370 0.401464
O O3 0.821806 0.642969 0.146149
O O4 0.565865 0.909261 0.511387
O O5 0.284816 0.037824 0.117360
O O6 0.051964 0.864310 0.232641
O O7 0.163959 0.281340 0.171229
O O8 0.382546 0.994636 0.847753
O O9 0.273002 0.677211 0.156914
O O10 0.000000 0.500000 0.500000
O O11 0.955930 0.579191 0.406060
O O12 0.839049 0.968268 0.595541
O O13 0.500000 0.000000 0.000000
O O14 0.540107 0.319507 0.641972
O O15 0.234140 0.115732 0.886258
O O16 0.274082 0.340042 0.446421
O O17 0.088153 0.673582 0.759097
O O18 0.000000 0.000000 0.000000
#
# Coordination Sequence:
#
# PCOD8029532 Si02
#       8
#     2   2   2   2   2   2   2   2
#     4  12  26  48  77  99 143 184 230 287 350 419
#     4  11  25  44  69  98 136 181 228 284 342 400
#     4  11  20  44  69  89 128 183 230 276 335 398
#     4  11  25  42  65  99 137 180 229 278 337 409
#     4  12  28  47  69 110 145 177 235 292 342 420
#     4  11  25  43  68 100 135 178 235 278 339 410
#     4  12  28  46  71 109 142 182 232 290 347 417
#     4  12  25  50  76 102 140 186 232 283 354 417
#
# _framework density 22.059048000000001
#
# number of rings (size 3 to 8) (size 9 to 14) (size 15 to 20)
#    0.000    0.500    5.000    3.000    7.000    3.500 
#    0.000    0.000    0.000    0.000    0.000    0.000 
#    0.000    0.000    0.000    0.000    0.000    0.000 
#
# Total GULP energy -198374.414908 kJ/mol
# GULP energy per Si atom -12398.400932 kJ/mol
# Density = 2.200884 g / cm^3
# Si number density = 22.059048 Si / 1000 Ang^3
#
#
#
# Elastic Constant Matrix: (Units=GPa)
#
#
# Indices 1 2 3 4 5 6 
#
# 1 117.5858 37.5490 34.1927 -16.9496 -7.4167 9.9545
# 2 37.5490 87.8542 10.1322 -9.5319 -5.5917 -1.0444
# 3 34.1927 10.1322 83.4274 -17.6155 0.8447 -7.5211
# 4 -16.9496 -9.5319 -17.6155 41.4968 -3.9513 -1.3549
# 5 -7.4167 -5.5917 0.8447 -3.9513 42.0037 -5.1056
# 6 9.9545 -1.0444 -7.5211 -1.3549 -5.1056 40.6567
#
#
#
# Elastic Compliance Matrix: (Units=1/GPa)
#
#
# Indices 1 2 3 4 5 6 
#
# 1 0.011775 -0.004280 -0.004204 0.002056 0.001358 -0.003532
# 2 -0.004280 0.013443 0.000646 0.001805 0.001403 0.001749
# 3 -0.004204 0.000646 0.015035 0.004943 -0.000009 0.003991
# 4 0.002056 0.001805 0.004943 0.027828 0.003341 0.001804
# 5 0.001358 0.001403 -0.000009 0.003341 0.024906 0.002941
# 6 -0.003532 0.001749 0.003991 0.001804 0.002941 0.026674
#
#
# Mechanical properties :
#
#
# Convention : Reuss Voigt Hill
#
# Bulk Modulus (GPa) = 40.68992 50.29059 45.49026
# Shear Modulus (GPa) = 34.83638 38.63101 36.73369
#
# Velocity S-wave (km/s) = 3.97827 4.18934 4.08517
# Velocity P-wave (km/s) = 6.29191 6.80062 6.55120
#
# Compressibility (1/GPa) = 0.02457611
#
# Stress axis : x y z
#
# Youngs Moduli (GPa) = 84.92805 74.38678 66.51325
#
# Poissons Ratio (x) = 0.31839 0.27963
# Poissons Ratio (y) = 0.36351 -0.04297
# Poissons Ratio (z) = 0.35705 -0.04806
#
# Static dielectric constant tensor:
#      x y z
#    x 4.183380 -0.277750 -0.066030 
#    y -0.277750 4.296300 -0.062560 
#    z -0.066030 -0.062560 3.922040 
# 
# 
# High freq. dielectric constant tensor:
#      x y z
#    x 1.880210 0.002260 0.006300 
#    y 0.002260 1.879630 -0.010140 
#    z 0.006300 -0.010140 1.869070 
# 
# From -- ./inp_files/53240.got.cif
#   From: 2010.06.25/outbox.cif.g09.slc.cpg/sg2_27_cif.got.tgz:53240.got - 2010.06.27 13:26:56.
