data_PCOD8029162
_publ_section_title
;
Structure prediction by ZEFSAII (Michael W. Deem and Ramdas Pophale) SiO2 
 PCOD8029162
Probable space group: P -1
;
_chemical_formula_sum "Si O2"
_cell_formula_units_Z 12
_cell_length_a 7.966653
_cell_length_b 10.029953
_cell_length_c 13.913808
_cell_angle_alpha 45.899426
_cell_angle_beta 116.119321
_cell_angle_gamma 138.942164
_cell_volume 515.915083
_symmetry_space_group_name_H-M "P -1"
_symmetry_group_IT_number 2
_symmetry_cell_setting 'triclinic'
loop_
_space_group_symop_operation_xyz
x,y,z
-x,-y,-z
loop_
_atom_site_type_symbol
_atom_site_label
_atom_site_fract_x
_atom_site_fract_y
_atom_site_fract_z
Si Si1 0.956137 0.918897 0.664969
Si Si2 0.575892 0.998382 0.241529
Si Si3 0.737808 0.536900 0.509701
Si Si4 0.859462 0.077978 0.098717
Si Si5 0.612891 0.534486 0.272728
Si Si6 0.663222 0.452211 0.115315
O O1 0.692294 0.672190 0.672470
O O2 0.194419 0.955089 0.667475
O O3 0.939710 0.877508 0.797069
O O4 0.009551 0.176921 0.530263
O O5 0.648262 0.056154 0.116359
O O6 0.540879 0.177559 0.184308
O O7 0.303918 0.697819 0.339097
O O8 0.500000 0.500000 0.500000
O O9 0.757412 0.539684 0.396674
O O10 0.710094 0.811471 0.138247
O O11 0.030195 0.321177 0.948276
O O12 0.651951 0.442953 0.232266
O O13 0.500000 0.500000 0.000000
#
# Coordination Sequence:
#
# PCOD8029162 Si02
#       6
#     2   2   2   2   2   2
#     4   8  18  36  62  86 112 147 193 232 286 339
#     4   9  20  39  59  85 120 150 190 244 280 336
#     4   9  18  38  62  85 119 143 194 244 282 341
#     4   9  20  39  59  84 115 156 192 236 276 347
#     4  11  20  36  66  87 113 156 188 234 303 333
#     4  12  22  38  60  84 123 155 189 240 288 339
#
# _framework density 23.259641999999999
#
# number of rings (size 3 to 8) (size 9 to 14) (size 15 to 20)
#    1.000    1.333    3.333    1.000    0.000    3.333 
#    0.000    5.833    0.000    0.000    0.000    0.000 
#    0.000    0.000    0.000    0.000    0.000    0.000 
#
# Total GULP energy -148673.001406 kJ/mol
# GULP energy per Si atom -12389.416784 kJ/mol
# Density = 2.320670 g / cm^3
# Si number density = 23.259642 Si / 1000 Ang^3
#
#
#
# Elastic Constant Matrix: (Units=GPa)
#
#
# Indices 1 2 3 4 5 6 
#
# 1 45.8848 19.2912 27.2873 -3.0809 4.6885 -28.9847
# 2 19.2912 67.1007 22.3276 -22.7853 13.8551 -16.8144
# 3 27.2873 22.3276 96.2864 -24.6320 -1.4032 -16.5201
# 4 -3.0809 -22.7853 -24.6320 50.8124 -17.3103 -4.6477
# 5 4.6885 13.8551 -1.4032 -17.3103 24.1916 -5.1661
# 6 -28.9847 -16.8144 -16.5201 -4.6477 -5.1661 42.8336
#
#
#
# Elastic Compliance Matrix: (Units=1/GPa)
#
#
# Indices 1 2 3 4 5 6 
#
# 1 0.043683 -0.003775 -0.007635 -0.001306 -0.002407 0.024701
# 2 -0.003775 0.021378 -0.000987 0.007772 -0.004786 0.005723
# 3 -0.007635 -0.000987 0.016490 0.011484 0.011966 0.003495
# 4 -0.001306 0.007772 0.011484 0.039384 0.027684 0.014209
# 5 -0.002407 -0.004786 0.011966 0.027684 0.067668 0.012273
# 6 0.024701 0.005723 0.003495 0.014209 0.012273 0.046677
#
#
# Mechanical properties :
#
#
# Convention : Reuss Voigt Hill
#
# Bulk Modulus (GPa) = 17.61922 38.56491 28.09206
# Shear Modulus (GPa) = 17.92151 32.92525 25.42338
#
# Velocity S-wave (km/s) = 2.77880 3.76646 3.30968
# Velocity P-wave (km/s) = 4.22931 5.96080 5.16809
#
# Compressibility (1/GPa) = 0.05675620
#
# Stress axis : x y z
#
# Youngs Moduli (GPa) = 22.89239 46.77671 60.64125
#
# Poissons Ratio (x) = 0.17658 0.46302
# Poissons Ratio (y) = 0.08642 0.05986
# Poissons Ratio (z) = 0.17479 0.04618
#
# Static dielectric constant tensor:
#      x y z
#    x 3.653080 -0.085120 -0.425240 
#    y -0.085120 4.071970 -0.330180 
#    z -0.425240 -0.330180 4.500870 
# 
# 
# High freq. dielectric constant tensor:
#      x y z
#    x 1.873980 -0.015320 -0.031700 
#    y -0.015320 1.919260 -0.022010 
#    z -0.031700 -0.022010 1.917350 
# 
# From -- ./inp_files/490449.got.cif
#   From: 2010.06.25/outbox.cif.g09.slc.cpg/sg2_246_cif.got.tgz:490449.got - 2010.06.27 13:26:56.
