data_PCOD8029671
_publ_section_title
;
Structure prediction by ZEFSAII (Michael W. Deem and Ramdas Pophale) SiO2 
 PCOD8029671
Probable space group: P -1
;
_chemical_formula_sum "Si O2"
_cell_formula_units_Z 14
_cell_length_a 14.504922
_cell_length_b 14.527929
_cell_length_c 12.694026
_cell_angle_alpha 63.469198
_cell_angle_beta 106.332440
_cell_angle_gamma 160.779164
_cell_volume 692.374625
_symmetry_space_group_name_H-M "P -1"
_symmetry_group_IT_number 2
_symmetry_cell_setting 'triclinic'
loop_
_space_group_symop_operation_xyz
x,y,z
-x,-y,-z
loop_
_atom_site_type_symbol
_atom_site_label
_atom_site_fract_x
_atom_site_fract_y
_atom_site_fract_z
Si Si1 0.681509 0.871923 0.338606
Si Si2 0.665029 0.539904 0.763007
Si Si3 0.464451 0.345848 0.034586
Si Si4 0.133361 0.433083 0.445512
Si Si5 0.509262 0.125643 0.474650
Si Si6 0.718915 0.820660 0.601251
Si Si7 0.760810 0.566319 0.209258
O O1 0.603496 0.737365 0.271757
O O2 0.475501 0.769260 0.323441
O O3 0.598324 0.723405 0.493986
O O4 0.067856 0.277925 0.257338
O O5 0.840861 0.828634 0.651763
O O6 0.507765 0.371540 0.912078
O O7 0.725838 0.550349 0.081218
O O8 0.500000 0.500000 0.000000
O O9 0.127460 0.952986 0.160774
O O10 0.207660 0.567727 0.508578
O O11 0.836203 0.193549 0.422338
O O12 0.013995 0.193643 0.541154
O O13 0.606106 0.296544 0.320403
O O14 0.500000 0.000000 0.500000
O O15 0.423924 0.535879 0.730896
#
# Coordination Sequence:
#
# PCOD8029671 Si02
#       7
#     2   2   2   2   2   2   2
#     4  12  23  38  55  88 123 167 205 258 294 350
#     4  12  26  34  57  84 124 173 223 231 277 367
#     4  12  25  40  57  85 124 180 208 238 284 355
#     4  11  21  38  58  90 127 150 185 254 333 350
#     4  11  23  40  67  97 120 149 198 260 335 379
#     4  11  23  36  60  85 128 163 205 254 304 349
#     4  11  23  40  62  84 127 157 201 253 307 358
#
# _framework density 20.220267
#
# number of rings (size 3 to 8) (size 9 to 14) (size 15 to 20)
#    0.000    0.571    5.714    4.286    4.000    0.000 
#    0.000    0.000    0.000    0.000    0.000   20.000 
#    0.000    0.000    0.000    0.000    0.000    0.000 
#
# Total GULP energy -173440.986014 kJ/mol
# GULP energy per Si atom -12388.641858 kJ/mol
# Density = 2.017424 g / cm^3
# Si number density = 20.220267 Si / 1000 Ang^3
#
#
#
# Elastic Constant Matrix: (Units=GPa)
#
#
# Indices 1 2 3 4 5 6 
#
# 1 71.3297 20.7323 22.8492 -8.0382 6.4398 3.2213
# 2 20.7323 111.6793 23.8801 5.9268 -1.6395 -0.9328
# 3 22.8492 23.8801 76.8133 12.5535 -14.4138 -6.4337
# 4 -8.0382 5.9268 12.5535 30.2828 -3.4214 -13.5629
# 5 6.4398 -1.6395 -14.4138 -3.4214 29.2522 -4.1548
# 6 3.2213 -0.9328 -6.4337 -13.5629 -4.1548 35.3314
#
#
#
# Elastic Compliance Matrix: (Units=1/GPa)
#
#
# Indices 1 2 3 4 5 6 
#
# 1 0.018588 -0.002358 -0.007415 0.007103 -0.007222 -0.001230
# 2 -0.002358 0.009957 -0.002188 -0.002040 -0.000345 -0.000744
# 3 -0.007415 -0.002188 0.019272 -0.007167 0.010539 0.002616
# 4 0.007103 -0.002040 -0.007167 0.045613 0.002367 0.015782
# 5 -0.007222 -0.000345 0.010539 0.002367 0.042429 0.008467
# 6 -0.001230 -0.000744 0.002616 0.015782 0.008467 0.035926
#
#
# Mechanical properties :
#
#
# Convention : Reuss Voigt Hill
#
# Bulk Modulus (GPa) = 41.84914 43.86062 42.85488
# Shear Modulus (GPa) = 24.54920 31.79731 28.17326
#
# Velocity S-wave (km/s) = 3.48816 3.96984 3.73677
# Velocity P-wave (km/s) = 6.07985 6.53845 6.31331
#
# Compressibility (1/GPa) = 0.02389535
#
# Stress axis : x y z
#
# Youngs Moduli (GPa) = 53.79780 100.43414 51.88755
#
# Poissons Ratio (x) = 0.23687 0.38475
# Poissons Ratio (y) = 0.12688 0.11350
# Poissons Ratio (z) = 0.39891 0.21970
#
# Static dielectric constant tensor:
#      x y z
#    x 3.613630 0.137330 -0.305620 
#    y 0.137330 3.911990 0.139860 
#    z -0.305620 0.139860 3.527120 
# 
# 
# High freq. dielectric constant tensor:
#      x y z
#    x 1.764220 0.012030 -0.034090 
#    y 0.012030 1.821050 0.012840 
#    z -0.034090 0.012840 1.751670 
# 
# From -- ./inp_files/454697.got.cif
#   From: 2010.06.25/outbox.cif.g09.slc.cpg/sg2_228_cif.got.tgz:454697.got - 2010.06.27 13:26:56.
