data_PCOD8029397
_publ_section_title
;
Structure prediction by ZEFSAII (Michael W. Deem and Ramdas Pophale) SiO2 
 PCOD8029397
Probable space group: P -1
;
_chemical_formula_sum "Si O2"
_cell_formula_units_Z 16
_cell_length_a 9.291502
_cell_length_b 11.345030
_cell_length_c 18.996956
_cell_angle_alpha 128.302974
_cell_angle_beta 150.462361
_cell_angle_gamma 62.215098
_cell_volume 760.763967
_symmetry_space_group_name_H-M "P -1"
_symmetry_group_IT_number 2
_symmetry_cell_setting 'triclinic'
loop_
_space_group_symop_operation_xyz
x,y,z
-x,-y,-z
loop_
_atom_site_type_symbol
_atom_site_label
_atom_site_fract_x
_atom_site_fract_y
_atom_site_fract_z
Si Si1 0.831497 0.037721 0.234509
Si Si2 0.820024 0.297020 0.947036
Si Si3 0.925518 0.419983 0.750988
Si Si4 0.678418 0.704328 0.497304
Si Si5 0.296597 0.188800 0.032119
Si Si6 0.463396 0.467559 0.763612
Si Si7 0.433260 0.232445 0.890961
Si Si8 0.057282 0.586582 0.733114
O O1 0.600482 0.154122 0.181260
O O2 0.166022 0.136561 0.413985
O O3 0.767517 0.931593 0.236895
O O4 0.809492 0.931416 0.118077
O O5 0.656379 0.343732 0.824981
O O6 0.582454 0.217216 0.873519
O O7 0.026174 0.449936 0.121070
O O8 0.030671 0.176478 0.971642
O O9 0.651020 0.289311 0.610757
O O10 0.229125 0.359356 0.847392
O O11 0.854205 0.496311 0.675003
O O12 0.656844 0.571323 0.380658
O O13 0.869542 0.673135 0.634033
O O14 0.346626 0.360980 0.087777
O O15 0.189792 0.460979 0.698493
O O16 0.684809 0.282244 0.075765
#
# Coordination Sequence:
#
# PCOD8029397 Si02
#       8
#     2   2   2   2   2   2   2   2
#     4  11  24  42  61  92 131 178 203 255 318 388
#     4  11  22  40  69  99 119 167 221 270 304 369
#     4  11  22  41  67 100 126 164 213 268 318 369
#     4  12  26  38  64 100 134 162 205 266 330 370
#     4  11  22  41  67  92 127 165 224 255 310 379
#     4  12  21  40  68  98 123 158 217 273 310 364
#     4  11  22  43  68  89 131 171 218 253 311 383
#     4  11  20  41  67  94 128 163 209 269 317 367
#
# _framework density 21.031490999999999
#
# number of rings (size 3 to 8) (size 9 to 14) (size 15 to 20)
#    0.000    0.750    6.250    2.625    1.750    1.000 
#    0.000    1.875    0.000    0.000    0.000    0.000 
#    0.000    0.000    0.000    0.000    0.000    0.000 
#
# Total GULP energy -198418.715375 kJ/mol
# GULP energy per Si atom -12401.169711 kJ/mol
# Density = 2.098362 g / cm^3
# Si number density = 21.031491 Si / 1000 Ang^3
#
#
#
# Elastic Constant Matrix: (Units=GPa)
#
#
# Indices 1 2 3 4 5 6 
#
# 1 123.3417 59.2095 47.6874 5.9783 19.1998 -0.2732
# 2 59.2095 68.5713 32.6340 4.7498 7.6095 1.6281
# 3 47.6874 32.6340 81.2529 1.8809 12.8295 9.6050
# 4 5.9783 4.7498 1.8809 26.5237 11.7013 4.2537
# 5 19.1998 7.6095 12.8295 11.7013 38.8809 1.2395
# 6 -0.2732 1.6281 9.6050 4.2537 1.2395 39.5631
#
#
#
# Elastic Compliance Matrix: (Units=1/GPa)
#
#
# Indices 1 2 3 4 5 6 
#
# 1 0.015804 -0.011180 -0.004306 0.000399 -0.004370 0.001709
# 2 -0.011180 0.026212 -0.004346 -0.003105 0.002755 0.000147
# 3 -0.004306 -0.004346 0.017580 0.002742 -0.003512 -0.004304
# 4 0.000399 -0.003105 0.002742 0.044870 -0.013841 -0.004926
# 5 -0.004370 0.002755 -0.003512 -0.013841 0.032625 0.001175
# 6 0.001709 0.000147 -0.004304 -0.004926 0.001175 0.026819
#
#
# Mechanical properties :
#
#
# Convention : Reuss Voigt Hill
#
# Bulk Modulus (GPa) = 50.17563 61.35865 55.76714
# Shear Modulus (GPa) = 23.78472 29.90254 26.84363
#
# Velocity S-wave (km/s) = 3.36655 3.77476 3.57649
# Velocity P-wave (km/s) = 6.24666 6.94525 6.60519
#
# Compressibility (1/GPa) = 0.01992999
#
# Stress axis : x y z
#
# Youngs Moduli (GPa) = 63.27408 38.15108 56.88282
#
# Poissons Ratio (x) = 0.42654 0.24496
# Poissons Ratio (y) = 0.70743 0.24722
# Poissons Ratio (z) = 0.27248 0.16581
#
# Static dielectric constant tensor:
#      x y z
#    x 4.114110 0.015150 0.124210 
#    y 0.015150 3.638680 -0.064660 
#    z 0.124210 -0.064660 3.654500 
# 
# 
# High freq. dielectric constant tensor:
#      x y z
#    x 1.845550 0.002140 0.008250 
#    y 0.002140 1.804870 -0.008530 
#    z 0.008250 -0.008530 1.806280 
# 
# From -- ./inp_files/278962.got.cif
#   From: 2010.06.25/outbox.cif.g09.slc.cpg/sg2_140_cif.got.tgz:278962.got - 2010.06.27 13:26:56.
