data_PCOD8029845
_publ_section_title
;
Structure prediction by ZEFSAII (Michael W. Deem and Ramdas Pophale) SiO2 
 PCOD8029845
Probable space group: P -1
;
_chemical_formula_sum "Si O2"
_cell_formula_units_Z 16
_cell_length_a 9.483574
_cell_length_b 14.876517
_cell_length_c 8.209450
_cell_angle_alpha 67.611940
_cell_angle_beta 113.408192
_cell_angle_gamma 132.895566
_cell_volume 768.083565
_symmetry_space_group_name_H-M "P -1"
_symmetry_group_IT_number 2
_symmetry_cell_setting 'triclinic'
loop_
_space_group_symop_operation_xyz
x,y,z
-x,-y,-z
loop_
_atom_site_type_symbol
_atom_site_label
_atom_site_fract_x
_atom_site_fract_y
_atom_site_fract_z
Si Si1 0.271686 0.094194 0.714870
Si Si2 0.716546 0.506810 0.446772
Si Si3 0.709023 0.111094 0.577897
Si Si4 0.012602 0.867631 0.534947
Si Si5 0.712289 0.288216 0.680587
Si Si6 0.728698 0.619919 0.716062
Si Si7 0.090902 0.932824 0.039517
Si Si8 0.908409 0.660668 0.097421
O O1 0.502858 0.208496 0.731891
O O2 0.146343 0.143952 0.651912
O O3 0.179669 0.010682 0.566554
O O4 0.234282 0.003323 0.903063
O O5 0.774764 0.417998 0.556221
O O6 0.764566 0.574820 0.596363
O O7 0.489146 0.424915 0.352121
O O8 0.832581 0.596315 0.284310
O O9 0.876050 0.176858 0.470981
O O10 0.698724 0.215375 0.567198
O O11 0.762600 0.047305 0.771036
O O12 0.500000 0.000000 0.500000
O O13 0.884724 0.770692 0.689052
O O14 0.881487 0.309399 0.859984
O O15 0.768862 0.578291 0.934636
O O16 0.927836 0.785522 0.030917
O O17 0.000000 0.000000 0.000000
#
# Coordination Sequence:
#
# PCOD8029845 Si02
#       8
#     2   2   2   2   2   2   2   2
#     4  11  22  39  69  95 132 172 217 268 336 406
#     4  11  25  45  69  95 135 182 231 275 329 401
#     4  11  23  39  63  99 135 172 214 270 342 398
#     4  11  21  40  66  95 130 173 216 270 333 404
#     4  11  24  43  68  99 138 173 220 278 341 399
#     4  11  23  43  70  97 129 179 233 274 331 396
#     4  11  23  39  64  97 135 171 217 273 334 399
#     4  11  25  43  66 100 138 175 225 281 336 396
#
# _framework density 20.831067000000001
#
# number of rings (size 3 to 8) (size 9 to 14) (size 15 to 20)
#    0.000    1.000    5.000    2.250    0.000    4.500 
#    0.000    1.250    0.000    0.000    0.000    0.000 
#    0.000    0.000    0.000    0.000    0.000    0.000 
#
# Total GULP energy -198294.918865 kJ/mol
# GULP energy per Si atom -12393.432429 kJ/mol
# Density = 2.078365 g / cm^3
# Si number density = 20.831067 Si / 1000 Ang^3
#
#
#
# Elastic Constant Matrix: (Units=GPa)
#
#
# Indices 1 2 3 4 5 6 
#
# 1 109.8527 43.3669 33.9705 -0.1487 8.4922 3.0854
# 2 43.3669 84.4442 42.3580 -8.7359 5.4938 -1.4020
# 3 33.9705 42.3580 113.3636 6.3851 -2.4197 -1.9756
# 4 -0.1487 -8.7359 6.3851 43.8184 6.8648 4.4242
# 5 8.4922 5.4938 -2.4197 6.8648 30.6786 -7.5933
# 6 3.0854 -1.4020 -1.9756 4.4242 -7.5933 33.4331
#
#
#
# Elastic Compliance Matrix: (Units=1/GPa)
#
#
# Indices 1 2 3 4 5 6 
#
# 1 0.011958 -0.005084 -0.001785 -0.000020 -0.003059 -0.002114
# 2 -0.005084 0.017975 -0.005558 0.004982 -0.003503 -0.000560
# 3 -0.001785 -0.005558 0.011749 -0.003602 0.003703 0.001944
# 4 -0.000020 0.004982 -0.003602 0.026191 -0.008360 -0.005367
# 5 -0.003059 -0.003503 0.003703 -0.008360 0.038774 0.010267
# 6 -0.002114 -0.000560 0.001944 -0.005367 0.010267 0.033239
#
#
# Mechanical properties :
#
#
# Convention : Reuss Voigt Hill
#
# Bulk Modulus (GPa) = 59.42451 60.78346 60.10399
# Shear Modulus (GPa) = 29.35170 34.11703 31.73437
#
# Velocity S-wave (km/s) = 3.75778 4.05136 3.90733
# Velocity P-wave (km/s) = 6.88598 7.15033 7.01940
#
# Compressibility (1/GPa) = 0.01682807
#
# Stress axis : x y z
#
# Youngs Moduli (GPa) = 83.62705 55.63297 85.11717
#
# Poissons Ratio (x) = 0.28284 0.15191
# Poissons Ratio (y) = 0.42516 0.47308
# Poissons Ratio (z) = 0.14925 0.30921
#
# Static dielectric constant tensor:
#      x y z
#    x 3.893830 0.031950 0.034250 
#    y 0.031950 4.140550 -0.172080 
#    z 0.034250 -0.172080 3.946180 
# 
# 
# High freq. dielectric constant tensor:
#      x y z
#    x 1.821680 0.006980 0.002820 
#    y 0.006980 1.815430 -0.001510 
#    z 0.002820 -0.001510 1.815440 
# 
# From -- ./inp_files/206475.got.cif
#   From: 2010.06.25/outbox.cif.g09.slc.cpg/sg2_104_cif.got.tgz:206475.got - 2010.06.27 13:26:56.
