data_PCOD8029971
_publ_section_title
;
Structure prediction by ZEFSAII (Michael W. Deem and Ramdas Pophale) SiO2 
 PCOD8029971
Probable space group: P -1
;
_chemical_formula_sum "Si O2"
_cell_formula_units_Z 14
_cell_length_a 9.363930
_cell_length_b 15.667913
_cell_length_c 12.772399
_cell_angle_alpha 46.009902
_cell_angle_beta 29.710068
_cell_angle_gamma 59.387999
_cell_volume 644.532042
_symmetry_space_group_name_H-M "P -1"
_symmetry_group_IT_number 2
_symmetry_cell_setting 'triclinic'
loop_
_space_group_symop_operation_xyz
x,y,z
-x,-y,-z
loop_
_atom_site_type_symbol
_atom_site_label
_atom_site_fract_x
_atom_site_fract_y
_atom_site_fract_z
Si Si1 0.933315 0.865998 0.702668
Si Si2 0.177731 0.318608 0.249677
Si Si3 0.400546 0.818699 0.792095
Si Si4 0.330738 0.499490 0.822554
Si Si5 0.506918 0.919049 0.415118
Si Si6 0.449542 0.698366 0.273664
Si Si7 0.718357 0.744022 0.291281
O O1 0.980490 0.778210 0.655085
O O2 0.161615 0.860704 0.654877
O O3 0.601686 0.817922 0.003942
O O4 0.000000 0.000000 0.500000
O O5 0.426944 0.274854 0.191773
O O6 0.908623 0.330689 0.486462
O O7 0.332563 0.447184 0.983904
O O8 0.558969 0.872359 0.537231
O O9 0.418749 0.932669 0.762595
O O10 0.059353 0.742592 0.057808
O O11 0.448590 0.418764 0.731179
O O12 0.552003 0.635448 0.568156
O O13 0.000000 0.500000 0.000000
O O14 0.713625 0.873983 0.237138
O O15 0.542457 0.724737 0.311540
#
# Coordination Sequence:
#
# PCOD8029971 Si02
#       7
#     2   2   2   2   2   2   2
#     4  11  21  41  67  97 133 170 227 272 317 394
#     4  11  24  43  66 103 134 171 222 282 321 391
#     4  11  26  43  64  98 144 172 218 273 337 392
#     4  11  24  42  73 100 130 166 233 283 316 393
#     4  11  23  44  66  97 135 181 218 273 326 399
#     4  11  23  41  71 101 126 176 223 271 337 387
#     4  12  23  42  71  95 131 185 221 263 341 393
#
# _framework density 21.721184999999998
#
# number of rings (size 3 to 8) (size 9 to 14) (size 15 to 20)
#    0.000    0.857    5.714    1.714    0.000    3.429 
#    5.143    1.429    0.000    0.000    0.000    0.000 
#    0.000    0.000    0.000    0.000    0.000    0.000 
#
# Total GULP energy -173652.742597 kJ/mol
# GULP energy per Si atom -12403.767328 kJ/mol
# Density = 2.167175 g / cm^3
# Si number density = 21.721185 Si / 1000 Ang^3
#
#
#
# Elastic Constant Matrix: (Units=GPa)
#
#
# Indices 1 2 3 4 5 6 
#
# 1 77.0690 23.3718 14.5692 14.0323 -0.2685 -25.2804
# 2 23.3718 93.6433 37.1398 16.9897 5.3572 -16.1684
# 3 14.5692 37.1398 107.9425 13.5425 1.4571 -20.7506
# 4 14.0323 16.9897 13.5425 38.8578 -5.8861 -0.6722
# 5 -0.2685 5.3572 1.4571 -5.8861 34.9411 -0.9999
# 6 -25.2804 -16.1684 -20.7506 -0.6722 -0.9999 38.7913
#
#
#
# Elastic Compliance Matrix: (Units=1/GPa)
#
#
# Indices 1 2 3 4 5 6 
#
# 1 0.018230 -0.001909 0.001185 -0.006006 -0.000296 0.011607
# 2 -0.001909 0.013949 -0.003434 -0.004578 -0.002707 0.002583
# 3 0.001185 -0.003434 0.011730 -0.002963 -0.000294 0.005557
# 4 -0.006006 -0.004578 -0.002963 0.031720 0.005931 -0.006704
# 5 -0.000296 -0.002707 -0.000294 0.005931 0.030027 -0.000602
# 6 0.011607 0.002583 0.005557 -0.006704 -0.000602 0.037261
#
#
# Mechanical properties :
#
#
# Convention : Reuss Voigt Hill
#
# Bulk Modulus (GPa) = 28.09614 47.64626 37.87120
# Shear Modulus (GPa) = 30.65656 36.08963 33.37310
#
# Velocity S-wave (km/s) = 3.76089 4.08057 3.92399
# Velocity P-wave (km/s) = 5.64110 6.64713 6.16467
#
# Compressibility (1/GPa) = 0.03559207
#
# Stress axis : x y z
#
# Youngs Moduli (GPa) = 54.85398 71.69017 85.25369
#
# Poissons Ratio (x) = 0.13689 -0.10104
# Poissons Ratio (y) = 0.10474 0.29278
# Poissons Ratio (z) = -0.06501 0.24620
#
# Static dielectric constant tensor:
#      x y z
#    x 3.987030 -0.545800 0.325030 
#    y -0.545800 5.380760 -0.761260 
#    z 0.325030 -0.761260 4.432870 
# 
# 
# High freq. dielectric constant tensor:
#      x y z
#    x 1.843870 -0.002130 0.003500 
#    y -0.002130 1.855610 0.001730 
#    z 0.003500 0.001730 1.860820 
# 
# From -- ./inp_files/27812.got.cif
#   From: 2010.06.25/outbox.cif.g09.slc.cpg/sg2_14_cif.got.tgz:27812.got - 2010.06.27 13:26:56.
