data_PCOD8029469
_publ_section_title
;
Structure prediction by ZEFSAII (Michael W. Deem and Ramdas Pophale) SiO2 
 PCOD8029469
Probable space group: P -1
;
_chemical_formula_sum "Si O2"
_cell_formula_units_Z 16
_cell_length_a 9.693821
_cell_length_b 9.529251
_cell_length_c 11.538536
_cell_angle_alpha 76.747710
_cell_angle_beta 68.421700
_cell_angle_gamma 117.923000
_cell_volume 764.120114
_symmetry_space_group_name_H-M "P -1"
_symmetry_group_IT_number 2
_symmetry_cell_setting 'triclinic'
loop_
_space_group_symop_operation_xyz
x,y,z
-x,-y,-z
loop_
_atom_site_type_symbol
_atom_site_label
_atom_site_fract_x
_atom_site_fract_y
_atom_site_fract_z
Si Si1 0.588084 0.687583 0.874166
Si Si2 0.136616 0.708811 0.439879
Si Si3 0.273394 0.619593 0.824315
Si Si4 0.154400 0.043442 0.728707
Si Si5 0.156037 0.919147 0.177373
Si Si6 0.449928 0.815650 0.499092
Si Si7 0.907225 0.223085 0.023047
Si Si8 0.054330 0.171106 0.379490
O O1 0.433179 0.683746 0.855029
O O2 0.724489 0.701802 0.732698
O O3 0.698513 0.860874 0.895120
O O4 0.500000 0.500000 0.000000
O O5 0.196223 0.829607 0.283725
O O6 0.321416 0.763311 0.436703
O O7 0.000000 0.500000 0.500000
O O8 0.002744 0.722517 0.557521
O O9 0.346926 0.667287 0.660918
O O10 0.197975 0.729285 0.868322
O O11 0.121094 0.402070 0.914204
O O12 0.373903 0.175185 0.601749
O O13 0.058140 0.145413 0.738097
O O14 0.112669 0.947593 0.884187
O O15 0.051847 0.881588 0.698894
O O16 0.184400 0.847435 0.063011
O O17 0.500000 0.000000 0.500000
O O18 0.000000 0.000000 0.500000
#
# Coordination Sequence:
#
# PCOD8029469 Si02
#       8
#     2   2   2   2   2   2   2   2
#     4  11  24  41  68 102 130 173 233 275 334 403
#     4  12  25  43  66 104 137 176 221 282 341 391
#     4  11  23  42  67  97 129 176 225 277 329 402
#     4  11  22  41  71  94 123 178 230 266 329 397
#     4  11  25  44  67  95 141 180 216 279 344 397
#     4  12  22  41  70  97 126 171 231 272 322 399
#     4  11  24  43  66  92 138 178 216 271 343 405
#     4  11  20  42  71  92 132 180 221 273 331 398
#
# _framework density 20.939115999999999
#
# number of rings (size 3 to 8) (size 9 to 14) (size 15 to 20)
#    0.000    0.750    5.000    4.125    0.000    3.500 
#    4.500    1.250    0.000    0.000    0.000    0.000 
#    0.000    0.000    0.000    0.000    0.000    0.000 
#
# Total GULP energy -198377.051414 kJ/mol
# GULP energy per Si atom -12398.565713 kJ/mol
# Density = 2.089146 g / cm^3
# Si number density = 20.939116 Si / 1000 Ang^3
#
#
#
# Elastic Constant Matrix: (Units=GPa)
#
#
# Indices 1 2 3 4 5 6 
#
# 1 123.0254 22.7167 46.3806 -10.6095 4.0020 13.2142
# 2 22.7167 83.2496 29.0498 2.0805 0.6447 12.0157
# 3 46.3806 29.0498 140.4414 -11.6546 4.7404 4.3439
# 4 -10.6095 2.0805 -11.6546 30.3474 10.4198 3.7984
# 5 4.0020 0.6447 4.7404 10.4198 32.7572 1.3101
# 6 13.2142 12.0157 4.3439 3.7984 1.3101 29.5679
#
#
#
# Elastic Compliance Matrix: (Units=1/GPa)
#
#
# Indices 1 2 3 4 5 6 
#
# 1 0.010174 -0.001381 -0.002569 0.003819 -0.001898 -0.004015
# 2 -0.001381 0.013957 -0.002518 -0.002245 0.001151 -0.004447
# 3 -0.002569 -0.002518 0.008811 0.003267 -0.001973 0.000545
# 4 0.003819 -0.002245 0.003267 0.041162 -0.013750 -0.005953
# 5 -0.001898 0.001151 -0.001973 -0.013750 0.035361 0.000870
# 6 -0.004015 -0.004447 0.000545 -0.005953 0.000870 0.038068
#
#
# Mechanical properties :
#
#
# Convention : Reuss Voigt Hill
#
# Bulk Modulus (GPa) = 49.98896 60.33451 55.16174
# Shear Modulus (GPa) = 29.91525 35.10578 32.51051
#
# Velocity S-wave (km/s) = 3.78389 4.09903 3.94461
# Velocity P-wave (km/s) = 6.55864 7.16097 6.86641
#
# Compressibility (1/GPa) = 0.02000442
#
# Stress axis : x y z
#
# Youngs Moduli (GPa) = 98.28616 71.64977 113.49873
#
# Poissons Ratio (x) = 0.09895 0.29160
# Poissons Ratio (y) = 0.13574 0.28584
# Poissons Ratio (z) = 0.25252 0.18044
#
# Static dielectric constant tensor:
#      x y z
#    x 4.001370 0.055680 0.046320 
#    y 0.055680 4.702030 0.334000 
#    z 0.046320 0.334000 4.093660 
# 
# 
# High freq. dielectric constant tensor:
#      x y z
#    x 1.834390 0.001630 0.004670 
#    y 0.001630 1.809090 0.002890 
#    z 0.004670 0.002890 1.832270 
# 
# From -- ./inp_files/381664.got.cif
#   From: 2010.06.25/outbox.cif.g09.slc.cpg/sg2_191_cif.got.tgz:381664.got - 2010.06.27 13:26:56.
