data_PCOD8029315
_publ_section_title
;
Structure prediction by ZEFSAII (Michael W. Deem and Ramdas Pophale) SiO2 
 PCOD8029315
Probable space group: P -1
;
_chemical_formula_sum "Si O2"
_cell_formula_units_Z 12
_cell_length_a 9.664719
_cell_length_b 12.280245
_cell_length_c 5.054269
_cell_angle_alpha 118.821958
_cell_angle_beta 106.016026
_cell_angle_gamma 99.518963
_cell_volume 472.382456
_symmetry_space_group_name_H-M "P -1"
_symmetry_group_IT_number 2
_symmetry_cell_setting 'triclinic'
loop_
_space_group_symop_operation_xyz
x,y,z
-x,-y,-z
loop_
_atom_site_type_symbol
_atom_site_label
_atom_site_fract_x
_atom_site_fract_y
_atom_site_fract_z
Si Si1 0.707723 0.492256 0.735487
Si Si2 0.375808 0.784726 0.769742
Si Si3 0.817984 0.950144 0.864709
Si Si4 0.758312 0.652809 0.413854
Si Si5 0.946606 0.395068 0.578149
Si Si6 0.662239 0.003912 0.356315
O O1 0.580266 0.345985 0.436637
O O2 0.732638 0.589407 0.613768
O O3 0.871971 0.465647 0.852900
O O4 0.645155 0.552641 0.021813
O O5 0.204570 0.730452 0.744584
O O6 0.374596 0.866082 0.594260
O O7 0.500469 0.879679 0.148943
O O8 0.741479 0.794456 0.574167
O O9 0.747681 0.027314 0.710528
O O10 0.772013 0.973598 0.162173
O O11 0.000000 0.000000 0.000000
O O12 0.923363 0.669003 0.379002
O O13 0.000000 0.500000 0.500000
#
# Coordination Sequence:
#
# PCOD8029315 Si02
#       6
#     2   2   2   2   2   2
#     4   9  21  36  65  96 126 164 218 275 330 370
#     4   9  22  43  71  99 136 170 227 281 334 385
#     4  12  27  45  68  94 138 179 228 265 334 411
#     4  11  20  40  62  98 128 171 217 271 328 391
#     4   8  17  37  64  96 127 162 217 274 322 374
#     4  11  25  47  66 101 131 184 220 275 332 403
#
# _framework density 25.403144000000001
#
# number of rings (size 3 to 8) (size 9 to 14) (size 15 to 20)
#    1.000    1.000    0.000    3.000    0.000    6.667 
#    3.000    5.000    0.000    0.000    0.000    0.000 
#    0.000    0.000    0.000    0.000    0.000    0.000 
#
# Total GULP energy -148668.449446 kJ/mol
# GULP energy per Si atom -12389.037454 kJ/mol
# Density = 2.534533 g / cm^3
# Si number density = 25.403144 Si / 1000 Ang^3
#
#
#
# Elastic Constant Matrix: (Units=GPa)
#
#
# Indices 1 2 3 4 5 6 
#
# 1 62.0084 11.9291 1.7666 -6.7760 2.3470 16.1039
# 2 11.9291 105.8427 35.8272 9.7102 12.8587 9.0184
# 3 1.7666 35.8272 56.6561 -2.6986 -1.0224 3.5293
# 4 -6.7760 9.7102 -2.6986 43.5885 -1.9417 5.8917
# 5 2.3470 12.8587 -1.0224 -1.9417 36.8562 2.7932
# 6 16.1039 9.0184 3.5293 5.8917 2.7932 33.4438
#
#
#
# Elastic Compliance Matrix: (Units=1/GPa)
#
#
# Indices 1 2 3 4 5 6 
#
# 1 0.019683 -0.002567 0.001886 0.005125 0.000718 -0.009948
# 2 -0.002567 0.013787 -0.008907 -0.004197 -0.005086 -0.000378
# 3 0.001886 -0.008907 0.023626 0.004200 0.004021 -0.002075
# 4 0.005125 -0.004197 0.004200 0.025967 0.003124 -0.006614
# 5 0.000718 -0.005086 0.004021 0.003124 0.029319 -0.002398
# 6 -0.009948 -0.000378 -0.002075 -0.006614 -0.002398 0.036377
#
#
# Mechanical properties :
#
#
# Convention : Reuss Voigt Hill
#
# Bulk Modulus (GPa) = 26.37026 35.95035 31.16031
# Shear Modulus (GPa) = 27.68936 34.44331 31.06634
#
# Velocity S-wave (km/s) = 3.30509 3.68621 3.50084
# Velocity P-wave (km/s) = 4.99681 5.68332 5.35109
#
# Compressibility (1/GPa) = 0.03792150
#
# Stress axis : x y z
#
# Youngs Moduli (GPa) = 50.80483 72.53017 42.32673
#
# Poissons Ratio (x) = 0.18616 -0.07983
# Poissons Ratio (y) = 0.13040 0.37699
# Poissons Ratio (z) = -0.09582 0.64601
#
# Static dielectric constant tensor:
#      x y z
#    x 3.881530 -0.626380 -0.569230 
#    y -0.626380 4.195190 0.065460 
#    z -0.569230 0.065460 4.105660 
# 
# 
# High freq. dielectric constant tensor:
#      x y z
#    x 2.019340 -0.000170 -0.001820 
#    y -0.000170 2.013270 0.019900 
#    z -0.001820 0.019900 2.012110 
# 
# From -- ./inp_files/67677.got.cif
#   From: 2010.06.25/outbox.cif.g09.slc.cpg/sg2_34_cif.got.tgz:67677.got - 2010.06.27 13:26:56.
