data_PCOD8029022
_publ_section_title
;
Structure prediction by ZEFSAII (Michael W. Deem and Ramdas Pophale) SiO2 
 PCOD8029022
Probable space group: P -1
;
_chemical_formula_sum "Si O2"
_cell_formula_units_Z 16
_cell_length_a 8.348403
_cell_length_b 18.209982
_cell_length_c 10.072483
_cell_angle_alpha 36.181118
_cell_angle_beta 95.587897
_cell_angle_gamma 113.780136
_cell_volume 749.864941
_symmetry_space_group_name_H-M "P -1"
_symmetry_group_IT_number 2
_symmetry_cell_setting 'triclinic'
loop_
_space_group_symop_operation_xyz
x,y,z
-x,-y,-z
loop_
_atom_site_type_symbol
_atom_site_label
_atom_site_fract_x
_atom_site_fract_y
_atom_site_fract_z
Si Si1 0.012077 0.643946 0.149509
Si Si2 0.537621 0.466146 0.908388
Si Si3 0.515453 0.825581 0.712173
Si Si4 0.254791 0.860271 0.450746
Si Si5 0.575434 0.184465 0.977282
Si Si6 0.595179 0.449647 0.475902
Si Si7 0.907633 0.091754 0.391178
Si Si8 0.036068 0.445179 0.220454
O O1 0.827324 0.550318 0.366586
O O2 0.031411 0.532076 0.220261
O O3 0.194778 0.745013 0.114426
O O4 0.974458 0.748254 0.901957
O O5 0.456857 0.533317 0.701981
O O6 0.760866 0.538065 0.790392
O O7 0.500000 0.500000 0.000000
O O8 0.420225 0.286255 0.157316
O O9 0.331266 0.791393 0.664103
O O10 0.689180 0.996818 0.451860
O O11 0.461414 0.794494 0.905733
O O12 0.113187 0.893545 0.473055
O O13 0.131265 0.732415 0.517946
O O14 0.434282 0.009831 0.178212
O O15 0.520159 0.277432 0.744171
O O16 0.500000 0.500000 0.500000
O O17 0.000000 0.000000 0.500000
O O18 0.000000 0.500000 0.000000
#
# Coordination Sequence:
#
# PCOD8029022 Si02
#       8
#     2   2   2   2   2   2   2   2
#     4  12  22  41  67  96 128 178 229 267 325 404
#     4  12  25  40  66 101 140 172 220 278 336 387
#     4  11  19  39  65  94 135 169 218 276 320 386
#     4  11  22  39  66  96 134 172 221 272 329 393
#     4  11  21  44  65  93 129 179 220 269 322 400
#     4  12  26  43  65 100 137 173 221 281 334 389
#     4  11  21  32  59 101 135 160 220 281 332 372
#     4  12  21  40  66  96 130 175 222 270 329 400
#
# _framework density 21.337175999999999
#
# number of rings (size 3 to 8) (size 9 to 14) (size 15 to 20)
#    0.000    0.500    7.500    2.625    3.500    0.000 
#    0.000    1.250    0.000    0.000    0.000    0.000 
#    0.000    0.000    0.000    0.000    0.000    0.000 
#
# Total GULP energy -198402.208427 kJ/mol
# GULP energy per Si atom -12400.138027 kJ/mol
# Density = 2.128861 g / cm^3
# Si number density = 21.337176 Si / 1000 Ang^3
#
#
#
# Elastic Constant Matrix: (Units=GPa)
#
#
# Indices 1 2 3 4 5 6 
#
# 1 97.8577 24.1415 34.1577 -6.2604 -3.4663 -11.7513
# 2 24.1415 81.1510 41.0872 -26.1928 -1.8915 -1.1311
# 3 34.1577 41.0872 125.7599 -20.1157 6.8967 0.6908
# 4 -6.2604 -26.1928 -20.1157 41.2078 4.2921 -2.6719
# 5 -3.4663 -1.8915 6.8967 4.2921 38.0032 -2.3857
# 6 -11.7513 -1.1311 0.6908 -2.6719 -2.3857 23.7920
#
#
#
# Elastic Compliance Matrix: (Units=1/GPa)
#
#
# Indices 1 2 3 4 5 6 
#
# 1 0.012609 -0.002410 -0.002920 -0.000846 0.002052 0.006309
# 2 -0.002410 0.017937 -0.003756 0.009218 0.000366 0.000843
# 3 -0.002920 -0.003756 0.010529 0.002472 -0.002764 -0.001926
# 4 -0.000846 0.009218 0.002472 0.031770 -0.003456 0.003170
# 5 0.002052 0.000366 -0.002764 -0.003456 0.027630 0.003493
# 6 0.006309 0.000843 -0.001926 0.003170 0.003493 0.045949
#
#
# Mechanical properties :
#
#
# Convention : Reuss Voigt Hill
#
# Bulk Modulus (GPa) = 43.66126 55.94904 49.80515
# Shear Modulus (GPa) = 29.03084 34.29273 31.66179
#
# Velocity S-wave (km/s) = 3.69260 4.01332 3.85629
# Velocity P-wave (km/s) = 6.21991 6.91042 6.57424
#
# Compressibility (1/GPa) = 0.02290360
#
# Stress axis : x y z
#
# Youngs Moduli (GPa) = 79.31000 55.75108 94.97234
#
# Poissons Ratio (x) = 0.13436 0.27730
# Poissons Ratio (y) = 0.19114 0.35670
# Poissons Ratio (z) = 0.23157 0.20939
#
# Static dielectric constant tensor:
#      x y z
#    x 3.762670 0.279380 -0.103890 
#    y 0.279380 3.908440 -0.366000 
#    z -0.103890 -0.366000 4.266580 
# 
# 
# High freq. dielectric constant tensor:
#      x y z
#    x 1.843830 0.004270 -0.001670 
#    y 0.004270 1.817500 -0.027280 
#    z -0.001670 -0.027280 1.838850 
# 
# From -- ./inp_files/216525.got.cif
#   From: 2010.06.25/outbox.cif.g09.slc.cpg/sg2_109_cif.got.tgz:216525.got - 2010.06.27 13:26:56.
