data_PCOD8029697
_publ_section_title
;
Structure prediction by ZEFSAII (Michael W. Deem and Ramdas Pophale) SiO2 
 PCOD8029697
Probable space group: P -1
;
_chemical_formula_sum "Si O2"
_cell_formula_units_Z 16
_cell_length_a 14.274951
_cell_length_b 12.007835
_cell_length_c 12.619604
_cell_angle_alpha 85.584223
_cell_angle_beta 86.703293
_cell_angle_gamma 19.285898
_cell_volume 711.570474
_symmetry_space_group_name_H-M "P -1"
_symmetry_group_IT_number 2
_symmetry_cell_setting 'triclinic'
loop_
_space_group_symop_operation_xyz
x,y,z
-x,-y,-z
loop_
_atom_site_type_symbol
_atom_site_label
_atom_site_fract_x
_atom_site_fract_y
_atom_site_fract_z
Si Si1 0.280900 0.538736 0.865243
Si Si2 0.034186 0.831711 0.501746
Si Si3 0.077326 0.241964 0.775810
Si Si4 0.660176 0.320950 0.817452
Si Si5 0.036923 0.423059 0.380479
Si Si6 0.369462 0.312342 0.671743
Si Si7 0.468423 0.680210 0.625907
Si Si8 0.621456 0.607000 0.895790
O O1 0.458635 0.452446 0.867093
O O2 0.404834 0.306620 0.792994
O O3 0.282538 0.478610 0.984277
O O4 0.969127 0.922481 0.823034
O O5 0.158254 0.642105 0.614347
O O6 0.257594 0.556217 0.411745
O O7 0.000000 0.000000 0.500000
O O8 0.726503 0.126269 0.477046
O O9 0.931723 0.511225 0.709961
O O10 0.832917 0.433193 0.815284
O O11 0.287844 0.953940 0.697932
O O12 0.298950 0.017558 0.874051
O O13 0.570195 0.451479 0.693028
O O14 0.638926 0.454987 0.881762
O O15 0.000000 0.500000 0.500000
O O16 0.767111 0.655394 0.342075
O O17 0.325121 0.027972 0.380493
#
# Coordination Sequence:
#
# PCOD8029697 Si02
#       8
#     2   2   2   2   2   2   2   2
#     4  12  24  42  62  95 137 172 210 264 315 380
#     4  12  23  38  60  91 130 168 198 245 317 391
#     4  11  23  43  66  93 121 161 220 274 316 368
#     4  11  21  38  65  96 132 175 211 253 315 385
#     4  12  26  47  71  94 124 166 216 274 325 378
#     4  12  26  43  65  97 129 170 216 260 323 387
#     4  11  22  38  60  91 124 161 208 261 311 374
#     4  11  23  41  67  97 129 171 218 261 312 377
#
# _framework density 22.485475000000001
#
# number of rings (size 3 to 8) (size 9 to 14) (size 15 to 20)
#    0.000    0.500    0.000   11.250    0.000    0.000 
#    0.000    3.750    0.000    0.000    0.000    0.000 
#    0.000    0.000    0.000    0.000    0.000    0.000 
#
# Total GULP energy -198415.050123 kJ/mol
# GULP energy per Si atom -12400.940633 kJ/mol
# Density = 2.243430 g / cm^3
# Si number density = 22.485475 Si / 1000 Ang^3
#
#
#
# Elastic Constant Matrix: (Units=GPa)
#
#
# Indices 1 2 3 4 5 6 
#
# 1 103.7294 25.4412 38.6738 11.6413 -3.3747 -3.4844
# 2 25.4412 110.6098 30.5650 -6.5524 11.2390 -8.0989
# 3 38.6738 30.5650 118.4632 2.7903 12.8855 11.3531
# 4 11.6413 -6.5524 2.7903 37.8801 1.9664 -4.2945
# 5 -3.3747 11.2390 12.8855 1.9664 33.6798 0.6041
# 6 -3.4844 -8.0989 11.3531 -4.2945 0.6041 36.3424
#
#
#
# Elastic Compliance Matrix: (Units=1/GPa)
#
#
# Indices 1 2 3 4 5 6 
#
# 1 0.012229 -0.002253 -0.003846 -0.003901 0.003652 0.001350
# 2 -0.002253 0.010918 -0.002117 0.003286 -0.003311 0.003322
# 3 -0.003846 -0.002117 0.011075 -0.000286 -0.003823 -0.004270
# 4 -0.003901 0.003286 -0.000286 0.028792 -0.003129 0.003902
# 5 0.003652 -0.003311 -0.003823 -0.003129 0.032809 -0.000109
# 6 0.001350 0.003322 -0.004270 0.003902 -0.000109 0.030183
#
#
# Mechanical properties :
#
#
# Convention : Reuss Voigt Hill
#
# Bulk Modulus (GPa) = 56.21126 58.01805 57.11465
# Shear Modulus (GPa) = 33.69989 37.45530 35.57759
#
# Velocity S-wave (km/s) = 3.87556 4.08579 3.98206
# Velocity P-wave (km/s) = 6.71415 6.93662 6.82629
#
# Compressibility (1/GPa) = 0.01779003
#
# Stress axis : x y z
#
# Youngs Moduli (GPa) = 81.77331 91.58886 90.29428
#
# Poissons Ratio (x) = 0.20639 0.34724
# Poissons Ratio (y) = 0.18427 0.19115
# Poissons Ratio (z) = 0.31447 0.19390
#
# Static dielectric constant tensor:
#      x y z
#    x 4.682590 -1.194570 0.742060 
#    y -1.194570 5.667170 -1.259910 
#    z 0.742060 -1.259910 5.166780 
# 
# 
# High freq. dielectric constant tensor:
#      x y z
#    x 1.878010 -0.018220 -0.004890 
#    y -0.018220 1.898920 -0.008620 
#    z -0.004890 -0.008620 1.892000 
# 
# From -- ./inp_files/452279.got.cif
#   From: 2010.06.25/outbox.cif.g09.slc.cpg/sg2_227_cif.got.tgz:452279.got - 2010.06.27 13:26:56.
