data_PCOD8029308
_publ_section_title
;
Structure prediction by ZEFSAII (Michael W. Deem and Ramdas Pophale) SiO2 
 PCOD8029308
Probable space group: P -1
;
_chemical_formula_sum "Si O2"
_cell_formula_units_Z 16
_cell_length_a 27.775605
_cell_length_b 17.358223
_cell_length_c 11.915401
_cell_angle_alpha 157.435332
_cell_angle_beta 146.806112
_cell_angle_gamma 20.482792
_cell_volume 754.136746
_symmetry_space_group_name_H-M "P -1"
_symmetry_group_IT_number 2
_symmetry_cell_setting 'triclinic'
loop_
_space_group_symop_operation_xyz
x,y,z
-x,-y,-z
loop_
_atom_site_type_symbol
_atom_site_label
_atom_site_fract_x
_atom_site_fract_y
_atom_site_fract_z
Si Si1 0.611975 0.445670 0.704502
Si Si2 0.791746 0.273489 0.241637
Si Si3 0.647204 0.263326 0.133641
Si Si4 0.940397 0.255612 0.821017
Si Si5 0.361684 0.375939 0.220065
Si Si6 0.113114 0.245114 0.727688
Si Si7 0.569401 0.658894 0.153858
Si Si8 0.169745 0.355072 0.209621
O O1 0.500000 0.500000 0.500000
O O2 0.649495 0.556392 0.841766
O O3 0.758404 0.074665 0.522486
O O4 0.553832 0.648041 0.976355
O O5 0.703030 0.297942 0.187622
O O6 0.730640 0.353924 0.104212
O O7 0.763170 0.560429 0.594517
O O8 0.958714 0.931428 0.123086
O O9 0.622747 0.450500 0.443995
O O10 0.505972 0.394317 0.001403
O O11 0.748078 0.897402 0.869065
O O12 0.778630 0.496997 0.853837
O O13 0.954818 0.450826 0.062740
O O14 0.000000 0.000000 0.500000
O O15 0.500000 0.000000 0.000000
O O16 0.986338 0.316607 0.604113
O O17 0.173045 0.195905 0.899518
O O18 0.500000 0.000000 0.500000
#
# Coordination Sequence:
#
# PCOD8029308 Si02
#       8
#     2   2   2   2   2   2   2   2
#     4  12  25  45  71 100 140 189 242 303 359 428
#     4  12  25  43  71 103 143 187 245 292 355 441
#     4  12  23  46  71 105 140 188 243 296 359 430
#     4  12  22  40  70 111 146 188 242 298 359 436
#     4  12  25  41  73 112 145 182 246 310 362 416
#     4  11  21  38  68 104 141 178 234 297 361 413
#     4  12  28  48  72 101 146 200 240 292 376 442
#     4  11  20  39  72 105 138 183 230 295 358 429
#
# _framework density 21.216311000000001
#
# number of rings (size 3 to 8) (size 9 to 14) (size 15 to 20)
#    0.000    0.250    7.500    1.875    1.750    0.000 
#    0.000    3.125    0.000    0.000    0.000    0.000 
#    0.000    0.000    0.000    0.000    0.000    0.000 
#
# Total GULP energy -198300.420254 kJ/mol
# GULP energy per Si atom -12393.776266 kJ/mol
# Density = 2.116802 g / cm^3
# Si number density = 21.216311 Si / 1000 Ang^3
#
#
#
# Elastic Constant Matrix: (Units=GPa)
#
#
# Indices 1 2 3 4 5 6 
#
# 1 111.2844 31.1019 46.1736 2.7702 15.5869 -3.6921
# 2 31.1019 143.6136 38.2869 1.7327 -1.7324 2.0876
# 3 46.1736 38.2869 85.3703 6.0613 4.8872 -1.2367
# 4 2.7702 1.7327 6.0613 33.4933 1.1182 3.2094
# 5 15.5869 -1.7324 4.8872 1.1182 39.1259 0.8376
# 6 -3.6921 2.0876 -1.2367 3.2094 0.8376 41.2503
#
#
#
# Elastic Compliance Matrix: (Units=1/GPa)
#
#
# Indices 1 2 3 4 5 6 
#
# 1 0.012408 -0.001174 -0.005934 0.000149 -0.004281 0.001067
# 2 -0.001174 0.008059 -0.003077 0.000259 0.001215 -0.000650
# 3 -0.005934 -0.003077 0.016462 -0.002365 0.000233 0.000297
# 4 0.000149 0.000259 -0.002365 0.030511 -0.000572 -0.002433
# 5 -0.004281 0.001215 0.000233 -0.000572 0.027325 -0.000948
# 6 0.001067 -0.000650 0.000297 -0.002433 -0.000948 0.024588
#
#
# Mechanical properties :
#
#
# Convention : Reuss Voigt Hill
#
# Bulk Modulus (GPa) = 60.39184 63.48811 61.93998
# Shear Modulus (GPa) = 34.42528 37.75429 36.08978
#
# Velocity S-wave (km/s) = 4.03250 4.22298 4.12884
# Velocity P-wave (km/s) = 7.08576 7.33262 7.21025
#
# Compressibility (1/GPa) = 0.01655853
#
# Stress axis : x y z
#
# Youngs Moduli (GPa) = 80.59559 124.09203 60.74584
#
# Poissons Ratio (x) = 0.14568 0.36049
# Poissons Ratio (y) = 0.09461 0.18688
# Poissons Ratio (z) = 0.47829 0.38177
#
# Static dielectric constant tensor:
#      x y z
#    x 3.964150 -0.148680 0.303110 
#    y -0.148680 4.268930 -0.048520 
#    z 0.303110 -0.048520 3.605660 
# 
# 
# High freq. dielectric constant tensor:
#      x y z
#    x 1.835740 -0.004060 0.031320 
#    y -0.004060 1.851770 0.006080 
#    z 0.031320 0.006080 1.805570 
# 
# From -- ./inp_files/477726.got.cif
#   From: 2010.06.25/outbox.cif.g09.slc.cpg/sg2_239_cif.got.tgz:477726.got - 2010.06.27 13:26:56.
