data_PCOD8029899
_publ_section_title
;
Structure prediction by ZEFSAII (Michael W. Deem and Ramdas Pophale) SiO2 
 PCOD8029899
Probable space group: P -1
;
_chemical_formula_sum "Si O2"
_cell_formula_units_Z 16
_cell_length_a 12.046474
_cell_length_b 9.022928
_cell_length_c 18.963511
_cell_angle_alpha 27.464870
_cell_angle_beta 50.810498
_cell_angle_gamma 57.691790
_cell_volume 734.828550
_symmetry_space_group_name_H-M "P -1"
_symmetry_group_IT_number 2
_symmetry_cell_setting 'triclinic'
loop_
_space_group_symop_operation_xyz
x,y,z
-x,-y,-z
loop_
_atom_site_type_symbol
_atom_site_label
_atom_site_fract_x
_atom_site_fract_y
_atom_site_fract_z
Si Si1 0.227538 0.313384 0.137732
Si Si2 0.033678 0.421040 0.941066
Si Si3 0.349530 0.444147 0.768811
Si Si4 0.851718 0.150150 0.518601
Si Si5 0.551122 0.212862 0.550308
Si Si6 0.441496 0.532759 0.850718
Si Si7 0.316108 0.709401 0.057917
Si Si8 0.992576 0.214859 0.841564
O O1 0.341314 0.544021 0.041654
O O2 0.075260 0.457754 0.124363
O O3 0.189861 0.963459 0.336598
O O4 0.312686 0.299687 0.035566
O O5 0.190937 0.563942 0.794057
O O6 0.000000 0.500000 0.000000
O O7 0.022028 0.034623 0.111330
O O8 0.438114 0.668443 0.584099
O O9 0.434838 0.470797 0.796407
O O10 0.337684 0.093512 0.885122
O O11 0.703267 0.067843 0.570653
O O12 0.872474 0.536454 0.335157
O O13 0.000000 0.000000 0.500000
O O14 0.500000 0.500000 0.500000
O O15 0.432994 0.905887 0.721682
O O16 0.593407 0.415996 0.861934
O O17 0.148839 0.583996 0.188659
O O18 0.000000 0.000000 0.000000
#
# Coordination Sequence:
#
# PCOD8029899 Si02
#       8
#     2   2   2   2   2   2   2   2
#     4  12  23  41  70  95 137 174 228 280 335 401
#     4  11  23  43  68 100 133 178 225 278 340 401
#     4  11  25  43  71  95 138 181 225 277 341 405
#     4  12  23  43  68 103 131 173 231 287 333 394
#     4  12  27  43  68 104 135 178 234 280 335 407
#     4  12  25  44  64  97 143 180 215 278 349 403
#     4  11  22  41  68  98 127 175 226 271 334 404
#     4  11  21  40  70  96 125 173 228 280 330 396
#
# _framework density 21.773785
#
# number of rings (size 3 to 8) (size 9 to 14) (size 15 to 20)
#    0.000    0.500    5.000    4.125    3.500    0.000 
#    0.000    0.625    0.000    0.000    0.000    0.000 
#    0.000    0.000    0.000    0.000    0.000    0.000 
#
# Total GULP energy -198249.518811 kJ/mol
# GULP energy per Si atom -12390.594926 kJ/mol
# Density = 2.172423 g / cm^3
# Si number density = 21.773785 Si / 1000 Ang^3
#
#
#
# Elastic Constant Matrix: (Units=GPa)
#
#
# Indices 1 2 3 4 5 6 
#
# 1 132.4551 15.9943 26.5709 14.1890 15.8408 -10.0051
# 2 15.9943 63.9019 28.9885 14.9839 9.4944 4.1156
# 3 26.5709 28.9885 159.8681 20.8774 8.8168 5.5016
# 4 14.1890 14.9839 20.8774 25.1617 8.4910 2.6279
# 5 15.8408 9.4944 8.8168 8.4910 32.5851 1.3984
# 6 -10.0051 4.1156 5.5016 2.6279 1.3984 31.4270
#
#
#
# Elastic Compliance Matrix: (Units=1/GPa)
#
#
# Indices 1 2 3 4 5 6 
#
# 1 0.008787 -0.000855 -0.000854 -0.003035 -0.003149 0.003453
# 2 -0.000855 0.019199 -0.002074 -0.008252 -0.002398 -0.001627
# 3 -0.000854 -0.002074 0.007364 -0.004365 0.000204 -0.000934
# 4 -0.003035 -0.008252 -0.004365 0.053252 -0.008678 -0.003188
# 5 -0.003149 -0.002398 0.000204 -0.008678 0.035191 -0.001564
# 6 0.003453 -0.001627 -0.000934 -0.003188 -0.001564 0.033632
#
#
# Mechanical properties :
#
#
# Convention : Reuss Voigt Hill
#
# Bulk Modulus (GPa) = 35.98974 55.48137 45.73556
# Shear Modulus (GPa) = 28.69406 36.81286 32.75346
#
# Velocity S-wave (km/s) = 3.63413 4.11627 3.88269
# Velocity P-wave (km/s) = 5.84585 6.93741 6.41489
#
# Compressibility (1/GPa) = 0.02778569
#
# Stress axis : x y z
#
# Youngs Moduli (GPa) = 113.80697 52.08471 135.79540
#
# Poissons Ratio (x) = 0.04451 0.11600
# Poissons Ratio (y) = 0.09726 0.28157
# Poissons Ratio (z) = 0.09722 0.10800
#
# Static dielectric constant tensor:
#      x y z
#    x 4.113510 -0.012850 -0.162000 
#    y -0.012850 4.091060 -0.315730 
#    z -0.162000 -0.315730 4.417370 
# 
# 
# High freq. dielectric constant tensor:
#      x y z
#    x 1.867490 -0.006410 -0.000250 
#    y -0.006410 1.842560 -0.000620 
#    z -0.000250 -0.000620 1.860220 
# 
# From -- ./inp_files/566359.got.cif
#   From: 2010.06.25/outbox.cif.g09.slc.cpg/sg2_284_cif.got.tgz:566359.got - 2010.06.27 13:26:56.
