data_PCOD8029024
_publ_section_title
;
Structure prediction by ZEFSAII (Michael W. Deem and Ramdas Pophale) SiO2 
 PCOD8029024
Probable space group: P -1
;
_chemical_formula_sum "Si O2"
_cell_formula_units_Z 16
_cell_length_a 11.233903
_cell_length_b 8.945818
_cell_length_c 14.313064
_cell_angle_alpha 39.762652
_cell_angle_beta 126.405901
_cell_angle_gamma 107.660183
_cell_volume 707.067000
_symmetry_space_group_name_H-M "P -1"
_symmetry_group_IT_number 2
_symmetry_cell_setting 'triclinic'
loop_
_space_group_symop_operation_xyz
x,y,z
-x,-y,-z
loop_
_atom_site_type_symbol
_atom_site_label
_atom_site_fract_x
_atom_site_fract_y
_atom_site_fract_z
Si Si1 0.971847 0.015862 0.179847
Si Si2 0.710843 0.352299 0.993303
Si Si3 0.927273 0.617892 0.045500
Si Si4 0.760316 0.544111 0.625634
Si Si5 0.546220 0.751957 0.581015
Si Si6 0.578045 0.791325 0.065640
Si Si7 0.774562 0.010889 0.923305
Si Si8 0.743786 0.431335 0.466148
O O1 0.814980 0.082163 0.136862
O O2 0.102719 0.782298 0.390278
O O3 0.017870 0.274833 0.076209
O O4 0.929122 0.949598 0.087913
O O5 0.815266 0.448406 0.067763
O O6 0.667783 0.536325 0.797623
O O7 0.552984 0.327315 0.977678
O O8 0.069150 0.476076 0.245808
O O9 0.823621 0.877554 0.913006
O O10 0.634079 0.765214 0.516368
O O11 0.762037 0.583985 0.494791
O O12 0.708518 0.300745 0.738057
O O13 0.391115 0.686906 0.517281
O O14 0.500000 0.000000 0.500000
O O15 0.711751 0.594931 0.279626
O O16 0.643726 0.904638 0.955846
O O17 0.500000 0.000000 0.000000
#
# Coordination Sequence:
#
# PCOD8029024 Si02
#       8
#     2   2   2   2   2   2   2   2
#     4  11  19  39  67  97 121 165 214 267 318 369
#     4  11  23  40  62  94 131 175 205 262 325 385
#     4  11  21  36  68  98 129 160 214 267 329 365
#     4  11  21  41  65 101 125 164 214 274 314 370
#     4  11  23  36  57  95 136 165 206 262 327 373
#     4  11  24  45  63  90 132 179 210 251 323 393
#     4  11  20  40  69  91 131 165 214 261 316 387
#     4  11  23  39  67  96 125 162 222 265 315 376
#
# _framework density 22.628689999999999
#
# number of rings (size 3 to 8) (size 9 to 14) (size 15 to 20)
#    0.000    1.000    6.250    3.000    1.750    1.000 
#    0.000    0.000    0.000    1.500    0.000    0.000 
#    0.000    0.000    0.000    0.000    0.000    0.000 
#
# Total GULP energy -198346.236419 kJ/mol
# GULP energy per Si atom -12396.639776 kJ/mol
# Density = 2.257719 g / cm^3
# Si number density = 22.628690 Si / 1000 Ang^3
#
#
#
# Elastic Constant Matrix: (Units=GPa)
#
#
# Indices 1 2 3 4 5 6 
#
# 1 74.7995 13.0773 33.4462 3.2315 8.6692 9.5593
# 2 13.0773 77.0731 27.2210 6.6385 8.9062 6.3063
# 3 33.4462 27.2210 80.5796 -1.4234 24.5628 -1.5417
# 4 3.2315 6.6385 -1.4234 27.1096 -4.8175 11.8905
# 5 8.6692 8.9062 24.5628 -4.8175 32.3716 -13.0306
# 6 9.5593 6.3063 -1.5417 11.8905 -13.0306 34.3274
#
#
#
# Elastic Compliance Matrix: (Units=1/GPa)
#
#
# Indices 1 2 3 4 5 6 
#
# 1 0.017351 0.000174 -0.006792 -0.000262 -0.001917 -0.005806
# 2 0.000174 0.015373 -0.004651 -0.003189 -0.002381 -0.002881
# 3 -0.006792 -0.004651 0.020823 0.001508 -0.013227 -0.001862
# 4 -0.000262 -0.003189 0.001508 0.044179 0.000602 -0.014348
# 5 -0.001917 -0.002381 -0.013227 0.000602 0.049874 0.019101
# 6 -0.005806 -0.002881 -0.001862 -0.014348 0.019101 0.043414
#
#
# Mechanical properties :
#
#
# Convention : Reuss Voigt Hill
#
# Bulk Modulus (GPa) = 32.24838 42.21572 37.23205
# Shear Modulus (GPa) = 22.33235 29.34224 25.83729
#
# Velocity S-wave (km/s) = 3.14491 3.60486 3.38271
# Velocity P-wave (km/s) = 5.24112 6.00191 5.63437
#
# Compressibility (1/GPa) = 0.03100931
#
# Stress axis : x y z
#
# Youngs Moduli (GPa) = 57.63300 65.04716 48.02271
#
# Poissons Ratio (x) = -0.01131 0.32618
# Poissons Ratio (y) = -0.01002 0.22336
# Poissons Ratio (z) = 0.39145 0.30255
#
# Static dielectric constant tensor:
#      x y z
#    x 3.230970 -0.118720 0.340570 
#    y -0.118720 4.072470 0.120140 
#    z 0.340570 0.120140 3.945680 
# 
# 
# High freq. dielectric constant tensor:
#      x y z
#    x 1.888640 0.003900 0.031380 
#    y 0.003900 1.887470 0.004590 
#    z 0.031380 0.004590 1.875320 
# 
# From -- ./inp_files/225954.got.cif
#   From: 2010.06.25/outbox.cif.g09.slc.cpg/sg2_113_cif.got.tgz:225954.got - 2010.06.27 13:26:56.
