data_PCOD8029065
_publ_section_title
;
Structure prediction by ZEFSAII (Michael W. Deem and Ramdas Pophale) SiO2 
 PCOD8029065
Probable space group: P -1
;
_chemical_formula_sum "Si O2"
_cell_formula_units_Z 16
_cell_length_a 18.963732
_cell_length_b 21.464224
_cell_length_c 12.094566
_cell_angle_alpha 153.858356
_cell_angle_beta 151.247327
_cell_angle_gamma 20.325842
_cell_volume 733.585806
_symmetry_space_group_name_H-M "P -1"
_symmetry_group_IT_number 2
_symmetry_cell_setting 'triclinic'
loop_
_space_group_symop_operation_xyz
x,y,z
-x,-y,-z
loop_
_atom_site_type_symbol
_atom_site_label
_atom_site_fract_x
_atom_site_fract_y
_atom_site_fract_z
Si Si1 0.111296 0.231693 0.834712
Si Si2 0.364066 0.460083 0.056815
Si Si3 0.154592 0.518358 0.420259
Si Si4 0.659598 0.508947 0.580278
Si Si5 0.726784 0.934430 0.439289
Si Si6 0.931505 0.889013 0.203416
Si Si7 0.484163 0.846539 0.048993
Si Si8 0.548180 0.618502 0.203972
O O1 0.272415 0.105567 0.753974
O O2 0.891395 0.313111 0.627849
O O3 0.190363 0.090243 0.823959
O O4 0.076063 0.419463 0.115254
O O5 0.514061 0.473447 0.339003
O O6 0.126956 0.657069 0.074535
O O7 0.427307 0.268292 0.894659
O O8 0.385073 0.439213 0.922169
O O9 0.331595 0.453828 0.477112
O O10 0.258046 0.442532 0.562315
O O11 0.954035 0.758632 0.526374
O O12 0.570028 0.696938 0.827538
O O13 0.658825 0.143851 0.692065
O O14 0.557913 0.956489 0.307768
O O15 0.000000 0.000000 0.500000
O O16 0.767853 0.991770 0.040996
O O17 0.500000 0.500000 0.000000
#
# Coordination Sequence:
#
# PCOD8029065 Si02
#       8
#     2   2   2   2   2   2   2   2
#     4  11  22  42  73 110 134 168 234 295 345 389
#     4  12  26  47  63  99 152 178 223 280 336 417
#     4  11  22  45  72 103 137 171 229 292 339 398
#     4  11  19  41  71  99 139 169 214 296 343 387
#     4  11  25  44  74 103 134 182 231 287 341 401
#     4  12  25  37  67 105 135 180 221 280 350 402
#     4  12  23  43  71 104 133 176 230 285 352 392
#     4  12  29  47  66  98 142 192 227 271 337 423
#
# _framework density 21.810673999999999
#
# number of rings (size 3 to 8) (size 9 to 14) (size 15 to 20)
#    0.000    0.500    6.250    2.625    3.500    3.000 
#    0.000    4.375    0.000    0.000    0.000    0.000 
#    0.000    0.000    0.000    0.000    0.000    0.000 
#
# Total GULP energy -198482.166371 kJ/mol
# GULP energy per Si atom -12405.135398 kJ/mol
# Density = 2.176103 g / cm^3
# Si number density = 21.810674 Si / 1000 Ang^3
#
#
#
# Elastic Constant Matrix: (Units=GPa)
#
#
# Indices 1 2 3 4 5 6 
#
# 1 130.7224 50.5422 33.8552 2.6610 1.2796 14.7273
# 2 50.5422 87.1406 17.0924 -1.2614 7.9301 15.6338
# 3 33.8552 17.0924 56.7187 5.9249 5.6107 2.2769
# 4 2.6610 -1.2614 5.9249 33.3271 8.2993 7.4963
# 5 1.2796 7.9301 5.6107 8.2993 36.8222 -5.0236
# 6 14.7273 15.6338 2.2769 7.4963 -5.0236 28.0645
#
#
#
# Elastic Compliance Matrix: (Units=1/GPa)
#
#
# Indices 1 2 3 4 5 6 
#
# 1 0.011255 -0.005184 -0.005183 0.000077 0.001169 -0.002409
# 2 -0.005184 0.016948 -0.001606 0.004693 -0.005487 -0.008826
# 3 -0.005183 -0.001606 0.021647 -0.003672 -0.001596 0.002553
# 4 0.000077 0.004693 -0.003672 0.036635 -0.010627 -0.014045
# 5 0.001169 -0.005487 -0.001596 -0.010627 0.032468 0.011223
# 6 -0.002409 -0.008826 0.002553 -0.014045 0.011223 0.047366
#
#
# Mechanical properties :
#
#
# Convention : Reuss Voigt Hill
#
# Bulk Modulus (GPa) = 38.60330 53.06238 45.83284
# Shear Modulus (GPa) = 25.13802 31.18221 28.16012
#
# Velocity S-wave (km/s) = 3.39861 3.78521 3.59711
# Velocity P-wave (km/s) = 5.75660 6.59433 6.18965
#
# Compressibility (1/GPa) = 0.02590452
#
# Stress axis : x y z
#
# Youngs Moduli (GPa) = 88.85004 59.00234 46.19492
#
# Poissons Ratio (x) = 0.30589 0.23941
# Poissons Ratio (y) = 0.46064 0.07419
# Poissons Ratio (z) = 0.46048 0.09476
#
# Static dielectric constant tensor:
#      x y z
#    x 4.153980 0.077590 0.077920 
#    y 0.077590 4.031300 -0.099520 
#    z 0.077920 -0.099520 3.785530 
# 
# 
# High freq. dielectric constant tensor:
#      x y z
#    x 1.864960 0.009460 0.010610 
#    y 0.009460 1.863670 -0.005550 
#    z 0.010610 -0.005550 1.843020 
# 
# From -- ./inp_files/333657.got.cif
#   From: 2010.06.25/outbox.cif.g09.slc.cpg/sg2_167_cif.got.tgz:333657.got - 2010.06.27 13:26:56.
