data_PCOD8029726
_publ_section_title
;
Structure prediction by ZEFSAII (Michael W. Deem and Ramdas Pophale) SiO2 
 PCOD8029726
Probable space group: P -1
;
_chemical_formula_sum "Si O2"
_cell_formula_units_Z 16
_cell_length_a 5.376178
_cell_length_b 8.624261
_cell_length_c 21.756772
_cell_angle_alpha 128.700273
_cell_angle_beta 63.637614
_cell_angle_gamma 98.591108
_cell_volume 693.427894
_symmetry_space_group_name_H-M "P -1"
_symmetry_group_IT_number 2
_symmetry_cell_setting 'triclinic'
loop_
_space_group_symop_operation_xyz
x,y,z
-x,-y,-z
loop_
_atom_site_type_symbol
_atom_site_label
_atom_site_fract_x
_atom_site_fract_y
_atom_site_fract_z
Si Si1 0.705367 0.561114 0.197909
Si Si2 0.330721 0.601942 0.714034
Si Si3 0.124975 0.796996 0.282565
Si Si4 0.183193 0.469646 0.535178
Si Si5 0.784903 0.836524 0.710183
Si Si6 0.790201 0.169681 0.030437
Si Si7 0.236799 0.098696 0.137335
Si Si8 0.732671 0.800784 0.436281
O O1 0.557559 0.454861 0.242841
O O2 0.454527 0.698306 0.221763
O O3 0.863952 0.390683 0.090531
O O4 0.933833 0.685074 0.231267
O O5 0.505581 0.753885 0.699101
O O6 0.391961 0.395499 0.618091
O O7 0.011067 0.707710 0.787151
O O8 0.007251 0.814904 0.369305
O O9 0.111974 0.023826 0.317207
O O10 0.500000 0.500000 0.500000
O O11 0.182495 0.248471 0.513028
O O12 0.000000 0.500000 0.500000
O O13 0.038098 0.642641 0.642483
O O14 0.699870 0.959315 0.813048
O O15 0.476380 0.175399 0.091120
O O16 0.823894 0.106949 0.939258
O O17 0.000000 0.000000 0.000000
O O18 0.500000 0.000000 0.500000
#
# Coordination Sequence:
#
# PCOD8029726 Si02
#       8
#     2   2   2   2   2   2   2   2
#     4  11  23  45  67 107 140 186 236 300 357 431
#     4  11  22  43  75  99 142 190 251 294 357 438
#     4  11  28  44  72 100 153 192 237 296 378 432
#     4  12  27  46  75 107 143 188 253 311 355 435
#     4  12  25  46  71 103 142 198 245 297 368 439
#     4  11  21  38  72 111 137 183 250 302 354 437
#     4  11  22  39  73 105 141 183 248 300 354 421
#     4  11  24  48  74 108 148 193 242 310 379 438
#
# _framework density 23.073775000000001
#
# number of rings (size 3 to 8) (size 9 to 14) (size 15 to 20)
#    0.000    0.750    3.750    3.750    3.500    3.000 
#    0.000    6.875    0.000    0.000    0.000    0.000 
#    0.000    0.000    0.000    0.000    0.000    0.000 
#
# Total GULP energy -198315.437199 kJ/mol
# GULP energy per Si atom -12394.714825 kJ/mol
# Density = 2.302126 g / cm^3
# Si number density = 23.073775 Si / 1000 Ang^3
#
#
#
# Elastic Constant Matrix: (Units=GPa)
#
#
# Indices 1 2 3 4 5 6 
#
# 1 132.2576 46.4484 53.8486 7.6454 -10.8485 -3.2140
# 2 46.4484 143.1416 40.5889 6.6210 2.6800 -5.8704
# 3 53.8486 40.5889 133.8776 8.7527 -3.3735 -4.9200
# 4 7.6454 6.6210 8.7527 35.1293 -10.4448 -3.7319
# 5 -10.8485 2.6800 -3.3735 -10.4448 40.7068 2.2529
# 6 -3.2140 -5.8704 -4.9200 -3.7319 2.2529 37.6218
#
#
#
# Elastic Compliance Matrix: (Units=1/GPa)
#
#
# Indices 1 2 3 4 5 6 
#
# 1 0.009900 -0.002348 -0.003199 -0.000187 0.002486 -0.000106
# 2 -0.002348 0.008291 -0.001508 -0.001063 -0.001618 0.000887
# 3 -0.003199 -0.001508 0.009317 -0.001388 -0.000370 0.000594
# 4 -0.000187 -0.001063 -0.001388 0.031646 0.007897 0.002303
# 5 0.002486 -0.001618 -0.000370 0.007897 0.027383 -0.000945
# 6 -0.000106 0.000887 0.000594 0.002303 -0.000945 0.027072
#
#
# Mechanical properties :
#
#
# Convention : Reuss Voigt Hill
#
# Bulk Modulus (GPa) = 74.63720 76.78318 75.71019
# Shear Modulus (GPa) = 37.82546 40.58431 39.20488
#
# Velocity S-wave (km/s) = 4.05325 4.19847 4.12650
# Velocity P-wave (km/s) = 7.37038 7.54005 7.45570
#
# Compressibility (1/GPa) = 0.01339814
#
# Stress axis : x y z
#
# Youngs Moduli (GPa) = 101.00787 120.60711 107.33222
#
# Poissons Ratio (x) = 0.28313 0.34340
# Poissons Ratio (y) = 0.23712 0.16188
# Poissons Ratio (z) = 0.32316 0.18190
#
# Static dielectric constant tensor:
#      x y z
#    x 4.161640 -0.187660 0.484820 
#    y -0.187660 4.114930 -0.015310 
#    z 0.484820 -0.015310 4.326130 
# 
# 
# High freq. dielectric constant tensor:
#      x y z
#    x 1.919530 -0.006930 0.003840 
#    y -0.006930 1.889980 0.003570 
#    z 0.003840 0.003570 1.926800 
# 
# From -- ./inp_files/604049.got.cif
#   From: 2010.06.25/outbox.cif.g09.slc.cpg/sg2_303_cif.got.tgz:604049.got - 2010.06.27 13:26:56.
