data_PCOD8029149
_publ_section_title
;
Structure prediction by ZEFSAII (Michael W. Deem and Ramdas Pophale) SiO2 
 PCOD8029149
Probable space group: P -1
;
_chemical_formula_sum "Si O2"
_cell_formula_units_Z 14
_cell_length_a 11.309238
_cell_length_b 11.870380
_cell_length_c 8.484962
_cell_angle_alpha 40.677152
_cell_angle_beta 59.544033
_cell_angle_gamma 71.348278
_cell_volume 635.750892
_symmetry_space_group_name_H-M "P -1"
_symmetry_group_IT_number 2
_symmetry_cell_setting 'triclinic'
loop_
_space_group_symop_operation_xyz
x,y,z
-x,-y,-z
loop_
_atom_site_type_symbol
_atom_site_label
_atom_site_fract_x
_atom_site_fract_y
_atom_site_fract_z
Si Si1 0.938128 0.611968 0.557830
Si Si2 0.441782 0.553892 0.316004
Si Si3 0.631666 0.078797 0.924483
Si Si4 0.141637 0.693753 0.609632
Si Si5 0.769023 0.774667 0.266564
Si Si6 0.085195 0.177850 0.206755
Si Si7 0.266998 0.426292 0.000234
O O1 0.868034 0.771103 0.355292
O O2 0.000000 0.500000 0.500000
O O3 0.068258 0.678818 0.505232
O O4 0.812574 0.515202 0.852632
O O5 0.500000 0.500000 0.500000
O O6 0.390247 0.744913 0.154631
O O7 0.320694 0.412960 0.487010
O O8 0.568759 0.561011 0.097164
O O9 0.756474 0.124097 0.665336
O O10 0.500000 0.000000 0.000000
O O11 0.672142 0.931015 0.175933
O O12 0.237131 0.542983 0.742645
O O13 0.027673 0.685575 0.833897
O O14 0.870702 0.809508 0.014648
O O15 0.211169 0.229332 0.190182
O O16 0.000000 0.000000 0.500000
#
# Coordination Sequence:
#
# PCOD8029149 Si02
#       7
#     2   2   2   2   2   2   2
#     4  11  24  41  67  97 136 172 212 277 338 393
#     4  12  22  41  71  93 130 175 220 279 314 391
#     4  12  22  38  66  98 126 170 225 267 324 387
#     4  11  22  40  66  95 127 171 220 270 323 394
#     4  12  24  43  65 100 135 172 220 273 338 383
#     4  11  20  36  61  93 127 163 216 268 315 389
#     4  11  22  42  67  96 127 171 226 264 324 396
#
# _framework density 22.021204999999998
#
# number of rings (size 3 to 8) (size 9 to 14) (size 15 to 20)
#    0.000    0.571    5.714    4.286    0.000    1.143 
#    0.000    0.714    0.000    0.000    0.000    0.000 
#    0.000    0.000    0.000    0.000    0.000    0.000 
#
# Total GULP energy -173508.491300 kJ/mol
# GULP energy per Si atom -12393.463664 kJ/mol
# Density = 2.197108 g / cm^3
# Si number density = 22.021205 Si / 1000 Ang^3
#
#
#
# Elastic Constant Matrix: (Units=GPa)
#
#
# Indices 1 2 3 4 5 6 
#
# 1 117.0476 46.7647 67.6416 1.1893 8.3289 -16.0616
# 2 46.7647 88.8757 52.1554 -5.9553 7.4055 -11.6452
# 3 67.6416 52.1554 118.1943 -4.7197 -11.6224 -1.1931
# 4 1.1893 -5.9553 -4.7197 46.5662 -9.6169 1.0539
# 5 8.3289 7.4055 -11.6224 -9.6169 50.0783 -2.3440
# 6 -16.0616 -11.6452 -1.1931 1.0539 -2.3440 30.6081
#
#
#
# Elastic Compliance Matrix: (Units=1/GPa)
#
#
# Indices 1 2 3 4 5 6 
#
# 1 0.015526 -0.002165 -0.008397 -0.002584 -0.004391 0.006749
# 2 -0.002165 0.017247 -0.006620 0.000788 -0.003347 0.004885
# 3 -0.008397 -0.006620 0.016870 0.002554 0.006507 -0.005857
# 4 -0.002584 0.000788 0.002554 0.023018 0.005263 -0.001346
# 5 -0.004391 -0.003347 0.006507 0.005263 0.023636 -0.001695
# 6 0.006749 0.004885 -0.005857 -0.001346 -0.001695 0.037759
#
#
# Mechanical properties :
#
#
# Convention : Reuss Voigt Hill
#
# Bulk Modulus (GPa) = 65.44651 73.02677 69.23664
# Shear Modulus (GPa) = 28.81627 35.95425 32.38526
#
# Velocity S-wave (km/s) = 3.62134 4.04506 3.83905
# Velocity P-wave (km/s) = 6.87530 7.41962 7.15264
#
# Compressibility (1/GPa) = 0.01527965
#
# Stress axis : x y z
#
# Youngs Moduli (GPa) = 64.40889 57.97974 59.27629
#
# Poissons Ratio (x) = 0.12551 0.49774
# Poissons Ratio (y) = 0.13943 0.39242
# Poissons Ratio (z) = 0.54084 0.38384
#
# Static dielectric constant tensor:
#      x y z
#    x 4.241020 -0.454600 -0.219040 
#    y -0.454600 4.359370 0.024960 
#    z -0.219040 0.024960 4.319450 
# 
# 
# High freq. dielectric constant tensor:
#      x y z
#    x 1.866820 -0.028770 -0.019900 
#    y -0.028770 1.857170 0.000260 
#    z -0.019900 0.000260 1.869800 
# 
# From -- ./inp_files/255702.got.cif
#   From: 2010.06.25/outbox.cif.g09.slc.cpg/sg2_128_cif.got.tgz:255702.got - 2010.06.27 13:26:56.
