data_PCOD8029310
_publ_section_title
;
Structure prediction by ZEFSAII (Michael W. Deem and Ramdas Pophale) SiO2 
 PCOD8029310
Probable space group: P -1
;
_chemical_formula_sum "Si O2"
_cell_formula_units_Z 16
_cell_length_a 21.582550
_cell_length_b 19.364430
_cell_length_c 9.486829
_cell_angle_alpha 142.428004
_cell_angle_beta 142.871050
_cell_angle_gamma 18.631467
_cell_volume 750.314104
_symmetry_space_group_name_H-M "P -1"
_symmetry_group_IT_number 2
_symmetry_cell_setting 'triclinic'
loop_
_space_group_symop_operation_xyz
x,y,z
-x,-y,-z
loop_
_atom_site_type_symbol
_atom_site_label
_atom_site_fract_x
_atom_site_fract_y
_atom_site_fract_z
Si Si1 0.945685 0.923951 0.328946
Si Si2 0.807813 0.466000 0.056407
Si Si3 0.470080 0.623579 0.757355
Si Si4 0.885857 0.386086 0.378389
Si Si5 0.637780 0.392285 0.947326
Si Si6 0.228892 0.317766 0.146631
Si Si7 0.192530 0.989958 0.483854
Si Si8 0.528797 0.834047 0.928801
O O1 0.715726 0.120058 0.192110
O O2 0.961706 0.889265 0.470374
O O3 0.000000 0.000000 0.500000
O O4 0.059228 0.717949 0.119997
O O5 0.923634 0.392366 0.292742
O O6 0.670343 0.503359 0.937116
O O7 0.670398 0.689761 0.091458
O O8 0.500000 0.500000 0.500000
O O9 0.457081 0.574554 0.803108
O O10 0.774426 0.373158 0.179959
O O11 0.759258 0.603360 0.577598
O O12 0.098548 0.170686 0.496945
O O13 0.500000 0.500000 0.000000
O O14 0.780136 0.152817 0.780166
O O15 0.323492 0.278947 0.114063
O O16 0.000000 0.500000 0.000000
O O17 0.362584 0.086010 0.065048
O O18 0.407402 0.832876 0.674551
#
# Coordination Sequence:
#
# PCOD8029310 Si02
#       8
#     2   2   2   2   2   2   2   2
#     4  12  23  36  66  92 136 184 225 264 316 395
#     4  11  24  41  62  98 130 170 219 276 331 379
#     4  11  20  40  56  92 129 176 228 260 311 396
#     4  11  25  43  63  98 139 169 220 279 333 391
#     4  11  24  37  62  95 139 176 214 269 337 388
#     4  11  24  48  75  98 126 172 229 275 330 400
#     4  12  23  42  67  99 135 180 225 262 327 410
#     4  11  24  45  75  97 126 175 228 272 326 398
#
# _framework density 21.324403
#
# number of rings (size 3 to 8) (size 9 to 14) (size 15 to 20)
#    0.000    0.750    5.000    2.625    3.500    0.500 
#    0.000    0.625    0.000    0.000    0.000    0.000 
#    0.000    0.000    0.000    0.000    0.000    0.000 
#
# Total GULP energy -198260.533760 kJ/mol
# GULP energy per Si atom -12391.283360 kJ/mol
# Density = 2.127587 g / cm^3
# Si number density = 21.324403 Si / 1000 Ang^3
#
#
#
# Elastic Constant Matrix: (Units=GPa)
#
#
# Indices 1 2 3 4 5 6 
#
# 1 124.4931 50.4812 47.5923 3.7032 -30.3789 3.5880
# 2 50.4812 137.7155 44.0269 13.2250 -24.9435 11.5823
# 3 47.5923 44.0269 94.8678 25.0774 -18.1237 2.6112
# 4 3.7032 13.2250 25.0774 39.9155 -0.5348 -7.0047
# 5 -30.3789 -24.9435 -18.1237 -0.5348 42.5358 -7.1485
# 6 3.5880 11.5823 2.6112 -7.0047 -7.1485 42.5792
#
#
#
# Elastic Compliance Matrix: (Units=1/GPa)
#
#
# Indices 1 2 3 4 5 6 
#
# 1 0.011963 -0.002281 -0.004703 0.002901 0.005457 0.001294
# 2 -0.002281 0.009675 -0.002266 -0.001914 0.002691 -0.002164
# 3 -0.004703 -0.002266 0.016961 -0.009658 0.002208 -0.001245
# 4 0.002901 -0.001914 -0.009658 0.032501 -0.001762 0.005919
# 5 0.005457 0.002691 0.002208 -0.001762 0.030492 0.003502
# 6 0.001294 -0.002164 -0.001245 0.005919 0.003502 0.025603
#
#
# Mechanical properties :
#
#
# Convention : Reuss Voigt Hill
#
# Bulk Modulus (GPa) = 49.75274 71.25303 60.50288
# Shear Modulus (GPa) = 32.80923 39.33783 36.07353
#
# Velocity S-wave (km/s) = 3.92672 4.29970 4.11744
# Velocity P-wave (km/s) = 6.62879 7.62471 7.14413
#
# Compressibility (1/GPa) = 0.02009940
#
# Stress axis : x y z
#
# Youngs Moduli (GPa) = 83.58869 103.35768 58.95795
#
# Poissons Ratio (x) = 0.23574 0.27728
# Poissons Ratio (y) = 0.19065 0.13361
# Poissons Ratio (z) = 0.39312 0.23424
#
# Static dielectric constant tensor:
#      x y z
#    x 3.942760 0.166760 -0.166530 
#    y 0.166760 3.890850 0.033650 
#    z -0.166530 0.033650 3.766440 
# 
# 
# High freq. dielectric constant tensor:
#      x y z
#    x 1.845090 0.008370 -0.014370 
#    y 0.008370 1.847960 -0.000450 
#    z -0.014370 -0.000450 1.826670 
# 
# From -- ./inp_files/348969.got.cif
#   From: 2010.06.25/outbox.cif.g09.slc.cpg/sg2_175_cif.got.tgz:348969.got - 2010.06.27 13:26:56.
