data_PCOD8029323
_publ_section_title
;
Structure prediction by ZEFSAII (Michael W. Deem and Ramdas Pophale) SiO2 
 PCOD8029323
Probable space group: P -1
;
_chemical_formula_sum "Si O2"
_cell_formula_units_Z 12
_cell_length_a 8.991685
_cell_length_b 9.441507
_cell_length_c 14.770325
_cell_angle_alpha 39.893809
_cell_angle_beta 60.803966
_cell_angle_gamma 50.473413
_cell_volume 620.323905
_symmetry_space_group_name_H-M "P -1"
_symmetry_group_IT_number 2
_symmetry_cell_setting 'triclinic'
loop_
_space_group_symop_operation_xyz
x,y,z
-x,-y,-z
loop_
_atom_site_type_symbol
_atom_site_label
_atom_site_fract_x
_atom_site_fract_y
_atom_site_fract_z
Si Si1 0.622485 0.208487 0.594903
Si Si2 0.395855 0.520482 0.159697
Si Si3 0.381983 0.853372 0.584848
Si Si4 0.997790 0.321980 0.716850
Si Si5 0.034412 0.781418 0.422263
Si Si6 0.413830 0.898808 0.840520
O O1 0.500000 0.500000 0.500000
O O2 0.650597 0.147305 0.511101
O O3 0.827619 0.115839 0.627566
O O4 0.515156 0.071278 0.742885
O O5 0.501896 0.426475 0.271347
O O6 0.481771 0.282340 0.185128
O O7 0.165802 0.624748 0.185770
O O8 0.438296 0.738430 0.002413
O O9 0.500000 0.000000 0.500000
O O10 0.178326 0.990489 0.627624
O O11 0.049934 0.549706 0.591141
O O12 0.906663 0.310362 0.652894
O O13 0.187199 0.065215 0.807238
#
# Coordination Sequence:
#
# PCOD8029323 Si02
#       6
#     2   2   2   2   2   2
#     4  12  23  39  63  95 127 159 209 262 308 363
#     4  11  23  39  67  91 125 165 210 254 305 376
#     4  12  21  41  64  93 123 167 210 252 308 370
#     4  11  20  40  65  94 120 165 210 254 310 367
#     4  11  22  36  65  95 124 157 212 263 302 366
#     4  11  23  42  63  92 127 165 208 253 312 370
#
# _framework density 19.344732
#
# number of rings (size 3 to 8) (size 9 to 14) (size 15 to 20)
#    0.000    0.667    6.667    2.000    0.000    0.000 
#    0.000    4.167    0.000    0.000    0.000    0.000 
#    0.000    0.000    0.000    0.000    0.000    0.000 
#
# Total GULP energy -148845.935686 kJ/mol
# GULP energy per Si atom -12403.827974 kJ/mol
# Density = 1.930070 g / cm^3
# Si number density = 19.344732 Si / 1000 Ang^3
#
#
#
# Elastic Constant Matrix: (Units=GPa)
#
#
# Indices 1 2 3 4 5 6 
#
# 1 131.5636 41.6030 52.7888 -1.3831 -8.0616 -11.7148
# 2 41.6030 104.5876 35.0087 -2.4356 -8.8952 -27.1099
# 3 52.7888 35.0087 142.2676 -6.5193 -8.7393 -7.8454
# 4 -1.3831 -2.4356 -6.5193 23.6247 1.2968 -2.6105
# 5 -8.0616 -8.8952 -8.7393 1.2968 25.0339 0.2121
# 6 -11.7148 -27.1099 -7.8454 -2.6105 0.2121 35.7539
#
#
#
# Elastic Compliance Matrix: (Units=1/GPa)
#
#
# Indices 1 2 3 4 5 6 
#
# 1 0.009712 -0.002694 -0.002865 -0.000514 0.001193 0.000466
# 2 -0.002694 0.013950 -0.001629 0.001690 0.003353 0.009441
# 3 -0.002865 -0.001629 0.008663 0.001961 0.001422 -0.000138
# 4 -0.000514 0.001690 0.001961 0.043602 -0.001179 0.004734
# 5 0.001193 0.003353 0.001422 -0.001179 0.042054 0.002910
# 6 0.000466 0.009441 -0.000138 0.004734 0.002910 0.035578
#
#
# Mechanical properties :
#
#
# Convention : Reuss Voigt Hill
#
# Bulk Modulus (GPa) = 55.71697 70.80221 63.25959
# Shear Modulus (GPa) = 28.74940 33.48373 31.11657
#
# Velocity S-wave (km/s) = 3.85926 4.16492 4.01500
# Velocity P-wave (km/s) = 6.98020 7.73359 7.36653
#
# Compressibility (1/GPa) = 0.01794785
#
# Stress axis : x y z
#
# Youngs Moduli (GPa) = 102.97064 71.68559 115.43800
#
# Poissons Ratio (x) = 0.19310 0.33075
# Poissons Ratio (y) = 0.27737 0.18807
# Poissons Ratio (z) = 0.29503 0.11679
#
# Static dielectric constant tensor:
#      x y z
#    x 3.101050 -0.208060 -0.060470 
#    y -0.208060 3.867490 0.007400 
#    z -0.060470 0.007400 3.681050 
# 
# 
# High freq. dielectric constant tensor:
#      x y z
#    x 1.743300 -0.018230 0.002920 
#    y -0.018230 1.765990 0.001210 
#    z 0.002920 0.001210 1.750590 
# 
# From -- ./inp_files/147277.got.cif
#   From: 2010.06.25/outbox.cif.g09.slc.cpg/sg2_74_cif.got.tgz:147277.got - 2010.06.27 13:26:56.
