data_PCOD8029957
_publ_section_title
;
Structure prediction by ZEFSAII (Michael W. Deem and Ramdas Pophale) SiO2 
 PCOD8029957
Probable space group: P -1
;
_chemical_formula_sum "Si O2"
_cell_formula_units_Z 14
_cell_length_a 9.544340
_cell_length_b 8.628991
_cell_length_c 7.517186
_cell_angle_alpha 73.930317
_cell_angle_beta 89.629426
_cell_angle_gamma 81.864283
_cell_volume 588.574126
_symmetry_space_group_name_H-M "P -1"
_symmetry_group_IT_number 2
_symmetry_cell_setting 'triclinic'
loop_
_space_group_symop_operation_xyz
x,y,z
-x,-y,-z
loop_
_atom_site_type_symbol
_atom_site_label
_atom_site_fract_x
_atom_site_fract_y
_atom_site_fract_z
Si Si1 0.860463 0.934898 0.332255
Si Si2 0.345252 0.100370 0.950246
Si Si3 0.303795 0.552156 0.352668
Si Si4 0.150587 0.871303 0.157688
Si Si5 0.826086 0.282355 0.182530
Si Si6 0.942260 0.613066 0.631683
Si Si7 0.391965 0.449489 0.772344
O O1 0.713584 0.912924 0.244726
O O2 0.897472 0.802511 0.525199
O O3 0.986941 0.925517 0.188094
O O4 0.840381 0.117427 0.357286
O O5 0.351216 0.290809 0.924231
O O6 0.500000 0.000000 0.000000
O O7 0.236793 0.026292 0.107957
O O8 0.228003 0.736621 0.338343
O O9 0.195732 0.456629 0.272279
O O10 0.336766 0.457245 0.567356
O O11 0.439614 0.555954 0.226993
O O12 0.158192 0.775370 0.001274
O O13 0.672772 0.388960 0.172448
O O14 0.941626 0.395170 0.210692
O O15 0.000000 0.500000 0.500000
#
# Coordination Sequence:
#
# PCOD8029957 Si02
#       7
#     2   2   2   2   2   2   2
#     4  11  23  45  66  98 134 174 215 275 324 395
#     4  11  21  41  66  95 126 175 212 267 325 384
#     4  11  23  42  69  96 129 175 220 264 327 391
#     4  11  24  44  67  99 136 169 219 271 335 379
#     4  11  24  41  66  98 133 173 215 277 326 388
#     4  12  21  42  70  97 129 174 224 267 328 386
#     4  11  23  44  69  93 133 176 221 264 330 392
#
# _framework density 23.786299
#
# number of rings (size 3 to 8) (size 9 to 14) (size 15 to 20)
#    0.000    0.857    5.714    2.143    0.000    1.143 
#    2.571    0.714    0.000    0.000    0.000    0.000 
#    0.000    0.000    0.000    0.000    0.000    0.000 
#
# Total GULP energy -173577.910605 kJ/mol
# GULP energy per Si atom -12398.422186 kJ/mol
# Density = 2.373216 g / cm^3
# Si number density = 23.786299 Si / 1000 Ang^3
#
#
#
# Elastic Constant Matrix: (Units=GPa)
#
#
# Indices 1 2 3 4 5 6 
#
# 1 161.2210 66.0262 26.4974 2.1595 -0.2055 2.2922
# 2 66.0262 169.1142 29.0911 -22.1509 -15.5294 -8.0759
# 3 26.4974 29.0911 35.1751 -15.2657 -4.2808 3.0393
# 4 2.1595 -22.1509 -15.2657 41.9372 3.3793 -3.8415
# 5 -0.2055 -15.5294 -4.2808 3.3793 27.8321 -11.9702
# 6 2.2922 -8.0759 3.0393 -3.8415 -11.9702 43.1886
#
#
#
# Elastic Compliance Matrix: (Units=1/GPa)
#
#
# Indices 1 2 3 4 5 6 
#
# 1 0.008564 -0.003256 -0.005777 -0.004197 -0.002924 -0.001841
# 2 -0.003256 0.008890 -0.002941 0.003693 0.005739 0.003961
# 3 -0.005777 -0.002941 0.041501 0.013533 0.002513 -0.001264
# 4 -0.004197 0.003693 0.013533 0.031093 0.001713 0.003201
# 5 -0.002924 0.005739 0.002513 0.001713 0.045194 0.013730
# 6 -0.001841 0.003961 -0.001264 0.003201 0.013730 0.028172
#
#
# Mechanical properties :
#
#
# Convention : Reuss Voigt Hill
#
# Bulk Modulus (GPa) = 28.56435 67.63776 48.10106
# Shear Modulus (GPa) = 25.12167 38.85130 31.98649
#
# Velocity S-wave (km/s) = 3.25336 4.04585 3.67105
# Velocity P-wave (km/s) = 5.11344 7.09384 6.18344
#
# Compressibility (1/GPa) = 0.03500867
#
# Stress axis : x y z
#
# Youngs Moduli (GPa) = 116.76479 112.48291 24.09580
#
# Poissons Ratio (x) = 0.36625 0.13919
# Poissons Ratio (y) = 0.38019 0.07086
# Poissons Ratio (z) = 0.67451 0.33077
#
# Static dielectric constant tensor:
#      x y z
#    x 4.553090 0.042760 0.093540 
#    y 0.042760 4.574300 -0.557800 
#    z 0.093540 -0.557800 3.993940 
# 
# 
# High freq. dielectric constant tensor:
#      x y z
#    x 1.955450 0.000360 0.016550 
#    y 0.000360 1.950530 -0.032830 
#    z 0.016550 -0.032830 1.922770 
# 
# From -- ./inp_files/153947.got.cif
#   From: 2010.06.25/outbox.cif.g09.slc.cpg/sg2_77_cif.got.tgz:153947.got - 2010.06.27 13:26:56.
