data_PCOD8029563
_publ_section_title
;
Structure prediction by ZEFSAII (Michael W. Deem and Ramdas Pophale) SiO2 
 PCOD8029563
Probable space group: P -1
;
_chemical_formula_sum "Si O2"
_cell_formula_units_Z 16
_cell_length_a 19.694248
_cell_length_b 20.478604
_cell_length_c 9.134326
_cell_angle_alpha 43.028296
_cell_angle_beta 41.415398
_cell_angle_gamma 20.746739
_cell_volume 856.308623
_symmetry_space_group_name_H-M "P -1"
_symmetry_group_IT_number 2
_symmetry_cell_setting 'triclinic'
loop_
_space_group_symop_operation_xyz
x,y,z
-x,-y,-z
loop_
_atom_site_type_symbol
_atom_site_label
_atom_site_fract_x
_atom_site_fract_y
_atom_site_fract_z
Si Si1 0.720974 0.910842 0.166979
Si Si2 0.835898 0.209694 0.874791
Si Si3 0.889507 0.384787 0.829443
Si Si4 0.553041 0.545118 0.983913
Si Si5 0.024135 0.696108 0.512996
Si Si6 0.359265 0.239698 0.402988
Si Si7 0.356101 0.028458 0.149086
Si Si8 0.418816 0.294186 0.512194
O O1 0.719579 0.804916 0.407139
O O2 0.939409 0.781915 0.059232
O O3 0.546959 0.107878 0.207698
O O4 0.693022 0.936799 0.997710
O O5 0.675078 0.303744 0.854338
O O6 0.946839 0.216326 0.627597
O O7 0.688035 0.351063 0.018700
O O8 0.000000 0.000000 0.000000
O O9 0.820569 0.548177 0.704871
O O10 0.990726 0.293885 0.655228
O O11 0.686241 0.482119 0.005379
O O12 0.513825 0.658028 0.739304
O O13 0.836687 0.798984 0.724122
O O14 0.201919 0.483944 0.622509
O O15 0.422068 0.212169 0.513034
O O16 0.443816 0.854788 0.336060
O O17 0.500000 0.000000 0.000000
#
# Coordination Sequence:
#
# PCOD8029563 Si02
#       8
#     2   2   2   2   2   2   2   2
#     4  11  21  32  50  74 101 139 182 214 254 300
#     4   9  15  29  54  84 104 125 162 217 266 307
#     4   9  19  35  54  74 104 134 172 221 257 303
#     4   8  17  30  53  82 103 128 167 214 265 305
#     4   9  21  35  54  77 105 136 169 212 263 311
#     4   9  19  35  51  71  98 138 181 223 250 291
#     4  12  23  34  49  75 107 144 175 212 254 307
#     4   9  18  37  51  75 106 136 171 218 253 304
#
# _framework density 18.684851999999999
#
# number of rings (size 3 to 8) (size 9 to 14) (size 15 to 20)
#    0.000    3.000    1.250    1.875    1.750    4.500 
#    0.000    0.000    0.000    0.750    0.000   42.000 
#    0.000    4.000    0.000    0.000    0.000    0.000 
#
# Total GULP energy -198217.742577 kJ/mol
# GULP energy per Si atom -12388.608911 kJ/mol
# Density = 1.864232 g / cm^3
# Si number density = 18.684852 Si / 1000 Ang^3
#
#
#
# Elastic Constant Matrix: (Units=GPa)
#
#
# Indices 1 2 3 4 5 6 
#
# 1 95.3156 54.0449 36.6771 2.8238 -2.1935 -19.6744
# 2 54.0449 123.4656 42.0000 5.2416 2.2452 -8.5661
# 3 36.6771 42.0000 45.6465 5.5322 -2.8402 -4.9067
# 4 2.8238 5.2416 5.5322 26.5700 -7.8469 -4.9338
# 5 -2.1935 2.2452 -2.8402 -7.8469 25.3489 -5.5138
# 6 -19.6744 -8.5661 -4.9067 -4.9338 -5.5138 30.9037
#
#
#
# Elastic Compliance Matrix: (Units=1/GPa)
#
#
# Indices 1 2 3 4 5 6 
#
# 1 0.019232 -0.004353 -0.010523 0.004385 0.004596 0.010886
# 2 -0.004353 0.012955 -0.008588 -0.001520 -0.003254 -0.001367
# 3 -0.010523 -0.008588 0.038649 -0.005361 0.001763 -0.003484
# 4 0.004385 -0.001520 -0.005361 0.045680 0.016616 0.011776
# 5 0.004596 -0.003254 0.001763 0.016616 0.048434 0.013598
# 6 0.010886 -0.001367 -0.003484 0.011776 0.013598 0.042663
#
#
# Mechanical properties :
#
#
# Convention : Reuss Voigt Hill
#
# Bulk Modulus (GPa) = 41.82530 58.87464 50.34997
# Shear Modulus (GPa) = 19.04690 25.34490 22.19590
#
# Velocity S-wave (km/s) = 3.19623 3.68698 3.45034
# Velocity P-wave (km/s) = 6.00453 7.05002 6.54818
#
# Compressibility (1/GPa) = 0.02390898
#
# Stress axis : x y z
#
# Youngs Moduli (GPa) = 51.99714 77.18954 25.87405
#
# Poissons Ratio (x) = 0.33603 0.27226
# Poissons Ratio (y) = 0.22636 0.22219
# Poissons Ratio (z) = 0.54714 0.66287
#
# Static dielectric constant tensor:
#      x y z
#    x 3.469890 -0.111830 -0.270260 
#    y -0.111830 3.670540 -0.039500 
#    z -0.270260 -0.039500 3.105620 
# 
# 
# High freq. dielectric constant tensor:
#      x y z
#    x 1.718040 -0.008510 -0.025720 
#    y -0.008510 1.744870 -0.007390 
#    z -0.025720 -0.007390 1.678300 
# 
# From -- ./inp_files/349390.got.cif
#   From: 2010.06.25/outbox.cif.g09.slc.cpg/sg2_175_cif.got.tgz:349390.got - 2010.06.27 13:26:56.
