data_PCOD8029925
_publ_section_title
;
Structure prediction by ZEFSAII (Michael W. Deem and Ramdas Pophale) SiO2 
 PCOD8029925
Probable space group: P -1
;
_chemical_formula_sum "Si O2"
_cell_formula_units_Z 16
_cell_length_a 19.417597
_cell_length_b 12.682059
_cell_length_c 9.497142
_cell_angle_alpha 75.354031
_cell_angle_beta 135.173546
_cell_angle_gamma 140.877799
_cell_volume 773.617844
_symmetry_space_group_name_H-M "P -1"
_symmetry_group_IT_number 2
_symmetry_cell_setting 'triclinic'
loop_
_space_group_symop_operation_xyz
x,y,z
-x,-y,-z
loop_
_atom_site_type_symbol
_atom_site_label
_atom_site_fract_x
_atom_site_fract_y
_atom_site_fract_z
Si Si1 0.599928 0.154930 0.724414
Si Si2 0.045361 0.611837 0.665958
Si Si3 0.410848 0.606078 0.395970
Si Si4 0.479429 0.365738 0.761526
Si Si5 0.268576 0.180646 0.012237
Si Si6 0.890553 0.848233 0.758165
Si Si7 0.330139 0.074645 0.888051
Si Si8 0.397805 0.854227 0.758811
O O1 0.639597 0.317359 0.687446
O O2 0.500000 0.000000 0.500000
O O3 0.426792 0.983390 0.651015
O O4 0.804831 0.299381 0.034401
O O5 0.827356 0.408971 0.486633
O O6 0.000000 0.500000 0.500000
O O7 0.119769 0.803562 0.654683
O O8 0.428563 0.588475 0.265706
O O9 0.616591 0.768011 0.712304
O O10 0.224550 0.372092 0.287202
O O11 0.640571 0.612475 0.965315
O O12 0.262718 0.208713 0.491015
O O13 0.440927 0.228451 0.857730
O O14 0.287643 0.128510 0.917545
O O15 0.038003 0.967392 0.800473
O O16 0.000000 0.000000 0.000000
O O17 0.481440 0.128708 0.141671
O O18 0.500000 0.000000 0.000000
#
# Coordination Sequence:
#
# PCOD8029925 Si02
#       8
#     2   2   2   2   2   2   2   2
#     4  11  25  42  65 103 134 166 223 279 328 383
#     4  11  24  43  68  97 133 177 223 265 326 402
#     4  11  22  39  68  91 123 176 216 261 330 390
#     4  11  23  39  65  94 124 170 222 262 322 401
#     4  11  23  43  62  92 136 163 212 276 330 382
#     4  11  21  41  62  92 126 166 217 272 316 388
#     4  11  25  40  66  99 128 172 214 275 336 379
#     4  11  22  46  68  91 138 176 219 274 322 399
#
# _framework density 20.682047000000001
#
# number of rings (size 3 to 8) (size 9 to 14) (size 15 to 20)
#    0.000    1.000    5.000    3.375    0.000    7.000 
#    0.000    0.000    0.000    0.000    0.000    0.000 
#    0.000    0.000    0.000    0.000    0.000    0.000 
#
# Total GULP energy -198261.725052 kJ/mol
# GULP energy per Si atom -12391.357816 kJ/mol
# Density = 2.063497 g / cm^3
# Si number density = 20.682047 Si / 1000 Ang^3
#
#
#
# Elastic Constant Matrix: (Units=GPa)
#
#
# Indices 1 2 3 4 5 6 
#
# 1 91.9505 18.3832 35.8043 14.6402 -3.0015 -2.3244
# 2 18.3832 117.8865 39.9070 15.1381 7.8682 -6.5040
# 3 35.8043 39.9070 93.2037 21.9446 -1.8518 -0.6090
# 4 14.6402 15.1381 21.9446 33.2455 8.6824 3.9208
# 5 -3.0015 7.8682 -1.8518 8.6824 39.7575 8.1019
# 6 -2.3244 -6.5040 -0.6090 3.9208 8.1019 40.6724
#
#
#
# Elastic Compliance Matrix: (Units=1/GPa)
#
#
# Indices 1 2 3 4 5 6 
#
# 1 0.013132 -0.000287 -0.004083 -0.003421 0.001466 0.000681
# 2 -0.000287 0.010360 -0.003979 -0.001610 -0.002355 0.002205
# 3 -0.004083 -0.003979 0.015837 -0.007561 0.002969 -0.000495
# 4 -0.003421 -0.001610 -0.007561 0.039834 -0.008435 -0.002726
# 5 0.001466 -0.002355 0.002969 -0.008435 0.028762 -0.005165
# 6 0.000681 0.002205 -0.000495 -0.002726 -0.005165 0.026262
#
#
# Mechanical properties :
#
#
# Convention : Reuss Voigt Hill
#
# Bulk Modulus (GPa) = 44.18532 54.58108 49.38320
# Shear Modulus (GPa) = 31.55971 36.66484 34.11227
#
# Velocity S-wave (km/s) = 3.91058 4.21501 4.06565
# Velocity P-wave (km/s) = 6.46534 7.08070 6.78000
#
# Compressibility (1/GPa) = 0.02263195
#
# Stress axis : x y z
#
# Youngs Moduli (GPa) = 76.14792 96.52526 63.14154
#
# Poissons Ratio (x) = 0.02767 0.25781
# Poissons Ratio (y) = 0.02183 0.25125
# Poissons Ratio (z) = 0.31092 0.38409
#
# Static dielectric constant tensor:
#      x y z
#    x 4.135720 0.075490 0.303950 
#    y 0.075490 4.452690 0.467550 
#    z 0.303950 0.467550 4.375360 
# 
# 
# High freq. dielectric constant tensor:
#      x y z
#    x 1.814380 0.002700 -0.000960 
#    y 0.002700 1.831760 0.011040 
#    z -0.000960 0.011040 1.801170 
# 
# From -- ./inp_files/333298.got.cif
#   From: 2010.06.25/outbox.cif.g09.slc.cpg/sg2_167_cif.got.tgz:333298.got - 2010.06.27 13:26:56.
