data_PCOD8029367
_publ_section_title
;
Structure prediction by ZEFSAII (Michael W. Deem and Ramdas Pophale) SiO2 
 PCOD8029367
Probable space group: P -1
;
_chemical_formula_sum "Si O2"
_cell_formula_units_Z 16
_cell_length_a 9.538731
_cell_length_b 24.990094
_cell_length_c 9.572969
_cell_angle_alpha 44.362185
_cell_angle_beta 134.271266
_cell_angle_gamma 151.376641
_cell_volume 747.211482
_symmetry_space_group_name_H-M "P -1"
_symmetry_group_IT_number 2
_symmetry_cell_setting 'triclinic'
loop_
_space_group_symop_operation_xyz
x,y,z
-x,-y,-z
loop_
_atom_site_type_symbol
_atom_site_label
_atom_site_fract_x
_atom_site_fract_y
_atom_site_fract_z
Si Si1 0.300482 0.780000 0.662250
Si Si2 0.333633 0.252684 0.017872
Si Si3 0.284600 0.769416 0.000258
Si Si4 0.328899 0.618435 0.458491
Si Si5 0.621699 0.613662 0.433958
Si Si6 0.884620 0.994412 0.077278
Si Si7 0.185750 0.257841 0.201662
Si Si8 0.863869 0.016255 0.489656
O O1 0.353974 0.797580 0.832162
O O2 0.970604 0.706022 0.531341
O O3 0.513510 0.900037 0.497992
O O4 0.391873 0.720776 0.793197
O O5 0.439910 0.337909 0.809077
O O6 0.268528 0.286218 0.043487
O O7 0.046650 0.118136 0.018466
O O8 0.948611 0.699142 0.930298
O O9 0.323816 0.694884 0.222680
O O10 0.525114 0.896781 0.004922
O O11 0.454417 0.586558 0.510319
O O12 0.534552 0.684328 0.616559
O O13 0.000000 0.500000 0.500000
O O14 0.500000 0.500000 0.500000
O O15 0.949485 0.941682 0.319189
O O16 0.000000 0.000000 0.000000
O O17 0.913188 0.117577 0.289612
O O18 0.000000 0.000000 0.500000
#
# Coordination Sequence:
#
# PCOD8029367 Si02
#       8
#     2   2   2   2   2   2   2   2
#     4  11  24  46  72 104 144 185 230 288 352 418
#     4  11  26  46  69 108 147 182 231 293 348 419
#     4  12  25  44  73 104 143 189 231 287 356 420
#     4  12  29  50  72 102 144 184 239 301 346 417
#     4  12  29  49  75 104 133 189 249 287 350 424
#     4  11  20  40  71 100 142 185 224 281 351 415
#     4  12  27  44  71 110 143 186 232 288 358 419
#     4  11  22  41  70 107 147 182 228 286 348 416
#
# _framework density 21.412946999999999
#
# number of rings (size 3 to 8) (size 9 to 14) (size 15 to 20)
#    0.000    0.500    8.750    0.000    5.250    4.000 
#    0.000    0.000    0.000    0.000    0.000    0.000 
#    0.000    0.000    0.000    0.000    0.000    0.000 
#
# Total GULP energy -198350.428488 kJ/mol
# GULP energy per Si atom -12396.901780 kJ/mol
# Density = 2.136421 g / cm^3
# Si number density = 21.412947 Si / 1000 Ang^3
#
#
#
# Elastic Constant Matrix: (Units=GPa)
#
#
# Indices 1 2 3 4 5 6 
#
# 1 130.2057 50.7648 26.4388 9.3288 -11.8995 9.9600
# 2 50.7648 107.4376 33.3353 4.1520 0.4764 16.7197
# 3 26.4388 33.3353 72.3200 7.3961 -5.9887 5.3871
# 4 9.3288 4.1520 7.3961 26.8054 0.1677 3.2838
# 5 -11.8995 0.4764 -5.9887 0.1677 42.2418 2.5450
# 6 9.9600 16.7197 5.3871 3.2838 2.5450 39.1776
#
#
#
# Elastic Compliance Matrix: (Units=1/GPa)
#
#
# Indices 1 2 3 4 5 6 
#
# 1 0.010031 -0.004192 -0.001214 -0.002454 0.002745 -0.000567
# 2 -0.004192 0.013282 -0.004557 0.001155 -0.001743 -0.003959
# 3 -0.001214 -0.004557 0.016904 -0.003560 0.002115 0.000090
# 4 -0.002454 0.001155 -0.003560 0.039289 -0.001209 -0.002594
# 5 0.002745 -0.001743 0.002115 -0.001209 0.024877 -0.001759
# 6 -0.000567 -0.003959 0.000090 -0.002594 -0.001759 0.027678
#
#
# Mechanical properties :
#
#
# Convention : Reuss Voigt Hill
#
# Bulk Modulus (GPa) = 49.28477 59.00456 54.14467
# Shear Modulus (GPa) = 31.49580 34.93993 33.21787
#
# Velocity S-wave (km/s) = 3.83936 4.04384 3.94293
# Velocity P-wave (km/s) = 6.53610 7.02986 6.78747
#
# Compressibility (1/GPa) = 0.02029024
#
# Stress axis : x y z
#
# Youngs Moduli (GPa) = 99.68873 75.29129 59.15620
#
# Poissons Ratio (x) = 0.31563 0.07184
# Poissons Ratio (y) = 0.41791 0.26958
# Poissons Ratio (z) = 0.12106 0.34311
#
# Static dielectric constant tensor:
#      x y z
#    x 3.988360 0.039570 0.020830 
#    y 0.039570 3.889400 -0.034260 
#    z 0.020830 -0.034260 3.998160 
# 
# 
# High freq. dielectric constant tensor:
#      x y z
#    x 1.849650 0.006520 -0.008780 
#    y 0.006520 1.831980 0.005180 
#    z -0.008780 0.005180 1.851700 
# 
# From -- ./inp_files/226195.got.cif
#   From: 2010.06.25/outbox.cif.g09.slc.cpg/sg2_114_cif.got.tgz:226195.got - 2010.06.27 13:26:56.
