data_PCOD8030982
_publ_section_title
;
Structure prediction by ZEFSAII (Michael W. Deem and Ramdas Pophale) SiO2 
 PCOD8030982
Probable space group: P -1
;
_chemical_formula_sum "Si O2"
_cell_formula_units_Z 16
_cell_length_a 10.519857
_cell_length_b 8.407049
_cell_length_c 19.096677
_cell_angle_alpha 125.213705
_cell_angle_beta 37.906242
_cell_angle_gamma 136.065621
_cell_volume 719.801472
_symmetry_space_group_name_H-M "P -1"
_symmetry_group_IT_number 2
_symmetry_cell_setting 'triclinic'
loop_
_space_group_symop_operation_xyz
x,y,z
-x,-y,-z
loop_
_atom_site_type_symbol
_atom_site_label
_atom_site_fract_x
_atom_site_fract_y
_atom_site_fract_z
Si Si1 0.586086 0.116431 0.885834
Si Si2 0.996625 0.018372 0.704025
Si Si3 0.528080 0.502408 0.405608
Si Si4 0.115034 0.024754 0.111834
Si Si5 0.184819 0.415352 0.409219
Si Si6 0.618706 0.716377 0.193080
Si Si7 0.797980 0.625603 0.956896
Si Si8 0.349883 0.871710 0.785924
O O1 0.698813 0.386998 0.901516
O O2 0.524345 0.010674 0.808756
O O3 0.345951 0.990900 0.008538
O O4 0.795798 0.084382 0.814617
O O5 0.953876 0.891839 0.765786
O O6 0.964079 0.855420 0.612208
O O7 0.260668 0.245262 0.643981
O O8 0.500000 0.500000 0.500000
O O9 0.287680 0.452037 0.453394
O O10 0.585107 0.307947 0.315597
O O11 0.197840 0.207359 0.060698
O O12 0.873112 0.784022 0.135999
O O13 0.403277 0.535544 0.289609
O O14 0.000000 0.500000 0.500000
O O15 0.606173 0.944884 0.247200
O O16 0.612264 0.600953 0.092322
O O17 0.069068 0.734627 0.897911
#
# Coordination Sequence:
#
# PCOD8030982 Si02
#       8
#     2   2   2   2   2   2   2   2
#     4  12  22  40  71 107 147 189 229 275 361 438
#     4  12  27  47  71 106 144 186 239 299 362 427
#     4  12  29  54  75 102 143 192 248 307 364 423
#     4  11  22  41  70 107 151 187 226 283 359 432
#     4  12  30  51  76 105 139 191 250 310 360 420
#     4  11  23  45  73 105 151 186 235 295 352 426
#     4  11  22  41  70 110 148 191 228 283 355 436
#     4  11  23  44  72 107 140 187 236 291 357 431
#
# _framework density 22.228352999999998
#
# number of rings (size 3 to 8) (size 9 to 14) (size 15 to 20)
#    0.000    0.500    6.250    2.250    3.500    4.000 
#    0.000    2.500    0.000    0.000    0.000    0.000 
#    0.000    0.000    0.000    0.000    0.000    0.000 
#
# Total GULP energy -198365.661287 kJ/mol
# GULP energy per Si atom -12397.853830 kJ/mol
# Density = 2.217776 g / cm^3
# Si number density = 22.228353 Si / 1000 Ang^3
#
#
#
# Elastic Constant Matrix: (Units=GPa)
#
#
# Indices 1 2 3 4 5 6 
#
# 1 104.0819 17.9845 49.4438 3.8612 9.8355 20.6997
# 2 17.9845 98.5049 40.3956 18.0186 1.7716 28.9126
# 3 49.4438 40.3956 80.9074 22.9579 10.2979 -13.7254
# 4 3.8612 18.0186 22.9579 26.0691 -3.6124 7.5291
# 5 9.8355 1.7716 10.2979 -3.6124 44.9440 5.6453
# 6 20.6997 28.9126 -13.7254 7.5291 5.6453 17.7926
#
#
#
# Elastic Compliance Matrix: (Units=1/GPa)
#
#
# Indices 1 2 3 4 5 6 
#
# 1 0.004242 -0.008084 0.007818 -0.008325 -0.005520 0.019507
# 2 -0.008084 0.005843 0.010212 -0.017157 -0.004239 0.016394
# 3 0.007818 0.010212 -0.006697 0.008729 0.004648 -0.036025
# 4 -0.008325 -0.017157 0.008729 0.035181 -0.000384 0.029532
# 5 -0.005520 -0.004239 0.004648 -0.000384 0.021233 0.010322
# 6 0.019507 0.016394 -0.036025 0.029532 0.010322 -0.036693
#
#
# Mechanical properties :
#
#
# Convention : Reuss Voigt Hill
#
# Bulk Modulus (GPa) = 42.95534 55.46023 49.20779
# Shear Modulus (GPa) = 455.54447 29.47248 242.50847
#
# Velocity S-wave (km/s) = 14.33120 3.64524 10.45636
# Velocity P-wave (km/s) = 17.12341 6.53616 12.96018
#
# Compressibility (1/GPa) = 0.02327999
#
# Stress axis : x y z
#
# Youngs Moduli (GPa) = 235.76143 171.15826 -149.32634
#
# Poissons Ratio (x) = 1.38367 1.16747
# Poissons Ratio (y) = 1.90594 1.52496
# Poissons Ratio (z) = -1.84324 -1.74791
#
# Static dielectric constant tensor:
#      x y z
#    x 4.355860 0.210980 -0.152160 
#    y 0.210980 4.121330 -0.069090 
#    z -0.152160 -0.069090 4.052150 
# 
# 
# High freq. dielectric constant tensor:
#      x y z
#    x 1.892520 0.016430 -0.003100 
#    y 0.016430 1.878520 -0.002100 
#    z -0.003100 -0.002100 1.867490 
# 
# From -- ./inp_files/280207.got.cif
#   From: 2010.06.25/outbox.cif.g09.slc.cpg/sg2_141_cif.got.tgz:280207.got - 2010.06.27 13:26:56.
