data_PCOD8030124
_publ_section_title
;
Structure prediction by ZEFSAII (Michael W. Deem and Ramdas Pophale) SiO2 
 PCOD8030124
Probable space group: P -1
;
_chemical_formula_sum "Si O2"
_cell_formula_units_Z 14
_cell_length_a 21.374385
_cell_length_b 13.356082
_cell_length_c 13.628111
_cell_angle_alpha 145.720099
_cell_angle_beta 155.534061
_cell_angle_gamma 23.600998
_cell_volume 644.386017
_symmetry_space_group_name_H-M "P -1"
_symmetry_group_IT_number 2
_symmetry_cell_setting 'triclinic'
loop_
_space_group_symop_operation_xyz
x,y,z
-x,-y,-z
loop_
_atom_site_type_symbol
_atom_site_label
_atom_site_fract_x
_atom_site_fract_y
_atom_site_fract_z
Si Si1 0.798818 0.781771 0.974443
Si Si2 0.541867 0.197535 0.434862
Si Si3 0.337138 0.728340 0.875303
Si Si4 0.495090 0.216284 0.176575
Si Si5 0.350236 0.560534 0.086850
Si Si6 0.072126 0.163427 0.593498
Si Si7 0.972525 0.700857 0.566381
O O1 0.848137 0.791138 0.163967
O O2 0.734498 0.005073 0.994278
O O3 0.591881 0.828546 0.712271
O O4 0.000000 0.500000 0.000000
O O5 0.415692 0.360077 0.286415
O O6 0.629927 0.269893 0.692701
O O7 0.733919 0.948401 0.449659
O O8 0.443551 0.634752 0.844973
O O9 0.115446 0.809769 0.618977
O O10 0.500000 0.500000 0.000000
O O11 0.329278 0.423333 0.026880
O O12 0.725294 0.109267 0.384749
O O13 0.500000 0.000000 0.000000
O O14 0.134779 0.724185 0.848857
O O15 0.991175 0.358443 0.546882
O O16 0.000000 0.500000 0.500000
#
# Coordination Sequence:
#
# PCOD8030124 Si02
#       7
#     2   2   2   2   2   2   2
#     4  12  26  47  71 103 138 181 238 289 342 416
#     4  11  25  42  67 106 133 174 233 288 349 410
#     4  12  25  47  71 100 139 186 233 281 353 410
#     4  11  21  42  70  98 131 177 232 278 345 415
#     4  12  23  44  69  98 143 177 224 294 345 415
#     4  11  23  42  71  97 133 187 230 276 345 417
#     4  11  24  43  70  99 139 183 227 281 353 416
#
# _framework density 21.726108
#
# number of rings (size 3 to 8) (size 9 to 14) (size 15 to 20)
#    0.000    0.571    4.286    4.714    2.000    0.000 
#    2.571    1.429    0.000    0.000    0.000    0.000 
#    0.000    0.000    0.000    0.000    0.000    0.000 
#
# Total GULP energy -173442.190494 kJ/mol
# GULP energy per Si atom -12388.727892 kJ/mol
# Density = 2.167666 g / cm^3
# Si number density = 21.726108 Si / 1000 Ang^3
#
#
#
# Elastic Constant Matrix: (Units=GPa)
#
#
# Indices 1 2 3 4 5 6 
#
# 1 95.8438 42.3727 34.8079 4.6860 4.1376 14.4054
# 2 42.3727 90.1172 26.8873 6.0265 1.0589 9.8224
# 3 34.8079 26.8873 120.8505 0.6609 4.7499 6.2412
# 4 4.6860 6.0265 0.6609 31.9397 -5.5551 3.5264
# 5 4.1376 1.0589 4.7499 -5.5551 45.8644 -9.8618
# 6 14.4054 9.8224 6.2412 3.5264 -9.8618 44.5320
#
#
#
# Elastic Compliance Matrix: (Units=1/GPa)
#
#
# Indices 1 2 3 4 5 6 
#
# 1 0.014502 -0.005562 -0.002690 -0.000951 -0.001747 -0.003399
# 2 -0.005562 0.014404 -0.001535 -0.001774 -0.000112 -0.001047
# 3 -0.002690 -0.001535 0.009433 0.000398 -0.000716 -0.000303
# 4 -0.000951 -0.001774 0.000398 0.032556 0.003793 -0.001095
# 5 -0.001747 -0.000112 -0.000716 0.003793 0.023710 0.005641
# 6 -0.003399 -0.001047 -0.000303 -0.001095 0.005641 0.025165
#
#
# Mechanical properties :
#
#
# Convention : Reuss Voigt Hill
#
# Bulk Modulus (GPa) = 53.28855 57.21639 55.25247
# Shear Modulus (GPa) = 34.34141 37.98345 36.16243
#
# Velocity S-wave (km/s) = 3.98005 4.18579 4.08422
# Velocity P-wave (km/s) = 6.76031 7.05362 6.90852
#
# Compressibility (1/GPa) = 0.01876576
#
# Stress axis : x y z
#
# Youngs Moduli (GPa) = 68.95461 69.42698 106.01579
#
# Poissons Ratio (x) = 0.38613 0.28521
# Poissons Ratio (y) = 0.38350 0.16268
# Poissons Ratio (z) = 0.18550 0.10654
#
# Static dielectric constant tensor:
#      x y z
#    x 4.224670 -0.119870 0.178430 
#    y -0.119870 3.683120 -0.081600 
#    z 0.178430 -0.081600 3.917800 
# 
# 
# High freq. dielectric constant tensor:
#      x y z
#    x 1.874640 0.005920 0.004330 
#    y 0.005920 1.832330 -0.017670 
#    z 0.004330 -0.017670 1.865790 
# 
# From -- ./inp_files/465157.got.cif
#   From: 2010.06.25/outbox.cif.g09.slc.cpg/sg2_233_cif.got.tgz:465157.got - 2010.06.27 13:26:56.
