data_PCOD8030574
_publ_section_title
;
Structure prediction by ZEFSAII (Michael W. Deem and Ramdas Pophale) SiO2 
 PCOD8030574
Probable space group: P -1
;
_chemical_formula_sum "Si O2"
_cell_formula_units_Z 12
_cell_length_a 13.233345
_cell_length_b 18.129307
_cell_length_c 20.835183
_cell_angle_alpha 159.516770
_cell_angle_beta 22.061493
_cell_angle_gamma 147.543423
_cell_volume 645.585004
_symmetry_space_group_name_H-M "P -1"
_symmetry_group_IT_number 2
_symmetry_cell_setting 'triclinic'
loop_
_space_group_symop_operation_xyz
x,y,z
-x,-y,-z
loop_
_atom_site_type_symbol
_atom_site_label
_atom_site_fract_x
_atom_site_fract_y
_atom_site_fract_z
Si Si1 0.822464 0.580995 0.608519
Si Si2 0.901332 0.033772 0.258472
Si Si3 0.284698 0.075881 0.464931
Si Si4 0.696806 0.802559 0.302660
Si Si5 0.761720 0.331734 0.915964
Si Si6 0.850263 0.174290 0.180983
O O1 0.885686 0.407772 0.373725
O O2 0.000000 0.500000 0.500000
O O3 0.504095 0.614558 0.839442
O O4 0.891315 0.802102 0.722065
O O5 0.895211 0.908588 0.226695
O O6 0.605341 0.169932 0.526526
O O7 0.009143 0.859722 0.998678
O O8 0.322705 0.079582 0.521609
O O9 0.534004 0.153074 0.344590
O O10 0.009667 0.235835 0.738171
O O11 0.274650 0.832278 0.252926
O O12 0.820063 0.550304 0.028647
O O13 0.000000 0.000000 0.000000
#
# Coordination Sequence:
#
# PCOD8030574 Si02
#       6
#     2   2   2   2   2   2
#     4  12  20  36  63  88 113 155 199 243 285 346
#     4  11  24  38  59  94 120 150 196 246 299 345
#     4  11  22  38  65  88 115 157 204 239 288 354
#     4  11  23  40  60  88 126 152 186 253 302 339
#     4  11  22  38  65  88 115 157 204 239 288 354
#     4  12  20  36  63  88 113 155 199 243 285 346
#
# _framework density 18.587792
#
# number of rings (size 3 to 8) (size 9 to 14) (size 15 to 20)
#    0.000    0.667    8.333    0.500    0.000    1.333 
#    0.000    5.000    0.000    0.000    0.000    0.000 
#    0.000    0.000    0.000    0.000    0.000    0.000 
#
# Total GULP energy -148872.642815 kJ/mol
# GULP energy per Si atom -12406.053568 kJ/mol
# Density = 1.854549 g / cm^3
# Si number density = 18.587792 Si / 1000 Ang^3
#
#
#
# Elastic Constant Matrix: (Units=GPa)
#
#
# Indices 1 2 3 4 5 6 
#
# 1 52.8316 28.0611 17.7123 12.4318 11.7598 -11.5880
# 2 28.0611 103.5499 30.7503 16.6238 4.2887 -11.8100
# 3 17.7123 30.7503 90.0356 8.9289 10.5174 -2.6879
# 4 12.4318 16.6238 8.9289 40.1506 10.5246 4.7569
# 5 11.7598 4.2887 10.5174 10.5246 27.1943 -3.3606
# 6 -11.5880 -11.8100 -2.6879 4.7569 -3.3606 33.0660
#
#
#
# Elastic Compliance Matrix: (Units=1/GPa)
#
#
# Indices 1 2 3 4 5 6 
#
# 1 0.026428 -0.004629 -0.002089 -0.004816 -0.007111 0.007409
# 2 -0.004629 0.012911 -0.003345 -0.004518 0.003467 0.003720
# 3 -0.002089 -0.003345 0.013046 0.000306 -0.003895 -0.001306
# 4 -0.004816 -0.004518 0.000306 0.032114 -0.010864 -0.009001
# 5 -0.007111 0.003467 -0.003895 -0.010864 0.045583 0.004625
# 6 0.007409 0.003720 -0.001306 -0.009001 0.004625 0.035826
#
#
# Mechanical properties :
#
#
# Convention : Reuss Voigt Hill
#
# Bulk Modulus (GPa) = 30.99859 44.38496 37.69177
# Shear Modulus (GPa) = 25.40835 31.40841 28.40838
#
# Velocity S-wave (km/s) = 3.70122 4.11510 3.91363
# Velocity P-wave (km/s) = 5.91426 6.81976 6.38308
#
# Compressibility (1/GPa) = 0.03225953
#
# Stress axis : x y z
#
# Youngs Moduli (GPa) = 37.83868 77.45470 76.65434
#
# Poissons Ratio (x) = 0.35853 0.16011
# Poissons Ratio (y) = 0.17515 0.25639
# Poissons Ratio (z) = 0.07903 0.25907
#
# Static dielectric constant tensor:
#      x y z
#    x 3.380560 0.109840 0.139740 
#    y 0.109840 3.645500 0.024270 
#    z 0.139740 0.024270 3.702520 
# 
# 
# High freq. dielectric constant tensor:
#      x y z
#    x 1.708980 0.016130 0.012260 
#    y 0.016130 1.725760 -0.000060 
#    z 0.012260 -0.000060 1.733170 
# 
# From -- ./inp_files/157075.got.cif
#   From: 2010.06.25/outbox.cif.g09.slc.cpg/sg2_79_cif.got.tgz:157075.got - 2010.06.27 13:26:56.
