data_PCOD8030004
_publ_section_title
;
Structure prediction by ZEFSAII (Michael W. Deem and Ramdas Pophale) SiO2 
 PCOD8030004
Probable space group: P -1
;
_chemical_formula_sum "Si O2"
_cell_formula_units_Z 14
_cell_length_a 9.194077
_cell_length_b 17.673983
_cell_length_c 8.632724
_cell_angle_alpha 115.879372
_cell_angle_beta 78.932716
_cell_angle_gamma 46.386698
_cell_volume 597.197272
_symmetry_space_group_name_H-M "P -1"
_symmetry_group_IT_number 2
_symmetry_cell_setting 'triclinic'
loop_
_space_group_symop_operation_xyz
x,y,z
-x,-y,-z
loop_
_atom_site_type_symbol
_atom_site_label
_atom_site_fract_x
_atom_site_fract_y
_atom_site_fract_z
Si Si1 0.685566 0.986344 0.879565
Si Si2 0.737724 0.401155 0.995234
Si Si3 0.943652 0.456276 0.849766
Si Si4 0.707266 0.969254 0.493555
Si Si5 0.654541 0.290702 0.450636
Si Si6 0.331502 0.827520 0.354056
Si Si7 0.693567 0.672682 0.625404
O O1 0.741923 0.945521 0.650388
O O2 0.505009 0.163487 0.089918
O O3 0.012355 0.834523 0.767603
O O4 0.500000 0.000000 0.000000
O O5 0.573618 0.518581 0.288040
O O6 0.500000 0.500000 0.000000
O O7 0.974391 0.351892 0.833362
O O8 0.949229 0.214024 0.815202
O O9 0.198669 0.333759 0.557090
O O10 0.587193 0.650856 0.039558
O O11 0.000000 0.500000 0.000000
O O12 0.500000 0.000000 0.500000
O O13 0.561935 0.128845 0.606146
O O14 0.695489 0.205851 0.507538
O O15 0.506291 0.312286 0.357205
O O16 0.000000 0.000000 0.500000
O O17 0.000000 0.500000 0.500000
#
# Coordination Sequence:
#
# PCOD8030004 Si02
#       7
#     2   2   2   2   2   2   2
#     4  12  27  49  68 103 148 187 228 287 362 418
#     4  11  21  41  70 101 131 174 235 290 342 400
#     4  11  21  42  70  97 134 178 233 283 344 405
#     4  12  25  40  71 107 137 174 235 290 347 409
#     4  11  25  48  70 101 142 192 233 286 352 417
#     4  11  21  41  72 103 133 172 240 291 332 410
#     4  12  27  46  71 103 142 188 233 284 349 432
#
# _framework density 23.442841000000001
#
# number of rings (size 3 to 8) (size 9 to 14) (size 15 to 20)
#    0.000    0.571    5.714    3.857    4.000    0.000 
#    0.000    0.714    0.000    0.000    0.000    0.000 
#    0.000    0.000    0.000    0.000    0.000    0.000 
#
# Total GULP energy -173549.956323 kJ/mol
# GULP energy per Si atom -12396.425452 kJ/mol
# Density = 2.338948 g / cm^3
# Si number density = 23.442841 Si / 1000 Ang^3
#
#
#
# Elastic Constant Matrix: (Units=GPa)
#
#
# Indices 1 2 3 4 5 6 
#
# 1 125.6830 7.3486 38.1862 -8.0257 -5.1883 -21.8698
# 2 7.3486 45.8387 21.4880 9.5255 4.4405 -10.5912
# 3 38.1862 21.4880 127.5919 29.9075 9.6700 -5.6793
# 4 -8.0257 9.5255 29.9075 29.5040 1.3646 -1.3053
# 5 -5.1883 4.4405 9.6700 1.3646 47.5913 2.4115
# 6 -21.8698 -10.5912 -5.6793 -1.3053 2.4115 46.8347
#
#
#
# Elastic Compliance Matrix: (Units=1/GPa)
#
#
# Indices 1 2 3 4 5 6 
#
# 1 0.010929 -0.000200 -0.005127 0.008355 0.001780 0.004578
# 2 -0.000200 0.025609 -0.002611 -0.005347 -0.001998 0.005335
# 3 -0.005127 -0.002611 0.013179 -0.013868 -0.002512 -0.001643
# 4 0.008355 -0.005347 -0.013868 0.051932 0.002621 0.002323
# 5 0.001780 -0.001998 -0.002512 0.002621 0.021878 -0.000979
# 6 0.004578 0.005335 -0.001643 0.002323 -0.000979 0.024612
#
#
# Mechanical properties :
#
#
# Convention : Reuss Voigt Hill
#
# Bulk Modulus (GPa) = 29.54805 48.12879 38.83842
# Shear Modulus (GPa) = 28.52334 40.25871 34.39103
#
# Velocity S-wave (km/s) = 3.49193 4.14854 3.83432
# Velocity P-wave (km/s) = 5.37492 6.59713 6.01714
#
# Compressibility (1/GPa) = 0.03384319
#
# Stress axis : x y z
#
# Youngs Moduli (GPa) = 91.49554 39.04883 75.87565
#
# Poissons Ratio (x) = 0.00780 0.38901
# Poissons Ratio (y) = 0.01827 0.19810
# Poissons Ratio (z) = 0.46909 0.10195
#
# Static dielectric constant tensor:
#      x y z
#    x 4.770480 0.101140 1.021890 
#    y 0.101140 4.477250 1.241900 
#    z 1.021890 1.241900 16.011460 
# 
# 
# High freq. dielectric constant tensor:
#      x y z
#    x 1.953660 -0.008760 -0.000550 
#    y -0.008760 1.905440 0.031490 
#    z -0.000550 0.031490 1.936050 
# 
# From -- ./inp_files/158431.got.cif
#   From: 2010.06.25/outbox.cif.g09.slc.cpg/sg2_80_cif.got.tgz:158431.got - 2010.06.27 13:26:56.
