data_PCOD8030815
_publ_section_title
;
Structure prediction by ZEFSAII (Michael W. Deem and Ramdas Pophale) SiO2 
 PCOD8030815
Probable space group: P -1
;
_chemical_formula_sum "Si O2"
_cell_formula_units_Z 16
_cell_length_a 8.698113
_cell_length_b 8.639075
_cell_length_c 16.609289
_cell_angle_alpha 70.806014
_cell_angle_beta 141.757139
_cell_angle_gamma 91.194911
_cell_volume 666.764141
_symmetry_space_group_name_H-M "P -1"
_symmetry_group_IT_number 2
_symmetry_cell_setting 'triclinic'
loop_
_space_group_symop_operation_xyz
x,y,z
-x,-y,-z
loop_
_atom_site_type_symbol
_atom_site_label
_atom_site_fract_x
_atom_site_fract_y
_atom_site_fract_z
Si Si1 0.624798 0.562371 0.636011
Si Si2 0.852901 0.094368 0.003955
Si Si3 0.710665 0.607139 0.909239
Si Si4 0.362022 0.378812 0.662061
Si Si5 0.169971 0.254569 0.900247
Si Si6 0.756193 0.516674 0.242377
Si Si7 0.321454 0.158617 0.276060
Si Si8 0.312411 0.232943 0.506361
O O1 0.391134 0.544757 0.598106
O O2 0.747606 0.694936 0.705981
O O3 0.533236 0.653914 0.494005
O O4 0.845237 0.360416 0.750291
O O5 0.047856 0.139879 0.138055
O O6 0.751050 0.958205 0.032083
O O7 0.610291 0.275819 0.844259
O O8 0.000000 0.000000 0.000000
O O9 0.532264 0.494135 0.867174
O O10 0.549610 0.776416 0.756760
O O11 0.725433 0.685440 0.987774
O O12 0.000000 0.500000 0.000000
O O13 0.130926 0.462292 0.623301
O O14 0.343623 0.236017 0.615499
O O15 0.292343 0.310268 0.862016
O O16 0.992393 0.336269 0.333551
O O17 0.555977 0.970988 0.434557
#
# Coordination Sequence:
#
# PCOD8030815 Si02
#       8
#     2   2   2   2   2   2   2   2
#     4  11  22  40  69  97 129 177 228 267 321 397
#     4  12  22  39  71 102 129 167 226 280 320 386
#     4  12  21  41  71  96 126 173 220 272 324 401
#     4  12  22  44  67  94 131 181 224 266 329 396
#     4  11  22  41  65 104 134 167 215 276 335 383
#     4  11  26  41  65  96 136 176 219 268 336 400
#     4  12  22  40  69 101 131 170 226 271 328 381
#     4  11  25  42  62  95 138 174 221 277 324 388
#
# _framework density 23.996490999999999
#
# number of rings (size 3 to 8) (size 9 to 14) (size 15 to 20)
#    0.000    0.500    6.250    2.250    0.000    2.000 
#    0.000    0.000    0.000    0.000    0.000    0.000 
#    0.000    0.000    0.000    0.000    0.000    0.000 
#
# Total GULP energy -198261.937423 kJ/mol
# GULP energy per Si atom -12391.371089 kJ/mol
# Density = 2.394187 g / cm^3
# Si number density = 23.996491 Si / 1000 Ang^3
#
#
#
# Elastic Constant Matrix: (Units=GPa)
#
#
# Indices 1 2 3 4 5 6 
#
# 1 127.4721 23.9483 19.0173 -9.4921 -18.0648 23.9319
# 2 23.9483 68.5300 4.8658 -3.3353 14.3666 9.7948
# 3 19.0173 4.8658 56.2934 -16.5046 -4.2579 4.9949
# 4 -9.4921 -3.3353 -16.5046 43.4098 -1.4222 -7.6093
# 5 -18.0648 14.3666 -4.2579 -1.4222 28.5076 0.7236
# 6 23.9319 9.7948 4.9949 -7.6093 0.7236 42.5723
#
#
#
# Elastic Compliance Matrix: (Units=1/GPa)
#
#
# Indices 1 2 3 4 5 6 
#
# 1 0.011510 -0.005162 -0.002025 0.000781 0.009760 -0.005072
# 2 -0.005162 0.019392 -0.001014 -0.000692 -0.013196 -0.001340
# 3 -0.002025 -0.001014 0.020942 0.007570 0.002728 0.000221
# 4 0.000781 -0.000692 0.007570 0.026762 0.003219 0.003560
# 5 0.009760 -0.013196 0.002728 0.003219 0.048558 -0.003021
# 6 -0.005072 -0.001340 0.000221 0.003560 -0.003021 0.027311
#
#
# Mechanical properties :
#
#
# Convention : Reuss Voigt Hill
#
# Bulk Modulus (GPa) = 28.21515 38.66204 33.43859
# Shear Modulus (GPa) = 27.36861 36.52889 31.94875
#
# Velocity S-wave (km/s) = 3.38083 3.90585 3.65278
# Velocity P-wave (km/s) = 5.19842 6.04048 5.63520
#
# Compressibility (1/GPa) = 0.03544195
#
# Stress axis : x y z
#
# Youngs Moduli (GPa) = 86.87922 51.56688 47.75122
#
# Poissons Ratio (x) = 0.26618 0.09670
# Poissons Ratio (y) = 0.44846 0.04844
# Poissons Ratio (z) = 0.17593 0.05231
#
# Static dielectric constant tensor:
#      x y z
#    x 4.712190 -0.229000 -0.281780 
#    y -0.229000 4.648300 -0.303590 
#    z -0.281780 -0.303590 4.613690 
# 
# 
# High freq. dielectric constant tensor:
#      x y z
#    x 1.955760 -0.009610 -0.026410 
#    y -0.009610 1.953380 -0.004270 
#    z -0.026410 -0.004270 1.954940 
# 
# From -- ./inp_files/346085.got.cif
#   From: 2010.06.25/outbox.cif.g09.slc.cpg/sg2_174_cif.got.tgz:346085.got - 2010.06.27 13:26:56.
