data_PCOD8030647
_publ_section_title
;
Structure prediction by ZEFSAII (Michael W. Deem and Ramdas Pophale) SiO2 
 PCOD8030647
Probable space group: P -1
;
_chemical_formula_sum "Si O2"
_cell_formula_units_Z 16
_cell_length_a 16.093222
_cell_length_b 19.473914
_cell_length_c 9.109650
_cell_angle_alpha 52.438093
_cell_angle_beta 62.849082
_cell_angle_gamma 21.114985
_cell_volume 749.509720
_symmetry_space_group_name_H-M "P -1"
_symmetry_group_IT_number 2
_symmetry_cell_setting 'triclinic'
loop_
_space_group_symop_operation_xyz
x,y,z
-x,-y,-z
loop_
_atom_site_type_symbol
_atom_site_label
_atom_site_fract_x
_atom_site_fract_y
_atom_site_fract_z
Si Si1 0.225545 0.987153 0.178079
Si Si2 0.733732 0.186551 0.374754
Si Si3 0.386459 0.016064 0.151878
Si Si4 0.234778 0.346231 0.438200
Si Si5 0.736146 0.317166 0.443202
Si Si6 0.580022 0.638498 0.105846
Si Si7 0.304310 0.479084 0.154583
Si Si8 0.882505 0.531574 0.947805
O O1 0.408929 0.908753 0.179757
O O2 0.229239 0.915315 0.396549
O O3 0.325501 0.854491 0.122654
O O4 0.941571 0.255365 0.026390
O O5 0.691650 0.316320 0.316149
O O6 0.482455 0.384665 0.231833
O O7 0.991693 0.957036 0.367309
O O8 0.512561 0.902672 0.359347
O O9 0.090591 0.284501 0.049552
O O10 0.500000 0.000000 0.000000
O O11 0.220527 0.462037 0.323370
O O12 0.241783 0.318244 0.294000
O O13 0.000000 0.500000 0.500000
O O14 0.500000 0.500000 0.500000
O O15 0.756006 0.404515 0.306184
O O16 0.534153 0.681206 0.912550
O O17 0.698708 0.629817 0.063076
O O18 0.000000 0.500000 0.000000
#
# Coordination Sequence:
#
# PCOD8030647 Si02
#       8
#     2   2   2   2   2   2   2   2
#     4  12  22  44  69  94 136 184 217 278 340 397
#     4  11  24  43  74  96 133 182 224 280 342 401
#     4  12  21  39  68  93 132 180 224 277 336 397
#     4  11  22  39  65  97 133 177 228 272 333 409
#     4  11  23  45  70 103 135 177 227 281 344 404
#     4  11  24  43  66  98 140 172 225 280 335 402
#     4  11  24  44  66 103 135 175 232 276 338 405
#     4  11  24  42  64 100 137 172 224 282 334 404
#
# _framework density 21.347287999999999
#
# number of rings (size 3 to 8) (size 9 to 14) (size 15 to 20)
#    0.000    0.750    7.500    0.750    0.000    2.000 
#    0.000    2.500    0.000    0.000    0.000    0.000 
#    0.000    0.000    0.000    0.000    0.000    0.000 
#
# Total GULP energy -198275.964804 kJ/mol
# GULP energy per Si atom -12392.247800 kJ/mol
# Density = 2.129870 g / cm^3
# Si number density = 21.347288 Si / 1000 Ang^3
#
#
#
# Elastic Constant Matrix: (Units=GPa)
#
#
# Indices 1 2 3 4 5 6 
#
# 1 128.1646 25.9827 34.8026 -6.7930 13.6212 1.2430
# 2 25.9827 116.0754 31.9487 3.5478 7.9479 5.4257
# 3 34.8026 31.9487 106.4814 -6.1866 15.3943 0.4154
# 4 -6.7930 3.5478 -6.1866 16.4171 -10.7782 0.5963
# 5 13.6212 7.9479 15.3943 -10.7782 37.2778 -3.2532
# 6 1.2430 5.4257 0.4154 0.5963 -3.2532 32.1688
#
#
#
# Elastic Compliance Matrix: (Units=1/GPa)
#
#
# Indices 1 2 3 4 5 6 
#
# 1 0.008944 -0.001359 -0.002174 0.002226 -0.001461 -0.000277
# 2 -0.001359 0.010001 -0.002525 -0.005061 -0.002208 -0.001731
# 3 -0.002174 -0.002525 0.011380 0.002129 -0.002747 0.000046
# 4 0.002226 -0.005061 0.002129 0.078203 0.022131 0.001529
# 5 -0.001461 -0.002208 -0.002747 0.022131 0.035683 0.003663
# 6 -0.000277 -0.001731 0.000046 0.001529 0.003663 0.031730
#
#
# Mechanical properties :
#
#
# Convention : Reuss Voigt Hill
#
# Bulk Modulus (GPa) = 54.91392 59.57659 57.24526
# Shear Modulus (GPa) = 25.75635 34.37189 30.06412
#
# Velocity S-wave (km/s) = 3.47730 4.01699 3.75685
# Velocity P-wave (km/s) = 6.47318 7.03448 6.75966
#
# Compressibility (1/GPa) = 0.01821032
#
# Stress axis : x y z
#
# Youngs Moduli (GPa) = 111.80373 99.99079 87.87269
#
# Poissons Ratio (x) = 0.13586 0.19104
# Poissons Ratio (y) = 0.15191 0.22186
# Poissons Ratio (z) = 0.24306 0.25245
#
# Static dielectric constant tensor:
#      x y z
#    x 4.896610 0.075680 0.192320 
#    y 0.075680 3.583040 -0.069820 
#    z 0.192320 -0.069820 4.056960 
# 
# 
# High freq. dielectric constant tensor:
#      x y z
#    x 1.852630 -0.009390 -0.015600 
#    y -0.009390 1.833700 0.005730 
#    z -0.015600 0.005730 1.831600 
# 
# From -- ./inp_files/337587.got.cif
#   From: 2010.06.25/outbox.cif.g09.slc.cpg/sg2_169_cif.got.tgz:337587.got - 2010.06.27 13:26:56.
