data_PCOD8030872
_publ_section_title
;
Structure prediction by ZEFSAII (Michael W. Deem and Ramdas Pophale) SiO2 
 PCOD8030872
Probable space group: P -1
;
_chemical_formula_sum "Si O2"
_cell_formula_units_Z 16
_cell_length_a 15.142691
_cell_length_b 8.859994
_cell_length_c 14.344756
_cell_angle_alpha 96.905496
_cell_angle_beta 151.524969
_cell_angle_gamma 67.465186
_cell_volume 737.861275
_symmetry_space_group_name_H-M "P -1"
_symmetry_group_IT_number 2
_symmetry_cell_setting 'triclinic'
loop_
_space_group_symop_operation_xyz
x,y,z
-x,-y,-z
loop_
_atom_site_type_symbol
_atom_site_label
_atom_site_fract_x
_atom_site_fract_y
_atom_site_fract_z
Si Si1 0.880679 0.973221 0.559749
Si Si2 0.250614 0.811796 0.215169
Si Si3 0.433951 0.866139 0.566898
Si Si4 0.566613 0.791879 0.963262
Si Si5 0.475804 0.192707 0.693518
Si Si6 0.319382 0.929773 0.922211
Si Si7 0.850401 0.469802 0.928041
Si Si8 0.979555 0.395589 0.245744
O O1 0.999768 0.754967 0.675343
O O2 0.793661 0.081319 0.586422
O O3 0.653607 0.065688 0.293929
O O4 0.060944 0.994249 0.678670
O O5 0.410055 0.830922 0.434525
O O6 0.368788 0.770667 0.221019
O O7 0.237565 0.638746 0.215651
O O8 0.000000 0.000000 0.000000
O O9 0.648545 0.673373 0.793112
O O10 0.473445 0.025913 0.632988
O O11 0.702011 0.883384 0.109414
O O12 0.480318 0.771385 0.982164
O O13 0.745640 0.590120 0.070108
O O14 0.585120 0.145066 0.892728
O O15 0.214539 0.380433 0.473380
O O16 0.979470 0.350130 0.132292
O O17 0.000000 0.500000 0.000000
#
# Coordination Sequence:
#
# PCOD8030872 Si02
#       8
#     2   2   2   2   2   2   2   2
#     4  11  23  46  67  99 136 174 224 276 334 397
#     4  12  24  39  63  99 130 176 226 268 335 403
#     4  11  22  41  64  90 135 171 216 278 327 392
#     4  11  24  46  66 101 134 175 226 274 339 394
#     4  11  22  43  65  97 133 175 226 273 336 396
#     4  11  23  43  71  96 136 177 219 282 334 395
#     4  12  24  40  62  95 133 173 224 270 327 397
#     4  11  23  44  69  93 140 175 216 282 329 395
#
# _framework density 21.684290000000001
#
# number of rings (size 3 to 8) (size 9 to 14) (size 15 to 20)
#    0.000    0.750    3.750    5.625    0.000    3.000 
#    2.250    0.000    0.000    0.000    0.000    0.000 
#    0.000    0.000    0.000    0.000    0.000    0.000 
#
# Total GULP energy -198355.757094 kJ/mol
# GULP energy per Si atom -12397.234818 kJ/mol
# Density = 2.163494 g / cm^3
# Si number density = 21.684290 Si / 1000 Ang^3
#
#
#
# Elastic Constant Matrix: (Units=GPa)
#
#
# Indices 1 2 3 4 5 6 
#
# 1 151.7202 49.9654 45.7377 -0.7237 18.1007 6.5374
# 2 49.9654 91.8877 46.7153 -5.0897 8.5637 3.8049
# 3 45.7377 46.7153 107.6872 -12.6999 16.0338 8.3663
# 4 -0.7237 -5.0897 -12.6999 27.9547 0.2519 6.0105
# 5 18.1007 8.5637 16.0338 0.2519 44.2653 7.7174
# 6 6.5374 3.8049 8.3663 6.0105 7.7174 32.4082
#
#
#
# Elastic Compliance Matrix: (Units=1/GPa)
#
#
# Indices 1 2 3 4 5 6 
#
# 1 0.008596 -0.003561 -0.001937 -0.001269 -0.002104 -0.000080
# 2 -0.003561 0.015450 -0.005209 0.000328 0.000333 0.000109
# 3 -0.001937 -0.005209 0.013693 0.005889 -0.002673 -0.002988
# 4 -0.001269 0.000328 0.005889 0.040347 -0.000392 -0.008692
# 5 -0.002104 0.000333 -0.002673 -0.000392 0.025203 -0.004854
# 6 -0.000080 0.000109 -0.002988 -0.008692 -0.004854 0.034399
#
#
# Mechanical properties :
#
#
# Convention : Reuss Voigt Hill
#
# Bulk Modulus (GPa) = 61.25278 70.68132 65.96705
# Shear Modulus (GPa) = 30.38714 34.85074 32.61894
#
# Velocity S-wave (km/s) = 3.74751 4.01332 3.88269
# Velocity P-wave (km/s) = 6.85813 7.35813 7.11253
#
# Compressibility (1/GPa) = 0.01632579
#
# Stress axis : x y z
#
# Youngs Moduli (GPa) = 116.33583 64.72498 73.02897
#
# Poissons Ratio (x) = 0.23045 0.14143
# Poissons Ratio (y) = 0.41421 0.38044
# Poissons Ratio (z) = 0.22530 0.33718
#
# Static dielectric constant tensor:
#      x y z
#    x 4.177170 -0.038720 0.064990 
#    y -0.038720 3.760200 0.004180 
#    z 0.064990 0.004180 4.091980 
# 
# 
# High freq. dielectric constant tensor:
#      x y z
#    x 1.868090 -0.002950 0.004020 
#    y -0.002950 1.830660 0.000840 
#    z 0.004020 0.000840 1.864860 
# 
# From -- ./inp_files/529823.got.cif
#   From: 2010.06.25/outbox.cif.g09.slc.cpg/sg2_265_cif.got.tgz:529823.got - 2010.06.27 13:26:56.
