data_PCOD8030327
_publ_section_title
;
Structure prediction by ZEFSAII (Michael W. Deem and Ramdas Pophale) SiO2 
 PCOD8030327
Probable space group: P -1
;
_chemical_formula_sum "Si O2"
_cell_formula_units_Z 14
_cell_length_a 9.173840
_cell_length_b 6.699564
_cell_length_c 21.015161
_cell_angle_alpha 117.269241
_cell_angle_beta 38.916361
_cell_angle_gamma 92.534148
_cell_volume 597.867380
_symmetry_space_group_name_H-M "P -1"
_symmetry_group_IT_number 2
_symmetry_cell_setting 'triclinic'
loop_
_space_group_symop_operation_xyz
x,y,z
-x,-y,-z
loop_
_atom_site_type_symbol
_atom_site_label
_atom_site_fract_x
_atom_site_fract_y
_atom_site_fract_z
Si Si1 0.562723 0.731148 0.518118
Si Si2 0.309027 0.289430 0.387310
Si Si3 0.821533 0.249286 0.174210
Si Si4 0.667190 0.763753 0.960610
Si Si5 0.385010 0.846454 0.202653
Si Si6 0.052269 0.218314 0.699201
Si Si7 0.155471 0.647618 0.963656
O O1 0.500000 0.500000 0.500000
O O2 0.686590 0.757322 0.545967
O O3 0.800884 0.675325 0.379221
O O4 0.272268 0.020627 0.648651
O O5 0.503141 0.406915 0.330359
O O6 0.000000 0.500000 0.500000
O O7 0.428451 0.019699 0.265044
O O8 0.790001 0.302399 0.118409
O O9 0.007485 0.337946 0.156409
O O10 0.969960 0.939145 0.101488
O O11 0.749758 0.467965 0.866910
O O12 0.500947 0.871897 0.098950
O O13 0.500000 0.000000 0.000000
O O14 0.554626 0.535843 0.123888
O O15 0.058720 0.947177 0.323806
O O16 0.000000 0.500000 0.000000
#
# Coordination Sequence:
#
# PCOD8030327 Si02
#       7
#     2   2   2   2   2   2   2
#     4  11  27  54  77 103 149 200 255 303 364 449
#     4  12  28  45  76 107 147 198 246 308 364 434
#     4  11  24  43  70 106 146 190 242 300 374 434
#     4  12  27  45  78 110 153 198 247 311 382 447
#     4  12  26  46  74 112 150 184 252 308 376 445
#     4  11  28  48  77 106 146 202 248 304 377 441
#     4  11  21  44  70 103 148 183 226 309 373 435
#
# _framework density 23.416561999999999
#
# number of rings (size 3 to 8) (size 9 to 14) (size 15 to 20)
#    0.000    0.571    2.857    3.857   12.000    1.714 
#    0.000    0.000    0.000    0.000    0.000    0.000 
#    0.000    0.000    0.000    0.000    0.000    0.000 
#
# Total GULP energy -173519.621499 kJ/mol
# GULP energy per Si atom -12394.258678 kJ/mol
# Density = 2.336327 g / cm^3
# Si number density = 23.416562 Si / 1000 Ang^3
#
#
#
# Elastic Constant Matrix: (Units=GPa)
#
#
# Indices 1 2 3 4 5 6 
#
# 1 150.7704 46.3061 49.4633 -2.7624 -15.2352 -22.4979
# 2 46.3061 110.3262 44.8399 -2.6169 0.3233 -22.2062
# 3 49.4633 44.8399 107.8366 -0.8080 -9.5623 -15.5862
# 4 -2.7624 -2.6169 -0.8080 32.9803 5.8445 -13.8194
# 5 -15.2352 0.3233 -9.5623 5.8445 51.9050 -1.9065
# 6 -22.4979 -22.2062 -15.5862 -13.8194 -1.9065 46.8472
#
#
#
# Elastic Compliance Matrix: (Units=1/GPa)
#
#
# Indices 1 2 3 4 5 6 
#
# 1 0.008760 -0.002030 -0.002566 0.001348 0.002065 0.002873
# 2 -0.002030 0.012382 -0.003687 0.002854 -0.001510 0.004448
# 3 -0.002566 -0.003687 0.012293 0.000007 0.001577 0.001176
# 4 0.001348 0.002854 0.000007 0.036540 -0.003271 0.012648
# 5 0.002065 -0.001510 0.001577 -0.003271 0.020565 0.000673
# 6 0.002873 0.004448 0.001176 0.012648 0.000673 0.028984
#
#
# Mechanical properties :
#
#
# Convention : Reuss Voigt Hill
#
# Bulk Modulus (GPa) = 59.27761 72.23908 65.75834
# Shear Modulus (GPa) = 35.28289 41.56808 38.42549
#
# Velocity S-wave (km/s) = 3.88590 4.21783 4.05526
# Velocity P-wave (km/s) = 6.74559 7.39166 7.07600
#
# Compressibility (1/GPa) = 0.01686978
#
# Stress axis : x y z
#
# Youngs Moduli (GPa) = 114.15921 80.76284 81.34592
#
# Poissons Ratio (x) = 0.16393 0.20870
# Poissons Ratio (y) = 0.23172 0.29994
# Poissons Ratio (z) = 0.29288 0.29779
#
# Static dielectric constant tensor:
#      x y z
#    x 4.394680 0.089010 -0.054550 
#    y 0.089010 4.388070 0.085060 
#    z -0.054550 0.085060 4.305960 
# 
# 
# High freq. dielectric constant tensor:
#      x y z
#    x 1.949870 0.002220 -0.012790 
#    y 0.002220 1.931360 -0.001640 
#    z -0.012790 -0.001640 1.924500 
# 
# From -- ./inp_files/585760.got.cif
#   From: 2010.06.25/outbox.cif.g09.slc.cpg/sg2_293_cif.got.tgz:585760.got - 2010.06.27 13:26:56.
