data_PCOD8030723
_publ_section_title
;
Structure prediction by ZEFSAII (Michael W. Deem and Ramdas Pophale) SiO2 
 PCOD8030723
Probable space group: P -1
;
_chemical_formula_sum "Si O2"
_cell_formula_units_Z 16
_cell_length_a 8.379685
_cell_length_b 14.686646
_cell_length_c 8.831830
_cell_angle_alpha 40.763165
_cell_angle_beta 90.746017
_cell_angle_gamma 97.388646
_cell_volume 697.797750
_symmetry_space_group_name_H-M "P -1"
_symmetry_group_IT_number 2
_symmetry_cell_setting 'triclinic'
loop_
_space_group_symop_operation_xyz
x,y,z
-x,-y,-z
loop_
_atom_site_type_symbol
_atom_site_label
_atom_site_fract_x
_atom_site_fract_y
_atom_site_fract_z
Si Si1 0.631673 0.346030 0.010117
Si Si2 0.836888 0.938782 0.159140
Si Si3 0.287063 0.365617 0.849768
Si Si4 0.709316 0.629901 0.516351
Si Si5 0.327710 0.950696 0.722577
Si Si6 0.331982 0.950383 0.234825
Si Si7 0.368731 0.645266 0.641183
Si Si8 0.840089 0.929375 0.672982
O O1 0.752901 0.488283 0.773588
O O2 0.463594 0.335912 0.932325
O O3 0.708032 0.209749 0.137635
O O4 0.604487 0.355806 0.177035
O O5 0.829225 0.771050 0.398019
O O6 0.823317 0.026273 0.202086
O O7 0.678037 0.962270 0.029845
O O8 0.000000 0.000000 0.000000
O O9 0.156970 0.232420 0.076551
O O10 0.279599 0.383258 0.647547
O O11 0.246510 0.504376 0.760522
O O12 0.532311 0.644962 0.551775
O O13 0.498415 0.994408 0.751373
O O14 0.319602 0.058619 0.446816
O O15 0.299781 0.782767 0.415139
O O16 0.178036 0.979720 0.292415
O O17 0.000000 0.000000 0.500000
#
# Coordination Sequence:
#
# PCOD8030723 Si02
#       8
#     2   2   2   2   2   2   2   2
#     4  11  22  40  64 102 128 169 228 275 322 386
#     4  12  27  44  66 100 139 176 214 275 347 394
#     4  11  23  39  65  96 136 172 218 269 341 385
#     4  11  23  40  65  95 136 172 216 274 336 389
#     4  12  24  41  74  97 130 177 230 278 316 389
#     4  12  23  44  68 100 129 171 239 269 320 394
#     4  11  23  39  66 100 128 171 223 281 319 385
#     4  12  25  44  67  97 140 175 216 276 339 396
#
# _framework density 22.929279999999999
#
# number of rings (size 3 to 8) (size 9 to 14) (size 15 to 20)
#    0.000    0.500    5.000    5.250    5.250    0.000 
#    0.000    2.500    0.000    0.000    0.000    0.000 
#    0.000    0.000    0.000    0.000    0.000    0.000 
#
# Total GULP energy -198366.451446 kJ/mol
# GULP energy per Si atom -12397.903215 kJ/mol
# Density = 2.287709 g / cm^3
# Si number density = 22.929280 Si / 1000 Ang^3
#
#
#
# Elastic Constant Matrix: (Units=GPa)
#
#
# Indices 1 2 3 4 5 6 
#
# 1 23.2157 19.4330 19.4633 -13.7241 -10.5066 -4.7570
# 2 19.4330 167.3083 63.7906 -24.6051 -9.6629 -24.4499
# 3 19.4633 63.7906 152.9660 -22.9384 -11.2851 -6.5127
# 4 -13.7241 -24.6051 -22.9384 51.7701 4.5072 6.8579
# 5 -10.5066 -9.6629 -11.2851 4.5072 35.3839 4.6073
# 6 -4.7570 -24.4499 -6.5127 6.8579 4.6073 28.1130
#
#
#
# Elastic Compliance Matrix: (Units=1/GPa)
#
#
# Indices 1 2 3 4 5 6 
#
# 1 0.062992 -0.002971 -0.003789 0.012070 0.014911 0.001809
# 2 -0.002971 0.008380 -0.002706 0.001246 -0.000386 0.005917
# 3 -0.003789 -0.002706 0.008375 0.001557 0.000813 -0.001568
# 4 0.012070 0.001246 0.001557 0.024000 0.001708 -0.002648
# 5 0.014911 -0.000386 0.000813 0.001708 0.033076 -0.003462
# 6 0.001809 0.005917 -0.001568 -0.002648 -0.003462 0.041873
#
#
# Mechanical properties :
#
#
# Convention : Reuss Voigt Hill
#
# Bulk Modulus (GPa) = 16.44362 60.98487 38.71425
# Shear Modulus (GPa) = 22.94633 39.10696 31.02665
#
# Velocity S-wave (km/s) = 3.16689 4.13431 3.68250
# Velocity P-wave (km/s) = 4.53423 7.03169 5.91624
#
# Compressibility (1/GPa) = 0.06081387
#
# Stress axis : x y z
#
# Youngs Moduli (GPa) = 15.87497 119.33823 119.40684
#
# Poissons Ratio (x) = 0.35460 0.45241
# Poissons Ratio (y) = 0.04717 0.32313
# Poissons Ratio (z) = 0.06015 0.32295
#
# Static dielectric constant tensor:
#      x y z
#    x 3.717360 -0.060910 0.263610 
#    y -0.060910 5.115440 -0.234130 
#    z 0.263610 -0.234130 5.027660 
# 
# 
# High freq. dielectric constant tensor:
#      x y z
#    x 1.864870 -0.008010 0.002790 
#    y -0.008010 1.927870 0.004060 
#    z 0.002790 0.004060 1.927920 
# 
# From -- ./inp_files/205190.got.cif
#   From: 2010.06.25/outbox.cif.g09.slc.cpg/sg2_103_cif.got.tgz:205190.got - 2010.06.27 13:26:56.
