data_PCOD8030984
_publ_section_title
;
Structure prediction by ZEFSAII (Michael W. Deem and Ramdas Pophale) SiO2 
 PCOD8030984
Probable space group: P -1
;
_chemical_formula_sum "Si O2"
_cell_formula_units_Z 16
_cell_length_a 7.934728
_cell_length_b 6.023486
_cell_length_c 20.320589
_cell_angle_alpha 93.190743
_cell_angle_beta 122.354474
_cell_angle_gamma 62.488611
_cell_volume 703.481749
_symmetry_space_group_name_H-M "P -1"
_symmetry_group_IT_number 2
_symmetry_cell_setting 'triclinic'
loop_
_space_group_symop_operation_xyz
x,y,z
-x,-y,-z
loop_
_atom_site_type_symbol
_atom_site_label
_atom_site_fract_x
_atom_site_fract_y
_atom_site_fract_z
Si Si1 0.950009 0.913844 0.588138
Si Si2 0.430471 0.784946 0.957436
Si Si3 0.113970 0.917314 0.164352
Si Si4 0.518411 0.583838 0.833767
Si Si5 0.824379 0.301116 0.682673
Si Si6 0.536263 0.944837 0.740401
Si Si7 0.621123 0.201877 0.413680
Si Si8 0.144993 0.479966 0.717394
O O1 0.165134 0.826762 0.583616
O O2 0.976372 0.666921 0.627605
O O3 0.951478 0.101116 0.647236
O O4 0.711988 0.047370 0.498661
O O5 0.541486 0.716101 0.906739
O O6 0.500000 0.500000 0.000000
O O7 0.154041 0.944881 0.905132
O O8 0.500000 0.000000 0.000000
O O9 0.251280 0.694497 0.134426
O O10 0.182309 0.813278 0.250931
O O11 0.208656 0.116683 0.184350
O O12 0.275856 0.587339 0.791615
O O13 0.478236 0.755672 0.764337
O O14 0.562573 0.496837 0.606598
O O15 0.984453 0.426707 0.730735
O O16 0.350993 0.239075 0.719766
O O17 0.521524 0.902510 0.658784
#
# Coordination Sequence:
#
# PCOD8030984 Si02
#       8
#     2   2   2   2   2   2   2   2
#     4  11  24  43  58  96 148 187 240 308 365 417
#     4  12  32  52  79 120 155 187 235 297 380 453
#     4  11  27  45  80 102 142 193 237 298 358 443
#     4  11  25  48  76 104 144 187 246 288 361 440
#     4  12  24  43  68 101 135 190 249 293 360 431
#     4  11  22  46  71 102 134 190 252 291 351 433
#     4  11  23  42  64  96 141 189 244 303 363 421
#     4  11  22  41  70  98 138 189 237 304 356 427
#
# _framework density 22.744014
#
# number of rings (size 3 to 8) (size 9 to 14) (size 15 to 20)
#    0.000    0.750    3.750    2.625   10.500    2.000 
#    2.250    0.000    0.000    0.000    0.000    0.000 
#    0.000    0.000    0.000    0.000    0.000    0.000 
#
# Total GULP energy -198259.417457 kJ/mol
# GULP energy per Si atom -12391.213591 kJ/mol
# Density = 2.269225 g / cm^3
# Si number density = 22.744014 Si / 1000 Ang^3
#
#
#
# Elastic Constant Matrix: (Units=GPa)
#
#
# Indices 1 2 3 4 5 6 
#
# 1 77.1247 29.9018 21.4564 5.8970 17.0458 -9.7278
# 2 29.9018 86.9619 36.4279 0.5698 13.7293 6.7392
# 3 21.4564 36.4279 92.9396 2.4436 16.8231 -9.0409
# 4 5.8970 0.5698 2.4436 42.7485 -6.9352 5.2572
# 5 17.0458 13.7293 16.8231 -6.9352 32.4429 -1.2194
# 6 -9.7278 6.7392 -9.0409 5.2572 -1.2194 30.9691
#
#
#
# Elastic Compliance Matrix: (Units=1/GPa)
#
#
# Indices 1 2 3 4 5 6 
#
# 1 0.018147 -0.005665 0.000337 -0.004673 -0.008029 0.007509
# 2 -0.005665 0.016583 -0.005778 0.001642 -0.000972 -0.007392
# 3 0.000337 -0.005778 0.014589 -0.002427 -0.005597 0.005814
# 4 -0.004673 0.001642 -0.002427 0.026337 0.008398 -0.006674
# 5 -0.008029 -0.000972 -0.005597 0.008398 0.040008 -0.003795
# 6 0.007509 -0.007392 0.005814 -0.006674 -0.003795 0.038938
#
#
# Mechanical properties :
#
#
# Convention : Reuss Voigt Hill
#
# Bulk Modulus (GPa) = 36.88930 48.06651 42.47791
# Shear Modulus (GPa) = 26.90323 32.51477 29.70900
#
# Velocity S-wave (km/s) = 3.44302 3.78510 3.61811
# Velocity P-wave (km/s) = 5.66219 6.34683 6.01426
#
# Compressibility (1/GPa) = 0.02710813
#
# Stress axis : x y z
#
# Youngs Moduli (GPa) = 55.10408 60.30185 68.54410
#
# Poissons Ratio (x) = 0.34161 -0.02313
# Poissons Ratio (y) = 0.31217 0.39607
# Poissons Ratio (z) = -0.01860 0.34844
#
# Static dielectric constant tensor:
#      x y z
#    x 4.116790 0.050480 0.087050 
#    y 0.050480 4.607250 0.021490 
#    z 0.087050 0.021490 4.221010 
# 
# 
# High freq. dielectric constant tensor:
#      x y z
#    x 1.906110 -0.011070 0.006910 
#    y -0.011070 1.911620 -0.001590 
#    z 0.006910 -0.001590 1.887130 
# 
# From -- ./inp_files/585750.got.cif
#   From: 2010.06.25/outbox.cif.g09.slc.cpg/sg2_293_cif.got.tgz:585750.got - 2010.06.27 13:26:56.
