data_PCOD8030262
_publ_section_title
;
Structure prediction by ZEFSAII (Michael W. Deem and Ramdas Pophale) SiO2 
 PCOD8030262
Probable space group: P -1
;
_chemical_formula_sum "Si O2"
_cell_formula_units_Z 14
_cell_length_a 13.462844
_cell_length_b 10.384996
_cell_length_c 8.573649
_cell_angle_alpha 58.756136
_cell_angle_beta 127.419982
_cell_angle_gamma 142.439610
_cell_volume 578.644829
_symmetry_space_group_name_H-M "P -1"
_symmetry_group_IT_number 2
_symmetry_cell_setting 'triclinic'
loop_
_space_group_symop_operation_xyz
x,y,z
-x,-y,-z
loop_
_atom_site_type_symbol
_atom_site_label
_atom_site_fract_x
_atom_site_fract_y
_atom_site_fract_z
Si Si1 0.356845 0.448012 0.704662
Si Si2 0.431403 0.171513 0.866950
Si Si3 0.870091 0.249731 0.003805
Si Si4 0.345701 0.176686 0.444921
Si Si5 0.890653 0.795438 0.630311
Si Si6 0.247359 0.570668 0.772874
Si Si7 0.839582 0.238622 0.639823
O O1 0.364008 0.271894 0.815557
O O2 0.539477 0.679193 0.684607
O O3 0.217757 0.394697 0.479171
O O4 0.298203 0.451528 0.819500
O O5 0.455087 0.207766 0.679764
O O6 0.287132 0.915547 0.918079
O O7 0.618525 0.282930 0.049490
O O8 0.991849 0.206312 0.146544
O O9 0.769945 0.171766 0.791806
O O10 0.000000 0.500000 0.000000
O O11 0.242579 0.236983 0.360154
O O12 0.204508 0.938116 0.400886
O O13 0.000000 0.000000 0.500000
O O14 0.260480 0.702757 0.563645
O O15 0.050700 0.421645 0.743169
#
# Coordination Sequence:
#
# PCOD8030262 Si02
#       7
#     2   2   2   2   2   2   2
#     4  11  23  44  74 103 143 188 235 294 353 418
#     4  11  25  46  72 106 139 185 239 292 354 418
#     4  12  27  45  74 106 141 189 237 289 362 420
#     4  11  25  44  74 107 142 186 238 289 356 420
#     4  11  21  43  73 104 147 184 233 294 347 418
#     4  11  26  47  70 101 148 186 236 295 350 423
#     4  11  28  46  69 105 142 191 234 289 362 417
#
# _framework density 24.194462999999999
#
# number of rings (size 3 to 8) (size 9 to 14) (size 15 to 20)
#    0.000    0.857    2.857    4.714    8.000    4.571 
#    0.000    0.000    0.000    0.000    0.000    0.000 
#    0.000    0.000    0.000    0.000    0.000    0.000 
#
# Total GULP energy -173566.201051 kJ/mol
# GULP energy per Si atom -12397.585789 kJ/mol
# Density = 2.413939 g / cm^3
# Si number density = 24.194463 Si / 1000 Ang^3
#
#
#
# Elastic Constant Matrix: (Units=GPa)
#
#
# Indices 1 2 3 4 5 6 
#
# 1 53.1490 12.6254 11.1570 2.0561 -6.3949 0.2424
# 2 12.6254 119.3231 36.2427 8.1685 11.1884 -4.7143
# 3 11.1570 36.2427 125.2270 11.3396 8.1370 -8.1655
# 4 2.0561 8.1685 11.3396 46.0783 3.6621 -3.7930
# 5 -6.3949 11.1884 8.1370 3.6621 26.6347 9.0464
# 6 0.2424 -4.7143 -8.1655 -3.7930 9.0464 31.8817
#
#
#
# Elastic Compliance Matrix: (Units=1/GPa)
#
#
# Indices 1 2 3 4 5 6 
#
# 1 0.020763 -0.002456 -0.001777 -0.000947 0.007812 -0.003305
# 2 -0.002456 0.009859 -0.002131 -0.000553 -0.004756 0.002214
# 3 -0.001777 -0.002131 0.009268 -0.001345 -0.003129 0.002800
# 4 -0.000947 -0.000553 -0.001345 0.022759 -0.003863 0.003385
# 5 0.007812 -0.004756 -0.003129 -0.003863 0.048242 -0.015712
# 6 -0.003305 0.002214 0.002800 0.003385 -0.015712 0.037297
#
#
# Mechanical properties :
#
#
# Convention : Reuss Voigt Hill
#
# Bulk Modulus (GPa) = 36.81369 46.41657 41.61513
# Shear Modulus (GPa) = 29.41709 36.76389 33.09049
#
# Velocity S-wave (km/s) = 3.49070 3.90233 3.70224
# Velocity P-wave (km/s) = 5.61208 6.28734 5.95928
#
# Compressibility (1/GPa) = 0.02716381
#
# Stress axis : x y z
#
# Youngs Moduli (GPa) = 48.16267 101.42984 107.89600
#
# Poissons Ratio (x) = 0.24907 0.19169
# Poissons Ratio (y) = 0.11827 0.22993
# Poissons Ratio (z) = 0.08556 0.21615
#
# Static dielectric constant tensor:
#      x y z
#    x 3.076930 0.014390 -1.375860 
#    y 0.014390 4.506560 -0.035530 
#    z -1.375860 -0.035530 2.482560 
# 
# 
# High freq. dielectric constant tensor:
#      x y z
#    x 1.949290 0.002020 0.001060 
#    y 0.002020 1.968060 0.007010 
#    z 0.001060 0.007010 1.970990 
# 
# From -- ./inp_files/167180.got.cif
#   From: 2010.06.25/outbox.cif.g09.slc.cpg/sg2_84_cif.got.tgz:167180.got - 2010.06.27 13:26:56.
