data_PCOD8030022
_publ_section_title
;
Structure prediction by ZEFSAII (Michael W. Deem and Ramdas Pophale) SiO2 
 PCOD8030022
Probable space group: P -1
;
_chemical_formula_sum "Si O2"
_cell_formula_units_Z 16
_cell_length_a 11.019303
_cell_length_b 9.883635
_cell_length_c 13.982351
_cell_angle_alpha 66.713691
_cell_angle_beta 31.602454
_cell_angle_gamma 66.786525
_cell_volume 727.751174
_symmetry_space_group_name_H-M "P -1"
_symmetry_group_IT_number 2
_symmetry_cell_setting 'triclinic'
loop_
_space_group_symop_operation_xyz
x,y,z
-x,-y,-z
loop_
_atom_site_type_symbol
_atom_site_label
_atom_site_fract_x
_atom_site_fract_y
_atom_site_fract_z
Si Si1 0.399801 0.672209 0.618910
Si Si2 0.069746 0.720304 0.443971
Si Si3 0.345299 0.407458 0.346469
Si Si4 0.801906 0.406495 0.918788
Si Si5 0.730577 0.154683 0.896953
Si Si6 0.243690 0.365174 0.770382
Si Si7 0.793050 0.743196 0.800704
Si Si8 0.079724 0.168452 0.098947
O O1 0.600137 0.665602 0.566175
O O2 0.266449 0.525602 0.755042
O O3 0.520054 0.690523 0.430672
O O4 0.199773 0.808285 0.735392
O O5 0.846521 0.676833 0.550611
O O6 0.987199 0.788780 0.583170
O O7 0.266014 0.581338 0.365391
O O8 0.184209 0.843821 0.271249
O O9 0.575211 0.382081 0.136451
O O10 0.826829 0.293298 0.845244
O O11 0.777418 0.568783 0.842832
O O12 0.022804 0.376562 0.846785
O O13 0.836850 0.004941 0.919069
O O14 0.452225 0.162119 0.084109
O O15 0.219606 0.250725 0.903505
O O16 0.868830 0.768631 0.849809
#
# Coordination Sequence:
#
# PCOD8030022 Si02
#       8
#     2   2   2   2   2   2   2   2
#     4  11  23  43  70 101 127 174 220 275 325 387
#     4  11  24  40  67 101 130 169 221 277 322 384
#     4  11  21  41  71 100 130 166 223 281 324 375
#     4  12  21  45  73  98 127 174 226 274 325 385
#     4  12  27  43  65  99 138 177 215 270 334 391
#     4  11  24  43  72  96 132 170 224 273 323 391
#     4  12  24  44  69  97 131 176 226 270 323 389
#     4  12  27  44  65 100 139 175 216 266 336 395
#
# _framework density 21.985537000000001
#
# number of rings (size 3 to 8) (size 9 to 14) (size 15 to 20)
#    0.000    0.500    5.000    4.875    1.750    2.000 
#    0.000    1.250    0.000    0.000    0.000    0.000 
#    0.000    0.000    0.000    0.000    0.000    0.000 
#
# Total GULP energy -198521.286051 kJ/mol
# GULP energy per Si atom -12407.580378 kJ/mol
# Density = 2.193550 g / cm^3
# Si number density = 21.985537 Si / 1000 Ang^3
#
#
#
# Elastic Constant Matrix: (Units=GPa)
#
#
# Indices 1 2 3 4 5 6 
#
# 1 101.9171 26.1864 25.8759 8.4590 2.6831 -17.3578
# 2 26.1864 81.6531 41.5528 9.3330 0.2008 -24.5926
# 3 25.8759 41.5528 120.5955 11.3602 18.0915 -16.4638
# 4 8.4590 9.3330 11.3602 14.3847 -1.5035 -1.3288
# 5 2.6831 0.2008 18.0915 -1.5035 40.0372 3.6464
# 6 -17.3578 -24.5926 -16.4638 -1.3288 3.6464 31.8685
#
#
#
# Elastic Compliance Matrix: (Units=1/GPa)
#
#
# Indices 1 2 3 4 5 6 
#
# 1 0.011609 -0.001305 -0.000744 -0.005056 -0.001066 0.004842
# 2 -0.001305 0.019046 -0.004112 -0.007225 0.000531 0.011501
# 3 -0.000744 -0.004112 0.011732 -0.006495 -0.005736 0.002869
# 4 -0.005056 -0.007225 -0.006495 0.082225 0.007225 -0.009083
# 5 -0.001066 0.000531 -0.005736 0.007225 0.028464 -0.006090
# 6 0.004842 0.011501 0.002869 -0.009083 -0.006090 0.044692
#
#
# Mechanical properties :
#
#
# Convention : Reuss Voigt Hill
#
# Bulk Modulus (GPa) = 33.26006 54.59953 43.92980
# Shear Modulus (GPa) = 22.71582 31.29479 27.00531
#
# Velocity S-wave (km/s) = 3.21786 3.77693 3.50854
# Velocity P-wave (km/s) = 5.38211 6.62634 6.03637
#
# Compressibility (1/GPa) = 0.03006609
#
# Stress axis : x y z
#
# Youngs Moduli (GPa) = 86.14305 52.50369 85.23339
#
# Poissons Ratio (x) = 0.06854 0.06338
# Poissons Ratio (y) = 0.11245 0.35044
# Poissons Ratio (z) = 0.06406 0.21587
#
# Static dielectric constant tensor:
#      x y z
#    x 4.166570 -0.085020 0.093940 
#    y -0.085020 3.713850 0.181840 
#    z 0.093940 0.181840 4.302730 
# 
# 
# High freq. dielectric constant tensor:
#      x y z
#    x 1.877530 -0.008160 0.003390 
#    y -0.008160 1.833570 0.015180 
#    z 0.003390 0.015180 1.887710 
# 
# From -- ./inp_files/515277.got.cif
#   From: 2010.06.25/outbox.cif.g09.slc.cpg/sg2_258_cif.got.tgz:515277.got - 2010.06.27 13:26:56.
