data_PCOD8030785
_publ_section_title
;
Structure prediction by ZEFSAII (Michael W. Deem and Ramdas Pophale) SiO2 
 PCOD8030785
Probable space group: P -1
;
_chemical_formula_sum "Si O2"
_cell_formula_units_Z 16
_cell_length_a 9.004382
_cell_length_b 19.189050
_cell_length_c 6.058351
_cell_angle_alpha 42.089397
_cell_angle_beta 96.061018
_cell_angle_gamma 98.957768
_cell_volume 693.019486
_symmetry_space_group_name_H-M "P -1"
_symmetry_group_IT_number 2
_symmetry_cell_setting 'triclinic'
loop_
_space_group_symop_operation_xyz
x,y,z
-x,-y,-z
loop_
_atom_site_type_symbol
_atom_site_label
_atom_site_fract_x
_atom_site_fract_y
_atom_site_fract_z
Si Si1 0.248846 0.714747 0.381127
Si Si2 0.434298 0.964859 0.323576
Si Si3 0.100099 0.014332 0.189084
Si Si4 0.976652 0.402753 0.067359
Si Si5 0.724668 0.433655 0.649378
Si Si6 0.227725 0.337085 0.991154
Si Si7 0.002998 0.175492 0.083551
Si Si8 0.530108 0.256478 0.291073
O O1 0.283864 0.613674 0.486688
O O2 0.405579 0.762129 0.408708
O O3 0.126671 0.690027 0.612785
O O4 0.170287 0.798796 0.029242
O O5 0.271093 0.000348 0.203182
O O6 0.436473 0.839575 0.632568
O O7 0.500000 0.000000 0.500000
O O8 0.500000 0.000000 0.000000
O O9 0.012684 0.924076 0.532035
O O10 0.086857 0.133449 0.984265
O O11 0.000000 0.000000 0.000000
O O12 0.137894 0.365982 0.126282
O O13 0.000000 0.500000 0.000000
O O14 0.895695 0.432126 0.761016
O O15 0.692051 0.554760 0.358195
O O16 0.608396 0.366510 0.949387
O O17 0.108972 0.276301 0.948651
O O18 0.352233 0.263379 0.257328
#
# Coordination Sequence:
#
# PCOD8030785 Si02
#       8
#     2   2   2   2   2   2   2   2
#     4  11  23  44  69  98 142 192 228 296 371 447
#     4  12  30  52  80 111 156 201 253 317 391 455
#     4  11  27  48  76 107 144 190 252 320 380 445
#     4  11  22  40  68 102 137 185 241 293 358 430
#     4  11  23  46  68  99 147 190 235 295 372 444
#     4  12  24  45  70 104 143 186 245 300 358 449
#     4  11  25  44  76 104 143 187 251 304 375 444
#     4  11  28  45  71 105 145 191 244 301 376 444
#
# _framework density 23.087372999999999
#
# number of rings (size 3 to 8) (size 9 to 14) (size 15 to 20)
#    0.000    0.750    2.500    3.750   12.250    0.500 
#    4.500    0.000    0.000    0.000    0.000    0.000 
#    0.000    0.000    0.000    0.000    0.000    0.000 
#
# Total GULP energy -198230.614741 kJ/mol
# GULP energy per Si atom -12389.413421 kJ/mol
# Density = 2.303483 g / cm^3
# Si number density = 23.087373 Si / 1000 Ang^3
#
#
#
# Elastic Constant Matrix: (Units=GPa)
#
#
# Indices 1 2 3 4 5 6 
#
# 1 129.2246 59.4601 13.4067 14.3041 37.6164 -4.0361
# 2 59.4601 189.1238 43.2253 4.2691 23.5896 -1.3342
# 3 13.4067 43.2253 62.8228 4.6692 19.7445 9.4845
# 4 14.3041 4.2691 4.6692 40.6825 0.9786 7.1843
# 5 37.6164 23.5896 19.7445 0.9786 44.1547 1.0596
# 6 -4.0361 -1.3342 9.4845 7.1843 1.0596 34.9194
#
#
#
# Elastic Compliance Matrix: (Units=1/GPa)
#
#
# Indices 1 2 3 4 5 6 
#
# 1 0.012364 -0.003151 0.002738 -0.004403 -0.010018 0.001775
# 2 -0.003151 0.007257 -0.004821 0.000692 0.000923 0.001052
# 3 0.002738 -0.004821 0.022650 -0.001880 -0.009715 -0.005338
# 4 -0.004403 0.000692 -0.001880 0.027184 0.003756 -0.005679
# 5 -0.010018 0.000923 -0.009715 0.003756 0.034958 -0.000317
# 6 0.001775 0.001052 -0.005338 -0.005679 -0.000317 0.031511
#
#
# Mechanical properties :
#
#
# Convention : Reuss Voigt Hill
#
# Bulk Modulus (GPa) = 31.44539 68.15060 49.79800
# Shear Modulus (GPa) = 31.84872 41.62328 36.73600
#
# Velocity S-wave (km/s) = 3.71817 4.25062 3.99328
# Velocity P-wave (km/s) = 5.66417 7.32618 6.54812
#
# Compressibility (1/GPa) = 0.03180116
#
# Stress axis : x y z
#
# Youngs Moduli (GPa) = 80.88290 137.80121 44.15105
#
# Poissons Ratio (x) = 0.43425 -0.12088
# Poissons Ratio (y) = 0.25488 0.21285
# Poissons Ratio (z) = -0.22144 0.66432
#
# Static dielectric constant tensor:
#      x y z
#    x 4.255810 -0.107110 0.059350 
#    y -0.107110 4.588330 0.065880 
#    z 0.059350 0.065880 4.349470 
# 
# 
# High freq. dielectric constant tensor:
#      x y z
#    x 1.910930 -0.002190 0.006730 
#    y -0.002190 1.929110 -0.002030 
#    z 0.006730 -0.002030 1.915820 
# 
# From -- ./inp_files/46335.got.cif
#   From: 2010.06.25/outbox.cif.g09.slc.cpg/sg2_24_cif.got.tgz:46335.got - 2010.06.27 13:26:56.
