data_PCOD8030664
_publ_section_title
;
Structure prediction by ZEFSAII (Michael W. Deem and Ramdas Pophale) SiO2 
 PCOD8030664
Probable space group: P -1
;
_chemical_formula_sum "Si O2"
_cell_formula_units_Z 16
_cell_length_a 9.095298
_cell_length_b 9.138593
_cell_length_c 15.522097
_cell_angle_alpha 130.558740
_cell_angle_beta 70.609789
_cell_angle_gamma 80.319826
_cell_volume 780.641359
_symmetry_space_group_name_H-M "P -1"
_symmetry_group_IT_number 2
_symmetry_cell_setting 'triclinic'
loop_
_space_group_symop_operation_xyz
x,y,z
-x,-y,-z
loop_
_atom_site_type_symbol
_atom_site_label
_atom_site_fract_x
_atom_site_fract_y
_atom_site_fract_z
Si Si1 0.283089 0.885398 0.900330
Si Si2 0.976732 0.743611 0.184387
Si Si3 0.925752 0.599689 0.646260
Si Si4 0.695482 0.682844 0.125774
Si Si5 0.923829 0.248906 0.644004
Si Si6 0.468854 0.946294 0.119952
Si Si7 0.498829 0.453756 0.147619
Si Si8 0.972378 0.076410 0.177820
O O1 0.457821 0.635434 0.796201
O O2 0.214212 0.872612 0.813776
O O3 0.354982 0.057937 0.956374
O O4 0.132213 0.953816 0.029419
O O5 0.962628 0.782965 0.303961
O O6 0.778752 0.787321 0.213246
O O7 0.142689 0.483973 0.036047
O O8 0.013868 0.915946 0.190848
O O9 0.946327 0.402896 0.629040
O O10 0.000000 0.500000 0.500000
O O11 0.049298 0.690511 0.696433
O O12 0.714395 0.806563 0.759121
O O13 0.517767 0.882595 0.186336
O O14 0.630008 0.545794 0.140356
O O15 0.712334 0.354239 0.751097
O O16 0.000000 0.000000 0.500000
O O17 0.442559 0.759265 0.008350
#
# Coordination Sequence:
#
# PCOD8030664 Si02
#       8
#     2   2   2   2   2   2   2   2
#     4  11  22  39  67 101 131 165 217 271 324 374
#     4  11  23  42  62  99 139 169 212 263 332 381
#     4  12  27  45  69  94 129 173 217 269 325 386
#     4  11  24  37  67 101 135 171 209 270 325 381
#     4  12  28  45  67  94 133 173 214 267 327 391
#     4  12  22  43  67 101 128 167 226 269 316 381
#     4  12  23  40  68 100 130 171 220 269 315 382
#     4  11  23  40  66  97 136 171 211 268 325 382
#
# _framework density 20.495968999999999
#
# number of rings (size 3 to 8) (size 9 to 14) (size 15 to 20)
#    0.000    0.500    6.250    2.250    5.250    0.000 
#    0.000    2.500    0.000    0.000    0.000    0.000 
#    0.000    0.000    0.000    0.000    0.000    0.000 
#
# Total GULP energy -198412.885339 kJ/mol
# GULP energy per Si atom -12400.805334 kJ/mol
# Density = 2.044932 g / cm^3
# Si number density = 20.495969 Si / 1000 Ang^3
#
#
#
# Elastic Constant Matrix: (Units=GPa)
#
#
# Indices 1 2 3 4 5 6 
#
# 1 108.0486 43.0775 41.4384 0.9797 16.4852 0.7507
# 2 43.0775 140.0594 49.1720 1.8169 12.8296 -3.8774
# 3 41.4384 49.1720 96.3177 3.5632 18.2779 -5.8491
# 4 0.9797 1.8169 3.5632 32.4724 -1.5508 1.9100
# 5 16.4852 12.8296 18.2779 -1.5508 24.0896 -1.8602
# 6 0.7507 -3.8774 -5.8491 1.9100 -1.8602 48.8301
#
#
#
# Elastic Compliance Matrix: (Units=1/GPa)
#
#
# Indices 1 2 3 4 5 6 
#
# 1 0.012096 -0.002170 -0.003253 -0.000058 -0.004729 -0.000926
# 2 -0.002170 0.009135 -0.003586 -0.000101 -0.000642 0.000309
# 3 -0.003253 -0.003586 0.015162 -0.001798 -0.007379 0.001371
# 4 -0.000058 -0.000101 -0.001798 0.031238 0.003367 -0.001316
# 5 -0.004729 -0.000642 -0.007379 0.003367 0.050979 0.000948
# 6 -0.000926 0.000309 0.001371 -0.001316 0.000948 0.020770
#
#
# Mechanical properties :
#
#
# Convention : Reuss Voigt Hill
#
# Bulk Modulus (GPa) = 54.41783 67.97795 61.19789
# Shear Modulus (GPa) = 30.57687 35.12760 32.85224
#
# Velocity S-wave (km/s) = 3.86664 4.14439 4.00792
# Velocity P-wave (km/s) = 6.82222 7.49265 7.16528
#
# Compressibility (1/GPa) = 0.01837633
#
# Stress axis : x y z
#
# Youngs Moduli (GPa) = 82.66975 109.47224 65.95329
#
# Poissons Ratio (x) = 0.23756 0.21454
# Poissons Ratio (y) = 0.17940 0.23648
# Poissons Ratio (z) = 0.26892 0.39251
#
# Static dielectric constant tensor:
#      x y z
#    x 4.549310 -0.199770 -0.259050 
#    y -0.199770 4.011110 0.095860 
#    z -0.259050 0.095860 3.626050 
# 
# 
# High freq. dielectric constant tensor:
#      x y z
#    x 1.823760 -0.002610 0.006400 
#    y -0.002610 1.827540 0.002980 
#    z 0.006400 0.002980 1.753410 
# 
# From -- ./inp_files/186696.got.cif
#   From: 2010.06.25/outbox.cif.g09.slc.cpg/sg2_94_cif.got.tgz:186696.got - 2010.06.27 13:26:56.
