data_PCOD8030226
_publ_section_title
;
Structure prediction by ZEFSAII (Michael W. Deem and Ramdas Pophale) SiO2 
 PCOD8030226
Probable space group: P -1
;
_chemical_formula_sum "Si O2"
_cell_formula_units_Z 14
_cell_length_a 14.779179
_cell_length_b 11.733537
_cell_length_c 12.077765
_cell_angle_alpha 127.414901
_cell_angle_beta 150.254295
_cell_angle_gamma 40.523634
_cell_volume 666.224792
_symmetry_space_group_name_H-M "P -1"
_symmetry_group_IT_number 2
_symmetry_cell_setting 'triclinic'
loop_
_space_group_symop_operation_xyz
x,y,z
-x,-y,-z
loop_
_atom_site_type_symbol
_atom_site_label
_atom_site_fract_x
_atom_site_fract_y
_atom_site_fract_z
Si Si1 0.172476 0.329618 0.007860
Si Si2 0.685705 0.393820 0.045968
Si Si3 0.633380 0.664294 0.996456
Si Si4 0.173310 0.046967 0.698920
Si Si5 0.458753 0.064380 0.337303
Si Si6 0.242800 0.933760 0.170432
Si Si7 0.153771 0.223568 0.560980
O O1 0.268725 0.394857 0.057755
O O2 0.370273 0.196655 0.220597
O O3 0.096276 0.217992 0.795898
O O4 0.000000 0.500000 0.000000
O O5 0.924502 0.329371 0.311148
O O6 0.500000 0.500000 0.000000
O O7 0.600645 0.518548 0.919546
O O8 0.676538 0.231345 0.916885
O O9 0.418673 0.872324 0.893005
O O10 0.821822 0.639849 0.265789
O O11 0.172304 0.088038 0.592224
O O12 0.000000 0.000000 0.500000
O O13 0.575107 0.127420 0.576624
O O14 0.255798 0.071064 0.187694
O O15 0.651026 0.870559 0.379964
O O16 0.000000 0.000000 0.000000
#
# Coordination Sequence:
#
# PCOD8030226 Si02
#       7
#     2   2   2   2   2   2   2
#     4  11  25  43  70  99 136 180 230 285 354 401
#     4  12  26  42  68 105 140 173 236 292 341 407
#     4  11  23  44  66 103 135 179 233 280 344 427
#     4  11  23  42  70 100 135 183 237 281 342 430
#     4  11  23  45  72  95 137 187 228 283 351 410
#     4  11  26  43  69 100 136 182 234 280 345 422
#     4  11  21  43  70  96 134 188 228 278 350 412
#
# _framework density 21.013928
#
# number of rings (size 3 to 8) (size 9 to 14) (size 15 to 20)
#    0.000    0.857    4.286    3.000    4.000    3.429 
#    0.000    1.429    0.000    0.000    0.000    0.000 
#    0.000    0.000    0.000    0.000    0.000    0.000 
#
# Total GULP energy -173482.245337 kJ/mol
# GULP energy per Si atom -12391.588953 kJ/mol
# Density = 2.096610 g / cm^3
# Si number density = 21.013928 Si / 1000 Ang^3
#
#
#
# Elastic Constant Matrix: (Units=GPa)
#
#
# Indices 1 2 3 4 5 6 
#
# 1 143.0338 42.9755 65.8133 -5.7946 5.9097 -12.1620
# 2 42.9755 94.0006 45.7614 -6.0973 0.6306 -17.4236
# 3 65.8133 45.7614 86.2074 5.5213 1.2775 1.1622
# 4 -5.7946 -6.0973 5.5213 29.5628 2.5279 -6.0551
# 5 5.9097 0.6306 1.2775 2.5279 38.9454 -1.1854
# 6 -12.1620 -17.4236 1.1622 -6.0551 -1.1854 44.0965
#
#
#
# Elastic Compliance Matrix: (Units=1/GPa)
#
#
# Indices 1 2 3 4 5 6 
#
# 1 0.012030 0.000452 -0.009800 0.005339 -0.001723 0.004442
# 2 0.000452 0.017370 -0.010139 0.007274 -0.000238 0.008248
# 3 -0.009800 -0.010139 0.025245 -0.010636 0.001246 -0.008802
# 4 0.005339 0.007274 -0.010636 0.040685 -0.002911 0.010135
# 5 -0.001723 -0.000238 0.001246 -0.002911 0.026081 -0.000301
# 6 0.004442 0.008248 -0.008802 0.010135 -0.000301 0.028777
#
#
# Mechanical properties :
#
#
# Convention : Reuss Voigt Hill
#
# Bulk Modulus (GPa) = 63.81425 70.26025 67.03725
# Shear Modulus (GPa) = 25.72202 33.76704 29.74453
#
# Velocity S-wave (km/s) = 3.50243 4.01295 3.76635
# Velocity P-wave (km/s) = 6.84029 7.41481 7.13334
#
# Compressibility (1/GPa) = 0.01567048
#
# Stress axis : x y z
#
# Youngs Moduli (GPa) = 83.12528 57.57187 39.61103
#
# Poissons Ratio (x) = -0.02604 0.38821
# Poissons Ratio (y) = -0.03760 0.40162
# Poissons Ratio (z) = 0.81467 0.58373
#
# Static dielectric constant tensor:
#      x y z
#    x 4.135160 0.103670 -0.118810 
#    y 0.103670 4.017630 0.058510 
#    z -0.118810 0.058510 3.930580 
# 
# 
# High freq. dielectric constant tensor:
#      x y z
#    x 1.845170 0.003000 -0.009120 
#    y 0.003000 1.817000 0.002240 
#    z -0.009120 0.002240 1.824580 
# 
# From -- ./inp_files/191152.got.cif
#   From: 2010.06.25/outbox.cif.g09.slc.cpg/sg2_96_cif.got.tgz:191152.got - 2010.06.27 13:26:56.
