data_PCOD8030170
_publ_section_title
;
Structure prediction by ZEFSAII (Michael W. Deem and Ramdas Pophale) SiO2 
 PCOD8030170
Probable space group: P -1
;
_chemical_formula_sum "Si O2"
_cell_formula_units_Z 14
_cell_length_a 5.160252
_cell_length_b 31.709660
_cell_length_c 12.957470
_cell_angle_alpha 161.012672
_cell_angle_beta 58.764340
_cell_angle_gamma 123.394759
_cell_volume 575.928409
_symmetry_space_group_name_H-M "P -1"
_symmetry_group_IT_number 2
_symmetry_cell_setting 'triclinic'
loop_
_space_group_symop_operation_xyz
x,y,z
-x,-y,-z
loop_
_atom_site_type_symbol
_atom_site_label
_atom_site_fract_x
_atom_site_fract_y
_atom_site_fract_z
Si Si1 0.667316 0.170281 0.263614
Si Si2 0.873187 0.255386 0.214819
Si Si3 0.836921 0.528066 0.859026
Si Si4 0.758556 0.235894 0.787289
Si Si5 0.524133 0.847216 0.136369
Si Si6 0.806279 0.610165 0.278668
Si Si7 0.667913 0.867583 0.555716
O O1 0.596846 0.221308 0.281658
O O2 0.454824 0.208409 0.487723
O O3 0.021806 0.243123 0.382343
O O4 0.613978 0.013699 0.907024
O O5 0.038008 0.412343 0.558425
O O6 0.720521 0.221653 0.057448
O O7 0.119711 0.164315 0.981009
O O8 0.498709 0.433161 0.686328
O O9 0.770353 0.612759 0.167800
O O10 0.992817 0.625151 0.959917
O O11 0.562748 0.234214 0.927474
O O12 0.523873 0.209107 0.677607
O O13 0.965211 0.126180 0.509906
O O14 0.500000 0.000000 0.500000
O O15 0.000000 0.500000 0.000000
#
# Coordination Sequence:
#
# PCOD8030170 Si02
#       7
#     2   2   2   2   2   2   2
#     4  11  23  43  71 104 143 176 234 287 354 418
#     4  12  26  44  72 103 135 184 236 287 341 417
#     4  11  26  39  71 102 142 186 229 287 350 416
#     4  12  26  48  69 101 144 184 234 286 348 412
#     4  12  27  49  73  97 137 189 237 288 343 410
#     4  11  21  43  65 103 147 187 225 277 355 429
#     4  11  26  42  71 106 139 182 226 293 354 412
#
# _framework density 24.308578000000001
#
# number of rings (size 3 to 8) (size 9 to 14) (size 15 to 20)
#    0.000    0.571    2.857    4.714    2.000    5.714 
#    0.000    0.000    0.000    0.000    0.000    0.000 
#    0.000    0.000    0.000    0.000    0.000    0.000 
#
# Total GULP energy -173501.244766 kJ/mol
# GULP energy per Si atom -12392.946055 kJ/mol
# Density = 2.425325 g / cm^3
# Si number density = 24.308578 Si / 1000 Ang^3
#
#
#
# Elastic Constant Matrix: (Units=GPa)
#
#
# Indices 1 2 3 4 5 6 
#
# 1 89.4256 19.2333 12.4977 -13.8120 8.7358 -7.4181
# 2 19.2333 157.8503 35.2563 -5.3689 23.5162 -16.7415
# 3 12.4977 35.2563 84.4409 -5.4594 19.2767 -6.9165
# 4 -13.8120 -5.3689 -5.4594 38.5248 3.0461 4.8692
# 5 8.7358 23.5162 19.2767 3.0461 30.4162 2.8838
# 6 -7.4181 -16.7415 -6.9165 4.8692 2.8838 36.2829
#
#
#
# Elastic Compliance Matrix: (Units=1/GPa)
#
#
# Indices 1 2 3 4 5 6 
#
# 1 0.012542 -0.000562 -0.000367 0.004404 -0.003559 0.001927
# 2 -0.000562 0.007979 -0.001695 0.000640 -0.005337 0.003582
# 3 -0.000367 -0.001695 0.014861 0.002107 -0.008437 0.002364
# 4 0.004404 0.000640 0.002107 0.028607 -0.005790 -0.001782
# 5 -0.003559 -0.005337 -0.008437 -0.005790 0.044671 -0.007572
# 6 0.001927 0.003582 0.002364 -0.001782 -0.007572 0.030899
#
#
# Mechanical properties :
#
#
# Convention : Reuss Voigt Hill
#
# Bulk Modulus (GPa) = 33.18460 51.74348 42.46404
# Shear Modulus (GPa) = 32.28908 38.69342 35.49125
#
# Velocity S-wave (km/s) = 3.64854 3.99401 3.82518
# Velocity P-wave (km/s) = 5.60626 6.52701 6.08408
#
# Compressibility (1/GPa) = 0.03013446
#
# Stress axis : x y z
#
# Youngs Moduli (GPa) = 79.72967 125.33025 67.29230
#
# Poissons Ratio (x) = 0.07043 0.02467
# Poissons Ratio (y) = 0.04480 0.11407
# Poissons Ratio (z) = 0.02923 0.21246
#
# Static dielectric constant tensor:
#      x y z
#    x 4.649100 -0.058540 0.010090 
#    y -0.058540 4.695530 -0.263290 
#    z 0.010090 -0.263290 4.894760 
# 
# 
# High freq. dielectric constant tensor:
#      x y z
#    x 1.961180 -0.005390 -0.006320 
#    y -0.005390 1.973840 0.002040 
#    z -0.006320 0.002040 1.973020 
# 
# From -- ./inp_files/128494.got.cif
#   From: 2010.06.25/outbox.cif.g09.slc.cpg/sg2_65_cif.got.tgz:128494.got - 2010.06.27 13:26:56.
