data_PCOD8030198
_publ_section_title
;
Structure prediction by ZEFSAII (Michael W. Deem and Ramdas Pophale) SiO2 
 PCOD8030198
Probable space group: P -1
;
_chemical_formula_sum "Si O2"
_cell_formula_units_Z 16
_cell_length_a 8.387141
_cell_length_b 18.460900
_cell_length_c 8.659257
_cell_angle_alpha 96.904523
_cell_angle_beta 130.324253
_cell_angle_gamma 52.452909
_cell_volume 722.295406
_symmetry_space_group_name_H-M "P -1"
_symmetry_group_IT_number 2
_symmetry_cell_setting 'triclinic'
loop_
_space_group_symop_operation_xyz
x,y,z
-x,-y,-z
loop_
_atom_site_type_symbol
_atom_site_label
_atom_site_fract_x
_atom_site_fract_y
_atom_site_fract_z
Si Si1 0.054073 0.563952 0.473949
Si Si2 0.339378 0.869970 0.007696
Si Si3 0.975342 0.190674 0.086534
Si Si4 0.759191 0.688001 0.018094
Si Si5 0.249644 0.740847 0.527942
Si Si6 0.683345 0.371450 0.745646
Si Si7 0.814837 0.936882 0.108021
Si Si8 0.837711 0.762475 0.513133
O O1 0.398801 0.489538 0.633336
O O2 0.961728 0.649458 0.559074
O O3 0.000000 0.500000 0.500000
O O4 0.869503 0.612880 0.212512
O O5 0.501296 0.844998 0.265849
O O6 0.583901 0.800361 0.008326
O O7 0.147528 0.843621 0.890745
O O8 0.136678 0.988783 0.871813
O O9 0.160028 0.203448 0.306455
O O10 0.705346 0.300267 0.865632
O O11 0.184666 0.106626 0.064492
O O12 0.552224 0.692582 0.779014
O O13 0.025767 0.650089 0.068896
O O14 0.338127 0.654207 0.447214
O O15 0.082589 0.846925 0.361531
O O16 0.034981 0.764294 0.529159
O O17 0.500000 0.000000 0.000000
#
# Coordination Sequence:
#
# PCOD8030198 Si02
#       8
#     2   2   2   2   2   2   2   2
#     4  11  25  45  71 100 138 177 225 281 339 400
#     4  11  21  43  68  98 139 177 221 281 333 395
#     4  11  25  42  69  99 137 177 223 276 343 394
#     4  11  23  42  69  97 137 176 222 279 335 398
#     4  11  23  43  69  97 135 179 221 279 338 394
#     4  11  23  45  66 100 135 178 224 280 333 398
#     4  11  23  45  70 100 136 180 228 277 335 400
#     4  11  23  44  68  95 139 176 220 282 336 396
#
# _framework density 22.151602
#
# number of rings (size 3 to 8) (size 9 to 14) (size 15 to 20)
#    0.000    1.000    5.000    3.000    0.000    5.000 
#    0.000    0.000    0.000    0.000    0.000    0.000 
#    0.000    0.000    0.000    0.000    0.000    0.000 
#
# Total GULP energy -198462.757804 kJ/mol
# GULP energy per Si atom -12403.922363 kJ/mol
# Density = 2.210118 g / cm^3
# Si number density = 22.151602 Si / 1000 Ang^3
#
#
#
# Elastic Constant Matrix: (Units=GPa)
#
#
# Indices 1 2 3 4 5 6 
#
# 1 79.5257 41.2733 24.2535 -2.0037 1.8693 8.7717
# 2 41.2733 113.3273 31.3327 -12.9193 0.8265 18.6606
# 3 24.2535 31.3327 77.8092 9.0259 13.7654 14.2391
# 4 -2.0037 -12.9193 9.0259 31.3537 2.7968 -0.1206
# 5 1.8693 0.8265 13.7654 2.7968 30.3226 -3.3397
# 6 8.7717 18.6606 14.2391 -0.1206 -3.3397 30.8707
#
#
#
# Elastic Compliance Matrix: (Units=1/GPa)
#
#
# Indices 1 2 3 4 5 6 
#
# 1 0.016111 -0.005042 -0.003050 -0.000219 0.000542 -0.000065
# 2 -0.005042 0.013140 -0.003649 0.006077 0.000526 -0.004746
# 3 -0.003050 -0.003649 0.018661 -0.006354 -0.008309 -0.006459
# 4 -0.000219 0.006077 -0.006354 0.036272 -0.000681 -0.000613
# 5 0.000542 0.000526 -0.008309 -0.000681 0.037584 0.007424
# 6 -0.000065 -0.004746 -0.006459 -0.000613 0.007424 0.039061
#
#
# Mechanical properties :
#
#
# Convention : Reuss Voigt Hill
#
# Bulk Modulus (GPa) = 40.93453 51.59791 46.26622
# Shear Modulus (GPa) = 25.98042 30.09623 28.03833
#
# Velocity S-wave (km/s) = 3.42840 3.68998 3.56159
# Velocity P-wave (km/s) = 5.84733 6.44192 6.15181
#
# Compressibility (1/GPa) = 0.02442925
#
# Stress axis : x y z
#
# Youngs Moduli (GPa) = 62.07110 76.10502 53.58756
#
# Poissons Ratio (x) = 0.38375 0.16343
# Poissons Ratio (y) = 0.31298 0.19554
# Poissons Ratio (z) = 0.18930 0.27770
#
# Static dielectric constant tensor:
#      x y z
#    x 3.992380 0.010810 -0.055990 
#    y 0.010810 4.189150 -0.041900 
#    z -0.055990 -0.041900 4.014200 
# 
# 
# High freq. dielectric constant tensor:
#      x y z
#    x 1.874100 0.002880 -0.003620 
#    y 0.002880 1.878610 -0.004160 
#    z -0.003620 -0.004160 1.865300 
# 
# From -- ./inp_files/215213.got.cif
#   From: 2010.06.25/outbox.cif.g09.slc.cpg/sg2_108_cif.got.tgz:215213.got - 2010.06.27 13:26:56.
