data_PCOD8030822
_publ_section_title
;
Structure prediction by ZEFSAII (Michael W. Deem and Ramdas Pophale) SiO2 
 PCOD8030822
Probable space group: P -1
;
_chemical_formula_sum "Si O2"
_cell_formula_units_Z 14
_cell_length_a 8.852268
_cell_length_b 13.403755
_cell_length_c 19.598320
_cell_angle_alpha 27.836151
_cell_angle_beta 143.547366
_cell_angle_gamma 132.672621
_cell_volume 640.448948
_symmetry_space_group_name_H-M "P -1"
_symmetry_group_IT_number 2
_symmetry_cell_setting 'triclinic'
loop_
_space_group_symop_operation_xyz
x,y,z
-x,-y,-z
loop_
_atom_site_type_symbol
_atom_site_label
_atom_site_fract_x
_atom_site_fract_y
_atom_site_fract_z
Si Si1 0.078919 0.989100 0.455799
Si Si2 0.284272 0.987099 0.220532
Si Si3 0.982261 0.392033 0.889961
Si Si4 0.778865 0.365645 0.681833
Si Si5 0.528774 0.699558 0.593363
Si Si6 0.634100 0.303128 0.097169
Si Si7 0.232576 0.560862 0.697502
O O1 0.112959 0.745981 0.592836
O O2 0.337160 0.088634 0.471004
O O3 0.000000 0.000000 0.500000
O O4 0.854041 0.133928 0.244769
O O5 0.486799 0.159909 0.182243
O O6 0.233728 0.886682 0.188181
O O7 0.368194 0.767721 0.425662
O O8 0.048256 0.133893 0.083935
O O9 0.227593 0.520803 0.915885
O O10 0.920584 0.401438 0.782210
O O11 0.734841 0.489206 0.784139
O O12 0.500000 0.500000 0.500000
O O13 0.986350 0.444395 0.656199
O O14 0.342642 0.657048 0.611895
O O15 0.456653 0.408490 0.908886
#
# Coordination Sequence:
#
# PCOD8030822 Si02
#       7
#     2   2   2   2   2   2   2
#     4  11  22  40  70 102 134 176 227 272 334 407
#     4  12  23  42  71  98 132 186 227 277 335 400
#     4  11  24  43  71 101 132 175 234 278 332 409
#     4  12  25  45  70  98 134 182 235 276 331 411
#     4  11  25  42  67 102 141 175 219 286 345 395
#     4  11  24  40  75 101 131 175 230 282 332 400
#     4  12  26  44  66 104 142 174 222 287 344 396
#
# _framework density 21.859665
#
# number of rings (size 3 to 8) (size 9 to 14) (size 15 to 20)
#    0.000    0.571    4.286    4.714    0.000    4.000 
#    0.000    0.714    0.000    0.000    0.000    0.000 
#    0.000    0.000    0.000    0.000    0.000    0.000 
#
# Total GULP energy -173463.409120 kJ/mol
# GULP energy per Si atom -12390.243509 kJ/mol
# Density = 2.180991 g / cm^3
# Si number density = 21.859665 Si / 1000 Ang^3
#
#
#
# Elastic Constant Matrix: (Units=GPa)
#
#
# Indices 1 2 3 4 5 6 
#
# 1 109.8473 41.6506 36.8301 -4.5624 -7.2391 12.9442
# 2 41.6506 81.8873 40.0190 -4.8705 13.2435 8.2702
# 3 36.8301 40.0190 119.3086 -2.8341 15.7787 6.1448
# 4 -4.5624 -4.8705 -2.8341 34.2886 -9.6147 10.8575
# 5 -7.2391 13.2435 15.7787 -9.6147 32.4865 -3.9059
# 6 12.9442 8.2702 6.1448 10.8575 -3.9059 28.2639
#
#
#
# Elastic Compliance Matrix: (Units=1/GPa)
#
#
# Indices 1 2 3 4 5 6 
#
# 1 0.013530 -0.006028 -0.002829 0.004224 0.007568 -0.004394
# 2 -0.006028 0.018374 -0.003130 0.000423 -0.007566 -0.003143
# 3 -0.002829 -0.003130 0.010970 -0.001211 -0.005091 -0.000412
# 4 0.004224 0.000423 -0.001211 0.037310 0.010637 -0.014657
# 5 0.007568 -0.007566 -0.005091 0.010637 0.041352 0.001483
# 6 -0.004394 -0.003143 -0.000412 -0.014657 0.001483 0.044238
#
#
# Mechanical properties :
#
#
# Convention : Reuss Voigt Hill
#
# Bulk Modulus (GPa) = 52.90811 60.89363 56.90087
# Shear Modulus (GPa) = 25.50410 31.84402 28.67406
#
# Velocity S-wave (km/s) = 3.41943 3.82088 3.62572
# Velocity P-wave (km/s) = 6.31238 6.88350 6.60411
#
# Compressibility (1/GPa) = 0.01890069
#
# Stress axis : x y z
#
# Youngs Moduli (GPa) = 73.91190 54.42550 91.15501
#
# Poissons Ratio (x) = 0.32808 0.25786
# Poissons Ratio (y) = 0.44555 0.28528
# Poissons Ratio (z) = 0.20908 0.17033
#
# Static dielectric constant tensor:
#      x y z
#    x 3.732570 0.126470 0.483750 
#    y 0.126470 4.110250 -0.042330 
#    z 0.483750 -0.042330 4.628720 
# 
# 
# High freq. dielectric constant tensor:
#      x y z
#    x 1.834060 0.008150 0.029550 
#    y 0.008150 1.862960 -0.005560 
#    z 0.029550 -0.005560 1.878150 
# 
# From -- ./inp_files/559613.got.cif
#   From: 2010.06.25/outbox.cif.g09.slc.cpg/sg2_280_cif.got.tgz:559613.got - 2010.06.27 13:26:56.
