data_PCOD8030564
_publ_section_title
;
Structure prediction by ZEFSAII (Michael W. Deem and Ramdas Pophale) SiO2 
 PCOD8030564
Probable space group: P -1
;
_chemical_formula_sum "Si O2"
_cell_formula_units_Z 14
_cell_length_a 16.100557
_cell_length_b 5.137433
_cell_length_c 18.530501
_cell_angle_alpha 64.580546
_cell_angle_beta 30.992010
_cell_angle_gamma 78.735906
_cell_volume 661.910537
_symmetry_space_group_name_H-M "P -1"
_symmetry_group_IT_number 2
_symmetry_cell_setting 'triclinic'
loop_
_space_group_symop_operation_xyz
x,y,z
-x,-y,-z
loop_
_atom_site_type_symbol
_atom_site_label
_atom_site_fract_x
_atom_site_fract_y
_atom_site_fract_z
Si Si1 0.691512 0.597052 0.263939
Si Si2 0.360117 0.707420 0.516366
Si Si3 0.993525 0.651271 0.410639
Si Si4 0.631276 0.983850 0.964403
Si Si5 0.802899 0.116415 0.510460
Si Si6 0.572220 0.289785 0.113806
Si Si7 0.306951 0.782798 0.817007
O O1 0.481019 0.513702 0.425250
O O2 0.731106 0.418119 0.323980
O O3 0.772730 0.512357 0.140754
O O4 0.786987 0.971025 0.155955
O O5 0.208207 0.690889 0.575715
O O6 0.491390 0.067257 0.378471
O O7 0.940024 0.365363 0.429508
O O8 0.000000 0.500000 0.500000
O O9 0.860215 0.828246 0.485854
O O10 0.179116 0.909304 0.223552
O O11 0.563480 0.627441 0.080813
O O12 0.500000 0.000000 0.000000
O O13 0.643183 0.211635 0.995375
O O14 0.615522 0.977543 0.704145
O O15 0.701670 0.294801 0.082507
#
# Coordination Sequence:
#
# PCOD8030564 Si02
#       7
#     2   2   2   2   2   2   2
#     4   9  16  28  48  83 128 152 184 245 297 341
#     4   8  19  27  53  82 127 149 195 235 308 333
#     4  12  26  44  62  87 123 160 195 251 313 361
#     4  12  25  43  63  86 116 158 204 249 303 365
#     4  11  23  38  64  93 125 154 201 251 307 355
#     4  11  22  38  63  91 119 155 202 250 291 361
#     4   9  17  28  49  80 119 147 192 235 297 325
#
# _framework density 21.150893
#
# number of rings (size 3 to 8) (size 9 to 14) (size 15 to 20)
#    0.857    0.857    0.000    5.571    4.000    0.000 
#    0.000    0.000    0.000    0.000    0.000   20.000 
#    0.000    0.000    0.000    0.000    0.000    0.000 
#
# Total GULP energy -173509.885770 kJ/mol
# GULP energy per Si atom -12393.563269 kJ/mol
# Density = 2.110275 g / cm^3
# Si number density = 21.150893 Si / 1000 Ang^3
#
#
#
# Elastic Constant Matrix: (Units=GPa)
#
#
# Indices 1 2 3 4 5 6 
#
# 1 116.3871 36.7281 37.4789 -0.0139 31.9884 -13.8225
# 2 36.7281 118.3869 12.1728 5.8426 18.0198 8.0084
# 3 37.4789 12.1728 53.0660 2.0341 14.5411 -1.2765
# 4 -0.0139 5.8426 2.0341 32.0691 2.2481 7.6667
# 5 31.9884 18.0198 14.5411 2.2481 32.0023 -3.9516
# 6 -13.8225 8.0084 -1.2765 7.6667 -3.9516 33.1509
#
#
#
# Elastic Compliance Matrix: (Units=1/GPa)
#
#
# Indices 1 2 3 4 5 6 
#
# 1 0.015120 -0.002881 -0.007289 0.000345 -0.009523 0.005504
# 2 -0.002881 0.010111 0.000614 -0.000709 -0.003521 -0.003876
# 3 -0.007289 0.000614 0.025117 -0.000751 -0.004743 -0.002612
# 4 0.000345 -0.000709 -0.000751 0.033427 -0.002915 -0.007792
# 5 -0.009523 -0.003521 -0.004743 -0.002915 0.045454 0.002789
# 6 0.005504 -0.003876 -0.002612 -0.007792 0.002789 0.035430
#
#
# Mechanical properties :
#
#
# Convention : Reuss Voigt Hill
#
# Bulk Modulus (GPa) = 32.01426 51.17775 41.59600
# Shear Modulus (GPa) = 25.74916 32.87516 29.31216
#
# Velocity S-wave (km/s) = 3.49292 3.94676 3.72675
# Velocity P-wave (km/s) = 5.60680 6.70956 6.18282
#
# Compressibility (1/GPa) = 0.03123608
#
# Stress axis : x y z
#
# Youngs Moduli (GPa) = 66.13944 98.90555 39.81378
#
# Poissons Ratio (x) = 0.28495 0.29020
# Poissons Ratio (y) = 0.19055 -0.02446
# Poissons Ratio (z) = 0.48208 -0.06076
#
# Static dielectric constant tensor:
#      x y z
#    x 3.752950 -0.042320 0.274380 
#    y -0.042320 1.565970 -0.202220 
#    z 0.274380 -0.202220 3.457770 
# 
# 
# High freq. dielectric constant tensor:
#      x y z
#    x 1.826260 -0.004910 0.027770 
#    y -0.004910 1.836360 -0.003700 
#    z 0.027770 -0.003700 1.800880 
# 
# From -- ./inp_files/525607.got.cif
#   From: 2010.06.25/outbox.cif.g09.slc.cpg/sg2_263_cif.got.tgz:525607.got - 2010.06.27 13:26:56.
