data_PCOD8030127
_publ_section_title
;
Structure prediction by ZEFSAII (Michael W. Deem and Ramdas Pophale) SiO2 
 PCOD8030127
Probable space group: P -1
;
_chemical_formula_sum "Si O2"
_cell_formula_units_Z 14
_cell_length_a 20.535827
_cell_length_b 8.690076
_cell_length_c 11.162097
_cell_angle_alpha 58.872547
_cell_angle_beta 40.771199
_cell_angle_gamma 31.316741
_cell_volume 624.541532
_symmetry_space_group_name_H-M "P -1"
_symmetry_group_IT_number 2
_symmetry_cell_setting 'triclinic'
loop_
_space_group_symop_operation_xyz
x,y,z
-x,-y,-z
loop_
_atom_site_type_symbol
_atom_site_label
_atom_site_fract_x
_atom_site_fract_y
_atom_site_fract_z
Si Si1 0.133150 0.663461 0.263944
Si Si2 0.205409 0.343485 0.508243
Si Si3 0.198140 0.632841 0.858090
Si Si4 0.111376 0.419639 0.202336
Si Si5 0.375269 0.713851 0.200625
Si Si6 0.452358 0.330596 0.820135
Si Si7 0.804479 0.360536 0.412309
O O1 0.122395 0.630993 0.431212
O O2 0.043853 0.631765 0.326922
O O3 0.336676 0.378260 0.051311
O O4 0.019295 0.013304 0.255096
O O5 0.244458 0.370749 0.573169
O O6 0.062854 0.396215 0.696347
O O7 0.380832 0.021393 0.325141
O O8 0.326094 0.569841 0.786289
O O9 0.266920 0.537798 0.664643
O O10 0.210761 0.407563 0.977359
O O11 0.000000 0.000000 0.000000
O O12 0.241392 0.071221 0.207398
O O13 0.484492 0.595858 0.217470
O O14 0.276541 0.675767 0.379156
O O15 0.500000 0.500000 0.000000
#
# Coordination Sequence:
#
# PCOD8030127 Si02
#       7
#     2   2   2   2   2   2   2
#     4  11  21  42  71 100 136 182 234 286 346 408
#     4  12  24  41  71 108 136 182 236 288 349 406
#     4  11  26  48  71  98 143 190 232 281 349 420
#     4  11  24  44  73  97 142 182 231 282 356 407
#     4  12  27  45  73 111 139 176 240 296 340 410
#     4  11  25  42  72  99 142 183 232 286 349 409
#     4  12  26  45  71 102 145 186 230 287 347 415
#
# _framework density 22.416443000000001
#
# number of rings (size 3 to 8) (size 9 to 14) (size 15 to 20)
#    0.000    0.571    5.714    3.000    8.000    1.714 
#    0.000    0.000    0.000    0.000    0.000    0.000 
#    0.000    0.000    0.000    0.000    0.000    0.000 
#
# Total GULP energy -173574.304665 kJ/mol
# GULP energy per Si atom -12398.164619 kJ/mol
# Density = 2.236542 g / cm^3
# Si number density = 22.416443 Si / 1000 Ang^3
#
#
#
# Elastic Constant Matrix: (Units=GPa)
#
#
# Indices 1 2 3 4 5 6 
#
# 1 151.9015 29.7649 41.2745 16.1096 5.4132 4.1294
# 2 29.7649 45.9284 24.5928 2.8939 -3.9615 -5.4725
# 3 41.2745 24.5928 96.7113 6.4778 1.9674 1.6498
# 4 16.1096 2.8939 6.4778 28.8256 -3.7184 4.5548
# 5 5.4132 -3.9615 1.9674 -3.7184 44.5831 -0.9099
# 6 4.1294 -5.4725 1.6498 4.5548 -0.9099 35.5682
#
#
#
# Elastic Compliance Matrix: (Units=1/GPa)
#
#
# Indices 1 2 3 4 5 6 
#
# 1 0.008546 -0.004382 -0.002220 -0.003878 -0.001675 -0.001110
# 2 -0.004382 0.028476 -0.005561 0.000467 0.003452 0.005176
# 3 -0.002220 -0.005561 0.012807 -0.001023 -0.000897 -0.001084
# 4 -0.003878 0.000467 -0.001023 0.038181 0.003656 -0.004226
# 5 -0.001675 0.003452 -0.000897 0.003656 0.023303 0.000895
# 6 -0.001110 0.005176 -0.001084 -0.004226 0.000895 0.029655
#
#
# Mechanical properties :
#
#
# Convention : Reuss Voigt Hill
#
# Bulk Modulus (GPa) = 39.21168 53.97840 46.59504
# Shear Modulus (GPa) = 28.76959 35.05599 31.91279
#
# Velocity S-wave (km/s) = 3.58636 3.95885 3.77720
# Velocity P-wave (km/s) = 5.88895 6.71034 6.31302
#
# Compressibility (1/GPa) = 0.02550261
#
# Stress axis : x y z
#
# Youngs Moduli (GPa) = 117.00933 35.11784 78.08258
#
# Poissons Ratio (x) = 0.15389 0.17337
# Poissons Ratio (y) = 0.51275 0.43419
# Poissons Ratio (z) = 0.25980 0.19528
#
# Static dielectric constant tensor:
#      x y z
#    x 4.465560 -0.166630 0.054830 
#    y -0.166630 3.959060 0.063540 
#    z 0.054830 0.063540 4.140520 
# 
# 
# High freq. dielectric constant tensor:
#      x y z
#    x 1.895600 -0.006460 0.003450 
#    y -0.006460 1.861120 0.009670 
#    z 0.003450 0.009670 1.886420 
# 
# From -- ./inp_files/182835.got.cif
#   From: 2010.06.25/outbox.cif.g09.slc.cpg/sg2_92_cif.got.tgz:182835.got - 2010.06.27 13:26:56.
