data_PCOD8030813
_publ_section_title
;
Structure prediction by ZEFSAII (Michael W. Deem and Ramdas Pophale) SiO2 
 PCOD8030813
Probable space group: P -1
;
_chemical_formula_sum "Si O2"
_cell_formula_units_Z 16
_cell_length_a 17.439044
_cell_length_b 10.777442
_cell_length_c 11.402344
_cell_angle_alpha 71.746078
_cell_angle_beta 129.381033
_cell_angle_gamma 147.975749
_cell_volume 734.633050
_symmetry_space_group_name_H-M "P -1"
_symmetry_group_IT_number 2
_symmetry_cell_setting 'triclinic'
loop_
_space_group_symop_operation_xyz
x,y,z
-x,-y,-z
loop_
_atom_site_type_symbol
_atom_site_label
_atom_site_fract_x
_atom_site_fract_y
_atom_site_fract_z
Si Si1 0.138978 0.212989 0.966128
Si Si2 0.277774 0.437304 0.604424
Si Si3 0.816148 0.197394 0.463585
Si Si4 0.255021 0.072105 0.068723
Si Si5 0.076285 0.963379 0.427688
Si Si6 0.340606 0.682115 0.149911
Si Si7 0.844391 0.516143 0.723678
Si Si8 0.928509 0.326415 0.801929
O O1 0.280565 0.257641 0.045180
O O2 0.296274 0.507359 0.075859
O O3 0.986788 0.088755 0.752690
O O4 0.000000 0.000000 0.000000
O O5 0.516239 0.719565 0.801239
O O6 0.131662 0.269826 0.625355
O O7 0.249202 0.534557 0.471116
O O8 0.240874 0.266790 0.538027
O O9 0.854809 0.226485 0.628894
O O10 0.000000 0.500000 0.500000
O O11 0.816899 0.054562 0.448226
O O12 0.589507 0.004777 0.279626
O O13 0.163239 0.905524 0.149865
O O14 0.089788 0.847033 0.871256
O O15 0.292432 0.592703 0.266189
O O16 0.186998 0.622443 0.977042
O O17 0.836041 0.349796 0.762204
#
# Coordination Sequence:
#
# PCOD8030813 Si02
#       8
#     2   2   2   2   2   2   2   2
#     4  12  20  42  71  96 131 168 212 267 324 379
#     4  11  24  43  67  94 132 169 212 269 324 379
#     4  12  26  44  65  94 132 177 213 260 326 384
#     4  11  22  40  69  97 124 171 213 263 331 377
#     4  11  24  45  63  96 134 166 218 267 315 391
#     4  11  23  42  69  95 131 167 214 271 316 382
#     4  11  23  42  66  99 128 167 216 267 321 382
#     4  11  24  42  65  97 132 163 223 267 314 389
#
# _framework density 21.779579999999999
#
# number of rings (size 3 to 8) (size 9 to 14) (size 15 to 20)
#    0.000    0.750    5.000    3.750    0.000    6.000 
#    4.500    3.750    0.000    0.000    0.000    0.000 
#    0.000    0.000    0.000    0.000    0.000    0.000 
#
# Total GULP energy -198443.131288 kJ/mol
# GULP energy per Si atom -12402.695705 kJ/mol
# Density = 2.173001 g / cm^3
# Si number density = 21.779580 Si / 1000 Ang^3
#
#
#
# Elastic Constant Matrix: (Units=GPa)
#
#
# Indices 1 2 3 4 5 6 
#
# 1 88.1702 21.9040 21.3857 -1.0090 8.4751 -11.8853
# 2 21.9040 51.3412 16.9135 15.6718 10.0424 -8.5713
# 3 21.3857 16.9135 82.1658 21.4046 21.4944 7.2007
# 4 -1.0090 15.6718 21.4046 36.4119 5.3537 14.3868
# 5 8.4751 10.0424 21.4944 5.3537 35.6424 -7.1688
# 6 -11.8853 -8.5713 7.2007 14.3868 -7.1688 26.3460
#
#
#
# Elastic Compliance Matrix: (Units=1/GPa)
#
#
# Indices 1 2 3 4 5 6 
#
# 1 0.014129 -0.005081 -0.004071 0.003093 0.000948 0.004403
# 2 -0.005081 0.031798 -0.001656 -0.020801 0.000389 0.019970
# 3 -0.004071 -0.001656 0.018389 -0.006000 -0.010139 -0.006884
# 4 0.003093 -0.020801 -0.006000 0.055097 -0.006701 -0.035642
# 5 0.000948 0.000389 -0.010139 -0.006701 0.038346 0.017418
# 6 0.004403 0.019970 -0.006884 -0.035642 0.017418 0.072524
#
#
# Mechanical properties :
#
#
# Convention : Reuss Voigt Hill
#
# Bulk Modulus (GPa) = 23.41917 38.00928 30.71422
# Shear Modulus (GPa) = 18.78757 30.44500 24.61629
#
# Velocity S-wave (km/s) = 2.94023 3.74286 3.36556
# Velocity P-wave (km/s) = 4.72258 6.01402 5.40699
#
# Compressibility (1/GPa) = 0.04270006
#
# Stress axis : x y z
#
# Youngs Moduli (GPa) = 70.77524 31.44825 54.37905
#
# Poissons Ratio (x) = 0.15980 0.22138
# Poissons Ratio (y) = 0.35964 0.09005
# Poissons Ratio (z) = 0.28813 0.05208
#
# Static dielectric constant tensor:
#      x y z
#    x 3.733500 0.324580 -0.386220 
#    y 0.324580 3.193990 0.520960 
#    z -0.386220 0.520960 3.565070 
# 
# 
# High freq. dielectric constant tensor:
#      x y z
#    x 1.866240 -0.008340 0.003220 
#    y -0.008340 1.840120 -0.002820 
#    z 0.003220 -0.002820 1.863330 
# 
# From -- ./inp_files/432355.got.cif
#   From: 2010.06.25/outbox.cif.g09.slc.cpg/sg2_217_cif.got.tgz:432355.got - 2010.06.27 13:26:56.
