data_PCOD8030402
_publ_section_title
;
Structure prediction by ZEFSAII (Michael W. Deem and Ramdas Pophale) SiO2 
 PCOD8030402
Probable space group: P -1
;
_chemical_formula_sum "Si O2"
_cell_formula_units_Z 14
_cell_length_a 9.306048
_cell_length_b 9.454595
_cell_length_c 12.041049
_cell_angle_alpha 110.442468
_cell_angle_beta 118.289711
_cell_angle_gamma 45.525466
_cell_volume 665.427793
_symmetry_space_group_name_H-M "P -1"
_symmetry_group_IT_number 2
_symmetry_cell_setting 'triclinic'
loop_
_space_group_symop_operation_xyz
x,y,z
-x,-y,-z
loop_
_atom_site_type_symbol
_atom_site_label
_atom_site_fract_x
_atom_site_fract_y
_atom_site_fract_z
Si Si1 0.401718 0.405070 0.752729
Si Si2 0.291163 0.518205 0.122502
Si Si3 0.413129 0.888330 0.460715
Si Si4 0.171126 0.091183 0.902582
Si Si5 0.589123 0.805718 0.095218
Si Si6 0.912327 0.166708 0.317177
Si Si7 0.457950 0.661475 0.611195
O O1 0.580351 0.416659 0.863977
O O2 0.479313 0.294311 0.633480
O O3 0.367214 0.291660 0.795821
O O4 0.176852 0.627059 0.716040
O O5 0.367534 0.440456 0.254866
O O6 0.040304 0.699232 0.075404
O O7 0.335758 0.345896 0.018656
O O8 0.474602 0.805623 0.586209
O O9 0.500000 0.000000 0.500000
O O10 0.158840 0.040566 0.398218
O O11 0.276293 0.119709 0.845365
O O12 0.119523 0.952437 0.810995
O O13 0.336472 0.990951 0.038998
O O14 0.781741 0.212294 0.394260
O O15 0.500000 0.500000 0.500000
#
# Coordination Sequence:
#
# PCOD8030402 Si02
#       7
#     2   2   2   2   2   2   2
#     4  11  24  44  63  96 133 165 211 265 322 377
#     4  11  22  42  68  92 128 169 216 256 321 376
#     4  12  27  43  66  99 128 167 218 266 317 383
#     4  11  23  41  68  96 124 169 217 256 318 381
#     4  11  25  41  64  98 131 164 213 267 309 378
#     4  11  23  45  68  92 128 174 210 261 328 374
#     4  11  21  45  69  91 128 169 215 263 316 386
#
# _framework density 21.039096000000001
#
# number of rings (size 3 to 8) (size 9 to 14) (size 15 to 20)
#    0.000    0.857    7.143    1.286    2.000    3.429 
#    0.000    0.000    0.000    0.000    0.000    0.000 
#    0.000    0.000    0.000    0.000    0.000    0.000 
#
# Total GULP energy -173642.377010 kJ/mol
# GULP energy per Si atom -12403.026929 kJ/mol
# Density = 2.099121 g / cm^3
# Si number density = 21.039096 Si / 1000 Ang^3
#
#
#
# Elastic Constant Matrix: (Units=GPa)
#
#
# Indices 1 2 3 4 5 6 
#
# 1 59.4507 44.2385 16.2284 -10.9667 -9.4890 16.3400
# 2 44.2385 125.0719 32.0056 -21.3710 0.4025 -7.3459
# 3 16.2284 32.0056 53.7836 -4.9725 -14.2443 -7.3242
# 4 -10.9667 -21.3710 -4.9725 25.2307 11.8133 -8.3306
# 5 -9.4890 0.4025 -14.2443 11.8133 34.8286 -10.0765
# 6 16.3400 -7.3459 -7.3242 -8.3306 -10.0765 47.3878
#
#
#
# Elastic Compliance Matrix: (Units=1/GPa)
#
#
# Indices 1 2 3 4 5 6 
#
# 1 0.028972 -0.010658 -0.003115 -0.002956 0.004355 -0.011717
# 2 -0.010658 0.016209 -0.006732 0.013807 -0.008882 0.005686
# 3 -0.003115 -0.006732 0.027648 -0.006323 0.014497 0.006275
# 4 -0.002956 0.013807 -0.006323 0.061922 -0.022135 0.008361
# 5 0.004355 -0.008882 0.014497 -0.022135 0.044889 0.005016
# 6 -0.011717 0.005686 0.006275 0.008361 0.005016 0.029530
#
#
# Mechanical properties :
#
#
# Convention : Reuss Voigt Hill
#
# Bulk Modulus (GPa) = 31.42639 47.02789 39.22714
# Shear Modulus (GPa) = 19.17277 31.21168 25.19223
#
# Velocity S-wave (km/s) = 3.02204 3.85581 3.46410
# Velocity P-wave (km/s) = 5.21023 6.49802 5.88943
#
# Compressibility (1/GPa) = 0.03182039
#
# Stress axis : x y z
#
# Youngs Moduli (GPa) = 34.51634 61.69291 36.16865
#
# Poissons Ratio (x) = 0.65750 0.11267
# Poissons Ratio (y) = 0.36786 0.24348
# Poissons Ratio (z) = 0.10752 0.41530
#
# Static dielectric constant tensor:
#      x y z
#    x 2.379340 -6.717340 1.853570 
#    y -6.717340 -22.702950 7.049800 
#    z 1.853570 7.049800 1.880650 
# 
# 
# High freq. dielectric constant tensor:
#      x y z
#    x 1.823940 0.002960 -0.001490 
#    y 0.002960 1.849900 0.002570 
#    z -0.001490 0.002570 1.810490 
# 
# From -- ./inp_files/168195.got.cif
#   From: 2010.06.25/outbox.cif.g09.slc.cpg/sg2_85_cif.got.tgz:168195.got - 2010.06.27 13:26:56.
