data_PCOD8030652
_publ_section_title
;
Structure prediction by ZEFSAII (Michael W. Deem and Ramdas Pophale) SiO2 
 PCOD8030652
Probable space group: P -1
;
_chemical_formula_sum "Si O2"
_cell_formula_units_Z 14
_cell_length_a 20.216060
_cell_length_b 8.577433
_cell_length_c 18.232374
_cell_angle_alpha 141.123943
_cell_angle_beta 19.905298
_cell_angle_gamma 140.321672
_cell_volume 665.019260
_symmetry_space_group_name_H-M "P -1"
_symmetry_group_IT_number 2
_symmetry_cell_setting 'triclinic'
loop_
_space_group_symop_operation_xyz
x,y,z
-x,-y,-z
loop_
_atom_site_type_symbol
_atom_site_label
_atom_site_fract_x
_atom_site_fract_y
_atom_site_fract_z
Si Si1 0.467643 0.571257 0.976594
Si Si2 0.191104 0.299843 0.049598
Si Si3 0.928268 0.774215 0.105328
Si Si4 0.824694 0.129633 0.560254
Si Si5 0.882145 0.534618 0.524951
Si Si6 0.214519 0.409171 0.658527
Si Si7 0.407097 0.238319 0.661079
O O1 0.320525 0.348353 0.006873
O O2 0.682139 0.611454 0.728435
O O3 0.500000 0.500000 0.000000
O O4 0.366982 0.821207 0.175060
O O5 0.331872 0.371347 0.859382
O O6 0.024262 0.479297 0.290209
O O7 0.092931 0.007814 0.043722
O O8 0.799563 0.659911 0.266655
O O9 0.780745 0.857335 0.230000
O O10 0.045396 0.569213 0.872409
O O11 0.833204 0.273297 0.526170
O O12 0.021084 0.236068 0.440175
O O13 0.816232 0.835196 0.450333
O O14 0.433589 0.560693 0.473229
O O15 0.500000 0.000000 0.500000
#
# Coordination Sequence:
#
# PCOD8030652 Si02
#       7
#     2   2   2   2   2   2   2
#     4   9  20  35  64 100 125 165 218 269 322 382
#     4  11  22  39  66  95 128 169 218 263 326 390
#     4  11  25  44  66  98 131 177 221 267 325 389
#     4   9  18  36  60  94 123 164 212 266 316 379
#     4   9  18  35  61  92 127 163 210 264 322 378
#     4  11  24  43  67  98 137 167 221 273 324 386
#     4  12  27  43  64  96 137 177 219 263 331 393
#
# _framework density 21.052022000000001
#
# number of rings (size 3 to 8) (size 9 to 14) (size 15 to 20)
#    0.000    1.714    2.857    1.714    2.000    1.143 
#    7.714    2.857    0.000    5.143    0.000    0.000 
#    0.000    0.000    0.000    0.000    0.000    0.000 
#
# Total GULP energy -173581.586910 kJ/mol
# GULP energy per Si atom -12398.684779 kJ/mol
# Density = 2.100411 g / cm^3
# Si number density = 21.052022 Si / 1000 Ang^3
#
#
#
# Elastic Constant Matrix: (Units=GPa)
#
#
# Indices 1 2 3 4 5 6 
#
# 1 101.0935 46.5595 62.7064 6.3970 -13.1967 17.7241
# 2 46.5595 106.4692 61.1990 11.3283 -5.2514 27.8321
# 3 62.7064 61.1990 185.7911 6.1458 -5.4492 16.5868
# 4 6.3970 11.3283 6.1458 37.2291 -2.8579 6.0900
# 5 -13.1967 -5.2514 -5.4492 -2.8579 39.1322 -3.9975
# 6 17.7241 27.8321 16.5868 6.0900 -3.9975 24.6055
#
#
#
# Elastic Compliance Matrix: (Units=1/GPa)
#
#
# Indices 1 2 3 4 5 6 
#
# 1 0.014681 -0.003212 -0.003429 -0.000041 0.003628 -0.004031
# 2 -0.003212 0.016270 -0.003014 -0.001714 -0.000852 -0.013772
# 3 -0.003429 -0.003014 0.007448 0.000119 -0.000438 0.000758
# 4 -0.000041 -0.001714 0.000119 0.028273 0.001338 -0.004892
# 5 0.003628 -0.000852 -0.000438 0.001338 0.026976 0.002697
# 6 -0.004031 -0.013772 0.000758 -0.004892 0.002697 0.060261
#
#
# Mechanical properties :
#
#
# Convention : Reuss Voigt Hill
#
# Bulk Modulus (GPa) = 52.38679 81.58708 66.98693
# Shear Modulus (GPa) = 27.84236 35.05261 31.44748
#
# Velocity S-wave (km/s) = 3.64063 4.08493 3.86916
# Velocity P-wave (km/s) = 6.52769 7.81588 7.20065
#
# Compressibility (1/GPa) = 0.01908878
#
# Stress axis : x y z
#
# Youngs Moduli (GPa) = 68.11445 61.46288 134.26063
#
# Poissons Ratio (x) = 0.19741 0.46044
# Poissons Ratio (y) = 0.21877 0.40466
# Poissons Ratio (z) = 0.23359 0.18525
#
# Static dielectric constant tensor:
#      x y z
#    x 3.581550 0.187730 -0.048540 
#    y 0.187730 3.547850 -0.050190 
#    z -0.048540 -0.050190 4.680150 
# 
# 
# High freq. dielectric constant tensor:
#      x y z
#    x 1.805530 0.024070 0.000370 
#    y 0.024070 1.800190 0.001790 
#    z 0.000370 0.001790 1.856640 
# 
# From -- ./inp_files/577464.got.cif
#   From: 2010.06.25/outbox.cif.g09.slc.cpg/sg2_289_cif.got.tgz:577464.got - 2010.06.27 13:26:56.
