data_PCOD8030062
_publ_section_title
;
Structure prediction by ZEFSAII (Michael W. Deem and Ramdas Pophale) SiO2 
 PCOD8030062
Probable space group: P -1
;
_chemical_formula_sum "Si O2"
_cell_formula_units_Z 14
_cell_length_a 10.171024
_cell_length_b 15.553647
_cell_length_c 15.539663
_cell_angle_alpha 28.152870
_cell_angle_beta 35.326564
_cell_angle_gamma 36.606190
_cell_volume 638.584081
_symmetry_space_group_name_H-M "P -1"
_symmetry_group_IT_number 2
_symmetry_cell_setting 'triclinic'
loop_
_space_group_symop_operation_xyz
x,y,z
-x,-y,-z
loop_
_atom_site_type_symbol
_atom_site_label
_atom_site_fract_x
_atom_site_fract_y
_atom_site_fract_z
Si Si1 0.424137 0.814282 0.716634
Si Si2 0.937339 0.223539 0.808380
Si Si3 0.229065 0.525769 0.646018
Si Si4 0.053683 0.693340 0.932327
Si Si5 0.080860 0.411949 0.406864
Si Si6 0.965869 0.798393 0.691850
Si Si7 0.454289 0.300722 0.061471
O O1 0.167013 0.848868 0.775398
O O2 0.636657 0.635467 0.722259
O O3 0.391141 0.785038 0.860919
O O4 0.500000 0.000000 0.500000
O O5 0.018492 0.365699 0.705766
O O6 0.050307 0.253214 0.631033
O O7 0.649045 0.307727 0.879391
O O8 0.000000 0.000000 0.000000
O O9 0.500000 0.500000 0.500000
O O10 0.160638 0.665687 0.640960
O O11 0.061987 0.618785 0.573303
O O12 0.181302 0.324437 0.876014
O O13 0.001971 0.707797 0.846898
O O14 0.262448 0.499223 0.011053
O O15 0.694192 0.835761 0.773352
O O16 0.000000 0.000000 0.500000
#
# Coordination Sequence:
#
# PCOD8030062 Si02
#       7
#     2   2   2   2   2   2   2
#     4  12  22  40  70 100 130 169 229 287 334 409
#     4  11  25  42  66  99 137 178 222 283 354 404
#     4  11  25  43  68  96 133 180 228 280 342 404
#     4  11  23  41  70  96 132 183 224 276 347 408
#     4  11  24  43  66 100 137 172 227 287 341 407
#     4  11  25  44  66 101 134 179 231 276 342 421
#     4  11  21  42  66  92 132 174 225 271 338 412
#
# _framework density 21.923504000000001
#
# number of rings (size 3 to 8) (size 9 to 14) (size 15 to 20)
#    0.000    0.857    4.286    4.714    4.000    1.143 
#    0.000    0.714    0.000    0.000    0.000    0.000 
#    0.000    0.000    0.000    0.000    0.000    0.000 
#
# Total GULP energy -173529.440789 kJ/mol
# GULP energy per Si atom -12394.960056 kJ/mol
# Density = 2.187361 g / cm^3
# Si number density = 21.923504 Si / 1000 Ang^3
#
#
#
# Elastic Constant Matrix: (Units=GPa)
#
#
# Indices 1 2 3 4 5 6 
#
# 1 124.7266 37.4347 56.6596 23.0549 3.9663 18.9060
# 2 37.4347 52.6814 42.8634 18.4185 -6.7583 -4.1762
# 3 56.6596 42.8634 149.2986 14.8913 -9.1758 7.2161
# 4 23.0549 18.4185 14.8913 51.8935 -4.8506 -9.4027
# 5 3.9663 -6.7583 -9.1758 -4.8506 44.6563 2.9317
# 6 18.9060 -4.1762 7.2161 -9.4027 2.9317 19.4532
#
#
#
# Elastic Compliance Matrix: (Units=1/GPa)
#
#
# Indices 1 2 3 4 5 6 
#
# 1 0.016149 -0.009325 -0.001931 -0.007197 -0.002708 -0.020051
# 2 -0.009325 0.033488 -0.006447 -0.002526 0.003185 0.016943
# 3 -0.001931 -0.006447 0.009529 -0.000054 0.001363 -0.003274
# 4 -0.007197 -0.002526 -0.000054 0.027048 0.001920 0.019257
# 5 -0.002708 0.003185 0.001363 0.001920 0.023592 0.000182
# 6 -0.020051 0.016943 -0.003274 0.019257 0.000182 0.085025
#
#
# Mechanical properties :
#
#
# Convention : Reuss Voigt Hill
#
# Bulk Modulus (GPa) = 42.08563 66.73579 54.41071
# Shear Modulus (GPa) = 20.99449 35.85054 28.42252
#
# Velocity S-wave (km/s) = 3.09791 4.04822 3.60452
# Velocity P-wave (km/s) = 5.65989 7.23582 6.49582
#
# Compressibility (1/GPa) = 0.02376108
#
# Stress axis : x y z
#
# Youngs Moduli (GPa) = 61.92233 29.86119 104.94227
#
# Poissons Ratio (x) = 0.27846 0.20264
# Poissons Ratio (y) = 0.57743 0.67654
# Poissons Ratio (z) = 0.11957 0.19251
#
# Static dielectric constant tensor:
#      x y z
#    x 3.861560 0.145330 -0.330180 
#    y 0.145330 3.893600 0.324920 
#    z -0.330180 0.324920 4.430630 
# 
# 
# High freq. dielectric constant tensor:
#      x y z
#    x 1.866660 0.014030 -0.008790 
#    y 0.014030 1.837580 0.013110 
#    z -0.008790 0.013110 1.887200 
# 
# From -- ./inp_files/185483.got.cif
#   From: 2010.06.25/outbox.cif.g09.slc.cpg/sg2_93_cif.got.tgz:185483.got - 2010.06.27 13:26:56.
