data_PCOD8030781
_publ_section_title
;
Structure prediction by ZEFSAII (Michael W. Deem and Ramdas Pophale) SiO2 
 PCOD8030781
Probable space group: P -1
;
_chemical_formula_sum "Si O2"
_cell_formula_units_Z 16
_cell_length_a 9.438241
_cell_length_b 11.691116
_cell_length_c 11.064994
_cell_angle_alpha 50.624054
_cell_angle_beta 56.060661
_cell_angle_gamma 73.545868
_cell_volume 778.193121
_symmetry_space_group_name_H-M "P -1"
_symmetry_group_IT_number 2
_symmetry_cell_setting 'triclinic'
loop_
_space_group_symop_operation_xyz
x,y,z
-x,-y,-z
loop_
_atom_site_type_symbol
_atom_site_label
_atom_site_fract_x
_atom_site_fract_y
_atom_site_fract_z
Si Si1 0.583725 0.094923 0.566217
Si Si2 0.726365 0.873991 0.473582
Si Si3 0.280614 0.604880 0.581773
Si Si4 0.035286 0.870856 0.159163
Si Si5 0.015875 0.549220 0.320973
Si Si6 0.486206 0.406433 0.751059
Si Si7 0.442626 0.897389 0.985202
Si Si8 0.641195 0.556058 0.799042
O O1 0.412622 0.147066 0.553922
O O2 0.705410 0.235614 0.466057
O O3 0.701108 0.022045 0.461241
O O4 0.519578 0.972157 0.777562
O O5 0.699561 0.731053 0.670238
O O6 0.920878 0.886868 0.322228
O O7 0.310106 0.471324 0.751252
O O8 0.418252 0.621691 0.398643
O O9 0.097120 0.563936 0.636294
O O10 0.969451 0.717826 0.223286
O O11 0.234908 0.870070 0.100128
O O12 0.000000 0.000000 0.000000
O O13 0.206234 0.544405 0.183117
O O14 0.000000 0.500000 0.500000
O O15 0.583627 0.534758 0.701430
O O16 0.468417 0.254978 0.938968
O O17 0.500000 0.000000 0.000000
O O18 0.500000 0.500000 0.000000
#
# Coordination Sequence:
#
# PCOD8030781 Si02
#       8
#     2   2   2   2   2   2   2   2
#     4  11  24  43  69  99 139 183 223 276 348 403
#     4  11  24  44  70  98 139 183 225 282 342 408
#     4  11  23  42  71  99 132 180 231 281 336 402
#     4  12  25  42  70 105 132 175 233 278 338 400
#     4  12  24  44  72  99 133 177 230 285 331 402
#     4  11  22  40  67  98 132 173 229 277 335 398
#     4  12  24  40  67 103 137 172 226 282 334 410
#     4  12  24  43  71 101 137 181 228 278 345 409
#
# _framework density 20.560448999999998
#
# number of rings (size 3 to 8) (size 9 to 14) (size 15 to 20)
#    0.000    0.500    7.500    0.750    3.500    0.000 
#    0.000    4.375    0.000    0.000    0.000    0.000 
#    0.000    0.000    0.000    0.000    0.000    0.000 
#
# Total GULP energy -198387.103206 kJ/mol
# GULP energy per Si atom -12399.193950 kJ/mol
# Density = 2.051365 g / cm^3
# Si number density = 20.560449 Si / 1000 Ang^3
#
#
#
# Elastic Constant Matrix: (Units=GPa)
#
#
# Indices 1 2 3 4 5 6 
#
# 1 111.4728 54.2521 45.4913 -5.3144 -4.8334 5.8205
# 2 54.2521 130.8740 59.3129 -8.8830 -1.4781 3.6184
# 3 45.4913 59.3129 126.4384 -11.1795 3.3210 -16.1131
# 4 -5.3144 -8.8830 -11.1795 27.9705 -10.0022 -0.5882
# 5 -4.8334 -1.4781 3.3210 -10.0022 30.0497 -9.2881
# 6 5.8205 3.6184 -16.1131 -0.5882 -9.2881 40.0069
#
#
#
# Elastic Compliance Matrix: (Units=1/GPa)
#
#
# Indices 1 2 3 4 5 6 
#
# 1 0.012132 -0.003565 -0.002980 0.000495 0.001568 -0.002271
# 2 -0.003565 0.011117 -0.004091 0.001246 0.000201 -0.002070
# 3 -0.002980 -0.004091 0.011921 0.003357 0.000934 0.005871
# 4 0.000495 0.001246 0.003357 0.043389 0.015912 0.005499
# 5 0.001568 0.000201 0.000934 0.015912 0.041849 0.010080
# 6 -0.002271 -0.002070 0.005871 0.005499 0.010080 0.030299
#
#
# Mechanical properties :
#
#
# Convention : Reuss Voigt Hill
#
# Bulk Modulus (GPa) = 71.95107 76.32198 74.13653
# Shear Modulus (GPa) = 28.31093 33.58734 30.94913
#
# Velocity S-wave (km/s) = 3.71477 4.04615 3.88400
# Velocity P-wave (km/s) = 7.31233 7.68309 7.50000
#
# Compressibility (1/GPa) = 0.01389833
#
# Stress axis : x y z
#
# Youngs Moduli (GPa) = 82.42818 89.95333 83.88766
#
# Poissons Ratio (x) = 0.32065 0.24995
# Poissons Ratio (y) = 0.29382 0.34321
# Poissons Ratio (z) = 0.24560 0.36803
#
# Static dielectric constant tensor:
#      x y z
#    x 3.774130 -0.100070 0.151080 
#    y -0.100070 3.931110 -0.126540 
#    z 0.151080 -0.126540 3.586710 
# 
# 
# High freq. dielectric constant tensor:
#      x y z
#    x 1.802320 -0.003540 0.010970 
#    y -0.003540 1.819260 -0.014130 
#    z 0.010970 -0.014130 1.795330 
# 
# From -- ./inp_files/243210.got.cif
#   From: 2010.06.25/outbox.cif.g09.slc.cpg/sg2_122_cif.got.tgz:243210.got - 2010.06.27 13:26:56.
