data_PCOD8030874
_publ_section_title
;
Structure prediction by ZEFSAII (Michael W. Deem and Ramdas Pophale) SiO2 
 PCOD8030874
Probable space group: P -1
;
_chemical_formula_sum "Si O2"
_cell_formula_units_Z 16
_cell_length_a 12.060398
_cell_length_b 9.210378
_cell_length_c 18.539998
_cell_angle_alpha 127.646842
_cell_angle_beta 151.072579
_cell_angle_gamma 45.305424
_cell_volume 708.062845
_symmetry_space_group_name_H-M "P -1"
_symmetry_group_IT_number 2
_symmetry_cell_setting 'triclinic'
loop_
_space_group_symop_operation_xyz
x,y,z
-x,-y,-z
loop_
_atom_site_type_symbol
_atom_site_label
_atom_site_fract_x
_atom_site_fract_y
_atom_site_fract_z
Si Si1 0.789687 0.436360 0.448453
Si Si2 0.459435 0.416235 0.377863
Si Si3 0.097038 0.181471 0.367241
Si Si4 0.547764 0.357536 0.152974
Si Si5 0.054250 0.348756 0.919938
Si Si6 0.652536 0.228472 0.887198
Si Si7 0.960653 0.025964 0.857625
Si Si8 0.279013 0.055406 0.583533
O O1 0.610575 0.490312 0.431476
O O2 0.599595 0.476444 0.285594
O O3 0.920921 0.590852 0.568318
O O4 0.988043 0.194935 0.485910
O O5 0.500000 0.500000 0.500000
O O6 0.156492 0.523667 0.221715
O O7 0.582843 0.170549 0.373515
O O8 0.817000 0.188146 0.224609
O O9 0.287363 0.044253 0.497186
O O10 0.182563 0.080035 0.305470
O O11 0.421282 0.532984 0.074358
O O12 0.343460 0.270751 0.030377
O O13 0.027531 0.154971 0.875888
O O14 0.000000 0.500000 0.000000
O O15 0.803794 0.149793 0.874376
O O16 0.413515 0.181238 0.733052
O O17 0.787760 0.144027 0.014518
#
# Coordination Sequence:
#
# PCOD8030874 Si02
#       8
#     2   2   2   2   2   2   2   2
#     4  11  22  45  69  95 133 176 215 264 332 390
#     4  12  27  42  65 102 133 169 220 275 321 380
#     4  11  24  45  67  99 132 168 221 271 325 382
#     4  11  22  44  70  93 131 176 217 267 320 397
#     4  12  23  45  68  92 131 177 217 260 329 391
#     4  11  22  41  64  96 130 169 222 259 325 391
#     4  11  26  40  65 100 130 174 214 272 327 382
#     4  11  23  43  67  95 129 175 218 262 325 392
#
# _framework density 22.596864
#
# number of rings (size 3 to 8) (size 9 to 14) (size 15 to 20)
#    0.000    0.750    5.000    2.625    3.500    1.500 
#    2.250    0.000    0.000    0.000    0.000    0.000 
#    0.000    0.000    0.000    0.000    0.000    0.000 
#
# Total GULP energy -198283.893288 kJ/mol
# GULP energy per Si atom -12392.743330 kJ/mol
# Density = 2.254543 g / cm^3
# Si number density = 22.596864 Si / 1000 Ang^3
#
#
#
# Elastic Constant Matrix: (Units=GPa)
#
#
# Indices 1 2 3 4 5 6 
#
# 1 86.1966 49.5567 68.3589 -19.2474 -16.3171 -31.7786
# 2 49.5567 125.6985 75.4276 -33.5406 -28.0785 -25.2335
# 3 68.3589 75.4276 182.1966 -39.3591 -43.6015 -55.1228
# 4 -19.2474 -33.5406 -39.3591 52.4593 15.6031 21.2283
# 5 -16.3171 -28.0785 -43.6015 15.6031 60.3132 32.5160
# 6 -31.7786 -25.2335 -55.1228 21.2283 32.5160 73.7118
#
#
#
# Elastic Compliance Matrix: (Units=1/GPa)
#
#
# Indices 1 2 3 4 5 6 
#
# 1 0.018871 -0.004482 -0.004593 -0.000410 -0.002580 0.004423
# 2 -0.004482 0.012667 -0.002527 0.004551 0.002768 -0.002018
# 3 -0.004593 -0.002527 0.010355 0.002430 0.002853 0.002940
# 4 -0.000410 0.004551 0.002430 0.025403 -0.000771 -0.003777
# 5 -0.002580 0.002768 0.002853 -0.000771 0.023946 -0.008372
# 6 0.004423 -0.002018 0.002940 -0.003777 -0.008372 0.021762
#
#
# Mechanical properties :
#
#
# Convention : Reuss Voigt Hill
#
# Bulk Modulus (GPa) = 53.50518 86.75315 70.12916
# Shear Modulus (GPa) = 35.10299 50.68008 42.89153
#
# Velocity S-wave (km/s) = 3.94565 4.74095 4.36147
# Velocity P-wave (km/s) = 6.66987 8.27308 7.51435
#
# Compressibility (1/GPa) = 0.01868978
#
# Stress axis : x y z
#
# Youngs Moduli (GPa) = 52.99108 78.94732 96.56940
#
# Poissons Ratio (x) = 0.35383 0.44351
# Poissons Ratio (y) = 0.23750 0.24405
# Poissons Ratio (z) = 0.24337 0.19952
#
# Static dielectric constant tensor:
#      x y z
#    x 4.262200 0.497440 -0.086750 
#    y 0.497440 4.390900 -0.185940 
#    z -0.086750 -0.185940 4.330690 
# 
# 
# High freq. dielectric constant tensor:
#      x y z
#    x 1.884070 0.003810 -0.002500 
#    y 0.003810 1.888910 -0.010510 
#    z -0.002500 -0.010510 1.902450 
# 
# From -- ./inp_files/259828.got.cif
#   From: 2010.06.25/outbox.cif.g09.slc.cpg/sg2_130_cif.got.tgz:259828.got - 2010.06.27 13:26:56.
