data_PCOD8030776
_publ_section_title
;
Structure prediction by ZEFSAII (Michael W. Deem and Ramdas Pophale) SiO2 
 PCOD8030776
Probable space group: P -1
;
_chemical_formula_sum "Si O2"
_cell_formula_units_Z 16
_cell_length_a 9.928705
_cell_length_b 11.017950
_cell_length_c 17.147133
_cell_angle_alpha 30.866184
_cell_angle_beta 129.713323
_cell_angle_gamma 122.913018
_cell_volume 740.224900
_symmetry_space_group_name_H-M "P -1"
_symmetry_group_IT_number 2
_symmetry_cell_setting 'triclinic'
loop_
_space_group_symop_operation_xyz
x,y,z
-x,-y,-z
loop_
_atom_site_type_symbol
_atom_site_label
_atom_site_fract_x
_atom_site_fract_y
_atom_site_fract_z
Si Si1 0.510029 0.785732 0.262689
Si Si2 0.377174 0.043394 0.506967
Si Si3 0.933979 0.624500 0.749711
Si Si4 0.177447 0.888549 0.795343
Si Si5 0.936730 0.268898 0.427079
Si Si6 0.211755 0.846126 0.004473
Si Si7 0.367586 0.733794 0.403280
Si Si8 0.990959 0.679630 0.326666
O O1 0.378811 0.754446 0.303082
O O2 0.610763 0.542143 0.414146
O O3 0.639152 0.992138 0.223438
O O4 0.405143 0.851744 0.109230
O O5 0.234615 0.261172 0.329941
O O6 0.499366 0.097551 0.595901
O O7 0.500000 0.000000 0.500000
O O8 0.266258 0.807602 0.614177
O O9 0.116988 0.677702 0.832167
O O10 0.953138 0.743360 0.605996
O O11 0.907216 0.342169 0.888739
O O12 0.202355 0.765051 0.956252
O O13 0.028084 0.094983 0.620404
O O14 0.940646 0.537096 0.309068
O O15 0.152752 0.117489 0.831108
O O16 0.174234 0.812998 0.312785
O O17 0.000000 0.500000 0.500000
#
# Coordination Sequence:
#
# PCOD8030776 Si02
#       8
#     2   2   2   2   2   2   2   2
#     4  11  22  41  66  98 128 174 221 281 327 398
#     4  11  23  40  69 101 135 177 225 279 332 403
#     4  11  24  43  69 100 133 177 231 273 337 405
#     4  11  22  41  66  94 131 173 222 274 330 397
#     4  11  22  43  71  97 132 181 228 272 332 410
#     4  12  25  42  68  99 137 173 224 285 337 388
#     4  11  22  40  67  95 134 169 226 270 335 400
#     4  12  24  43  68  96 136 178 223 276 340 403
#
# _framework density 21.615053
#
# number of rings (size 3 to 8) (size 9 to 14) (size 15 to 20)
#    0.000    0.750    3.750    5.250    1.750    2.000 
#    2.250    0.000    0.000    3.000    0.000    0.000 
#    0.000    0.000    0.000    0.000    0.000    0.000 
#
# Total GULP energy -198328.837196 kJ/mol
# GULP energy per Si atom -12395.552325 kJ/mol
# Density = 2.156586 g / cm^3
# Si number density = 21.615053 Si / 1000 Ang^3
#
#
#
# Elastic Constant Matrix: (Units=GPa)
#
#
# Indices 1 2 3 4 5 6 
#
# 1 91.3298 18.6979 17.8496 -0.9081 -9.5144 4.5475
# 2 18.6979 138.5280 25.3855 9.6377 -3.9058 20.5896
# 3 17.8496 25.3855 73.2849 1.0266 -12.6130 -1.1305
# 4 -0.9081 9.6377 1.0266 34.3380 -2.2202 -3.8808
# 5 -9.5144 -3.9058 -12.6130 -2.2202 20.0748 0.5399
# 6 4.5475 20.5896 -1.1305 -3.8808 0.5399 42.5253
#
#
#
# Elastic Compliance Matrix: (Units=1/GPa)
#
#
# Indices 1 2 3 4 5 6 
#
# 1 0.012044 -0.001117 -0.001800 0.000888 0.004479 -0.000771
# 2 -0.001117 0.008751 -0.002938 -0.002958 -0.000880 -0.004454
# 3 -0.001800 -0.002938 0.016689 0.001099 0.009127 0.002043
# 4 0.000888 -0.002958 0.001099 0.030655 0.003816 0.004116
# 5 0.004479 -0.000880 0.009127 0.003816 0.057927 -0.000197
# 6 -0.000771 -0.004454 0.002043 0.004116 -0.000197 0.026187
#
#
# Mechanical properties :
#
#
# Convention : Reuss Voigt Hill
#
# Bulk Modulus (GPa) = 38.79955 47.44543 43.12249
# Shear Modulus (GPa) = 28.97661 35.46825 32.22243
#
# Velocity S-wave (km/s) = 3.66536 4.05520 3.86520
# Velocity P-wave (km/s) = 5.99186 6.62752 6.31769
#
# Compressibility (1/GPa) = 0.02577350
#
# Stress axis : x y z
#
# Youngs Moduli (GPa) = 83.03203 114.27346 59.92142
#
# Poissons Ratio (x) = 0.12760 0.10786
# Poissons Ratio (y) = 0.09272 0.17605
# Poissons Ratio (z) = 0.14946 0.33574
#
# Static dielectric constant tensor:
#      x y z
#    x 3.821790 0.052130 -0.120640 
#    y 0.052130 4.385870 0.130150 
#    z -0.120640 0.130150 3.751460 
# 
# 
# High freq. dielectric constant tensor:
#      x y z
#    x 1.841960 0.010500 -0.015760 
#    y 0.010500 1.876360 0.007190 
#    z -0.015760 0.007190 1.821960 
# 
# From -- ./inp_files/184926.got.cif
#   From: 2010.06.25/outbox.cif.g09.slc.cpg/sg2_93_cif.got.tgz:184926.got - 2010.06.27 13:26:56.
