data_PCOD8030510
_publ_section_title
;
Structure prediction by ZEFSAII (Michael W. Deem and Ramdas Pophale) SiO2 
 PCOD8030510
Probable space group: P -1
;
_chemical_formula_sum "Si O2"
_cell_formula_units_Z 12
_cell_length_a 13.139554
_cell_length_b 12.971303
_cell_length_c 6.522939
_cell_angle_alpha 113.097940
_cell_angle_beta 134.937715
_cell_angle_gamma 50.552406
_cell_volume 604.458298
_symmetry_space_group_name_H-M "P -1"
_symmetry_group_IT_number 2
_symmetry_cell_setting 'triclinic'
loop_
_space_group_symop_operation_xyz
x,y,z
-x,-y,-z
loop_
_atom_site_type_symbol
_atom_site_label
_atom_site_fract_x
_atom_site_fract_y
_atom_site_fract_z
Si Si1 0.821173 0.130545 0.787677
Si Si2 0.383729 0.034263 0.165453
Si Si3 0.002011 0.128242 0.674665
Si Si4 0.543372 0.561247 0.801033
Si Si5 0.744789 0.324610 0.175186
Si Si6 0.498524 0.826852 0.827267
O O1 0.689536 0.094933 0.485695
O O2 0.867265 0.199848 0.727524
O O3 0.726332 0.227079 0.920350
O O4 0.000000 0.000000 0.000000
O O5 0.375042 0.153166 0.116607
O O6 0.500000 0.000000 0.500000
O O7 0.189194 0.084591 0.984516
O O8 0.475337 0.894898 0.065606
O O9 0.935435 0.238096 0.481029
O O10 0.000000 0.000000 0.500000
O O11 0.500000 0.500000 0.500000
O O12 0.388616 0.630963 0.796168
O O13 0.580119 0.668747 0.848167
O O14 0.710655 0.448617 0.081960
#
# Coordination Sequence:
#
# PCOD8030510 Si02
#       6
#     2   2   2   2   2   2
#     4  12  21  35  66  94 127 161 213 270 315 375
#     4  11  25  40  63  93 135 171 206 266 337 379
#     4  12  21  39  62  95 125 165 222 265 315 381
#     4  11  22  40  65  97 129 169 223 266 311 389
#     4  11  22  36  65  97 125 165 216 268 321 363
#     4  11  23  40  59  97 128 166 218 263 320 387
#
# _framework density 19.852482999999999
#
# number of rings (size 3 to 8) (size 9 to 14) (size 15 to 20)
#    0.000    0.667    6.667    1.000    2.333    1.333 
#    0.000    0.833    0.000    5.000    0.000    0.000 
#    0.000    0.000    0.000    0.000    0.000    0.000 
#
# Total GULP energy -148741.107970 kJ/mol
# GULP energy per Si atom -12395.092331 kJ/mol
# Density = 1.980730 g / cm^3
# Si number density = 19.852483 Si / 1000 Ang^3
#
#
#
# Elastic Constant Matrix: (Units=GPa)
#
#
# Indices 1 2 3 4 5 6 
#
# 1 85.7068 22.1573 40.4422 21.8307 -6.4807 -8.7554
# 2 22.1573 126.3894 54.1925 -5.0426 -10.4315 12.5199
# 3 40.4422 54.1925 148.3182 -5.5552 -6.8107 -5.1070
# 4 21.8307 -5.0426 -5.5552 44.0028 -4.0827 -5.0162
# 5 -6.4807 -10.4315 -6.8107 -4.0827 39.6913 5.1617
# 6 -8.7554 12.5199 -5.1070 -5.0162 5.1617 28.0573
#
#
#
# Elastic Compliance Matrix: (Units=1/GPa)
#
#
# Indices 1 2 3 4 5 6 
#
# 1 0.016622 -0.001885 -0.004027 -0.008529 0.000164 0.003740
# 2 -0.001885 0.010601 -0.003396 0.001274 0.002837 -0.006231
# 3 -0.004027 -0.003396 0.009283 0.003068 0.000035 0.002491
# 4 -0.008529 0.001274 0.003068 0.027905 0.002088 0.001933
# 5 0.000164 0.002837 0.000035 0.002088 0.026941 -0.005791
# 6 0.003740 -0.006231 0.002491 0.001933 -0.005791 0.041453
#
#
# Mechanical properties :
#
#
# Convention : Reuss Voigt Hill
#
# Bulk Modulus (GPa) = 55.89351 65.99984 60.94667
# Shear Modulus (GPa) = 31.76956 38.59178 35.18067
#
# Velocity S-wave (km/s) = 4.00469 4.41378 4.21420
# Velocity P-wave (km/s) = 7.04265 7.70017 7.37874
#
# Compressibility (1/GPa) = 0.01789117
#
# Stress axis : x y z
#
# Youngs Moduli (GPa) = 60.16094 94.33321 107.71963
#
# Poissons Ratio (x) = 0.17778 0.43378
# Poissons Ratio (y) = 0.11338 0.36581
# Poissons Ratio (z) = 0.24226 0.32035
#
# Static dielectric constant tensor:
#      x y z
#    x 3.830080 0.086010 -0.439150 
#    y 0.086010 3.905800 -0.213040 
#    z -0.439150 -0.213040 3.962320 
# 
# 
# High freq. dielectric constant tensor:
#      x y z
#    x 1.765530 -0.002730 -0.031860 
#    y -0.002730 1.769980 -0.013910 
#    z -0.031860 -0.013910 1.783750 
# 
# From -- ./inp_files/25289.got.cif
#   From: 2010.06.25/outbox.cif.g09.slc.cpg/sg2_13_cif.got.tgz:25289.got - 2010.06.27 13:26:56.
