data_PCOD8030428
_publ_section_title
;
Structure prediction by ZEFSAII (Michael W. Deem and Ramdas Pophale) SiO2 
 PCOD8030428
Probable space group: P -1
;
_chemical_formula_sum "Si O2"
_cell_formula_units_Z 16
_cell_length_a 11.950890
_cell_length_b 11.423089
_cell_length_c 10.779681
_cell_angle_alpha 102.927029
_cell_angle_beta 103.464520
_cell_angle_gamma 141.358342
_cell_volume 665.160347
_symmetry_space_group_name_H-M "P -1"
_symmetry_group_IT_number 2
_symmetry_cell_setting 'triclinic'
loop_
_space_group_symop_operation_xyz
x,y,z
-x,-y,-z
loop_
_atom_site_type_symbol
_atom_site_label
_atom_site_fract_x
_atom_site_fract_y
_atom_site_fract_z
Si Si1 0.134766 0.707179 0.887348
Si Si2 0.235450 0.220073 0.829886
Si Si3 0.181154 0.998626 0.339905
Si Si4 0.254249 0.825045 0.445616
Si Si5 0.403116 0.891083 0.766401
Si Si6 0.598131 0.368048 0.366731
Si Si7 0.569958 0.599838 0.332418
Si Si8 0.100091 0.273541 0.235749
O O1 0.306795 0.879190 0.853327
O O2 0.951441 0.432516 0.744472
O O3 0.007902 0.719552 0.875948
O O4 0.301845 0.830022 0.080906
O O5 0.274059 0.204534 0.696273
O O6 0.500000 0.500000 0.000000
O O7 0.094063 0.217410 0.804345
O O8 0.112367 0.008799 0.837384
O O9 0.323088 0.089281 0.274704
O O10 0.302272 0.235828 0.471300
O O11 0.214713 0.929447 0.437584
O O12 0.272957 0.827152 0.598093
O O13 0.500000 0.000000 0.500000
O O14 0.320387 0.674601 0.699225
O O15 0.598836 0.482719 0.304167
O O16 0.767218 0.541014 0.570893
O O17 0.286777 0.375409 0.216346
#
# Coordination Sequence:
#
# PCOD8030428 Si02
#       8
#     2   2   2   2   2   2   2   2
#     4  11  27  45  70 102 143 191 237 296 353 425
#     4  12  28  41  64 109 142 183 235 289 355 431
#     4  11  23  45  69 103 141 179 238 293 354 428
#     4  12  24  46  71 103 139 188 240 289 358 421
#     4  11  26  45  70 104 135 190 244 287 354 424
#     4  11  21  45  75  97 134 191 236 290 361 424
#     4  11  24  44  73 100 137 187 237 288 362 422
#     4  11  23  47  70 100 144 182 238 293 358 428
#
# _framework density 24.054352000000002
#
# number of rings (size 3 to 8) (size 9 to 14) (size 15 to 20)
#    0.000    0.750    5.000    2.250    5.250    3.000 
#    0.000    0.000    0.000    0.000    0.000    0.000 
#    0.000    0.000    0.000    0.000    0.000    0.000 
#
# Total GULP energy -198328.800481 kJ/mol
# GULP energy per Si atom -12395.550030 kJ/mol
# Density = 2.399960 g / cm^3
# Si number density = 24.054352 Si / 1000 Ang^3
#
#
#
# Elastic Constant Matrix: (Units=GPa)
#
#
# Indices 1 2 3 4 5 6 
#
# 1 96.8089 15.3129 12.7433 -1.4197 21.6546 -23.5331
# 2 15.3129 80.4700 4.5097 11.7132 10.9817 -9.0734
# 3 12.7433 4.5097 88.5003 26.1385 11.3849 -20.9283
# 4 -1.4197 11.7132 26.1385 30.7702 7.1132 5.1943
# 5 21.6546 10.9817 11.3849 7.1132 32.8868 0.7610
# 6 -23.5331 -9.0734 -20.9283 5.1943 0.7610 29.5314
#
#
#
# Elastic Compliance Matrix: (Units=1/GPa)
#
#
# Indices 1 2 3 4 5 6 
#
# 1 0.016564 0.000680 0.004134 -0.003065 -0.012300 0.017194
# 2 0.000680 0.015818 0.006214 -0.012019 -0.005560 0.012063
# 3 0.004134 0.006214 0.026547 -0.027630 -0.008684 0.029100
# 4 -0.003065 -0.012019 -0.027630 0.066227 0.002139 -0.037421
# 5 -0.012300 -0.005560 -0.008684 0.002139 0.043350 -0.019157
# 6 0.017194 0.012063 0.029100 -0.037421 -0.019157 0.078969
#
#
# Mechanical properties :
#
#
# Convention : Reuss Voigt Hill
#
# Bulk Modulus (GPa) = 12.34813 36.76789 24.55801
# Shear Modulus (GPa) = 19.80876 34.18523 26.99699
#
# Velocity S-wave (km/s) = 2.87278 3.77393 3.35376
# Velocity P-wave (km/s) = 4.01851 5.85735 5.02280
#
# Compressibility (1/GPa) = 0.08098392
#
# Stress axis : x y z
#
# Youngs Moduli (GPa) = 60.37217 63.21959 37.66922
#
# Poissons Ratio (x) = -0.04298 -0.15572
# Poissons Ratio (y) = -0.04104 -0.23407
# Poissons Ratio (z) = -0.24958 -0.39284
#
# Static dielectric constant tensor:
#      x y z
#    x 5.326000 1.023050 0.114490 
#    y 1.023050 5.150290 -0.218270 
#    z 0.114490 -0.218270 4.900260 
# 
# 
# High freq. dielectric constant tensor:
#      x y z
#    x 1.965960 0.006810 0.013550 
#    y 0.006810 1.941050 0.010430 
#    z 0.013550 0.010430 1.954440 
# 
# From -- ./inp_files/428083.got.cif
#   From: 2010.06.25/outbox.cif.g09.slc.cpg/sg2_215_cif.got.tgz:428083.got - 2010.06.27 13:26:56.
