data_PCOD8030277
_publ_section_title
;
Structure prediction by ZEFSAII (Michael W. Deem and Ramdas Pophale) SiO2 
 PCOD8030277
Probable space group: P -1
;
_chemical_formula_sum "Si O2"
_cell_formula_units_Z 14
_cell_length_a 11.859050
_cell_length_b 13.879749
_cell_length_c 9.409983
_cell_angle_alpha 148.347155
_cell_angle_beta 51.175001
_cell_angle_gamma 117.108908
_cell_volume 621.602156
_symmetry_space_group_name_H-M "P -1"
_symmetry_group_IT_number 2
_symmetry_cell_setting 'triclinic'
loop_
_space_group_symop_operation_xyz
x,y,z
-x,-y,-z
loop_
_atom_site_type_symbol
_atom_site_label
_atom_site_fract_x
_atom_site_fract_y
_atom_site_fract_z
Si Si1 0.888824 0.244551 0.183330
Si Si2 0.301537 0.352056 0.195419
Si Si3 0.565230 0.497369 0.102699
Si Si4 0.825895 0.851451 0.713736
Si Si5 0.378658 0.139950 0.358739
Si Si6 0.787738 0.886004 0.270253
Si Si7 0.135681 0.759958 0.475582
O O1 0.798324 0.441725 0.450785
O O2 0.926199 0.239705 0.315744
O O3 0.045632 0.207802 0.932525
O O4 0.800897 0.077818 0.011210
O O5 0.471550 0.370771 0.107555
O O6 0.264290 0.207999 0.158294
O O7 0.283071 0.270848 0.951176
O O8 0.539202 0.700157 0.448252
O O9 0.500000 0.500000 0.000000
O O10 0.739647 0.421373 0.875573
O O11 0.759319 0.778746 0.532764
O O12 0.999366 0.760964 0.477206
O O13 0.310878 0.045284 0.427292
O O14 0.500000 0.000000 0.000000
O O15 0.790458 0.060312 0.383236
#
# Coordination Sequence:
#
# PCOD8030277 Si02
#       7
#     2   2   2   2   2   2   2
#     4  11  21  43  74 113 140 179 250 300 343 438
#     4  12  23  42  78 104 140 196 238 296 356 423
#     4  12  26  45  72 108 142 191 248 286 354 437
#     4  11  26  46  71 105 150 184 235 304 361 414
#     4  12  29  49  68 105 153 190 234 305 363 420
#     4  11  23  43  74 105 140 195 241 285 373 418
#     4  11  23  44  75 111 140 180 250 301 343 439
#
# _framework density 22.522445000000001
#
# number of rings (size 3 to 8) (size 9 to 14) (size 15 to 20)
#    0.000    0.571    5.714    2.143    4.000    4.000 
#    2.571    0.000    0.000    0.000    0.000    0.000 
#    0.000    0.000    0.000    0.000    0.000    0.000 
#
# Total GULP energy -173623.236949 kJ/mol
# GULP energy per Si atom -12401.659782 kJ/mol
# Density = 2.247118 g / cm^3
# Si number density = 22.522445 Si / 1000 Ang^3
#
#
#
# Elastic Constant Matrix: (Units=GPa)
#
#
# Indices 1 2 3 4 5 6 
#
# 1 107.6239 30.4195 40.3529 5.0642 9.9932 15.3579
# 2 30.4195 106.8884 44.5191 -12.8106 7.5470 23.0867
# 3 40.3529 44.5191 127.1339 -8.8761 0.7646 10.9493
# 4 5.0642 -12.8106 -8.8761 31.8761 9.5654 -1.8847
# 5 9.9932 7.5470 0.7646 9.5654 34.0702 0.8516
# 6 15.3579 23.0867 10.9493 -1.8847 0.8516 32.2156
#
#
#
# Elastic Compliance Matrix: (Units=1/GPa)
#
#
# Indices 1 2 3 4 5 6 
#
# 1 0.011709 -0.001466 -0.003081 -0.002877 -0.002143 -0.003596
# 2 -0.001466 0.013717 -0.003273 0.005557 -0.003906 -0.007591
# 3 -0.003081 -0.003273 0.010065 0.001733 0.000905 0.000471
# 4 -0.002877 0.005557 0.001733 0.037812 -0.011025 -0.000697
# 5 -0.002143 -0.003906 0.000905 -0.011025 0.033870 0.001973
# 6 -0.003596 -0.007591 0.000471 -0.000697 0.001973 0.037942
#
#
# Mechanical properties :
#
#
# Convention : Reuss Voigt Hill
#
# Bulk Modulus (GPa) = 50.37594 63.58101 56.97848
# Shear Modulus (GPa) = 29.87365 34.72272 32.29818
#
# Velocity S-wave (km/s) = 3.64592 3.93070 3.79099
# Velocity P-wave (km/s) = 6.33555 6.99227 6.67200
#
# Compressibility (1/GPa) = 0.01985074
#
# Stress axis : x y z
#
# Youngs Moduli (GPa) = 85.40654 72.90122 99.35527
#
# Poissons Ratio (x) = 0.10684 0.30616
# Poissons Ratio (y) = 0.12517 0.32519
# Poissons Ratio (z) = 0.26318 0.23860
#
# Static dielectric constant tensor:
#      x y z
#    x 4.122220 0.270900 -0.058010 
#    y 0.270900 4.205930 -0.039950 
#    z -0.058010 -0.039950 3.951980 
# 
# 
# High freq. dielectric constant tensor:
#      x y z
#    x 1.881600 0.020300 -0.008780 
#    y 0.020300 1.902280 0.001120 
#    z -0.008780 0.001120 1.877420 
# 
# From -- ./inp_files/274798.got.cif
#   From: 2010.06.25/outbox.cif.g09.slc.cpg/sg2_138_cif.got.tgz:274798.got - 2010.06.27 13:26:56.
