data_PCOD8030219
_publ_section_title
;
Structure prediction by ZEFSAII (Michael W. Deem and Ramdas Pophale) SiO2 
 PCOD8030219
Probable space group: P -1
;
_chemical_formula_sum "Si O2"
_cell_formula_units_Z 16
_cell_length_a 8.750414
_cell_length_b 15.067504
_cell_length_c 11.244404
_cell_angle_alpha 148.026952
_cell_angle_beta 116.221843
_cell_angle_gamma 59.494077
_cell_volume 676.162859
_symmetry_space_group_name_H-M "P -1"
_symmetry_group_IT_number 2
_symmetry_cell_setting 'triclinic'
loop_
_space_group_symop_operation_xyz
x,y,z
-x,-y,-z
loop_
_atom_site_type_symbol
_atom_site_label
_atom_site_fract_x
_atom_site_fract_y
_atom_site_fract_z
Si Si1 0.177852 0.146988 0.464924
Si Si2 0.939617 0.478969 0.085576
Si Si3 0.685946 0.678095 0.880751
Si Si4 0.750835 0.192188 0.762788
Si Si5 0.362508 0.610949 0.811100
Si Si6 0.022109 0.801635 0.772969
Si Si7 0.319193 0.268294 0.331619
Si Si8 0.533830 0.046237 0.340683
O O1 0.203478 0.330682 0.729388
O O2 0.013114 0.223289 0.406250
O O3 0.358266 0.033621 0.335929
O O4 0.137129 0.007492 0.387102
O O5 0.112857 0.442614 0.187678
O O6 0.865753 0.311329 0.883824
O O7 0.000000 0.500000 0.000000
O O8 0.557283 0.580841 0.789271
O O9 0.627908 0.709484 0.759578
O O10 0.669819 0.856119 0.152090
O O11 0.620256 0.172352 0.589562
O O12 0.650553 0.293697 0.958562
O O13 0.325285 0.424940 0.601567
O O14 0.220228 0.708268 0.774550
O O15 0.880118 0.749282 0.750405
O O16 0.000000 0.000000 0.000000
O O17 0.471461 0.108615 0.257019
#
# Coordination Sequence:
#
# PCOD8030219 Si02
#       8
#     2   2   2   2   2   2   2   2
#     4  11  24  47  76 106 144 191 247 298 350 443
#     4  12  30  48  71 109 151 188 239 304 367 431
#     4  12  26  49  70 108 149 184 239 308 364 422
#     4  12  25  48  78 105 146 198 244 291 366 440
#     4  12  24  44  76 106 143 190 243 300 359 433
#     4  11  21  43  70 105 138 188 244 285 356 431
#     4  11  25  43  70 110 146 186 237 305 366 420
#     4  11  25  45  76 107 142 193 247 295 354 441
#
# _framework density 23.662938
#
# number of rings (size 3 to 8) (size 9 to 14) (size 15 to 20)
#    0.000    0.500    2.500    6.000    3.500    3.000 
#    0.000    0.000    0.000    0.000    0.000    0.000 
#    0.000    0.000    0.000    0.000    0.000    0.000 
#
# Total GULP energy -198276.081145 kJ/mol
# GULP energy per Si atom -12392.255072 kJ/mol
# Density = 2.360908 g / cm^3
# Si number density = 23.662938 Si / 1000 Ang^3
#
#
#
# Elastic Constant Matrix: (Units=GPa)
#
#
# Indices 1 2 3 4 5 6 
#
# 1 74.1417 39.5209 37.2418 10.0103 20.4175 9.6445
# 2 39.5209 98.9493 22.5429 -2.2665 3.3112 18.5526
# 3 37.2418 22.5429 129.4693 13.2699 8.7644 9.4722
# 4 10.0103 -2.2665 13.2699 49.6698 -0.2588 2.4626
# 5 20.4175 3.3112 8.7644 -0.2588 38.0803 5.4524
# 6 9.6445 18.5526 9.4722 2.4626 5.4524 38.0245
#
#
#
# Elastic Compliance Matrix: (Units=1/GPa)
#
#
# Indices 1 2 3 4 5 6 
#
# 1 0.023537 -0.008352 -0.004218 -0.004106 -0.011096 0.001013
# 2 -0.008352 0.014486 -0.000263 0.002716 0.004106 -0.005649
# 3 -0.004218 -0.000263 0.009199 -0.001566 0.000305 -0.001036
# 4 -0.004106 0.002716 -0.001566 0.021600 0.002713 -0.001682
# 5 -0.011096 0.004106 0.000305 0.002713 0.032385 -0.004085
# 6 0.001013 -0.005649 -0.001036 -0.001682 -0.004085 0.029750
#
#
# Mechanical properties :
#
#
# Convention : Reuss Voigt Hill
#
# Bulk Modulus (GPa) = 46.39396 55.68571 51.03983
# Shear Modulus (GPa) = 30.52326 38.70524 34.61425
#
# Velocity S-wave (km/s) = 3.59544 4.04875 3.82881
# Velocity P-wave (km/s) = 6.07330 6.74096 6.41582
#
# Compressibility (1/GPa) = 0.02155453
#
# Stress axis : x y z
#
# Youngs Moduli (GPa) = 42.48655 69.03245 108.71170
#
# Poissons Ratio (x) = 0.57659 0.45857
# Poissons Ratio (y) = 0.35487 0.02857
# Poissons Ratio (z) = 0.17922 0.01814
#
# Static dielectric constant tensor:
#      x y z
#    x 4.516730 -0.588780 -0.325290 
#    y -0.588780 5.091950 0.752620 
#    z -0.325290 0.752620 4.881340 
# 
# 
# High freq. dielectric constant tensor:
#      x y z
#    x 1.916450 0.003790 0.006020 
#    y 0.003790 1.952040 0.004100 
#    z 0.006020 0.004100 1.956950 
# 
# From -- ./inp_files/400133.got.cif
#   From: 2010.06.25/outbox.cif.g09.slc.cpg/sg2_201_cif.got.tgz:400133.got - 2010.06.27 13:26:56.
