data_PCOD8030736
_publ_section_title
;
Structure prediction by ZEFSAII (Michael W. Deem and Ramdas Pophale) SiO2 
 PCOD8030736
Probable space group: P -1
;
_chemical_formula_sum "Si O2"
_cell_formula_units_Z 16
_cell_length_a 24.673584
_cell_length_b 6.784835
_cell_length_c 20.378175
_cell_angle_alpha 54.562836
_cell_angle_beta 19.094166
_cell_angle_gamma 45.397787
_cell_volume 741.428320
_symmetry_space_group_name_H-M "P -1"
_symmetry_group_IT_number 2
_symmetry_cell_setting 'triclinic'
loop_
_space_group_symop_operation_xyz
x,y,z
-x,-y,-z
loop_
_atom_site_type_symbol
_atom_site_label
_atom_site_fract_x
_atom_site_fract_y
_atom_site_fract_z
Si Si1 0.458699 0.257524 0.585092
Si Si2 0.892799 0.669083 0.943874
Si Si3 0.807036 0.921515 0.343342
Si Si4 0.433110 0.146687 0.977251
Si Si5 0.151206 0.562252 0.782582
Si Si6 0.323214 0.206418 0.354411
Si Si7 0.065638 0.147092 0.346834
Si Si8 0.688581 0.210245 0.983072
O O1 0.500000 0.500000 0.500000
O O2 0.385728 0.279309 0.587344
O O3 0.661164 0.960474 0.440486
O O4 0.254868 0.368343 0.836546
O O5 0.990068 0.414211 0.825919
O O6 0.088197 0.618126 0.767832
O O7 0.756553 0.999796 0.008553
O O8 0.689104 0.975982 0.536473
O O9 0.875006 0.142470 0.216772
O O10 0.614953 0.981513 0.747511
O O11 0.257809 0.119649 0.160486
O O12 0.349320 0.487031 0.009481
O O13 0.500000 0.000000 0.000000
O O14 0.000000 0.500000 0.000000
O O15 0.107795 0.511929 0.532382
O O16 0.483117 0.280087 0.173874
O O17 0.125920 0.957964 0.247835
O O18 0.000000 0.000000 0.500000
#
# Coordination Sequence:
#
# PCOD8030736 Si02
#       8
#     2   2   2   2   2   2   2   2
#     4   9  20  41  62  90 128 169 213 261 323 387
#     4  11  22  40  65  94 132 172 213 274 325 384
#     4  11  22  41  67  91 134 175 214 270 330 387
#     4  11  26  45  68  99 133 172 217 278 325 386
#     4   9  22  39  61  95 128 165 221 263 321 390
#     4  11  24  42  66  98 131 176 219 266 331 394
#     4  11  24  44  69  96 131 171 218 264 329 404
#     4  11  24  42  66  98 135 172 219 271 330 388
#
# _framework density 21.579968999999998
#
# number of rings (size 3 to 8) (size 9 to 14) (size 15 to 20)
#    0.000    1.500    2.500    1.500    1.750   11.000 
#    0.000    2.500    0.000    0.000    0.000    0.000 
#    0.000    0.000    0.000    0.000    0.000    0.000 
#
# Total GULP energy -198264.294796 kJ/mol
# GULP energy per Si atom -12391.518425 kJ/mol
# Density = 2.153085 g / cm^3
# Si number density = 21.579969 Si / 1000 Ang^3
#
#
#
# Elastic Constant Matrix: (Units=GPa)
#
#
# Indices 1 2 3 4 5 6 
#
# 1 89.3142 21.2427 16.7842 1.2322 -16.1329 -12.1804
# 2 21.2427 115.9225 28.3525 4.7898 -3.8958 -3.3674
# 3 16.7842 28.3525 72.0809 3.9483 -9.0707 1.1140
# 4 1.2322 4.7898 3.9483 40.6025 -2.0873 0.3138
# 5 -16.1329 -3.8958 -9.0707 -2.0873 26.4360 3.3643
# 6 -12.1804 -3.3674 1.1140 0.3138 3.3643 34.3622
#
#
#
# Elastic Compliance Matrix: (Units=1/GPa)
#
#
# Indices 1 2 3 4 5 6 
#
# 1 0.013761 -0.001762 -0.001701 0.000287 0.007060 0.004067
# 2 -0.001762 0.009833 -0.003544 -0.000816 -0.000978 0.000557
# 3 -0.001701 -0.003544 0.016268 -0.000882 0.004191 -0.001880
# 4 0.000287 -0.000816 -0.000882 0.024896 0.001762 -0.000350
# 5 0.007060 -0.000978 0.004191 0.001762 0.043828 -0.002036
# 6 0.004067 0.000557 -0.001880 -0.000350 -0.002036 0.030861
#
#
# Mechanical properties :
#
#
# Convention : Reuss Voigt Hill
#
# Bulk Modulus (GPa) = 38.68935 45.56406 42.12670
# Shear Modulus (GPa) = 30.84914 34.34267 32.59591
#
# Velocity S-wave (km/s) = 3.78501 3.99358 3.89069
# Velocity P-wave (km/s) = 6.08843 6.51343 6.30452
#
# Compressibility (1/GPa) = 0.02584691
#
# Stress axis : x y z
#
# Youngs Moduli (GPa) = 72.66888 101.69505 61.46868
#
# Poissons Ratio (x) = 0.17919 0.10458
# Poissons Ratio (y) = 0.12805 0.21787
# Poissons Ratio (z) = 0.12364 0.36046
#
# Static dielectric constant tensor:
#      x y z
#    x 4.530820 -0.229630 -0.246950 
#    y -0.229630 3.843390 -0.040570 
#    z -0.246950 -0.040570 4.008460 
# 
# 
# High freq. dielectric constant tensor:
#      x y z
#    x 1.859240 -0.012900 -0.013640 
#    y -0.012900 1.850630 -0.002160 
#    z -0.013640 -0.002160 1.849820 
# 
# From -- ./inp_files/142709.got.cif
#   From: 2010.06.25/outbox.cif.g09.slc.cpg/sg2_72_cif.got.tgz:142709.got - 2010.06.27 13:26:56.
