data_PCOD8030452
_publ_section_title
;
Structure prediction by ZEFSAII (Michael W. Deem and Ramdas Pophale) SiO2 
 PCOD8030452
Probable space group: P -1
;
_chemical_formula_sum "Si O2"
_cell_formula_units_Z 16
_cell_length_a 8.915628
_cell_length_b 15.250527
_cell_length_c 9.072427
_cell_angle_alpha 50.620019
_cell_angle_beta 109.333719
_cell_angle_gamma 76.531488
_cell_volume 714.782806
_symmetry_space_group_name_H-M "P -1"
_symmetry_group_IT_number 2
_symmetry_cell_setting 'triclinic'
loop_
_space_group_symop_operation_xyz
x,y,z
-x,-y,-z
loop_
_atom_site_type_symbol
_atom_site_label
_atom_site_fract_x
_atom_site_fract_y
_atom_site_fract_z
Si Si1 0.228338 0.866374 0.343662
Si Si2 0.178324 0.851391 0.792218
Si Si3 0.828865 0.650709 0.951509
Si Si4 0.915760 0.834173 0.938935
Si Si5 0.381377 0.874917 0.094690
Si Si6 0.486128 0.637721 0.880626
Si Si7 0.812927 0.659521 0.596962
Si Si8 0.088740 0.176352 0.720486
O O1 0.235195 0.867916 0.166528
O O2 0.430970 0.720502 0.619605
O O3 0.040606 0.873520 0.329729
O O4 0.222012 0.994306 0.276649
O O5 0.312207 0.733843 0.838571
O O6 0.099043 0.784652 0.942783
O O7 0.327116 0.866967 0.918318
O O8 0.000000 0.000000 0.500000
O O9 0.791304 0.783585 0.884597
O O10 0.694259 0.608079 0.023915
O O11 0.772840 0.701507 0.709939
O O12 0.061309 0.511674 0.193220
O O13 0.981094 0.765807 0.197072
O O14 0.610009 0.745192 0.343709
O O15 0.321908 0.033489 0.936055
O O16 0.500000 0.500000 0.000000
O O17 0.948781 0.700724 0.527887
#
# Coordination Sequence:
#
# PCOD8030452 Si02
#       8
#     2   2   2   2   2   2   2   2
#     4  11  21  46  71 103 143 184 232 295 352 418
#     4  12  25  45  75 109 139 181 239 293 349 424
#     4  11  28  47  66 103 143 189 234 293 349 414
#     4  11  24  43  70 104 143 178 235 294 356 409
#     4  11  22  45  71 105 139 181 239 289 350 422
#     4  12  27  47  73 102 143 190 234 288 360 418
#     4  11  26  46  70  96 145 190 237 283 355 424
#     4  11  22  43  73 103 144 182 229 299 359 412
#
# _framework density 22.384423000000002
#
# number of rings (size 3 to 8) (size 9 to 14) (size 15 to 20)
#    0.000    0.750    5.000    1.875    8.750    1.000 
#    2.250    1.250    0.000    0.000    0.000    0.000 
#    0.000    0.000    0.000    0.000    0.000    0.000 
#
# Total GULP energy -198348.142968 kJ/mol
# GULP energy per Si atom -12396.758935 kJ/mol
# Density = 2.233348 g / cm^3
# Si number density = 22.384423 Si / 1000 Ang^3
#
#
#
# Elastic Constant Matrix: (Units=GPa)
#
#
# Indices 1 2 3 4 5 6 
#
# 1 104.3239 54.6304 33.6544 -4.5845 -9.4526 7.3498
# 2 54.6304 153.1490 58.7565 0.8286 -3.9703 9.7841
# 3 33.6544 58.7565 120.1001 2.5197 3.9163 3.5021
# 4 -4.5845 0.8286 2.5197 27.0359 2.6571 -1.9664
# 5 -9.4526 -3.9703 3.9163 2.6571 41.8059 1.3505
# 6 7.3498 9.7841 3.5021 -1.9664 1.3505 38.4679
#
#
#
# Elastic Compliance Matrix: (Units=1/GPa)
#
#
# Indices 1 2 3 4 5 6 
#
# 1 0.012478 -0.003617 -0.001816 0.002051 0.002559 -0.001284
# 2 -0.003617 0.009259 -0.003476 -0.000722 0.000478 -0.001401
# 3 -0.001816 -0.003476 0.010604 -0.001005 -0.001679 0.000273
# 4 0.002051 -0.000722 -0.001005 0.037782 -0.001973 0.001884
# 5 0.002559 0.000478 -0.001679 -0.001973 0.024873 -0.001432
# 6 -0.001284 -0.001401 0.000273 0.001884 -0.001432 0.026719
#
#
# Mechanical properties :
#
#
# Convention : Reuss Voigt Hill
#
# Bulk Modulus (GPa) = 68.85718 74.62842 71.74280
# Shear Modulus (GPa) = 34.63221 36.83071 35.73146
#
# Velocity S-wave (km/s) = 3.93766 4.06072 3.99966
# Velocity P-wave (km/s) = 7.17646 7.44297 7.31093
#
# Compressibility (1/GPa) = 0.01452281
#
# Stress axis : x y z
#
# Youngs Moduli (GPa) = 80.14144 108.00050 94.30715
#
# Poissons Ratio (x) = 0.39064 0.17126
# Poissons Ratio (y) = 0.28988 0.32780
# Poissons Ratio (z) = 0.14554 0.37540
#
# Static dielectric constant tensor:
#      x y z
#    x 4.158010 -0.199600 -0.044090 
#    y -0.199600 3.915160 0.015250 
#    z -0.044090 0.015250 4.206720 
# 
# 
# High freq. dielectric constant tensor:
#      x y z
#    x 1.885820 -0.005820 -0.009280 
#    y -0.005820 1.870970 0.005420 
#    z -0.009280 0.005420 1.885280 
# 
# From -- ./inp_files/205719.got.cif
#   From: 2010.06.25/outbox.cif.g09.slc.cpg/sg2_103_cif.got.tgz:205719.got - 2010.06.27 13:26:56.
