data_PCOD8030833
_publ_section_title
;
Structure prediction by ZEFSAII (Michael W. Deem and Ramdas Pophale) SiO2 
 PCOD8030833
Probable space group: P -1
;
_chemical_formula_sum "Si O2"
_cell_formula_units_Z 14
_cell_length_a 16.678776
_cell_length_b 11.175411
_cell_length_c 9.015042
_cell_angle_alpha 83.922496
_cell_angle_beta 71.815446
_cell_angle_gamma 146.365094
_cell_volume 635.829928
_symmetry_space_group_name_H-M "P -1"
_symmetry_group_IT_number 2
_symmetry_cell_setting 'triclinic'
loop_
_space_group_symop_operation_xyz
x,y,z
-x,-y,-z
loop_
_atom_site_type_symbol
_atom_site_label
_atom_site_fract_x
_atom_site_fract_y
_atom_site_fract_z
Si Si1 0.825657 0.701263 0.047591
Si Si2 0.683500 0.342321 0.702827
Si Si3 0.945502 0.421431 0.215809
Si Si4 0.709202 0.342989 0.371034
Si Si5 0.344423 0.130962 0.377901
Si Si6 0.027296 0.914750 0.587985
Si Si7 0.681243 0.080961 0.841608
O O1 0.785570 0.519762 0.165924
O O2 0.598815 0.471933 0.200471
O O3 0.925050 0.806473 0.818454
O O4 0.000000 0.000000 0.000000
O O5 0.678201 0.383195 0.531026
O O6 0.625319 0.124551 0.767673
O O7 0.909816 0.654901 0.603828
O O8 0.521546 0.214693 0.903164
O O9 0.885238 0.476132 0.292787
O O10 0.137754 0.643271 0.184463
O O11 0.758528 0.079737 0.398440
O O12 0.000000 0.500000 0.000000
O O13 0.500000 0.000000 0.500000
O O14 0.262022 0.162487 0.429103
O O15 0.275489 0.974829 0.284194
O O16 0.000000 0.000000 0.500000
#
# Coordination Sequence:
#
# PCOD8030833 Si02
#       7
#     2   2   2   2   2   2   2
#     4  12  28  51  71 104 151 198 246 307 368 440
#     4  11  22  41  69 102 144 182 237 298 362 427
#     4  12  23  38  67 109 146 183 232 299 373 435
#     4  12  23  41  70 103 146 185 237 303 369 424
#     4  12  24  48  76 103 146 194 246 300 372 437
#     4  12  27  49  73 102 142 195 254 303 359 442
#     4  11  22  40  71 106 141 185 230 302 367 430
#
# _framework density 22.018464000000002
#
# number of rings (size 3 to 8) (size 9 to 14) (size 15 to 20)
#    0.000    0.286    5.714    3.857    2.000    1.143 
#    2.571    0.000    0.000    0.000    0.000    0.000 
#    0.000    0.000    0.000    0.000    0.000    0.000 
#
# Total GULP energy -173547.594955 kJ/mol
# GULP energy per Si atom -12396.256782 kJ/mol
# Density = 2.196835 g / cm^3
# Si number density = 22.018464 Si / 1000 Ang^3
#
#
#
# Elastic Constant Matrix: (Units=GPa)
#
#
# Indices 1 2 3 4 5 6 
#
# 1 145.4441 22.5619 67.1254 0.4998 -5.0780 0.5846
# 2 22.5619 129.8804 61.4516 3.4093 -0.8904 13.2243
# 3 67.1254 61.4516 154.2785 26.5541 -3.3983 3.7689
# 4 0.4998 3.4093 26.5541 42.8199 7.8352 -0.6488
# 5 -5.0780 -0.8904 -3.3983 7.8352 38.7684 -4.6970
# 6 0.5846 13.2243 3.7689 -0.6488 -4.6970 28.9482
#
#
#
# Elastic Compliance Matrix: (Units=1/GPa)
#
#
# Indices 1 2 3 4 5 6 
#
# 1 0.008880 0.000496 -0.004510 0.002606 0.000287 0.000286
# 2 0.000496 0.010119 -0.004533 0.002126 -0.001034 -0.004163
# 3 -0.004510 -0.004533 0.011480 -0.007028 0.001830 0.000807
# 4 0.002606 0.002126 -0.007028 0.028615 -0.006064 -0.000451
# 5 0.000287 -0.001034 0.001830 -0.006064 0.027751 0.004595
# 6 0.000286 -0.004163 0.000807 -0.000451 0.004595 0.037071
#
#
# Mechanical properties :
#
#
# Convention : Reuss Voigt Hill
#
# Bulk Modulus (GPa) = 74.71753 81.32010 78.01882
# Shear Modulus (GPa) = 34.37067 40.67155 37.52111
#
# Velocity S-wave (km/s) = 3.95523 4.30252 4.13252
# Velocity P-wave (km/s) = 7.40717 7.85462 7.63417
#
# Compressibility (1/GPa) = 0.01338374
#
# Stress axis : x y z
#
# Youngs Moduli (GPa) = 112.61129 98.82307 87.10680
#
# Poissons Ratio (x) = -0.04900 0.39288
# Poissons Ratio (y) = -0.05584 0.39488
# Poissons Ratio (z) = 0.50791 0.44800
#
# Static dielectric constant tensor:
#      x y z
#    x 4.283170 -0.073320 -0.343890 
#    y -0.073320 4.001220 0.212130 
#    z -0.343890 0.212130 4.440690 
# 
# 
# High freq. dielectric constant tensor:
#      x y z
#    x 1.861260 0.015070 -0.009760 
#    y 0.015070 1.860410 0.012430 
#    z -0.009760 0.012430 1.884480 
# 
# From -- ./inp_files/199914.got.cif
#   From: 2010.06.25/outbox.cif.g09.slc.cpg/sg2_100_cif.got.tgz:199914.got - 2010.06.27 13:26:56.
