data_PCOD8030167
_publ_section_title
;
Structure prediction by ZEFSAII (Michael W. Deem and Ramdas Pophale) SiO2 
 PCOD8030167
Probable space group: P -1
;
_chemical_formula_sum "Si O2"
_cell_formula_units_Z 16
_cell_length_a 8.951867
_cell_length_b 13.333552
_cell_length_c 7.742787
_cell_angle_alpha 75.846408
_cell_angle_beta 65.600168
_cell_angle_gamma 44.167775
_cell_volume 584.463549
_symmetry_space_group_name_H-M "P -1"
_symmetry_group_IT_number 2
_symmetry_cell_setting 'triclinic'
loop_
_space_group_symop_operation_xyz
x,y,z
-x,-y,-z
loop_
_atom_site_type_symbol
_atom_site_label
_atom_site_fract_x
_atom_site_fract_y
_atom_site_fract_z
Si Si1 0.382715 0.831897 0.321331
Si Si2 0.784469 0.783717 0.018653
Si Si3 0.347259 0.370409 0.424785
Si Si4 0.043949 0.096568 0.628126
Si Si5 0.300119 0.968508 0.894435
Si Si6 0.208416 0.232763 0.363561
Si Si7 0.610884 0.294378 0.022993
Si Si8 0.835305 0.401959 0.825719
O O1 0.528132 0.848891 0.125710
O O2 0.578889 0.679999 0.393109
O O3 0.223586 0.814963 0.311620
O O4 0.215443 0.972673 0.459479
O O5 0.933874 0.669979 0.152442
O O6 0.785991 0.908218 0.979434
O O7 0.889657 0.712127 0.808866
O O8 0.195969 0.344682 0.427228
O O9 0.590624 0.276892 0.244950
O O10 0.189063 0.541603 0.384571
O O11 0.074180 0.207958 0.554784
O O12 0.108167 0.028861 0.816852
O O13 0.524120 0.917341 0.715451
O O14 0.350895 0.836577 0.026281
O O15 0.368167 0.455769 0.020273
O O16 0.813334 0.285953 0.883843
#
# Coordination Sequence:
#
# PCOD8030167 Si02
#       8
#     2   2   2   2   2   2   2   2
#     4  11  23  39  62  94 128 168 212 263 313 381
#     4  12  26  38  62 103 136 155 208 277 324 351
#     4   9  19  42  68  86 122 176 218 245 309 395
#     4  11  22  40  65  87 127 177 216 244 314 399
#     4  11  21  43  63  96 128 168 208 265 317 378
#     4  11  22  39  65  95 127 166 212 262 310 380
#     4   8  18  39  65  94 116 170 217 249 305 392
#     4   9  20  39  65  93 126 167 209 264 313 377
#
# _framework density 27.375529
#
# number of rings (size 3 to 8) (size 9 to 14) (size 15 to 20)
#    0.750    1.000    3.750    1.500    1.750    1.500 
#    4.500    0.000    0.000    1.500    0.000    0.000 
#    0.000    0.000    0.000    0.000    0.000    0.000 
#
# Total GULP energy -198272.109665 kJ/mol
# GULP energy per Si atom -12392.006854 kJ/mol
# Density = 2.731322 g / cm^3
# Si number density = 27.375529 Si / 1000 Ang^3
#
#
#
# Elastic Constant Matrix: (Units=GPa)
#
#
# Indices 1 2 3 4 5 6 
#
# 1 188.0980 58.6047 54.4096 -20.7996 1.4668 11.4825
# 2 58.6047 116.5158 17.5670 -29.8508 -2.2833 6.4383
# 3 54.4096 17.5670 118.1371 -16.0096 -22.3120 6.7019
# 4 -20.7996 -29.8508 -16.0096 31.7294 -7.6260 -7.3037
# 5 1.4668 -2.2833 -22.3120 -7.6260 52.2197 -2.5177
# 6 11.4825 6.4383 6.7019 -7.3037 -2.5177 41.0629
#
#
#
# Elastic Compliance Matrix: (Units=1/GPa)
#
#
# Indices 1 2 3 4 5 6 
#
# 1 0.007310 -0.003345 -0.003262 -0.000746 -0.001914 -0.001237
# 2 -0.003345 0.013084 0.001778 0.012001 0.003223 0.000926
# 3 -0.003262 0.001778 0.011829 0.007092 0.006276 0.000349
# 4 -0.000746 0.012001 0.007092 0.050155 0.011227 0.006779
# 5 -0.001914 0.003223 0.006276 0.011227 0.023784 0.002461
# 6 -0.001237 0.000926 0.000349 0.006779 0.002461 0.025853
#
#
# Mechanical properties :
#
#
# Convention : Reuss Voigt Hill
#
# Bulk Modulus (GPa) = 44.31761 75.99040 60.15400
# Shear Modulus (GPa) = 33.51310 44.48038 38.99674
#
# Velocity S-wave (km/s) = 3.50265 4.03528 3.77836
# Velocity P-wave (km/s) = 5.70806 7.03776 6.40750
#
# Compressibility (1/GPa) = 0.02256439
#
# Stress axis : x y z
#
# Youngs Moduli (GPa) = 136.79706 76.43147 84.53673
#
# Poissons Ratio (x) = 0.25568 0.27573
# Poissons Ratio (y) = 0.45762 -0.15027
# Poissons Ratio (z) = 0.44618 -0.13586
#
# Static dielectric constant tensor:
#      x y z
#    x 4.993740 0.032810 -0.055500 
#    y 0.032810 4.993030 0.023970 
#    z -0.055500 0.023970 4.906420 
# 
# 
# High freq. dielectric constant tensor:
#      x y z
#    x 2.107910 0.000260 -0.013680 
#    y 0.000260 2.110660 0.006200 
#    z -0.013680 0.006200 2.116300 
# 
# From -- ./inp_files/206276.got.cif
#   From: 2010.06.25/outbox.cif.g09.slc.cpg/sg2_104_cif.got.tgz:206276.got - 2010.06.27 13:26:56.
