data_PCOD8030168
_publ_section_title
;
Structure prediction by ZEFSAII (Michael W. Deem and Ramdas Pophale) SiO2 
 PCOD8030168
Probable space group: P -1
;
_chemical_formula_sum "Si O2"
_cell_formula_units_Z 16
_cell_length_a 9.111898
_cell_length_b 21.416070
_cell_length_c 12.270094
_cell_angle_alpha 40.970044
_cell_angle_beta 52.270796
_cell_angle_gamma 29.599862
_cell_volume 768.063479
_symmetry_space_group_name_H-M "P -1"
_symmetry_group_IT_number 2
_symmetry_cell_setting 'triclinic'
loop_
_space_group_symop_operation_xyz
x,y,z
-x,-y,-z
loop_
_atom_site_type_symbol
_atom_site_label
_atom_site_fract_x
_atom_site_fract_y
_atom_site_fract_z
Si Si1 0.330624 0.198359 0.496427
Si Si2 0.160515 0.426265 0.409579
Si Si3 0.433442 0.376917 0.953396
Si Si4 0.062114 0.395326 0.943506
Si Si5 0.169078 0.135123 0.250280
Si Si6 0.305702 0.590655 0.575567
Si Si7 0.853884 0.113551 0.261069
Si Si8 0.227764 0.780921 0.508687
O O1 0.210582 0.294417 0.535596
O O2 0.571677 0.170334 0.365155
O O3 0.040905 0.302410 0.414581
O O4 0.482179 0.036811 0.672460
O O5 0.486028 0.342815 0.379339
O O6 0.000000 0.500000 0.500000
O O7 0.972890 0.546271 0.237306
O O8 0.318340 0.345103 0.961580
O O9 0.466269 0.464522 0.763212
O O10 0.753878 0.210288 0.070580
O O11 0.239319 0.471083 0.026526
O O12 0.152664 0.250136 0.068805
O O13 0.989410 0.133828 0.257555
O O14 0.028172 0.183232 0.371038
O O15 0.500000 0.500000 0.500000
O O16 0.311203 0.700278 0.460513
O O17 0.114779 0.934670 0.343595
#
# Coordination Sequence:
#
# PCOD8030168 Si02
#       8
#     2   2   2   2   2   2   2   2
#     4  11  21  43  64  91 129 167 210 264 310 372
#     4  12  23  42  65  88 129 172 210 258 317 377
#     4  11  22  41  63  94 129 163 212 265 312 371
#     4  11  23  40  64  97 125 166 214 261 315 371
#     4  11  22  39  68  98 125 158 217 268 312 370
#     4  12  26  43  63  93 130 170 215 255 314 388
#     4  11  22  40  67  97 128 157 214 271 312 367
#     4  11  23  39  65  95 123 171 211 260 318 369
#
# _framework density 20.831610999999999
#
# number of rings (size 3 to 8) (size 9 to 14) (size 15 to 20)
#    0.000    0.750    6.250    2.250    3.500    2.000 
#    0.000    2.500    0.000    0.000    0.000    0.000 
#    0.000    0.000    0.000    0.000    0.000    0.000 
#
# Total GULP energy -198353.860389 kJ/mol
# GULP energy per Si atom -12397.116274 kJ/mol
# Density = 2.078420 g / cm^3
# Si number density = 20.831611 Si / 1000 Ang^3
#
#
#
# Elastic Constant Matrix: (Units=GPa)
#
#
# Indices 1 2 3 4 5 6 
#
# 1 99.6219 46.1246 41.5263 -17.0450 3.9895 22.2344
# 2 46.1246 92.3535 67.2179 -22.5909 7.8314 23.1649
# 3 41.5263 67.2179 114.7943 -16.5790 13.7030 13.4053
# 4 -17.0450 -22.5909 -16.5790 29.3882 6.7287 2.1209
# 5 3.9895 7.8314 13.7030 6.7287 38.3961 -6.8795
# 6 22.2344 23.1649 13.4053 2.1209 -6.8795 41.9027
#
#
#
# Elastic Compliance Matrix: (Units=1/GPa)
#
#
# Indices 1 2 3 4 5 6 
#
# 1 0.014668 -0.002510 -0.001772 0.006682 -0.002736 -0.006616
# 2 -0.002510 0.027301 -0.010563 0.015951 -0.006530 -0.012261
# 3 -0.001772 -0.010563 0.015844 0.000435 -0.003183 0.001166
# 4 0.006682 0.015951 0.000435 0.055634 -0.017101 -0.018127
# 5 -0.002736 -0.006530 -0.003183 -0.017101 0.034039 0.012534
# 6 -0.006616 -0.012261 0.001166 -0.018127 0.012534 0.036756
#
#
# Mechanical properties :
#
#
# Convention : Reuss Voigt Hill
#
# Bulk Modulus (GPa) = 35.55790 68.50081 52.02936
# Shear Modulus (GPa) = 22.39075 32.06411 27.22743
#
# Velocity S-wave (km/s) = 3.28204 3.92753 3.61920
# Velocity P-wave (km/s) = 5.60969 7.31586 6.51883
#
# Compressibility (1/GPa) = 0.02812314
#
# Stress axis : x y z
#
# Youngs Moduli (GPa) = 68.17413 36.62932 63.11501
#
# Poissons Ratio (x) = 0.09193 0.11185
# Poissons Ratio (y) = 0.17110 0.66668
# Poissons Ratio (z) = 0.12082 0.38691
#
# Static dielectric constant tensor:
#      x y z
#    x 3.952210 0.089620 0.075090 
#    y 0.089620 3.843210 -0.399350 
#    z 0.075090 -0.399350 3.753640 
# 
# 
# High freq. dielectric constant tensor:
#      x y z
#    x 1.830180 0.012620 0.007050 
#    y 0.012620 1.807720 -0.029180 
#    z 0.007050 -0.029180 1.797170 
# 
# From -- ./inp_files/298439.got.cif
#   From: 2010.06.25/outbox.cif.g09.slc.cpg/sg2_150_cif.got.tgz:298439.got - 2010.06.27 13:26:56.
