data_PCOD8030231
_publ_section_title
;
Structure prediction by ZEFSAII (Michael W. Deem and Ramdas Pophale) SiO2 
 PCOD8030231
Probable space group: P -1
;
_chemical_formula_sum "Si O2"
_cell_formula_units_Z 12
_cell_length_a 14.222263
_cell_length_b 14.161362
_cell_length_c 11.721685
_cell_angle_alpha 30.760152
_cell_angle_beta 29.520783
_cell_angle_gamma 30.094356
_cell_volume 526.392754
_symmetry_space_group_name_H-M "P -1"
_symmetry_group_IT_number 2
_symmetry_cell_setting 'triclinic'
loop_
_space_group_symop_operation_xyz
x,y,z
-x,-y,-z
loop_
_atom_site_type_symbol
_atom_site_label
_atom_site_fract_x
_atom_site_fract_y
_atom_site_fract_z
Si Si1 0.023219 0.953460 0.655335
Si Si2 0.905920 0.848451 0.213121
Si Si3 0.624978 0.136287 0.023746
Si Si4 0.069433 0.422679 0.879316
Si Si5 0.480720 0.908759 0.236712
Si Si6 0.825023 0.571681 0.766778
O O1 0.256204 0.909913 0.495525
O O2 0.000000 0.000000 0.500000
O O3 0.996498 0.750464 0.911963
O O4 0.830491 0.139138 0.738994
O O5 0.838327 0.746384 0.492631
O O6 0.072414 0.659562 0.154281
O O7 0.697629 0.995530 0.206154
O O8 0.000000 0.000000 0.000000
O O9 0.429961 0.367397 0.014944
O O10 0.501119 0.051388 0.162085
O O11 0.328289 0.328569 0.703022
O O12 0.943168 0.591665 0.738830
O O13 0.000000 0.500000 0.000000
O O14 0.500000 0.000000 0.000000
#
# Coordination Sequence:
#
# PCOD8030231 Si02
#       6
#     2   2   2   2   2   2
#     4  11  23  42  69 105 147 199 239 288 374 434
#     4  11  26  50  77 107 145 193 250 305 369 439
#     4  11  24  45  73 106 148 190 247 305 364 433
#     4  11  24  43  68 111 147 184 246 301 365 441
#     4  11  21  43  70  99 155 193 229 307 360 430
#     4  11  25  49  74 109 149 187 248 307 366 434
#
# _framework density 22.796665999999998
#
# number of rings (size 3 to 8) (size 9 to 14) (size 15 to 20)
#    0.000    1.000    6.667    1.500    2.333    1.333 
#    3.000    0.000    0.000    0.000    0.000    0.000 
#    0.000    0.000    0.000    0.000    0.000    0.000 
#
# Total GULP energy -148696.033488 kJ/mol
# GULP energy per Si atom -12391.336124 kJ/mol
# Density = 2.274478 g / cm^3
# Si number density = 22.796666 Si / 1000 Ang^3
#
#
#
# Elastic Constant Matrix: (Units=GPa)
#
#
# Indices 1 2 3 4 5 6 
#
# 1 164.3293 65.2547 58.6358 12.5590 14.2487 -24.8646
# 2 65.2547 164.7039 45.5820 37.8114 -4.1992 -31.1264
# 3 58.6358 45.5820 85.0523 29.7095 -4.6489 -13.8199
# 4 12.5590 37.8114 29.7095 43.2867 -7.5981 -8.0121
# 5 14.2487 -4.1992 -4.6489 -7.5981 54.6576 1.1313
# 6 -24.8646 -31.1264 -13.8199 -8.0121 1.1313 46.7309
#
#
#
# Elastic Compliance Matrix: (Units=1/GPa)
#
#
# Indices 1 2 3 4 5 6 
#
# 1 0.009687 -0.002574 -0.006396 0.003756 -0.002792 0.002260
# 2 -0.002574 0.009375 -0.000389 -0.006432 0.000389 0.003648
# 3 -0.006396 -0.000389 0.020566 -0.011535 0.001775 0.000399
# 4 0.003756 -0.006432 -0.011535 0.036074 0.002551 0.000426
# 5 -0.002792 0.000389 0.001775 0.002551 0.019574 -0.000738
# 6 0.002260 0.003648 0.000399 0.000426 -0.000738 0.025240
#
#
# Mechanical properties :
#
#
# Convention : Reuss Voigt Hill
#
# Bulk Modulus (GPa) = 47.82479 83.67005 65.74742
# Shear Modulus (GPa) = 34.19878 45.24256 39.72067
#
# Velocity S-wave (km/s) = 3.87740 4.45973 4.17872
# Velocity P-wave (km/s) = 6.40859 7.95622 7.22397
#
# Compressibility (1/GPa) = 0.02090966
#
# Stress axis : x y z
#
# Youngs Moduli (GPa) = 103.23520 106.66872 48.62287
#
# Poissons Ratio (x) = 0.27458 0.31099
# Poissons Ratio (y) = 0.26574 0.01891
# Poissons Ratio (z) = 0.66029 0.04149
#
# Static dielectric constant tensor:
#      x y z
#    x 4.328520 0.184830 0.117540 
#    y 0.184830 5.455410 0.526480 
#    z 0.117540 0.526480 3.711250 
# 
# 
# High freq. dielectric constant tensor:
#      x y z
#    x 1.920360 -0.009790 0.015350 
#    y -0.009790 1.913820 0.013800 
#    z 0.015350 0.013800 1.883760 
# 
# From -- ./inp_files/454277.got.cif
#   From: 2010.06.25/outbox.cif.g09.slc.cpg/sg2_228_cif.got.tgz:454277.got - 2010.06.27 13:26:56.
