data_PCOD8030826
_publ_section_title
;
Structure prediction by ZEFSAII (Michael W. Deem and Ramdas Pophale) SiO2 
 PCOD8030826
Probable space group: P -1
;
_chemical_formula_sum "Si O2"
_cell_formula_units_Z 16
_cell_length_a 11.348821
_cell_length_b 5.480047
_cell_length_c 15.658713
_cell_angle_alpha 88.846812
_cell_angle_beta 61.681825
_cell_angle_gamma 56.262119
_cell_volume 672.386854
_symmetry_space_group_name_H-M "P -1"
_symmetry_group_IT_number 2
_symmetry_cell_setting 'triclinic'
loop_
_space_group_symop_operation_xyz
x,y,z
-x,-y,-z
loop_
_atom_site_type_symbol
_atom_site_label
_atom_site_fract_x
_atom_site_fract_y
_atom_site_fract_z
Si Si1 0.559876 0.638373 0.914468
Si Si2 0.381796 0.175647 0.864148
Si Si3 0.723654 0.078650 0.757959
Si Si4 0.991987 0.765110 0.809933
Si Si5 0.632278 0.142121 0.476003
Si Si6 0.147298 0.564829 0.074995
Si Si7 0.103939 0.128877 0.473173
Si Si8 0.350915 0.203003 0.676655
O O1 0.677016 0.405549 0.798483
O O2 0.682469 0.684247 0.924641
O O3 0.389194 0.929929 0.924878
O O4 0.500000 0.500000 0.000000
O O5 0.558825 0.100315 0.831483
O O6 0.375821 0.110233 0.767914
O O7 0.213504 0.511716 0.953086
O O8 0.889652 0.818892 0.758078
O O9 0.755983 0.025534 0.647337
O O10 0.976880 0.531066 0.873376
O O11 0.193636 0.572582 0.720423
O O12 0.933579 0.081347 0.874307
O O13 0.500000 0.500000 0.500000
O O14 0.531025 0.075333 0.574492
O O15 0.805020 0.014462 0.466334
O O16 0.698994 0.972308 0.362613
O O17 0.000000 0.500000 0.500000
O O18 0.000000 0.000000 0.500000
#
# Coordination Sequence:
#
# PCOD8030826 Si02
#       8
#     2   2   2   2   2   2   2   2
#     4  11  22  40  70 108 144 187 247 314 369 432
#     4  12  23  43  74 105 145 195 259 301 369 460
#     4  11  24  41  73 105 141 193 253 307 370 441
#     4  11  26  46  69 107 151 196 238 306 380 438
#     4  11  28  50  78 107 156 205 255 318 393 459
#     4  11  24  43  71 105 148 191 244 309 367 436
#     4  12  30  50  81 116 152 192 261 329 384 450
#     4  11  28  48  73 106 151 204 250 305 383 464
#
# _framework density 23.795825000000001
#
# number of rings (size 3 to 8) (size 9 to 14) (size 15 to 20)
#    0.000    0.750    3.750    2.625   10.500    2.000 
#    0.000    0.000    0.000    0.000    0.000    0.000 
#    0.000    0.000    0.000    0.000    0.000    0.000 
#
# Total GULP energy -198231.618997 kJ/mol
# GULP energy per Si atom -12389.476187 kJ/mol
# Density = 2.374166 g / cm^3
# Si number density = 23.795825 Si / 1000 Ang^3
#
#
#
# Elastic Constant Matrix: (Units=GPa)
#
#
# Indices 1 2 3 4 5 6 
#
# 1 104.4084 44.8922 34.5842 -0.9743 17.3231 -3.3318
# 2 44.8922 124.8148 41.3635 4.1754 20.7717 -0.7053
# 3 34.5842 41.3635 136.4514 15.9148 41.7012 2.5545
# 4 -0.9743 4.1754 15.9148 32.0951 -3.8382 -1.6360
# 5 17.3231 20.7717 41.7012 -3.8382 42.0072 -0.7175
# 6 -3.3318 -0.7053 2.5545 -1.6360 -0.7175 38.9444
#
#
#
# Elastic Compliance Matrix: (Units=1/GPa)
#
#
# Indices 1 2 3 4 5 6 
#
# 1 0.011951 -0.003549 -0.001786 0.001620 -0.001233 0.001121
# 2 -0.003549 0.010155 -0.001346 -0.001045 -0.002319 -0.000118
# 3 -0.001786 -0.001346 0.012802 -0.007747 -0.012041 -0.001564
# 4 0.001620 -0.001045 -0.007747 0.036611 0.010925 0.002367
# 5 -0.001233 -0.002319 -0.012041 0.010925 0.038443 0.001809
# 6 0.001121 -0.000118 -0.001564 0.002367 0.001809 0.026007
#
#
# Mechanical properties :
#
#
# Convention : Reuss Voigt Hill
#
# Bulk Modulus (GPa) = 46.41403 67.48382 56.94893
# Shear Modulus (GPa) = 31.94620 38.93165 35.43892
#
# Velocity S-wave (km/s) = 3.66801 4.04922 3.86332
# Velocity P-wave (km/s) = 6.12262 7.09103 6.62455
#
# Compressibility (1/GPa) = 0.02154521
#
# Stress axis : x y z
#
# Youngs Moduli (GPa) = 83.67578 98.47727 78.11173
#
# Poissons Ratio (x) = 0.34950 0.13953
# Poissons Ratio (y) = 0.29697 0.10513
# Poissons Ratio (z) = 0.14946 0.13254
#
# Static dielectric constant tensor:
#      x y z
#    x 4.626240 -0.124290 -0.024390 
#    y -0.124290 4.320170 0.292450 
#    z -0.024390 0.292450 4.740710 
# 
# 
# High freq. dielectric constant tensor:
#      x y z
#    x 1.944120 -0.002960 0.007430 
#    y -0.002960 1.931390 0.013850 
#    z 0.007430 0.013850 1.960100 
# 
# From -- ./inp_files/510975.got.cif
#   From: 2010.06.25/outbox.cif.g09.slc.cpg/sg2_256_cif.got.tgz:510975.got - 2010.06.27 13:26:56.
