data_PCOD8030119
_publ_section_title
;
Structure prediction by ZEFSAII (Michael W. Deem and Ramdas Pophale) SiO2 
 PCOD8030119
Probable space group: P -1
;
_chemical_formula_sum "Si O2"
_cell_formula_units_Z 16
_cell_length_a 9.814983
_cell_length_b 8.156409
_cell_length_c 22.379044
_cell_angle_alpha 63.152600
_cell_angle_beta 28.725220
_cell_angle_gamma 60.416823
_cell_volume 748.044646
_symmetry_space_group_name_H-M "P -1"
_symmetry_group_IT_number 2
_symmetry_cell_setting 'triclinic'
loop_
_space_group_symop_operation_xyz
x,y,z
-x,-y,-z
loop_
_atom_site_type_symbol
_atom_site_label
_atom_site_fract_x
_atom_site_fract_y
_atom_site_fract_z
Si Si1 0.425243 0.153497 0.052008
Si Si2 0.273872 0.216931 0.452588
Si Si3 0.614602 0.483203 0.862585
Si Si4 0.152476 0.837537 0.011743
Si Si5 0.173635 0.368380 0.746716
Si Si6 0.782885 0.243789 0.323312
Si Si7 0.277033 0.805434 0.507645
Si Si8 0.078976 0.465789 0.377901
O O1 0.685274 0.085245 0.009664
O O2 0.121189 0.150222 0.200312
O O3 0.422531 0.349463 0.986975
O O4 0.500000 0.000000 0.000000
O O5 0.599482 0.139545 0.366597
O O6 0.281782 0.335013 0.369856
O O7 0.109199 0.351679 0.546372
O O8 0.142197 0.033396 0.517865
O O9 0.402508 0.688211 0.906205
O O10 0.731018 0.442415 0.757092
O O11 0.884044 0.475946 0.804804
O O12 0.894570 0.752924 0.151867
O O13 0.000000 0.000000 0.000000
O O14 0.302675 0.534925 0.698398
O O15 0.400922 0.236028 0.637448
O O16 0.689282 0.241345 0.428213
O O17 0.092954 0.672476 0.567796
#
# Coordination Sequence:
#
# PCOD8030119 Si02
#       8
#     2   2   2   2   2   2   2   2
#     4  11  25  43  67 100 131 174 224 277 328 398
#     4  11  27  41  64 105 138 169 226 283 330 403
#     4  11  22  45  71  92 132 182 221 269 336 400
#     4  11  24  44  68  97 131 174 230 271 327 405
#     4  11  21  42  70  95 129 178 224 271 331 396
#     4  12  22  45  66  96 132 175 230 273 327 405
#     4  12  24  42  73  96 130 183 229 269 336 401
#     4  11  24  46  65  97 143 177 214 281 348 386
#
# _framework density 21.389098000000001
#
# number of rings (size 3 to 8) (size 9 to 14) (size 15 to 20)
#    0.000    0.750    5.000    2.625    7.000    0.000 
#    4.500    1.250    0.000    0.000    0.000    0.000 
#    0.000    0.000    0.000    0.000    0.000    0.000 
#
# Total GULP energy -198324.051049 kJ/mol
# GULP energy per Si atom -12395.253191 kJ/mol
# Density = 2.134042 g / cm^3
# Si number density = 21.389098 Si / 1000 Ang^3
#
#
#
# Elastic Constant Matrix: (Units=GPa)
#
#
# Indices 1 2 3 4 5 6 
#
# 1 93.6999 46.1631 34.8131 -2.1390 15.5115 -10.0182
# 2 46.1631 119.1300 29.0053 7.0780 4.9790 -2.0118
# 3 34.8131 29.0053 110.6618 1.0156 23.8845 -9.0532
# 4 -2.1390 7.0780 1.0156 18.3760 -0.6824 7.5205
# 5 15.5115 4.9790 23.8845 -0.6824 28.2832 -6.1254
# 6 -10.0182 -2.0118 -9.0532 7.5205 -6.1254 43.5050
#
#
#
# Elastic Compliance Matrix: (Units=1/GPa)
#
#
# Indices 1 2 3 4 5 6 
#
# 1 0.015177 -0.005294 -0.002180 0.003107 -0.005144 0.001535
# 2 -0.005294 0.011039 -0.001668 -0.004725 0.002273 0.000081
# 3 -0.002180 -0.001668 0.012087 -0.000965 -0.008546 0.000900
# 4 0.003107 -0.004725 -0.000965 0.060855 -0.000829 -0.010340
# 5 -0.005144 0.002273 -0.008546 -0.000829 0.045783 0.003732
# 6 0.001535 0.000081 0.000900 -0.010340 0.003732 0.025843
#
#
# Mechanical properties :
#
#
# Convention : Reuss Voigt Hill
#
# Bulk Modulus (GPa) = 49.95501 60.38385 55.16943
# Shear Modulus (GPa) = 25.54407 32.26686 28.90547
#
# Velocity S-wave (km/s) = 3.45955 3.88824 3.68014
# Velocity P-wave (km/s) = 6.27408 6.96062 6.62625
#
# Compressibility (1/GPa) = 0.02001801
#
# Stress axis : x y z
#
# Youngs Moduli (GPa) = 65.88909 90.58784 82.73658
#
# Poissons Ratio (x) = 0.47958 0.18034
# Poissons Ratio (y) = 0.34883 0.13804
# Poissons Ratio (z) = 0.14362 0.15114
#
# Static dielectric constant tensor:
#      x y z
#    x 3.837290 0.231010 0.105260 
#    y 0.231010 3.435340 -0.099510 
#    z 0.105260 -0.099510 4.000860 
# 
# 
# High freq. dielectric constant tensor:
#      x y z
#    x 1.832770 0.009100 0.012150 
#    y 0.009100 1.843800 0.000410 
#    z 0.012150 0.000410 1.849140 
# 
# From -- ./inp_files/206839.got.cif
#   From: 2010.06.25/outbox.cif.g09.slc.cpg/sg2_104_cif.got.tgz:206839.got - 2010.06.27 13:26:56.
