data_PCOD8030192
_publ_section_title
;
Structure prediction by ZEFSAII (Michael W. Deem and Ramdas Pophale) SiO2 
 PCOD8030192
Probable space group: P -1
;
_chemical_formula_sum "Si O2"
_cell_formula_units_Z 14
_cell_length_a 7.796072
_cell_length_b 16.469905
_cell_length_c 14.030920
_cell_angle_alpha 21.260449
_cell_angle_beta 112.680163
_cell_angle_gamma 114.727077
_cell_volume 593.319797
_symmetry_space_group_name_H-M "P -1"
_symmetry_group_IT_number 2
_symmetry_cell_setting 'triclinic'
loop_
_space_group_symop_operation_xyz
x,y,z
-x,-y,-z
loop_
_atom_site_type_symbol
_atom_site_label
_atom_site_fract_x
_atom_site_fract_y
_atom_site_fract_z
Si Si1 0.036655 0.290070 0.497373
Si Si2 0.427981 0.829805 0.086036
Si Si3 0.785579 0.612611 0.386797
Si Si4 0.631597 0.766156 0.486087
Si Si5 0.240229 0.463271 0.739743
Si Si6 0.587541 0.745707 0.709197
Si Si7 0.732143 0.964655 0.684847
O O1 0.076742 0.223555 0.689338
O O2 0.237837 0.373691 0.396849
O O3 0.899763 0.476631 0.272659
O O4 0.937595 0.078566 0.643142
O O5 0.600117 0.717163 0.207415
O O6 0.262660 0.630913 0.304115
O O7 0.500000 0.000000 0.000000
O O8 0.342020 0.970680 0.830298
O O9 0.877834 0.589358 0.327243
O O10 0.411367 0.667374 0.530574
O O11 0.694128 0.736566 0.641520
O O12 0.335537 0.257534 0.023073
O O13 0.734185 0.891366 0.654461
O O14 0.413037 0.867886 0.513791
O O15 0.500000 0.500000 0.000000
#
# Coordination Sequence:
#
# PCOD8030192 Si02
#       7
#     2   2   2   2   2   2   2
#     4  12  27  44  66 115 141 185 241 287 347 428
#     4  11  21  43  68 108 140 189 244 277 349 424
#     4  11  24  41  71 101 150 193 232 287 344 418
#     4  12  24  47  76  98 147 186 230 299 352 409
#     4  12  25  47  70 105 146 191 238 284 345 427
#     4  11  23  49  80 102 133 188 237 294 362 425
#     4  11  25  47  74 105 141 179 242 292 354 423
#
# _framework density 23.596043999999999
#
# number of rings (size 3 to 8) (size 9 to 14) (size 15 to 20)
#    0.000    0.571    5.714    2.143    2.000    1.143 
#    0.000    2.857    0.000    0.000    0.000    0.000 
#    0.000    0.000    0.000    0.000    0.000    0.000 
#
# Total GULP energy -173563.087316 kJ/mol
# GULP energy per Si atom -12397.363380 kJ/mol
# Density = 2.354234 g / cm^3
# Si number density = 23.596044 Si / 1000 Ang^3
#
#
#
# Elastic Constant Matrix: (Units=GPa)
#
#
# Indices 1 2 3 4 5 6 
#
# 1 106.0581 45.9366 46.7866 1.8682 7.4719 -16.4314
# 2 45.9366 182.6092 23.8627 18.7879 -4.6033 -16.0437
# 3 46.7866 23.8627 150.6898 16.6618 6.5722 -12.9280
# 4 1.8682 18.7879 16.6618 30.3219 -7.8762 -3.1986
# 5 7.4719 -4.6033 6.5722 -7.8762 16.5375 6.2209
# 6 -16.4314 -16.0437 -12.9280 -3.1986 6.2209 42.8325
#
#
#
# Elastic Compliance Matrix: (Units=1/GPa)
#
#
# Indices 1 2 3 4 5 6 
#
# 1 0.013090 -0.002837 -0.003162 0.001489 -0.006252 0.004024
# 2 -0.002837 0.006657 0.000306 -0.003797 0.000791 0.001099
# 3 -0.003162 0.000306 0.008624 -0.005953 -0.005445 0.001851
# 4 0.001489 -0.003797 -0.005953 0.044113 0.022639 -0.002641
# 5 -0.006252 0.000791 -0.005445 0.022639 0.081695 -0.013920
# 6 0.004024 0.001099 0.001851 -0.002641 -0.013920 0.027685
#
#
# Mechanical properties :
#
#
# Convention : Reuss Voigt Hill
#
# Bulk Modulus (GPa) = 58.87294 74.72544 66.79919
# Shear Modulus (GPa) = 25.13683 39.45647 32.29665
#
# Velocity S-wave (km/s) = 3.26743 4.09365 3.70365
# Velocity P-wave (km/s) = 6.26413 7.35400 6.83084
#
# Compressibility (1/GPa) = 0.01698573
#
# Stress axis : x y z
#
# Youngs Moduli (GPa) = 76.39435 150.21842 115.95854
#
# Poissons Ratio (x) = 0.42617 0.36663
# Poissons Ratio (y) = 0.21673 -0.03551
# Poissons Ratio (z) = 0.24154 -0.04600
#
# Static dielectric constant tensor:
#      x y z
#    x 4.112930 -0.225350 0.115270 
#    y -0.225350 4.634340 0.034430 
#    z 0.115270 0.034430 4.247160 
# 
# 
# High freq. dielectric constant tensor:
#      x y z
#    x 1.919310 -0.010870 0.015840 
#    y -0.010870 1.955380 0.002790 
#    z 0.015840 0.002790 1.923150 
# 
# From -- ./inp_files/89061.got.cif
#   From: 2010.06.25/outbox.cif.g09.slc.cpg/sg2_45_cif.got.tgz:89061.got - 2010.06.27 13:26:56.
