data_PCOD8030790
_publ_section_title
;
Structure prediction by ZEFSAII (Michael W. Deem and Ramdas Pophale) SiO2 
 PCOD8030790
Probable space group: P -1
;
_chemical_formula_sum "Si O2"
_cell_formula_units_Z 16
_cell_length_a 10.721760
_cell_length_b 5.245739
_cell_length_c 19.738912
_cell_angle_alpha 118.162624
_cell_angle_beta 136.714670
_cell_angle_gamma 66.980230
_cell_volume 668.991583
_symmetry_space_group_name_H-M "P -1"
_symmetry_group_IT_number 2
_symmetry_cell_setting 'triclinic'
loop_
_space_group_symop_operation_xyz
x,y,z
-x,-y,-z
loop_
_atom_site_type_symbol
_atom_site_label
_atom_site_fract_x
_atom_site_fract_y
_atom_site_fract_z
Si Si1 0.321002 0.406767 0.239136
Si Si2 0.040608 0.729368 0.686137
Si Si3 0.966299 0.793208 0.156240
Si Si4 0.918017 0.091984 0.552243
Si Si5 0.602452 0.615260 0.207301
Si Si6 0.404789 0.213152 0.915414
Si Si7 0.697162 0.748974 0.938358
Si Si8 0.539463 0.938125 0.350294
O O1 0.316967 0.216409 0.144291
O O2 0.444902 0.680825 0.318946
O O3 0.116804 0.527994 0.191839
O O4 0.389025 0.191781 0.299345
O O5 0.262088 0.682078 0.775171
O O6 0.950813 0.426867 0.618747
O O7 0.964855 0.918062 0.745376
O O8 0.004655 0.887538 0.620201
O O9 0.780750 0.733012 0.111292
O O10 0.903636 0.796557 0.051808
O O11 0.699628 0.070555 0.472694
O O12 0.000000 0.000000 0.500000
O O13 0.649199 0.811851 0.187717
O O14 0.385615 0.560515 0.117810
O O15 0.652939 0.804596 0.314759
O O16 0.557472 0.950277 0.956423
O O17 0.500000 0.500000 0.000000
#
# Coordination Sequence:
#
# PCOD8030790 Si02
#       8
#     2   2   2   2   2   2   2   2
#     4  11  27  48  73 104 145 201 236 282 347 442
#     4  12  26  42  71 110 143 176 233 303 363 419
#     4  12  26  46  68 109 149 191 238 288 357 425
#     4  12  26  45  74 110 137 180 240 308 367 417
#     4  11  22  40  68 106 140 181 230 293 357 411
#     4  12  22  39  68 102 144 185 235 295 352 406
#     4  11  23  44  67 103 144 191 239 283 345 423
#     4  11  25  47  74 100 142 182 246 295 353 421
#
# _framework density 23.916594
#
# number of rings (size 3 to 8) (size 9 to 14) (size 15 to 20)
#    0.000    0.500    5.000    3.375    3.500    3.000 
#    0.000    6.250    0.000    0.000    0.000    0.000 
#    0.000    0.000    0.000    0.000    0.000    0.000 
#
# Total GULP energy -198242.943149 kJ/mol
# GULP energy per Si atom -12390.183947 kJ/mol
# Density = 2.386216 g / cm^3
# Si number density = 23.916594 Si / 1000 Ang^3
#
#
#
# Elastic Constant Matrix: (Units=GPa)
#
#
# Indices 1 2 3 4 5 6 
#
# 1 47.3997 15.8619 7.1656 3.2045 8.1105 -11.9247
# 2 15.8619 93.9590 23.8436 7.5853 14.1686 -7.5717
# 3 7.1656 23.8436 101.6097 4.0570 11.2532 -3.1376
# 4 3.2045 7.5853 4.0570 40.0616 -4.8470 2.0200
# 5 8.1105 14.1686 11.2532 -4.8470 18.9082 -6.8028
# 6 -11.9247 -7.5717 -3.1376 2.0200 -6.8028 47.0154
#
#
#
# Elastic Compliance Matrix: (Units=1/GPa)
#
#
# Indices 1 2 3 4 5 6 
#
# 1 0.024621 -0.002371 -0.000072 -0.002688 -0.007681 0.004862
# 2 -0.002371 0.013045 -0.001834 -0.003121 -0.008358 0.000302
# 3 -0.000072 -0.001834 0.010942 -0.001415 -0.005589 -0.000331
# 4 -0.002688 -0.003121 -0.001415 0.027287 0.011020 -0.000857
# 5 -0.007681 -0.008358 -0.005589 0.011020 0.070791 0.006102
# 6 0.004862 0.000302 -0.000331 -0.000857 0.006102 0.023449
#
#
# Mechanical properties :
#
#
# Convention : Reuss Voigt Hill
#
# Bulk Modulus (GPa) = 24.96648 37.41229 31.18939
# Shear Modulus (GPa) = 26.03600 34.27018 30.15309
#
# Velocity S-wave (km/s) = 3.30300 3.78948 3.55457
# Velocity P-wave (km/s) = 5.00080 5.90116 5.46954
#
# Compressibility (1/GPa) = 0.04005370
#
# Stress axis : x y z
#
# Youngs Moduli (GPa) = 40.61629 76.65550 91.38846
#
# Poissons Ratio (x) = 0.18176 0.00656
# Poissons Ratio (y) = 0.09631 0.16765
# Poissons Ratio (z) = 0.00291 0.14062
#
# Static dielectric constant tensor:
#      x y z
#    x 3.765840 -0.387110 0.050020 
#    y -0.387110 4.067080 0.403650 
#    z 0.050020 0.403650 5.234940 
# 
# 
# High freq. dielectric constant tensor:
#      x y z
#    x 1.931240 -0.000260 0.002130 
#    y -0.000260 1.950510 0.007090 
#    z 0.002130 0.007090 1.968180 
# 
# From -- ./inp_files/366901.got.cif
#   From: 2010.06.25/outbox.cif.g09.slc.cpg/sg2_184_cif.got.tgz:366901.got - 2010.06.27 13:26:56.
