data_PCOD8030255
_publ_section_title
;
Structure prediction by ZEFSAII (Michael W. Deem and Ramdas Pophale) SiO2 
 PCOD8030255
Probable space group: P -1
;
_chemical_formula_sum "Si O2"
_cell_formula_units_Z 14
_cell_length_a 9.175008
_cell_length_b 12.400386
_cell_length_c 12.248199
_cell_angle_alpha 140.686502
_cell_angle_beta 49.492599
_cell_angle_gamma 118.763507
_cell_volume 670.616634
_symmetry_space_group_name_H-M "P -1"
_symmetry_group_IT_number 2
_symmetry_cell_setting 'triclinic'
loop_
_space_group_symop_operation_xyz
x,y,z
-x,-y,-z
loop_
_atom_site_type_symbol
_atom_site_label
_atom_site_fract_x
_atom_site_fract_y
_atom_site_fract_z
Si Si1 0.356396 0.133770 0.621497
Si Si2 0.846571 0.656390 0.730143
Si Si3 0.723897 0.966328 0.879279
Si Si4 0.955670 0.440360 0.856194
Si Si5 0.533630 0.492493 0.103959
Si Si6 0.017321 0.220373 0.013356
Si Si7 0.826076 0.897394 0.536094
O O1 0.441041 0.318600 0.716424
O O2 0.169788 0.127588 0.784655
O O3 0.328759 0.078001 0.466023
O O4 0.500000 0.000000 0.500000
O O5 0.798536 0.785862 0.754855
O O6 0.641977 0.584728 0.807092
O O7 0.000000 0.500000 0.500000
O O8 0.924832 0.773305 0.881870
O O9 0.767909 0.975240 0.738815
O O10 0.819851 0.122167 0.019206
O O11 0.500000 0.000000 0.000000
O O12 0.108321 0.297550 0.633283
O O13 0.735358 0.382000 0.926774
O O14 0.996111 0.583398 0.860083
O O15 0.000000 0.500000 0.000000
O O16 0.500000 0.500000 0.000000
O O17 0.000000 0.000000 0.500000
#
# Coordination Sequence:
#
# PCOD8030255 Si02
#       7
#     2   2   2   2   2   2   2
#     4  11  25  40  74 105 135 174 241 289 333 406
#     4  12  28  48  72 102 147 189 227 286 355 429
#     4  12  30  46  70 107 145 187 227 290 358 416
#     4  11  21  43  72 103 134 172 239 293 338 390
#     4  11  24  43  74 101 131 183 237 282 339 409
#     4  11  24  49  69 100 140 188 225 293 344 415
#     4  12  25  44  73 101 138 183 235 286 342 414
#
# _framework density 20.876307000000001
#
# number of rings (size 3 to 8) (size 9 to 14) (size 15 to 20)
#    0.000    0.571    7.143    1.286   10.000    1.143 
#    0.000    2.143    0.000    0.000    0.000    0.000 
#    0.000    0.000    0.000    0.000    0.000    0.000 
#
# Total GULP energy -173449.013955 kJ/mol
# GULP energy per Si atom -12389.215282 kJ/mol
# Density = 2.082879 g / cm^3
# Si number density = 20.876307 Si / 1000 Ang^3
#
#
#
# Elastic Constant Matrix: (Units=GPa)
#
#
# Indices 1 2 3 4 5 6 
#
# 1 166.6713 53.3782 42.1316 -5.0743 8.8496 1.2498
# 2 53.3782 101.6307 26.1785 -11.9973 -2.9663 7.9469
# 3 42.1316 26.1785 60.0856 -7.1213 2.8800 -2.8456
# 4 -5.0743 -11.9973 -7.1213 31.8727 -7.3141 -0.2251
# 5 8.8496 -2.9663 2.8800 -7.3141 51.4837 1.4150
# 6 1.2498 7.9469 -2.8456 -0.2251 1.4150 48.5194
#
#
#
# Elastic Compliance Matrix: (Units=1/GPa)
#
#
# Indices 1 2 3 4 5 6 
#
# 1 0.008238 -0.003412 -0.004363 -0.001304 -0.001557 0.000130
# 2 -0.003412 0.013158 -0.003054 0.004211 0.002177 -0.002290
# 3 -0.004363 -0.003054 0.021480 0.002907 -0.000267 0.001894
# 4 -0.001304 0.004211 0.002907 0.034599 0.005233 -0.000478
# 5 -0.001557 0.002177 -0.000267 0.005233 0.020600 -0.000908
# 6 0.000130 -0.002290 0.001894 -0.000478 -0.000908 0.021117
#
#
# Mechanical properties :
#
#
# Convention : Reuss Voigt Hill
#
# Bulk Modulus (GPa) = 47.13236 63.52934 55.33085
# Shear Modulus (GPa) = 33.80134 40.15511 36.97822
#
# Velocity S-wave (km/s) = 4.02820 4.39050 4.21325
# Velocity P-wave (km/s) = 6.65291 7.49663 7.08733
#
# Compressibility (1/GPa) = 0.02121685
#
# Stress axis : x y z
#
# Youngs Moduli (GPa) = 121.39471 75.99941 46.55494
#
# Poissons Ratio (x) = 0.25933 0.20313
# Poissons Ratio (y) = 0.41422 0.14217
# Poissons Ratio (z) = 0.52968 0.23209
#
# Static dielectric constant tensor:
#      x y z
#    x 3.958230 -0.093590 -0.040900 
#    y -0.093590 3.851200 -0.040220 
#    z -0.040900 -0.040220 3.733250 
# 
# 
# High freq. dielectric constant tensor:
#      x y z
#    x 1.842590 -0.003780 0.007240 
#    y -0.003780 1.822180 0.003090 
#    z 0.007240 0.003090 1.817990 
# 
# From -- ./inp_files/154183.got.cif
#   From: 2010.06.25/outbox.cif.g09.slc.cpg/sg2_78_cif.got.tgz:154183.got - 2010.06.27 13:26:56.
