data_PCOD8030214
_publ_section_title
;
Structure prediction by ZEFSAII (Michael W. Deem and Ramdas Pophale) SiO2 
 PCOD8030214
Probable space group: P -1
;
_chemical_formula_sum "Si O2"
_cell_formula_units_Z 16
_cell_length_a 9.380039
_cell_length_b 14.121567
_cell_length_c 14.523850
_cell_angle_alpha 151.173535
_cell_angle_beta 67.351454
_cell_angle_gamma 124.722087
_cell_volume 730.224773
_symmetry_space_group_name_H-M "P -1"
_symmetry_group_IT_number 2
_symmetry_cell_setting 'triclinic'
loop_
_space_group_symop_operation_xyz
x,y,z
-x,-y,-z
loop_
_atom_site_type_symbol
_atom_site_label
_atom_site_fract_x
_atom_site_fract_y
_atom_site_fract_z
Si Si1 0.404395 0.631710 0.670483
Si Si2 0.526105 0.729717 0.225219
Si Si3 0.402160 0.940988 0.293845
Si Si4 0.851296 0.928646 0.054356
Si Si5 0.879791 0.061205 0.519247
Si Si6 0.511831 0.911892 0.055983
Si Si7 0.300568 0.602380 0.340854
Si Si8 0.993612 0.273760 0.476174
O O1 0.500000 0.500000 0.500000
O O2 0.193183 0.471293 0.565955
O O3 0.492343 0.876854 0.808046
O O4 0.440448 0.690665 0.819999
O O5 0.538263 0.891844 0.277185
O O6 0.357544 0.685967 0.292514
O O7 0.709620 0.834827 0.326681
O O8 0.500000 0.500000 0.000000
O O9 0.206720 0.834369 0.300378
O O10 0.371760 0.825132 0.102921
O O11 0.522903 0.221352 0.490759
O O12 0.714363 0.004791 0.119405
O O13 0.936614 0.051686 0.236207
O O14 0.741935 0.654302 0.858104
O O15 0.000000 0.000000 0.000000
O O16 0.992281 0.220431 0.540195
O O17 0.000000 0.000000 0.500000
O O18 0.127340 0.616530 0.421947
#
# Coordination Sequence:
#
# PCOD8030214 Si02
#       8
#     2   2   2   2   2   2   2   2
#     4  11  28  46  69  92 144 187 220 287 360 406
#     4  11  21  43  70 100 137 185 230 276 342 417
#     4  11  22  44  73 100 142 181 235 282 344 420
#     4  12  26  42  73 104 130 177 249 290 337 402
#     4  11  24  42  65 104 139 180 221 284 350 413
#     4  11  25  47  65 104 131 181 238 274 346 428
#     4  11  22  41  72  97 137 179 222 291 339 399
#     4  12  24  46  68 102 138 175 234 289 342 412
#
# _framework density 21.911061
#
# number of rings (size 3 to 8) (size 9 to 14) (size 15 to 20)
#    0.000    0.750    3.750    3.750    5.250    4.000 
#    2.250    1.250    0.000    0.000    0.000    0.000 
#    0.000    0.000    0.000    0.000    0.000    0.000 
#
# Total GULP energy -198370.270965 kJ/mol
# GULP energy per Si atom -12398.141935 kJ/mol
# Density = 2.186119 g / cm^3
# Si number density = 21.911061 Si / 1000 Ang^3
#
#
#
# Elastic Constant Matrix: (Units=GPa)
#
#
# Indices 1 2 3 4 5 6 
#
# 1 99.5346 24.9751 35.4633 -11.3711 -4.0934 -0.8667
# 2 24.9751 83.1367 48.5774 -22.4533 -0.1539 1.0313
# 3 35.4633 48.5774 142.9192 -21.6263 -7.2156 -3.6104
# 4 -11.3711 -22.4533 -21.6263 46.5847 0.1559 0.1619
# 5 -4.0934 -0.1539 -7.2156 0.1559 29.3711 -3.9667
# 6 -0.8667 1.0313 -3.6104 0.1619 -3.9667 36.3261
#
#
#
# Elastic Compliance Matrix: (Units=1/GPa)
#
#
# Indices 1 2 3 4 5 6 
#
# 1 0.011402 -0.002057 -0.001931 0.000890 0.001134 0.000258
# 2 -0.002057 0.016748 -0.004452 0.005512 -0.001478 -0.001153
# 3 -0.001931 -0.004452 0.009392 0.001732 0.002174 0.001243
# 4 0.000890 0.005512 0.001732 0.025143 0.000441 -0.000027
# 5 0.001134 -0.001478 0.002174 0.000441 0.035288 0.004136
# 6 0.000258 -0.001153 0.001243 -0.000027 0.004136 0.028143
#
#
# Mechanical properties :
#
#
# Convention : Reuss Voigt Hill
#
# Bulk Modulus (GPa) = 48.39950 60.40245 54.40098
# Shear Modulus (GPa) = 33.35932 36.89471 35.12702
#
# Velocity S-wave (km/s) = 3.90614 4.10791 4.00830
# Velocity P-wave (km/s) = 6.51774 7.08003 6.80470
#
# Compressibility (1/GPa) = 0.02066137
#
# Stress axis : x y z
#
# Youngs Moduli (GPa) = 87.70614 59.70911 106.46830
#
# Poissons Ratio (x) = 0.12284 0.20564
# Poissons Ratio (y) = 0.18044 0.47395
# Poissons Ratio (z) = 0.16940 0.26580
#
# Static dielectric constant tensor:
#      x y z
#    x 4.017900 -0.313740 -0.138820 
#    y -0.313740 4.635950 -0.113850 
#    z -0.138820 -0.113850 4.186360 
# 
# 
# High freq. dielectric constant tensor:
#      x y z
#    x 1.849370 0.003880 -0.007150 
#    y 0.003880 1.872110 -0.017750 
#    z -0.007150 -0.017750 1.871780 
# 
# From -- ./inp_files/505764.got.cif
#   From: 2010.06.25/outbox.cif.g09.slc.cpg/sg2_253_cif.got.tgz:505764.got - 2010.06.27 13:26:56.
