data_PCOD8030317
_publ_section_title
;
Structure prediction by ZEFSAII (Michael W. Deem and Ramdas Pophale) SiO2 
 PCOD8030317
Probable space group: P -1
;
_chemical_formula_sum "Si O2"
_cell_formula_units_Z 16
_cell_length_a 13.202541
_cell_length_b 9.568308
_cell_length_c 11.162984
_cell_angle_alpha 108.186836
_cell_angle_beta 34.808046
_cell_angle_gamma 94.469850
_cell_volume 722.223588
_symmetry_space_group_name_H-M "P -1"
_symmetry_group_IT_number 2
_symmetry_cell_setting 'triclinic'
loop_
_space_group_symop_operation_xyz
x,y,z
-x,-y,-z
loop_
_atom_site_type_symbol
_atom_site_label
_atom_site_fract_x
_atom_site_fract_y
_atom_site_fract_z
Si Si1 0.920872 0.331012 0.577272
Si Si2 0.380577 0.687283 0.319143
Si Si3 0.117724 0.752353 0.162812
Si Si4 0.119425 0.007832 0.721292
Si Si5 0.912602 0.527266 0.222949
Si Si6 0.512173 0.559432 0.637577
Si Si7 0.239288 0.324753 0.119146
Si Si8 0.899139 0.807697 0.991212
O O1 0.782702 0.353631 0.603523
O O2 0.873323 0.221070 0.695184
O O3 0.897508 0.496942 0.705526
O O4 0.137516 0.250338 0.298970
O O5 0.461900 0.573462 0.322055
O O6 0.308577 0.866728 0.477729
O O7 0.550770 0.675346 0.057195
O O8 0.974753 0.907044 0.285606
O O9 0.031390 0.613029 0.201978
O O10 0.323652 0.702768 0.888792
O O11 0.172068 0.132116 0.789589
O O12 0.963283 0.943500 0.910358
O O13 0.690209 0.622174 0.476496
O O14 0.000000 0.500000 0.000000
O O15 0.929810 0.355692 0.211934
O O16 0.500000 0.500000 0.500000
O O17 0.255340 0.230694 0.952226
#
# Coordination Sequence:
#
# PCOD8030317 Si02
#       8
#     2   2   2   2   2   2   2   2
#     4  11  24  43  72  99 135 178 236 287 323 399
#     4  12  25  45  71 102 137 183 225 279 346 409
#     4  12  26  43  68 102 135 182 228 281 340 392
#     4  11  25  43  68 100 146 178 214 287 354 405
#     4  12  21  41  67  98 136 176 228 279 327 400
#     4  12  24  40  68 102 134 175 230 281 330 407
#     4  11  23  42  72  99 127 184 237 276 331 405
#     4  11  21  44  69  96 139 183 219 274 354 406
#
# _framework density 22.153803
#
# number of rings (size 3 to 8) (size 9 to 14) (size 15 to 20)
#    0.000    0.500    7.500    0.375    3.500    1.000 
#    2.250    0.625    0.000    0.000    0.000    0.000 
#    0.000    0.000    0.000    0.000    0.000    0.000 
#
# Total GULP energy -198258.838510 kJ/mol
# GULP energy per Si atom -12391.177407 kJ/mol
# Density = 2.210338 g / cm^3
# Si number density = 22.153803 Si / 1000 Ang^3
#
#
#
# Elastic Constant Matrix: (Units=GPa)
#
#
# Indices 1 2 3 4 5 6 
#
# 1 79.4657 29.7267 25.0925 -9.3639 14.2687 -8.6145
# 2 29.7267 64.7751 12.1235 4.1562 1.3259 -4.1340
# 3 25.0925 12.1235 124.5647 -23.0928 -15.7937 -2.0445
# 4 -9.3639 4.1562 -23.0928 35.3912 3.3813 -0.8856
# 5 14.2687 1.3259 -15.7937 3.3813 28.8756 -6.8949
# 6 -8.6145 -4.1340 -2.0445 -0.8856 -6.8949 41.9847
#
#
#
# Elastic Compliance Matrix: (Units=1/GPa)
#
#
# Indices 1 2 3 4 5 6 
#
# 1 0.019672 -0.008335 -0.003696 0.004915 -0.011642 0.001227
# 2 -0.008335 0.019719 -0.000767 -0.005346 0.003580 0.000669
# 3 -0.003696 -0.000767 0.010817 0.005491 0.007379 0.001021
# 4 0.004915 -0.005346 0.005491 0.034072 -0.002934 0.000986
# 5 -0.011642 0.003580 0.007379 -0.002934 0.045988 0.005813
# 6 0.001227 0.000669 0.001021 0.000986 0.005813 0.025161
#
#
# Mechanical properties :
#
#
# Convention : Reuss Voigt Hill
#
# Bulk Modulus (GPa) = 40.62890 44.74344 42.68617
# Shear Modulus (GPa) = 26.42317 34.70781 30.56549
#
# Velocity S-wave (km/s) = 3.45732 3.96242 3.71845
# Velocity P-wave (km/s) = 5.85804 6.41677 6.14376
#
# Compressibility (1/GPa) = 0.02461302
#
# Stress axis : x y z
#
# Youngs Moduli (GPa) = 50.83452 50.71272 92.44311
#
# Poissons Ratio (x) = 0.42267 0.34170
# Poissons Ratio (y) = 0.42369 0.07086
# Poissons Ratio (z) = 0.18790 0.03887
#
# Static dielectric constant tensor:
#      x y z
#    x 4.248450 0.057230 0.456830 
#    y 0.057230 3.881470 -0.033880 
#    z 0.456830 -0.033880 4.459990 
# 
# 
# High freq. dielectric constant tensor:
#      x y z
#    x 1.874460 0.001070 0.013930 
#    y 0.001070 1.852390 -0.013200 
#    z 0.013930 -0.013200 1.873130 
# 
# From -- ./inp_files/447727.got.cif
#   From: 2010.06.25/outbox.cif.g09.slc.cpg/sg2_224_cif.got.tgz:447727.got - 2010.06.27 13:26:56.
