data_PCOD8030020
_publ_section_title
;
Structure prediction by ZEFSAII (Michael W. Deem and Ramdas Pophale) SiO2 
 PCOD8030020
Probable space group: P -1
;
_chemical_formula_sum "Si O2"
_cell_formula_units_Z 14
_cell_length_a 15.515489
_cell_length_b 21.007050
_cell_length_c 9.553006
_cell_angle_alpha 148.771809
_cell_angle_beta 26.898092
_cell_angle_gamma 152.448903
_cell_volume 619.895787
_symmetry_space_group_name_H-M "P -1"
_symmetry_group_IT_number 2
_symmetry_cell_setting 'triclinic'
loop_
_space_group_symop_operation_xyz
x,y,z
-x,-y,-z
loop_
_atom_site_type_symbol
_atom_site_label
_atom_site_fract_x
_atom_site_fract_y
_atom_site_fract_z
Si Si1 0.469282 0.960900 0.309898
Si Si2 0.049901 0.248668 0.350254
Si Si3 0.823704 0.909558 0.339901
Si Si4 0.381074 0.250687 0.410134
Si Si5 0.354127 0.805628 0.735700
Si Si6 0.911573 0.769788 0.434906
Si Si7 0.671808 0.459379 0.616892
O O1 0.207352 0.875867 0.490987
O O2 0.500000 0.000000 0.500000
O O3 0.608619 0.115094 0.317724
O O4 0.557427 0.856592 0.951825
O O5 0.090801 0.390700 0.474446
O O6 0.162046 0.303826 0.444893
O O7 0.178711 0.183591 0.962066
O O8 0.828488 0.838448 0.346436
O O9 0.585158 0.903017 0.673186
O O10 0.040263 0.068317 0.316301
O O11 0.589665 0.377650 0.432243
O O12 0.291450 0.314711 0.540958
O O13 0.304405 0.641093 0.491465
O O14 0.141178 0.785720 0.085802
O O15 0.500000 0.500000 0.000000
#
# Coordination Sequence:
#
# PCOD8030020 Si02
#       7
#     2   2   2   2   2   2   2
#     4  12  27  44  72 109 140 172 237 294 339 404
#     4  12  25  43  73 101 138 188 230 280 342 411
#     4  11  21  41  70  98 136 179 231 279 343 405
#     4  11  25  43  70 100 141 182 225 286 343 406
#     4  11  24  43  69  98 136 183 227 279 349 403
#     4  12  24  40  71 106 136 177 235 286 348 399
#     4  11  25  47  71  95 142 188 230 275 345 418
#
# _framework density 22.584441000000002
#
# number of rings (size 3 to 8) (size 9 to 14) (size 15 to 20)
#    0.000    0.571    5.714    3.857    4.000    2.857 
#    0.000    2.857    0.000    0.000    0.000    0.000 
#    0.000    0.000    0.000    0.000    0.000    0.000 
#
# Total GULP energy -173532.266670 kJ/mol
# GULP energy per Si atom -12395.161905 kJ/mol
# Density = 2.253304 g / cm^3
# Si number density = 22.584441 Si / 1000 Ang^3
#
#
#
# Elastic Constant Matrix: (Units=GPa)
#
#
# Indices 1 2 3 4 5 6 
#
# 1 106.9320 0.4480 58.7629 -2.8963 10.4636 -4.6005
# 2 0.4480 75.9251 36.2843 11.0106 0.2889 -15.5177
# 3 58.7629 36.2843 129.3761 -1.2448 10.6886 -9.3436
# 4 -2.8963 11.0106 -1.2448 28.0692 -3.1443 -2.8680
# 5 10.4636 0.2889 10.6886 -3.1443 33.0808 -5.7593
# 6 -4.6005 -15.5177 -9.3436 -2.8680 -5.7593 28.1824
#
#
#
# Elastic Compliance Matrix: (Units=1/GPa)
#
#
# Indices 1 2 3 4 5 6 
#
# 1 0.013288 0.003512 -0.006768 -0.000363 -0.001829 0.001448
# 2 0.003512 0.018895 -0.006479 -0.006273 0.001708 0.008540
# 3 -0.006768 -0.006479 0.012748 0.002143 -0.001822 -0.000600
# 4 -0.000363 -0.006273 0.002143 0.038723 0.003480 0.001849
# 5 -0.001829 0.001708 -0.001822 0.003480 0.032953 0.007126
# 6 0.001448 0.008540 -0.000600 0.001849 0.007126 0.041867
#
#
# Mechanical properties :
#
#
# Convention : Reuss Voigt Hill
#
# Bulk Modulus (GPa) = 39.27660 55.91373 47.59517
# Shear Modulus (GPa) = 26.81950 32.31570 29.56760
#
# Velocity S-wave (km/s) = 3.44978 3.78681 3.62222
# Velocity P-wave (km/s) = 5.77033 6.62806 6.21402
#
# Compressibility (1/GPa) = 0.02546045
#
# Stress axis : x y z
#
# Youngs Moduli (GPa) = 75.25763 52.92418 78.44182
#
# Poissons Ratio (x) = -0.18585 0.53089
# Poissons Ratio (y) = -0.26427 0.50822
# Poissons Ratio (z) = 0.50934 0.34289
#
# Static dielectric constant tensor:
#      x y z
#    x 4.125400 -0.216920 0.048070 
#    y -0.216920 4.552640 0.059750 
#    z 0.048070 0.059750 4.128090 
# 
# 
# High freq. dielectric constant tensor:
#      x y z
#    x 1.881470 -0.017850 0.005420 
#    y -0.017850 1.883530 -0.002650 
#    z 0.005420 -0.002650 1.896600 
# 
# From -- ./inp_files/199318.got.cif
#   From: 2010.06.25/outbox.cif.g09.slc.cpg/sg2_100_cif.got.tgz:199318.got - 2010.06.27 13:26:56.
