data_PCOD8030494
_publ_section_title
;
Structure prediction by ZEFSAII (Michael W. Deem and Ramdas Pophale) SiO2 
 PCOD8030494
Probable space group: P -1
;
_chemical_formula_sum "Si O2"
_cell_formula_units_Z 16
_cell_length_a 9.760879
_cell_length_b 20.453629
_cell_length_c 17.819782
_cell_angle_alpha 160.368514
_cell_angle_beta 137.106726
_cell_angle_gamma 40.935375
_cell_volume 779.539897
_symmetry_space_group_name_H-M "P -1"
_symmetry_group_IT_number 2
_symmetry_cell_setting 'triclinic'
loop_
_space_group_symop_operation_xyz
x,y,z
-x,-y,-z
loop_
_atom_site_type_symbol
_atom_site_label
_atom_site_fract_x
_atom_site_fract_y
_atom_site_fract_z
Si Si1 0.071903 0.299236 0.507046
Si Si2 0.742872 0.971201 0.574072
Si Si3 0.384472 0.985227 0.826714
Si Si4 0.060965 0.701252 0.008366
Si Si5 0.374217 0.736496 0.700919
Si Si6 0.790632 0.384964 0.863152
Si Si7 0.802295 0.805222 0.261770
Si Si8 0.487969 0.153218 0.433560
O O1 0.163055 0.203957 0.519251
O O2 0.238631 0.220070 0.421772
O O3 0.861014 0.240528 0.339668
O O4 0.020999 0.541970 0.759999
O O5 0.849607 0.913169 0.472849
O O6 0.500000 0.000000 0.500000
O O7 0.788366 0.180841 0.843343
O O8 0.373940 0.819896 0.706476
O O9 0.476608 0.852030 0.646827
O O10 0.157358 0.136581 0.882710
O O11 0.534605 0.123520 0.057155
O O12 0.177433 0.587144 0.005641
O O13 0.500000 0.500000 0.500000
O O14 0.585829 0.313168 0.687391
O O15 0.994327 0.217353 0.732149
O O16 0.757922 0.594274 0.033448
O O17 0.593778 0.932661 0.273073
#
# Coordination Sequence:
#
# PCOD8030494 Si02
#       8
#     2   2   2   2   2   2   2   2
#     4  12  26  40  67 101 134 173 219 275 333 379
#     4  12  23  37  60  93 139 178 211 257 319 394
#     4  11  25  45  74  94 122 171 225 276 330 393
#     4  12  22  39  67  93 130 180 220 262 321 396
#     4  11  25  49  74  97 120 168 229 282 334 394
#     4  11  23  36  61  96 137 175 225 254 318 391
#     4  11  22  36  59  92 134 182 219 259 305 386
#     4  12  25  41  63 100 138 171 212 277 325 386
#
# _framework density 20.524927000000002
#
# number of rings (size 3 to 8) (size 9 to 14) (size 15 to 20)
#    0.000    0.500    7.500    1.125    1.750    2.500 
#    0.000    0.625    0.000    0.000    0.000    0.000 
#    0.000    0.000    0.000    0.000    0.000    0.000 
#
# Total GULP energy -198468.413941 kJ/mol
# GULP energy per Si atom -12404.275871 kJ/mol
# Density = 2.047821 g / cm^3
# Si number density = 20.524927 Si / 1000 Ang^3
#
#
#
# Elastic Constant Matrix: (Units=GPa)
#
#
# Indices 1 2 3 4 5 6 
#
# 1 92.8723 29.1547 31.0103 -5.9347 8.2725 -16.0870
# 2 29.1547 78.0598 27.2751 -5.6158 13.0439 -11.2356
# 3 31.0103 27.2751 100.6257 -3.8674 21.7172 -7.2456
# 4 -5.9347 -5.6158 -3.8674 34.0458 -1.6877 6.4767
# 5 8.2725 13.0439 21.7172 -1.6877 35.3138 -9.3639
# 6 -16.0870 -11.2356 -7.2456 6.4767 -9.3639 38.4424
#
#
#
# Elastic Compliance Matrix: (Units=1/GPa)
#
#
# Indices 1 2 3 4 5 6 
#
# 1 0.013600 -0.003515 -0.003170 0.000683 0.001221 0.004249
# 2 -0.003515 0.015800 -0.002372 0.001240 -0.003030 0.001753
# 3 -0.003170 -0.002372 0.012916 0.000437 -0.006642 -0.001277
# 4 0.000683 0.001240 0.000437 0.030585 -0.000639 -0.004578
# 5 0.001221 -0.003030 -0.006642 -0.000639 0.035067 0.007023
# 6 0.004249 0.001753 -0.001277 -0.004578 0.007023 0.030545
#
#
# Mechanical properties :
#
#
# Convention : Reuss Voigt Hill
#
# Bulk Modulus (GPa) = 41.31724 49.60422 45.46073
# Shear Modulus (GPa) = 30.35941 33.83491 32.09716
#
# Velocity S-wave (km/s) = 3.85014 4.06455 3.95880
# Velocity P-wave (km/s) = 6.31971 6.80057 6.56454
#
# Compressibility (1/GPa) = 0.02420297
#
# Stress axis : x y z
#
# Youngs Moduli (GPa) = 73.52803 63.29049 77.42430
#
# Poissons Ratio (x) = 0.22249 0.24542
# Poissons Ratio (y) = 0.25848 0.18361
# Poissons Ratio (z) = 0.23307 0.15009
#
# Static dielectric constant tensor:
#      x y z
#    x 3.800090 -0.011640 0.024520 
#    y -0.011640 3.473160 0.337850 
#    z 0.024520 0.337850 3.614780 
# 
# 
# High freq. dielectric constant tensor:
#      x y z
#    x 1.802680 -0.004850 0.015690 
#    y -0.004850 1.797600 0.009170 
#    z 0.015690 0.009170 1.811100 
# 
# From -- ./inp_files/216856.got.cif
#   From: 2010.06.25/outbox.cif.g09.slc.cpg/sg2_109_cif.got.tgz:216856.got - 2010.06.27 13:26:56.
