data_PCOD8030223
_publ_section_title
;
Structure prediction by ZEFSAII (Michael W. Deem and Ramdas Pophale) SiO2 
 PCOD8030223
Probable space group: P -1
;
_chemical_formula_sum "Si O2"
_cell_formula_units_Z 16
_cell_length_a 15.283306
_cell_length_b 9.056040
_cell_length_c 11.123403
_cell_angle_alpha 105.861151
_cell_angle_beta 118.995841
_cell_angle_gamma 125.684332
_cell_volume 680.720148
_symmetry_space_group_name_H-M "P -1"
_symmetry_group_IT_number 2
_symmetry_cell_setting 'triclinic'
loop_
_space_group_symop_operation_xyz
x,y,z
-x,-y,-z
loop_
_atom_site_type_symbol
_atom_site_label
_atom_site_fract_x
_atom_site_fract_y
_atom_site_fract_z
Si Si1 0.160404 0.727374 0.256307
Si Si2 0.340856 0.416182 0.763265
Si Si3 0.884238 0.602360 0.494155
Si Si4 0.395752 0.833214 0.587605
Si Si5 0.725974 0.837546 0.986290
Si Si6 0.694627 0.484638 0.986805
Si Si7 0.600535 0.789699 0.655443
Si Si8 0.038061 0.771929 0.388754
O O1 0.276780 0.723733 0.363374
O O2 0.083685 0.680220 0.323480
O O3 0.299935 0.037506 0.364351
O O4 0.000000 0.500000 0.000000
O O5 0.196215 0.335628 0.577376
O O6 0.540193 0.669604 0.884898
O O7 0.232945 0.111841 0.632181
O O8 0.388289 0.538295 0.955595
O O9 0.731935 0.314904 0.410466
O O10 0.921349 0.563826 0.383174
O O11 0.084166 0.877732 0.753455
O O12 0.460778 0.743456 0.594259
O O13 0.572867 0.178794 0.797959
O O14 0.698276 0.615983 0.911714
O O15 0.751110 0.948639 0.897094
O O16 0.909051 0.711880 0.205927
O O17 0.500000 0.500000 0.500000
#
# Coordination Sequence:
#
# PCOD8030223 Si02
#       8
#     2   2   2   2   2   2   2   2
#     4  12  28  50  71 103 148 202 246 301 368 429
#     4  11  21  43  70 113 153 183 248 295 369 448
#     4  11  24  44  72 115 147 187 243 308 374 438
#     4  12  27  49  71 109 152 184 248 317 371 433
#     4  12  23  44  78 106 142 197 252 297 364 440
#     4  11  23  42  76 110 148 192 230 306 385 429
#     4  12  27  49  74 101 142 200 254 297 354 444
#     4  11  23  45  75 110 152 188 248 303 363 449
#
# _framework density 23.504519999999999
#
# number of rings (size 3 to 8) (size 9 to 14) (size 15 to 20)
#    0.000    0.500    3.750    5.250    1.750    3.500 
#    2.250    1.875    0.000    0.000    0.000    0.000 
#    0.000    0.000    0.000    0.000    0.000    0.000 
#
# Total GULP energy -198400.116160 kJ/mol
# GULP energy per Si atom -12400.007260 kJ/mol
# Density = 2.345102 g / cm^3
# Si number density = 23.504520 Si / 1000 Ang^3
#
#
#
# Elastic Constant Matrix: (Units=GPa)
#
#
# Indices 1 2 3 4 5 6 
#
# 1 113.0780 43.3249 49.0372 -0.9344 -5.5194 -5.7846
# 2 43.3249 126.9017 36.3500 -18.5903 4.5099 -6.4796
# 3 49.0372 36.3500 123.8407 -16.0091 6.9929 -14.8838
# 4 -0.9344 -18.5903 -16.0091 44.7350 -5.4122 7.9077
# 5 -5.5194 4.5099 6.9929 -5.4122 31.4702 5.4764
# 6 -5.7846 -6.4796 -14.8838 7.9077 5.4764 32.4100
#
#
#
# Elastic Compliance Matrix: (Units=1/GPa)
#
#
# Indices 1 2 3 4 5 6 
#
# 1 0.012135 -0.003364 -0.004352 -0.002212 0.003288 -0.000521
# 2 -0.003364 0.009887 -0.001019 0.003478 -0.001229 0.000267
# 3 -0.004352 -0.001019 0.011083 0.002313 -0.003399 0.004119
# 4 -0.002212 0.003478 0.002313 0.026079 0.004075 -0.005689
# 5 0.003288 -0.001229 -0.003399 0.004075 0.035411 -0.008198
# 6 -0.000521 0.000267 0.004119 -0.005689 -0.008198 0.035480
#
#
# Mechanical properties :
#
#
# Convention : Reuss Voigt Hill
#
# Bulk Modulus (GPa) = 63.95556 69.02720 66.49138
# Shear Modulus (GPa) = 32.73147 37.39693 35.06420
#
# Velocity S-wave (km/s) = 3.73575 3.99313 3.86658
# Velocity P-wave (km/s) = 6.77324 7.11979 6.94868
#
# Compressibility (1/GPa) = 0.01563586
#
# Stress axis : x y z
#
# Youngs Moduli (GPa) = 82.40551 101.14019 90.22643
#
# Poissons Ratio (x) = 0.34022 0.39266
# Poissons Ratio (y) = 0.27720 0.09194
# Poissons Ratio (z) = 0.35863 0.10306
#
# Static dielectric constant tensor:
#      x y z
#    x 4.550690 0.526710 0.104500 
#    y 0.526710 5.325130 -0.460600 
#    z 0.104500 -0.460600 4.328320 
# 
# 
# High freq. dielectric constant tensor:
#      x y z
#    x 1.925350 -0.001060 0.015400 
#    y -0.001060 1.940930 -0.016200 
#    z 0.015400 -0.016200 1.939400 
# 
# From -- ./inp_files/188883.got.cif
#   From: 2010.06.25/outbox.cif.g09.slc.cpg/sg2_95_cif.got.tgz:188883.got - 2010.06.27 13:26:56.
