data_PCOD8030325
_publ_section_title
;
Structure prediction by ZEFSAII (Michael W. Deem and Ramdas Pophale) SiO2 
 PCOD8030325
Probable space group: P -1
;
_chemical_formula_sum "Si O2"
_cell_formula_units_Z 16
_cell_length_a 9.317180
_cell_length_b 9.496649
_cell_length_c 10.793474
_cell_angle_alpha 118.024446
_cell_angle_beta 116.689823
_cell_angle_gamma 90.512230
_cell_volume 723.331696
_symmetry_space_group_name_H-M "P -1"
_symmetry_group_IT_number 2
_symmetry_cell_setting 'triclinic'
loop_
_space_group_symop_operation_xyz
x,y,z
-x,-y,-z
loop_
_atom_site_type_symbol
_atom_site_label
_atom_site_fract_x
_atom_site_fract_y
_atom_site_fract_z
Si Si1 0.959733 0.767735 0.298843
Si Si2 0.580160 0.671649 0.039230
Si Si3 0.103308 0.136317 0.421808
Si Si4 0.663739 0.702150 0.828902
Si Si5 0.661763 0.177539 0.862102
Si Si6 0.426015 0.189662 0.420891
Si Si7 0.231711 0.618421 0.247856
Si Si8 0.117473 0.943922 0.926714
O O1 0.780514 0.724173 0.146585
O O2 0.935409 0.759876 0.434693
O O3 0.057860 0.636103 0.241993
O O4 0.073953 0.945851 0.371344
O O5 0.508564 0.808432 0.134867
O O6 0.500000 0.500000 0.000000
O O7 0.526645 0.643540 0.861156
O O8 0.294622 0.214333 0.483554
O O9 0.982091 0.152104 0.268635
O O10 0.586540 0.710041 0.667766
O O11 0.777767 0.574692 0.816682
O O12 0.755344 0.883917 0.993039
O O13 0.746228 0.330464 0.867177
O O14 0.614241 0.005659 0.698569
O O15 0.793628 0.179851 0.023443
O O16 0.612427 0.261700 0.570071
O O17 0.000000 0.000000 0.000000
#
# Coordination Sequence:
#
# PCOD8030325 Si02
#       8
#     2   2   2   2   2   2   2   2
#     4  11  26  41  70  99 132 178 227 279 327 399
#     4  12  26  46  64 101 140 174 219 286 337 395
#     4  11  22  43  68 100 139 167 224 286 327 386
#     4  11  25  42  70  95 140 177 221 279 343 398
#     4  11  24  40  73  96 130 184 227 268 338 400
#     4  11  24  43  71  99 135 178 222 280 333 405
#     4  12  24  44  68 102 134 184 225 272 339 409
#     4  11  21  44  70 102 131 174 225 283 328 397
#
# _framework density 22.119868
#
# number of rings (size 3 to 8) (size 9 to 14) (size 15 to 20)
#    0.000    0.750    6.250    1.500    3.500    4.500 
#    0.000    0.625    0.000    0.000    0.000    0.000 
#    0.000    0.000    0.000    0.000    0.000    0.000 
#
# Total GULP energy -198400.909153 kJ/mol
# GULP energy per Si atom -12400.056822 kJ/mol
# Density = 2.206952 g / cm^3
# Si number density = 22.119868 Si / 1000 Ang^3
#
#
#
# Elastic Constant Matrix: (Units=GPa)
#
#
# Indices 1 2 3 4 5 6 
#
# 1 149.7280 35.0346 41.9595 -24.9019 -16.8000 -9.0390
# 2 35.0346 103.5039 23.9163 -27.8127 -8.6281 -3.9891
# 3 41.9595 23.9163 75.3596 -30.7343 -8.3334 -2.2751
# 4 -24.9019 -27.8127 -30.7343 30.8904 3.0709 -5.5174
# 5 -16.8000 -8.6281 -8.3334 3.0709 41.3819 -5.1114
# 6 -9.0390 -3.9891 -2.2751 -5.5174 -5.1114 38.4325
#
#
#
# Elastic Compliance Matrix: (Units=1/GPa)
#
#
# Indices 1 2 3 4 5 6 
#
# 1 0.008761 -0.001010 -0.002636 0.003730 0.002874 0.002717
# 2 -0.001010 0.013617 0.002441 0.014302 0.002314 0.003681
# 3 -0.002636 0.002441 0.024820 0.025373 0.003192 0.005170
# 4 0.003730 0.014302 0.025373 0.075685 0.005906 0.015515
# 5 0.002874 0.002314 0.003192 0.005906 0.026699 0.005504
# 6 0.002717 0.003681 0.005170 0.015515 0.005504 0.030306
#
#
# Mechanical properties :
#
#
# Convention : Reuss Voigt Hill
#
# Bulk Modulus (GPa) = 22.32782 58.93470 40.63126
# Shear Modulus (GPa) = 25.35130 37.31969 31.33550
#
# Velocity S-wave (km/s) = 3.38906 4.11196 3.76789
# Velocity P-wave (km/s) = 5.04284 7.01751 6.11047
#
# Compressibility (1/GPa) = 0.04478717
#
# Stress axis : x y z
#
# Youngs Moduli (GPa) = 114.14635 73.43597 40.28981
#
# Poissons Ratio (x) = 0.07414 0.10622
# Poissons Ratio (y) = 0.11525 -0.09833
# Poissons Ratio (z) = 0.30094 -0.17923
#
# Static dielectric constant tensor:
#      x y z
#    x 4.044210 0.180980 -0.417970 
#    y 0.180980 4.041600 -0.205590 
#    z -0.417970 -0.205590 3.913440 
# 
# 
# High freq. dielectric constant tensor:
#      x y z
#    x 1.872820 0.008300 -0.010940 
#    y 0.008300 1.874600 -0.015620 
#    z -0.010940 -0.015620 1.871140 
# 
# From -- ./inp_files/380087.got.cif
#   From: 2010.06.25/outbox.cif.g09.slc.cpg/sg2_191_cif.got.tgz:380087.got - 2010.06.27 13:26:56.
