data_PCOD8030240
_publ_section_title
;
Structure prediction by ZEFSAII (Michael W. Deem and Ramdas Pophale) SiO2 
 PCOD8030240
Probable space group: P -1
;
_chemical_formula_sum "Si O2"
_cell_formula_units_Z 16
_cell_length_a 8.539774
_cell_length_b 12.575412
_cell_length_c 15.568437
_cell_angle_alpha 40.730399
_cell_angle_beta 137.081413
_cell_angle_gamma 118.118741
_cell_volume 729.592103
_symmetry_space_group_name_H-M "P -1"
_symmetry_group_IT_number 2
_symmetry_cell_setting 'triclinic'
loop_
_space_group_symop_operation_xyz
x,y,z
-x,-y,-z
loop_
_atom_site_type_symbol
_atom_site_label
_atom_site_fract_x
_atom_site_fract_y
_atom_site_fract_z
Si Si1 0.395309 0.527355 0.186268
Si Si2 0.016906 0.943160 0.260511
Si Si3 0.806585 0.636598 0.381360
Si Si4 0.726689 0.563183 0.580645
Si Si5 0.849855 0.055736 0.492158
Si Si6 0.531143 0.804588 0.498008
Si Si7 0.997436 0.701141 0.014919
Si Si8 0.500786 0.382074 0.149464
O O1 0.552411 0.602446 0.273362
O O2 0.379560 0.335723 0.310949
O O3 0.132171 0.628845 0.026644
O O4 0.495999 0.522932 0.134560
O O5 0.022221 0.984885 0.339618
O O6 0.252656 0.843232 0.373222
O O7 0.828229 0.822641 0.246551
O O8 0.952405 0.110694 0.074829
O O9 0.852370 0.617767 0.513473
O O10 0.000000 0.500000 0.500000
O O11 0.500000 0.500000 0.500000
O O12 0.633748 0.732085 0.492322
O O13 0.899214 0.417304 0.791015
O O14 0.744305 0.251491 0.327538
O O15 0.627178 0.968272 0.457881
O O16 0.000000 0.000000 0.500000
O O17 0.722783 0.707631 0.888144
O O18 0.500000 0.500000 0.000000
#
# Coordination Sequence:
#
# PCOD8030240 Si02
#       8
#     2   2   2   2   2   2   2   2
#     4  11  24  45  71  98 135 188 228 280 352 419
#     4  12  24  45  69 105 141 185 231 290 351 409
#     4  12  23  44  75  99 137 188 233 277 346 426
#     4  11  23  47  70 102 135 184 236 278 347 420
#     4  12  26  43  68 104 142 185 234 293 349 411
#     4  11  21  43  71  93 135 183 232 279 344 409
#     4  11  26  44  72 101 140 177 235 287 353 402
#     4  12  27  44  68 103 143 179 234 291 349 412
#
# _framework density 21.930060000000001
#
# number of rings (size 3 to 8) (size 9 to 14) (size 15 to 20)
#    0.000    0.500    6.250    2.250    8.750    0.500 
#    0.000    2.500    0.000    0.000    0.000    0.000 
#    0.000    0.000    0.000    0.000    0.000    0.000 
#
# Total GULP energy -198263.429469 kJ/mol
# GULP energy per Si atom -12391.464342 kJ/mol
# Density = 2.188015 g / cm^3
# Si number density = 21.930060 Si / 1000 Ang^3
#
#
#
# Elastic Constant Matrix: (Units=GPa)
#
#
# Indices 1 2 3 4 5 6 
#
# 1 119.9046 25.8845 38.4987 -5.0751 -7.0299 -25.0623
# 2 25.8845 79.0170 31.2156 -5.6385 -20.5503 -3.4508
# 3 38.4987 31.2156 89.8988 -17.9583 -4.0136 -7.9599
# 4 -5.0751 -5.6385 -17.9583 37.5789 0.9077 -5.4043
# 5 -7.0299 -20.5503 -4.0136 0.9077 36.1315 -1.6030
# 6 -25.0623 -3.4508 -7.9599 -5.4043 -1.6030 44.0694
#
#
#
# Elastic Compliance Matrix: (Units=1/GPa)
#
#
# Indices 1 2 3 4 5 6 
#
# 1 0.011095 -0.001690 -0.003555 0.000328 0.001043 0.005613
# 2 -0.001690 0.017529 -0.005024 -0.000247 0.009081 -0.000196
# 3 -0.003555 -0.005024 0.015701 0.006480 -0.001917 0.001146
# 4 0.000328 -0.000247 0.006480 0.030442 0.000104 0.005075
# 5 0.001043 0.009081 -0.001917 0.000104 0.032925 0.002168
# 6 0.005613 -0.000196 0.001146 0.005075 0.002168 0.026776
#
#
# Mechanical properties :
#
#
# Convention : Reuss Voigt Hill
#
# Bulk Modulus (GPa) = 42.04143 53.33535 47.68839
# Shear Modulus (GPa) = 30.68680 36.43740 33.56210
#
# Velocity S-wave (km/s) = 3.74478 4.08061 3.91630
# Velocity P-wave (km/s) = 6.15712 6.82461 6.49944
#
# Compressibility (1/GPa) = 0.02378606
#
# Stress axis : x y z
#
# Youngs Moduli (GPa) = 90.13368 57.04700 63.68987
#
# Poissons Ratio (x) = 0.09641 0.22644
# Poissons Ratio (y) = 0.15233 0.31999
# Poissons Ratio (z) = 0.32046 0.28661
#
# Static dielectric constant tensor:
#      x y z
#    x 6.968140 -0.814290 0.901280 
#    y -0.814290 1.830540 -0.476420 
#    z 0.901280 -0.476420 4.372180 
# 
# 
# High freq. dielectric constant tensor:
#      x y z
#    x 1.883520 -0.001180 -0.002550 
#    y -0.001180 1.865280 -0.013280 
#    z -0.002550 -0.013280 1.850590 
# 
# From -- ./inp_files/499939.got.cif
#   From: 2010.06.25/outbox.cif.g09.slc.cpg/sg2_250_cif.got.tgz:499939.got - 2010.06.27 13:26:56.
