data_PCOD8030659
_publ_section_title
;
Structure prediction by ZEFSAII (Michael W. Deem and Ramdas Pophale) SiO2 
 PCOD8030659
Probable space group: P -1
;
_chemical_formula_sum "Si O2"
_cell_formula_units_Z 16
_cell_length_a 9.524987
_cell_length_b 15.631511
_cell_length_c 14.195288
_cell_angle_alpha 139.424052
_cell_angle_beta 106.645897
_cell_angle_gamma 43.430354
_cell_volume 761.064973
_symmetry_space_group_name_H-M "P -1"
_symmetry_group_IT_number 2
_symmetry_cell_setting 'triclinic'
loop_
_space_group_symop_operation_xyz
x,y,z
-x,-y,-z
loop_
_atom_site_type_symbol
_atom_site_label
_atom_site_fract_x
_atom_site_fract_y
_atom_site_fract_z
Si Si1 0.761428 0.852614 0.195063
Si Si2 0.323248 0.499347 0.742010
Si Si3 0.964330 0.731384 0.455431
Si Si4 0.199683 0.328962 0.477292
Si Si5 0.057918 0.850700 0.143786
Si Si6 0.864235 0.622276 0.188448
Si Si7 0.595382 0.223307 0.740799
Si Si8 0.375315 0.617971 0.475854
O O1 0.755675 0.834401 0.292161
O O2 0.966798 0.807049 0.162802
O O3 0.490144 0.094014 0.301345
O O4 0.859774 0.632866 0.004954
O O5 0.187358 0.462223 0.657345
O O6 0.562083 0.297225 0.688338
O O7 0.425821 0.485578 0.652681
O O8 0.123053 0.740240 0.960891
O O9 0.875743 0.756876 0.564456
O O10 0.925309 0.622298 0.304955
O O11 0.252386 0.571296 0.378149
O O12 0.804325 0.959082 0.563288
O O13 0.000000 0.500000 0.500000
O O14 0.317168 0.721817 0.128166
O O15 0.840283 0.118295 0.319815
O O16 0.671014 0.641557 0.163284
O O17 0.500000 0.500000 0.500000
#
# Coordination Sequence:
#
# PCOD8030659 Si02
#       8
#     2   2   2   2   2   2   2   2
#     4  11  23  40  66 101 137 168 218 281 333 401
#     4  12  24  44  71  97 132 178 222 283 343 397
#     4  11  23  41  63  96 130 176 226 273 343 394
#     4  12  24  44  68  93 136 185 229 277 332 397
#     4  11  25  42  69 103 134 173 227 273 343 406
#     4  11  22  39  66  99 137 167 217 278 345 400
#     4  11  22  39  68 100 140 170 219 282 346 408
#     4  11  27  47  65  93 136 180 233 280 325 406
#
# _framework density 21.023171999999999
#
# number of rings (size 3 to 8) (size 9 to 14) (size 15 to 20)
#    0.000    0.750    5.000    2.250    1.750    2.500 
#    2.250    1.250    0.000    0.000    0.000    0.000 
#    0.000    0.000    0.000    0.000    0.000    0.000 
#
# Total GULP energy -198220.286557 kJ/mol
# GULP energy per Si atom -12388.767910 kJ/mol
# Density = 2.097532 g / cm^3
# Si number density = 21.023172 Si / 1000 Ang^3
#
#
#
# Elastic Constant Matrix: (Units=GPa)
#
#
# Indices 1 2 3 4 5 6 
#
# 1 130.4725 48.9429 40.1647 -1.7299 -10.2798 8.2639
# 2 48.9429 138.6307 55.1727 5.8483 -0.2275 6.5400
# 3 40.1647 55.1727 82.2878 5.1376 -1.5314 -7.6294
# 4 -1.7299 5.8483 5.1376 23.5099 5.4119 -4.6345
# 5 -10.2798 -0.2275 -1.5314 5.4119 21.9044 -7.4485
# 6 8.2639 6.5400 -7.6294 -4.6345 -7.4485 36.1495
#
#
#
# Elastic Compliance Matrix: (Units=1/GPa)
#
#
# Indices 1 2 3 4 5 6 
#
# 1 0.009953 -0.001991 -0.003681 0.000849 0.003554 -0.001851
# 2 -0.001991 0.010724 -0.006479 -0.001610 -0.002063 -0.003484
# 3 -0.003681 -0.006479 0.019040 -0.002094 0.002165 0.006210
# 4 0.000849 -0.001610 -0.002094 0.046466 -0.010040 0.003544
# 5 0.003554 -0.002063 0.002165 -0.010040 0.053229 0.009698
# 6 -0.001851 -0.003484 0.006210 0.003544 0.009698 0.032480
#
#
# Mechanical properties :
#
#
# Convention : Reuss Voigt Hill
#
# Bulk Modulus (GPa) = 64.87788 71.10570 67.99179
# Shear Modulus (GPa) = 24.83437 30.12012 27.47725
#
# Velocity S-wave (km/s) = 3.44071 3.78922 3.61917
# Velocity P-wave (km/s) = 6.83461 7.28287 7.06230
#
# Compressibility (1/GPa) = 0.01541357
#
# Stress axis : x y z
#
# Youngs Moduli (GPa) = 100.46930 93.24921 52.52015
#
# Poissons Ratio (x) = 0.18571 0.19335
# Poissons Ratio (y) = 0.20008 0.34028
# Poissons Ratio (z) = 0.36987 0.60417
#
# Static dielectric constant tensor:
#      x y z
#    x 4.013890 -0.014170 0.094040 
#    y -0.014170 3.896990 0.034350 
#    z 0.094040 0.034350 3.898240 
# 
# 
# High freq. dielectric constant tensor:
#      x y z
#    x 1.838070 0.009180 0.007440 
#    y 0.009180 1.816880 0.004390 
#    z 0.007440 0.004390 1.819750 
# 
# From -- ./inp_files/505605.got.cif
#   From: 2010.06.25/outbox.cif.g09.slc.cpg/sg2_253_cif.got.tgz:505605.got - 2010.06.27 13:26:56.
