data_PCOD8030722
_publ_section_title
;
Structure prediction by ZEFSAII (Michael W. Deem and Ramdas Pophale) SiO2 
 PCOD8030722
Probable space group: P -1
;
_chemical_formula_sum "Si O2"
_cell_formula_units_Z 16
_cell_length_a 9.328550
_cell_length_b 23.165667
_cell_length_c 8.537340
_cell_angle_alpha 32.432675
_cell_angle_beta 128.872681
_cell_angle_gamma 118.343290
_cell_volume 763.632944
_symmetry_space_group_name_H-M "P -1"
_symmetry_group_IT_number 2
_symmetry_cell_setting 'triclinic'
loop_
_space_group_symop_operation_xyz
x,y,z
-x,-y,-z
loop_
_atom_site_type_symbol
_atom_site_label
_atom_site_fract_x
_atom_site_fract_y
_atom_site_fract_z
Si Si1 0.609539 0.193033 0.382308
Si Si2 0.128102 0.944870 0.345198
Si Si3 0.392998 0.600928 0.282696
Si Si4 0.986718 0.810091 0.810438
Si Si5 0.703987 0.955837 0.486412
Si Si6 0.650301 0.190238 0.769306
Si Si7 0.420960 0.397189 0.260219
Si Si8 0.977956 0.594569 0.142854
O O1 0.725689 0.141410 0.437276
O O2 0.432913 0.131954 0.418288
O O3 0.707371 0.185367 0.636785
O O4 0.566813 0.314977 0.016463
O O5 0.994102 0.882492 0.497540
O O6 0.238190 0.025129 0.338636
O O7 0.000000 0.000000 0.000000
O O8 0.500000 0.500000 0.500000
O O9 0.499370 0.620809 0.469775
O O10 0.171176 0.598123 0.170796
O O11 0.883488 0.894259 0.667977
O O12 0.906520 0.702266 0.949071
O O13 0.186838 0.768365 0.114778
O O14 0.618796 0.069658 0.084732
O O15 0.475967 0.283773 0.462243
O O16 0.500000 0.500000 0.000000
O O17 0.194891 0.420250 0.057067
O O18 0.000000 0.500000 0.500000
#
# Coordination Sequence:
#
# PCOD8030722 Si02
#       8
#     2   2   2   2   2   2   2   2
#     4  12  24  42  63 101 138 170 226 294 337 397
#     4  11  22  40  63  94 138 175 220 284 340 394
#     4  12  27  48  69 105 142 169 230 295 348 404
#     4  11  22  44  67  98 136 181 237 273 333 423
#     4  11  24  40  66  99 135 189 232 270 340 418
#     4  11  22  43  70  97 138 186 234 275 337 415
#     4  12  24  47  75 103 135 185 231 285 340 416
#     4  12  25  46  77  99 132 185 231 280 347 417
#
# _framework density 20.952475
#
# number of rings (size 3 to 8) (size 9 to 14) (size 15 to 20)
#    0.000    0.500    3.750    6.000    1.750    2.500 
#    2.250    0.000    0.000    0.000    0.000    0.000 
#    0.000    0.000    0.000    0.000    0.000    0.000 
#
# Total GULP energy -198271.603116 kJ/mol
# GULP energy per Si atom -12391.975195 kJ/mol
# Density = 2.090479 g / cm^3
# Si number density = 20.952475 Si / 1000 Ang^3
#
#
#
# Elastic Constant Matrix: (Units=GPa)
#
#
# Indices 1 2 3 4 5 6 
#
# 1 94.4946 45.0381 46.6333 7.0812 2.4419 -6.7269
# 2 45.0381 103.1879 54.5229 4.9663 -6.8336 0.2998
# 3 46.6333 54.5229 126.6419 5.8339 -9.2138 6.8483
# 4 7.0812 4.9663 5.8339 46.3127 -9.5505 1.9078
# 5 2.4419 -6.8336 -9.2138 -9.5505 46.4256 -3.5339
# 6 -6.7269 0.2998 6.8483 1.9078 -3.5339 46.4837
#
#
#
# Elastic Compliance Matrix: (Units=1/GPa)
#
#
# Indices 1 2 3 4 5 6 
#
# 1 0.015060 -0.004655 -0.003772 -0.001937 -0.002422 0.002661
# 2 -0.004655 0.014053 -0.004229 0.000044 0.001481 -0.000030
# 3 -0.003772 -0.004229 0.011338 0.000033 0.001676 -0.002063
# 4 -0.001937 0.000044 0.000033 0.022897 0.004759 -0.000863
# 5 -0.002422 0.001481 0.001676 0.004759 0.023270 0.000967
# 6 0.002661 -0.000030 -0.002063 -0.000863 0.000967 0.022311
#
#
# Mechanical properties :
#
#
# Convention : Reuss Voigt Hill
#
# Bulk Modulus (GPa) = 66.05409 68.52367 67.28888
# Shear Modulus (GPa) = 35.89678 39.71973 37.80826
#
# Velocity S-wave (km/s) = 4.14363 4.35869 4.25252
# Velocity P-wave (km/s) = 7.38153 7.62275 7.50311
#
# Compressibility (1/GPa) = 0.01513911
#
# Stress axis : x y z
#
# Youngs Moduli (GPa) = 66.40088 71.15777 88.19877
#
# Poissons Ratio (x) = 0.33123 0.33272
# Poissons Ratio (y) = 0.30909 0.37299
# Poissons Ratio (z) = 0.25049 0.30092
#
# Static dielectric constant tensor:
#      x y z
#    x 4.261550 -0.188990 0.039330 
#    y -0.188990 4.232860 -0.101570 
#    z 0.039330 -0.101570 3.947430 
# 
# 
# High freq. dielectric constant tensor:
#      x y z
#    x 1.820020 -0.008540 0.002740 
#    y -0.008540 1.833800 -0.004610 
#    z 0.002740 -0.004610 1.839980 
# 
# From -- ./inp_files/225867.got.cif
#   From: 2010.06.25/outbox.cif.g09.slc.cpg/sg2_113_cif.got.tgz:225867.got - 2010.06.27 13:26:56.
