data_PCOD8030877
_publ_section_title
;
Structure prediction by ZEFSAII (Michael W. Deem and Ramdas Pophale) SiO2 
 PCOD8030877
Probable space group: P -1
;
_chemical_formula_sum "Si O2"
_cell_formula_units_Z 16
_cell_length_a 21.648023
_cell_length_b 9.804373
_cell_length_c 11.563289
_cell_angle_alpha 50.918179
_cell_angle_beta 30.481941
_cell_angle_gamma 35.739950
_cell_volume 707.160512
_symmetry_space_group_name_H-M "P -1"
_symmetry_group_IT_number 2
_symmetry_cell_setting 'triclinic'
loop_
_space_group_symop_operation_xyz
x,y,z
-x,-y,-z
loop_
_atom_site_type_symbol
_atom_site_label
_atom_site_fract_x
_atom_site_fract_y
_atom_site_fract_z
Si Si1 0.227276 0.485614 0.471538
Si Si2 0.891281 0.773127 0.175697
Si Si3 0.424364 0.205862 0.921347
Si Si4 0.671667 0.415759 0.957922
Si Si5 0.253674 0.299501 0.915042
Si Si6 0.659298 0.238060 0.432762
Si Si7 0.880574 0.890210 0.873870
Si Si8 0.639038 0.509622 0.511402
O O1 0.237336 0.263505 0.577640
O O2 0.351532 0.444256 0.196243
O O3 0.257517 0.545852 0.513691
O O4 0.036825 0.724729 0.623202
O O5 0.805826 0.040933 0.212550
O O6 0.930286 0.753719 0.988229
O O7 0.067538 0.564895 0.065765
O O8 0.309096 0.233013 0.994796
O O9 0.593015 0.117814 0.646062
O O10 0.312406 0.466767 0.023657
O O11 0.500000 0.000000 0.000000
O O12 0.835397 0.138066 0.826860
O O13 0.531073 0.409852 0.213816
O O14 0.384362 0.291498 0.635625
O O15 0.263082 0.091755 0.961051
O O16 0.500000 0.500000 0.500000
O O17 0.734773 0.275805 0.398163
#
# Coordination Sequence:
#
# PCOD8030877 Si02
#       8
#     2   2   2   2   2   2   2   2
#     4  11  22  45  64  96 136 173 220 270 330 393
#     4  11  22  42  71  97 132 177 219 272 331 395
#     4  11  25  46  65  93 136 175 219 277 332 395
#     4  11  26  41  65  96 132 178 216 272 335 383
#     4  11  23  43  68  99 132 172 227 272 330 395
#     4  11  23  40  63  99 135 171 220 270 323 393
#     4  11  23  41  67 100 133 170 221 275 325 396
#     4  11  22  41  64  98 130 168 224 269 324 390
#
# _framework density 22.625699000000001
#
# number of rings (size 3 to 8) (size 9 to 14) (size 15 to 20)
#    0.000    1.000    3.750    3.750    0.000    6.000 
#    0.000    5.625    0.000    0.000    0.000    0.000 
#    0.000    0.000    0.000    0.000    0.000    0.000 
#
# Total GULP energy -198273.596400 kJ/mol
# GULP energy per Si atom -12392.099775 kJ/mol
# Density = 2.257420 g / cm^3
# Si number density = 22.625699 Si / 1000 Ang^3
#
#
#
# Elastic Constant Matrix: (Units=GPa)
#
#
# Indices 1 2 3 4 5 6 
#
# 1 159.8116 31.0915 35.9691 -9.7851 2.7754 4.6639
# 2 31.0915 93.6632 18.1085 -1.4837 3.9790 7.3902
# 3 35.9691 18.1085 92.7962 -14.2868 14.0149 -1.8034
# 4 -9.7851 -1.4837 -14.2868 24.1094 2.8145 12.1665
# 5 2.7754 3.9790 14.0149 2.8145 24.0244 -1.1831
# 6 4.6639 7.3902 -1.8034 12.1665 -1.1831 37.5463
#
#
#
# Elastic Compliance Matrix: (Units=1/GPa)
#
#
# Indices 1 2 3 4 5 6 
#
# 1 0.007283 -0.001869 -0.002223 0.002139 0.000449 -0.001323
# 2 -0.001869 0.011804 -0.001389 0.000454 -0.001097 -0.002339
# 3 -0.002223 -0.001389 0.014845 0.010076 -0.009467 -0.002301
# 4 0.002139 0.000454 0.010076 0.059969 -0.014198 -0.019751
# 5 0.000449 -0.001097 -0.009467 -0.014198 0.049229 0.005857
# 6 -0.001323 -0.002339 -0.002301 -0.019751 0.005857 0.033733
#
#
# Mechanical properties :
#
#
# Convention : Reuss Voigt Hill
#
# Bulk Modulus (GPa) = 43.53255 57.40102 50.46679
# Shear Modulus (GPa) = 25.57818 34.54281 30.06050
#
# Velocity S-wave (km/s) = 3.36593 3.91155 3.64895
# Velocity P-wave (km/s) = 5.86413 6.76943 6.33298
#
# Compressibility (1/GPa) = 0.02297132
#
# Stress axis : x y z
#
# Youngs Moduli (GPa) = 137.30781 84.71855 67.36213
#
# Poissons Ratio (x) = 0.15831 0.14971
# Poissons Ratio (y) = 0.25659 0.09357
# Poissons Ratio (z) = 0.30517 0.11768
#
# Static dielectric constant tensor:
#      x y z
#    x 4.048150 0.276270 -0.148370 
#    y 0.276270 3.963310 -0.365940 
#    z -0.148370 -0.365940 3.796800 
# 
# 
# High freq. dielectric constant tensor:
#      x y z
#    x 1.890430 0.022830 0.008250 
#    y 0.022830 1.889240 -0.011700 
#    z 0.008250 -0.011700 1.893930 
# 
# From -- ./inp_files/469813.got.cif
#   From: 2010.06.25/outbox.cif.g09.slc.cpg/sg2_235_cif.got.tgz:469813.got - 2010.06.27 13:26:56.
