data_PCOD8030581
_publ_section_title
;
Structure prediction by ZEFSAII (Michael W. Deem and Ramdas Pophale) SiO2 
 PCOD8030581
Probable space group: P -1
;
_chemical_formula_sum "Si O2"
_cell_formula_units_Z 14
_cell_length_a 9.524442
_cell_length_b 20.277949
_cell_length_c 11.563268
_cell_angle_alpha 30.574915
_cell_angle_beta 123.024748
_cell_angle_gamma 142.917922
_cell_volume 607.292789
_symmetry_space_group_name_H-M "P -1"
_symmetry_group_IT_number 2
_symmetry_cell_setting 'triclinic'
loop_
_space_group_symop_operation_xyz
x,y,z
-x,-y,-z
loop_
_atom_site_type_symbol
_atom_site_label
_atom_site_fract_x
_atom_site_fract_y
_atom_site_fract_z
Si Si1 0.613647 0.762765 0.298555
Si Si2 0.839457 0.305872 0.145352
Si Si3 0.623419 0.421660 0.292002
Si Si4 0.262218 0.017881 0.344485
Si Si5 0.754587 0.789562 0.767236
Si Si6 0.068856 0.501085 0.333615
Si Si7 0.967819 0.155868 0.738390
O O1 0.598810 0.713725 0.501751
O O2 0.315320 0.616784 0.350298
O O3 0.734353 0.717644 0.342319
O O4 0.818650 0.005166 0.010366
O O5 0.551138 0.141878 0.313815
O O6 0.933079 0.211045 0.345589
O O7 0.844735 0.343915 0.956521
O O8 0.000000 0.500000 0.000000
O O9 0.495150 0.325389 0.252952
O O10 0.828473 0.427508 0.403576
O O11 0.776174 0.649607 0.013375
O O12 0.249267 0.149236 0.200432
O O13 0.206529 0.000045 0.211171
O O14 0.000000 0.000000 0.500000
O O15 0.965103 0.308018 0.519103
#
# Coordination Sequence:
#
# PCOD8030581 Si02
#       7
#     2   2   2   2   2   2   2
#     4  11  26  46  65  98 140 184 231 278 342 405
#     4  11  22  38  66 102 134 166 218 279 341 396
#     4  11  27  45  70 101 138 184 229 279 340 411
#     4  11  23  40  69 101 132 174 220 285 336 398
#     4  11  25  45  70 100 139 180 228 277 346 409
#     4  12  24  43  70 101 137 178 228 285 343 407
#     4  11  25  44  70 102 133 180 233 284 340 405
#
# _framework density 23.053132000000002
#
# number of rings (size 3 to 8) (size 9 to 14) (size 15 to 20)
#    0.000    0.857    2.857    3.429    4.000    7.429 
#    0.000    0.000    0.000    0.000    0.000    0.000 
#    0.000    0.000    0.000    0.000    0.000    0.000 
#
# Total GULP energy -173528.955369 kJ/mol
# GULP energy per Si atom -12394.925383 kJ/mol
# Density = 2.300066 g / cm^3
# Si number density = 23.053132 Si / 1000 Ang^3
#
#
#
# Elastic Constant Matrix: (Units=GPa)
#
#
# Indices 1 2 3 4 5 6 
#
# 1 128.0293 34.5062 58.0567 -9.5702 14.7764 5.2577
# 2 34.5062 97.6639 18.8683 -6.4444 9.6673 3.8051
# 3 58.0567 18.8683 133.3103 0.2924 5.5236 -6.5034
# 4 -9.5702 -6.4444 0.2924 31.9569 -4.0607 -0.5819
# 5 14.7764 9.6673 5.5236 -4.0607 38.9098 3.4936
# 6 5.2577 3.8051 -6.5034 -0.5819 3.4936 37.2771
#
#
#
# Elastic Compliance Matrix: (Units=1/GPa)
#
#
# Indices 1 2 3 4 5 6 
#
# 1 0.011069 -0.002569 -0.004446 0.002485 -0.002513 -0.001800
# 2 -0.002569 0.011516 -0.000483 0.001339 -0.001612 -0.000725
# 3 -0.004446 -0.000483 0.009619 -0.001464 0.000081 0.002324
# 4 0.002485 0.001339 -0.001464 0.032614 0.002376 -0.000456
# 5 -0.002513 -0.001612 0.000081 0.002376 0.027472 -0.002004
# 6 -0.001800 -0.000725 0.002324 -0.000456 -0.002004 0.027740
#
#
# Mechanical properties :
#
#
# Convention : Reuss Voigt Hill
#
# Bulk Modulus (GPa) = 58.10959 64.65178 61.38069
# Shear Modulus (GPa) = 35.52096 38.13358 36.82727
#
# Velocity S-wave (km/s) = 3.92960 4.07155 4.00120
# Velocity P-wave (km/s) = 6.77130 7.08583 6.93035
#
# Compressibility (1/GPa) = 0.01720886
#
# Stress axis : x y z
#
# Youngs Moduli (GPa) = 90.34229 86.83303 103.95963
#
# Poissons Ratio (x) = 0.22307 0.46222
# Poissons Ratio (y) = 0.23209 0.05018
# Poissons Ratio (z) = 0.40167 0.04192
#
# Static dielectric constant tensor:
#      x y z
#    x 3.817210 0.197580 -0.874150 
#    y 0.197580 4.066100 0.339660 
#    z -0.874150 0.339660 3.308410 
# 
# 
# High freq. dielectric constant tensor:
#      x y z
#    x 1.906990 0.004890 0.002640 
#    y 0.004890 1.908410 0.001340 
#    z 0.002640 0.001340 1.925730 
# 
# From -- ./inp_files/98666.got.cif
#   From: 2010.06.25/outbox.cif.g09.slc.cpg/sg2_50_cif.got.tgz:98666.got - 2010.06.27 13:26:56.
