data_PCOD8030188
_publ_section_title
;
Structure prediction by ZEFSAII (Michael W. Deem and Ramdas Pophale) SiO2 
 PCOD8030188
Probable space group: P -1
;
_chemical_formula_sum "Si O2"
_cell_formula_units_Z 14
_cell_length_a 12.316742
_cell_length_b 9.600248
_cell_length_c 9.031747
_cell_angle_alpha 72.136574
_cell_angle_beta 54.633007
_cell_angle_gamma 47.950646
_cell_volume 640.880058
_symmetry_space_group_name_H-M "P -1"
_symmetry_group_IT_number 2
_symmetry_cell_setting 'triclinic'
loop_
_space_group_symop_operation_xyz
x,y,z
-x,-y,-z
loop_
_atom_site_type_symbol
_atom_site_label
_atom_site_fract_x
_atom_site_fract_y
_atom_site_fract_z
Si Si1 0.899080 0.672193 0.908413
Si Si2 0.568892 0.038462 0.197126
Si Si3 0.591864 0.145748 0.674736
Si Si4 0.100055 0.038020 0.300783
Si Si5 0.868439 0.207766 0.900324
Si Si6 0.663826 0.628383 0.951854
Si Si7 0.248643 0.912821 0.722967
O O1 0.005792 0.738088 0.734015
O O2 0.825093 0.624516 0.850175
O O3 0.000000 0.500000 0.000000
O O4 0.748113 0.863703 0.046062
O O5 0.472811 0.217636 0.106933
O O6 0.609281 0.089716 0.303173
O O7 0.449749 0.979636 0.331078
O O8 0.668037 0.192688 0.466491
O O9 0.731969 0.019333 0.731041
O O10 0.426324 0.331228 0.827919
O O11 0.158224 0.907326 0.153461
O O12 0.000000 0.000000 0.500000
O O13 0.740324 0.427561 0.887242
O O14 0.807421 0.196223 0.114098
O O15 0.066941 0.125791 0.771092
#
# Coordination Sequence:
#
# PCOD8030188 Si02
#       7
#     2   2   2   2   2   2   2
#     4  11  22  42  73  99 132 184 231 270 337 410
#     4  11  21  43  67  96 136 179 223 279 343 396
#     4  11  22  41  68  97 131 178 228 281 331 396
#     4  12  23  45  71 100 137 176 227 284 337 400
#     4  11  25  42  68 100 136 184 219 278 349 402
#     4  11  23  42  71  99 132 179 228 273 342 406
#     4  11  23  41  66  95 141 175 223 277 338 395
#
# _framework density 21.844961999999999
#
# number of rings (size 3 to 8) (size 9 to 14) (size 15 to 20)
#    0.000    0.857    5.714    2.143    2.000    2.857 
#    0.000    8.571    0.000    0.000    0.000    0.000 
#    0.000    0.000    0.000    0.000    0.000    0.000 
#
# Total GULP energy -173500.566143 kJ/mol
# GULP energy per Si atom -12392.897582 kJ/mol
# Density = 2.179524 g / cm^3
# Si number density = 21.844962 Si / 1000 Ang^3
#
#
#
# Elastic Constant Matrix: (Units=GPa)
#
#
# Indices 1 2 3 4 5 6 
#
# 1 138.3239 49.7333 27.6406 -3.9111 9.5908 -6.8221
# 2 49.7333 156.3762 42.1854 -9.0696 0.6403 -6.5296
# 3 27.6406 42.1854 105.5929 -16.5390 0.4448 2.7372
# 4 -3.9111 -9.0696 -16.5390 25.6692 3.3995 0.7082
# 5 9.5908 0.6403 0.4448 3.3995 33.1993 -3.4901
# 6 -6.8221 -6.5296 2.7372 0.7082 -3.4901 31.5412
#
#
#
# Elastic Compliance Matrix: (Units=1/GPa)
#
#
# Indices 1 2 3 4 5 6 
#
# 1 0.008541 -0.002295 -0.001360 -0.000121 -0.002262 0.001243
# 2 -0.002295 0.007891 -0.002478 0.000721 0.000618 0.001404
# 3 -0.001360 -0.002478 0.011929 0.006743 -0.000626 -0.002063
# 4 -0.000121 0.000721 0.006743 0.044230 -0.004807 -0.001987
# 5 -0.002262 0.000618 -0.000626 -0.004807 0.031610 0.003299
# 6 0.001243 0.001404 -0.002063 -0.001987 0.003299 0.032853
#
#
# Mechanical properties :
#
#
# Convention : Reuss Voigt Hill
#
# Bulk Modulus (GPa) = 62.13493 71.04572 66.59033
# Shear Modulus (GPa) = 32.32376 36.79753 34.56064
#
# Velocity S-wave (km/s) = 3.85085 4.10870 3.98186
# Velocity P-wave (km/s) = 6.94819 7.42306 7.18955
#
# Compressibility (1/GPa) = 0.01609401
#
# Stress axis : x y z
#
# Youngs Moduli (GPa) = 117.07950 126.72347 83.83213
#
# Poissons Ratio (x) = 0.29086 0.11405
# Poissons Ratio (y) = 0.26873 0.20772
# Poissons Ratio (z) = 0.15928 0.31400
#
# Static dielectric constant tensor:
#      x y z
#    x 4.194470 0.020820 -0.075270 
#    y 0.020820 3.884610 -0.188690 
#    z -0.075270 -0.188690 3.945010 
# 
# 
# High freq. dielectric constant tensor:
#      x y z
#    x 1.878020 -0.000020 0.000630 
#    y -0.000020 1.836960 -0.014220 
#    z 0.000630 -0.014220 1.850000 
# 
# From -- ./inp_files/184885.got.cif
#   From: 2010.06.25/outbox.cif.g09.slc.cpg/sg2_93_cif.got.tgz:184885.got - 2010.06.27 13:26:56.
