data_PCOD8030552
_publ_section_title
;
Structure prediction by ZEFSAII (Michael W. Deem and Ramdas Pophale) SiO2 
 PCOD8030552
Probable space group: P -1
;
_chemical_formula_sum "Si O2"
_cell_formula_units_Z 14
_cell_length_a 10.800567
_cell_length_b 9.831679
_cell_length_c 7.962513
_cell_angle_alpha 91.950083
_cell_angle_beta 121.668251
_cell_angle_gamma 85.300531
_cell_volume 717.165247
_symmetry_space_group_name_H-M "P -1"
_symmetry_group_IT_number 2
_symmetry_cell_setting 'triclinic'
loop_
_space_group_symop_operation_xyz
x,y,z
-x,-y,-z
loop_
_atom_site_type_symbol
_atom_site_label
_atom_site_fract_x
_atom_site_fract_y
_atom_site_fract_z
Si Si1 0.274403 0.783481 0.860159
Si Si2 0.857505 0.726764 0.534133
Si Si3 0.985613 0.039355 0.183246
Si Si4 0.864498 0.483239 0.783240
Si Si5 0.914345 0.234834 0.577325
Si Si6 0.421060 0.309832 0.851326
Si Si7 0.342365 0.517760 0.070844
O O1 0.180030 0.902014 0.897086
O O2 0.232564 0.785294 0.633835
O O3 0.447875 0.802287 0.004822
O O4 0.238929 0.636668 0.908711
O O5 0.859327 0.587777 0.632012
O O6 0.694479 0.762322 0.347717
O O7 0.899580 0.849732 0.687626
O O8 0.969431 0.701872 0.459594
O O9 0.017869 0.910434 0.318929
O O10 0.000000 0.000000 0.000000
O O11 0.876628 0.330625 0.712638
O O12 0.715829 0.506008 0.785073
O O13 0.000000 0.500000 0.000000
O O14 0.492136 0.432959 0.804027
O O15 0.340472 0.376254 0.961154
#
# Coordination Sequence:
#
# PCOD8030552 Si02
#       7
#     2   2   2   2   2   2   2
#     4   9  18  38  59  81 112 163 191 229 296 359
#     4  11  22  38  61  90 118 153 206 241 290 353
#     4  11  23  41  61  85 119 157 197 248 295 347
#     4  12  22  34  61  96 119 151 202 254 283 340
#     4  11  22  39  62  85 118 161 195 238 304 350
#     4   9  20  38  59  85 124 158 192 239 299 358
#     4   9  19  36  58  85 129 153 188 238 311 335
#
# _framework density 19.521303
#
# number of rings (size 3 to 8) (size 9 to 14) (size 15 to 20)
#    0.857    0.857    0.000    7.286    0.000    0.571 
#    0.000    3.571    0.000    0.000    0.000    0.000 
#    0.000    0.000    0.000    0.000    0.000    0.000 
#
# Total GULP energy -173566.543363 kJ/mol
# GULP energy per Si atom -12397.610240 kJ/mol
# Density = 1.947687 g / cm^3
# Si number density = 19.521303 Si / 1000 Ang^3
#
#
#
# Elastic Constant Matrix: (Units=GPa)
#
#
# Indices 1 2 3 4 5 6 
#
# 1 96.0622 33.1211 51.3584 8.1407 0.0858 -15.7558
# 2 33.1211 88.7020 29.8463 -3.5610 1.2009 -24.7114
# 3 51.3584 29.8463 114.9065 8.2710 16.4184 -19.9365
# 4 8.1407 -3.5610 8.2710 43.8546 -3.4833 -5.0674
# 5 0.0858 1.2009 16.4184 -3.4833 36.2735 -1.2283
# 6 -15.7558 -24.7114 -19.9365 -5.0674 -1.2283 31.4652
#
#
#
# Elastic Compliance Matrix: (Units=1/GPa)
#
#
# Indices 1 2 3 4 5 6 
#
# 1 0.015066 -0.003484 -0.005933 -0.001649 0.002637 0.000886
# 2 -0.003484 0.016072 -0.001093 0.003455 0.000667 0.010767
# 3 -0.005933 -0.001093 0.013318 -0.001497 -0.005982 0.004135
# 4 -0.001649 0.003455 -0.001497 0.024495 0.003089 0.005005
# 5 0.002637 0.000667 -0.005982 0.003089 0.030535 -0.000256
# 6 0.000886 0.010767 0.004135 0.005005 -0.000256 0.044097
#
#
# Mechanical properties :
#
#
# Convention : Reuss Voigt Hill
#
# Bulk Modulus (GPa) = 42.67158 58.70251 50.68704
# Shear Modulus (GPa) = 28.99951 34.67498 31.83725
#
# Velocity S-wave (km/s) = 3.85844 4.21915 4.04282
# Velocity P-wave (km/s) = 6.46193 7.33970 6.91476
#
# Compressibility (1/GPa) = 0.02343480
#
# Stress axis : x y z
#
# Youngs Moduli (GPa) = 66.37422 62.22039 75.08426
#
# Poissons Ratio (x) = 0.21680 0.44550
# Poissons Ratio (y) = 0.23127 0.08208
# Poissons Ratio (z) = 0.39382 0.06801
#
# Static dielectric constant tensor:
#      x y z
#    x 3.573120 -0.066260 0.101600 
#    y -0.066260 3.411740 -0.033500 
#    z 0.101600 -0.033500 3.883460 
# 
# 
# High freq. dielectric constant tensor:
#      x y z
#    x 1.754760 -0.011570 -0.000880 
#    y -0.011570 1.747000 -0.002000 
#    z -0.000880 -0.002000 1.763910 
# 
# From -- ./inp_files/234880.got.cif
#   From: 2010.06.25/outbox.cif.g09.slc.cpg/sg2_118_cif.got.tgz:234880.got - 2010.06.27 13:26:56.
