data_PCOD8030458
_publ_section_title
;
Structure prediction by ZEFSAII (Michael W. Deem and Ramdas Pophale) SiO2 
 PCOD8030458
Probable space group: P -1
;
_chemical_formula_sum "Si O2"
_cell_formula_units_Z 16
_cell_length_a 9.351323
_cell_length_b 9.379703
_cell_length_c 24.099173
_cell_angle_alpha 134.246288
_cell_angle_beta 153.077028
_cell_angle_gamma 49.670044
_cell_volume 683.574421
_symmetry_space_group_name_H-M "P -1"
_symmetry_group_IT_number 2
_symmetry_cell_setting 'triclinic'
loop_
_space_group_symop_operation_xyz
x,y,z
-x,-y,-z
loop_
_atom_site_type_symbol
_atom_site_label
_atom_site_fract_x
_atom_site_fract_y
_atom_site_fract_z
Si Si1 0.689098 0.801588 0.992085
Si Si2 0.887373 0.668998 0.399177
Si Si3 0.241780 0.810212 0.267211
Si Si4 0.823578 0.408582 0.704309
Si Si5 0.703973 0.731286 0.589237
Si Si6 0.081122 0.886804 0.053987
Si Si7 0.397699 0.423193 0.832251
Si Si8 0.461505 0.210604 0.327559
O O1 0.026322 0.753481 0.125706
O O2 0.762414 0.831882 0.960323
O O3 0.467195 0.624274 0.878147
O O4 0.500000 0.000000 0.000000
O O5 0.604157 0.722938 0.359424
O O6 0.750300 0.716008 0.303166
O O7 0.038021 0.437821 0.391906
O O8 0.156591 0.821887 0.546816
O O9 0.108394 0.707162 0.246846
O O10 0.191938 0.047133 0.324538
O O11 0.630253 0.277036 0.559720
O O12 0.630920 0.622910 0.706167
O O13 0.158034 0.463034 0.810356
O O14 0.660955 0.694887 0.630159
O O15 0.288214 0.680760 0.058621
O O16 0.294974 0.012163 0.202751
O O17 0.000000 0.000000 0.000000
#
# Coordination Sequence:
#
# PCOD8030458 Si02
#       8
#     2   2   2   2   2   2   2   2
#     4  12  27  48  71  98 144 203 238 294 367 430
#     4  11  23  44  79 105 140 196 236 296 368 433
#     4  12  27  44  70 108 149 187 246 298 362 432
#     4  11  25  43  71 108 142 187 237 303 357 428
#     4  11  21  46  73 107 146 187 235 300 366 432
#     4  12  29  47  72 112 141 188 247 305 355 437
#     4  12  24  46  73 100 142 192 245 293 359 435
#     4  11  22  46  75 102 147 185 239 296 366 432
#
# _framework density 23.406376999999999
#
# number of rings (size 3 to 8) (size 9 to 14) (size 15 to 20)
#    0.000    0.500    5.000    3.000    5.250    3.500 
#    2.250    0.000    0.000    0.000    0.000    0.000 
#    0.000    0.000    0.000    0.000    0.000    0.000 
#
# Total GULP energy -198408.117663 kJ/mol
# GULP energy per Si atom -12400.507354 kJ/mol
# Density = 2.335310 g / cm^3
# Si number density = 23.406377 Si / 1000 Ang^3
#
#
#
# Elastic Constant Matrix: (Units=GPa)
#
#
# Indices 1 2 3 4 5 6 
#
# 1 133.7475 40.8724 41.3526 -14.5247 19.5260 21.6181
# 2 40.8724 93.4039 15.5987 -17.7611 1.8775 11.3331
# 3 41.3526 15.5987 73.3200 -4.0184 17.7966 0.4363
# 4 -14.5247 -17.7611 -4.0184 36.4590 0.0108 1.7996
# 5 19.5260 1.8775 17.7966 0.0108 33.6293 -2.5974
# 6 21.6181 11.3331 0.4363 1.7996 -2.5974 44.9370
#
#
#
# Elastic Compliance Matrix: (Units=1/GPa)
#
#
# Indices 1 2 3 4 5 6 
#
# 1 0.011658 -0.003057 -0.004631 0.002901 -0.004548 -0.005171
# 2 -0.003057 0.013473 -0.001203 0.005313 0.001500 -0.002041
# 3 -0.004631 -0.001203 0.018082 -0.000534 -0.006659 0.001992
# 4 0.002901 0.005313 -0.000534 0.031316 -0.002025 -0.004102
# 5 -0.004548 0.001500 -0.006659 -0.002025 0.036130 0.004044
# 6 -0.005171 -0.002041 0.001992 -0.004102 0.004044 0.025635
#
#
# Mechanical properties :
#
#
# Convention : Reuss Voigt Hill
#
# Bulk Modulus (GPa) = 39.32341 55.12431 47.22386
# Shear Modulus (GPa) = 30.75953 36.51491 33.63722
#
# Velocity S-wave (km/s) = 3.62906 3.95402 3.79502
# Velocity P-wave (km/s) = 5.86488 6.66692 6.27872
#
# Compressibility (1/GPa) = 0.02543014
#
# Stress axis : x y z
#
# Youngs Moduli (GPa) = 85.78000 74.22386 55.30457
#
# Poissons Ratio (x) = 0.22693 0.25611
# Poissons Ratio (y) = 0.26226 0.06652
# Poissons Ratio (z) = 0.39724 0.08927
#
# Static dielectric constant tensor:
#      x y z
#    x 3.985750 0.039980 0.117370 
#    y 0.039980 4.233090 0.019210 
#    z 0.117370 0.019210 4.594310 
# 
# 
# High freq. dielectric constant tensor:
#      x y z
#    x 1.908980 0.005260 0.012490 
#    y 0.005260 1.938310 -0.004250 
#    z 0.012490 -0.004250 1.932300 
# 
# From -- ./inp_files/226552.got.cif
#   From: 2010.06.25/outbox.cif.g09.slc.cpg/sg2_114_cif.got.tgz:226552.got - 2010.06.27 13:26:56.
