data_PCOD8030045
_publ_section_title
;
Structure prediction by ZEFSAII (Michael W. Deem and Ramdas Pophale) SiO2 
 PCOD8030045
Probable space group: P -1
;
_chemical_formula_sum "Si O2"
_cell_formula_units_Z 16
_cell_length_a 9.113513
_cell_length_b 12.478940
_cell_length_c 12.120665
_cell_angle_alpha 45.780004
_cell_angle_beta 53.484769
_cell_angle_gamma 47.165091
_cell_volume 705.012883
_symmetry_space_group_name_H-M "P -1"
_symmetry_group_IT_number 2
_symmetry_cell_setting 'triclinic'
loop_
_space_group_symop_operation_xyz
x,y,z
-x,-y,-z
loop_
_atom_site_type_symbol
_atom_site_label
_atom_site_fract_x
_atom_site_fract_y
_atom_site_fract_z
Si Si1 0.921114 0.311158 0.940587
Si Si2 0.363384 0.706060 0.101087
Si Si3 0.724875 0.677742 0.839344
Si Si4 0.076543 0.734572 0.562566
Si Si5 0.861150 0.566738 0.406705
Si Si6 0.970373 0.029320 0.777705
Si Si7 0.588754 0.121637 0.336891
Si Si8 0.555580 0.345227 0.383542
O O1 0.731472 0.300785 0.970850
O O2 0.847568 0.474534 0.934645
O O3 0.075351 0.312262 0.777703
O O4 0.038237 0.148809 0.084244
O O5 0.197754 0.845260 0.153503
O O6 0.442721 0.529607 0.251615
O O7 0.560482 0.742729 0.967156
O O8 0.592255 0.723675 0.754358
O O9 0.877221 0.764631 0.705739
O O10 0.104742 0.596365 0.559335
O O11 0.055315 0.899509 0.387555
O O12 0.273865 0.666559 0.599353
O O13 0.622097 0.682953 0.456439
O O14 0.000000 0.500000 0.500000
O O15 0.200134 0.990518 0.744317
O O16 0.659253 0.201170 0.349198
O O17 0.500000 0.000000 0.500000
#
# Coordination Sequence:
#
# PCOD8030045 Si02
#       8
#     2   2   2   2   2   2   2   2
#     4  11  22  39  69 105 139 174 231 297 345 404
#     4  12  23  39  73 104 138 179 234 296 355 406
#     4  11  23  45  71 102 136 183 239 284 348 424
#     4  11  25  46  71 104 142 188 235 282 349 431
#     4  11  21  41  75 106 133 181 243 286 337 413
#     4  12  25  41  68 104 146 173 233 294 353 404
#     4  12  25  42  73 103 136 183 241 297 340 411
#     4  12  25  44  75  99 144 190 232 283 361 419
#
# _framework density 22.694621000000001
#
# number of rings (size 3 to 8) (size 9 to 14) (size 15 to 20)
#    0.000    0.500    6.250    2.625    1.750    1.000 
#    0.000    0.625    0.000    0.000    0.000    0.000 
#    0.000    0.000    0.000    0.000    0.000    0.000 
#
# Total GULP energy -198353.337842 kJ/mol
# GULP energy per Si atom -12397.083615 kJ/mol
# Density = 2.264297 g / cm^3
# Si number density = 22.694621 Si / 1000 Ang^3
#
#
#
# Elastic Constant Matrix: (Units=GPa)
#
#
# Indices 1 2 3 4 5 6 
#
# 1 110.2168 43.7939 33.0686 10.1622 -11.6075 -13.0555
# 2 43.7939 119.7721 67.9988 -0.6449 -9.3821 -21.3859
# 3 33.0686 67.9988 154.2324 -6.9330 -29.7427 -14.4096
# 4 10.1622 -0.6449 -6.9330 43.9606 -18.1505 -12.6434
# 5 -11.6075 -9.3821 -29.7427 -18.1505 30.4353 9.4475
# 6 -13.0555 -21.3859 -14.4096 -12.6434 9.4475 26.8981
#
#
#
# Elastic Compliance Matrix: (Units=1/GPa)
#
#
# Indices 1 2 3 4 5 6 
#
# 1 0.011037 -0.003413 -0.000667 -0.002008 0.001000 0.000991
# 2 -0.003413 0.013811 -0.005426 0.000655 -0.004539 0.008319
# 3 -0.000667 -0.005426 0.012332 0.008365 0.014906 0.000665
# 4 -0.002008 0.000655 0.008365 0.039491 0.027105 0.013069
# 5 0.001000 -0.004539 0.014906 0.027105 0.064094 -0.004909
# 6 0.000991 0.008319 0.000665 0.013069 -0.004909 0.052497
#
#
# Mechanical properties :
#
#
# Convention : Reuss Voigt Hill
#
# Bulk Modulus (GPa) = 55.03788 74.88267 64.96027
# Shear Modulus (GPa) = 22.90136 36.21612 29.55874
#
# Velocity S-wave (km/s) = 3.18009 3.99908 3.61287
# Velocity P-wave (km/s) = 6.14721 7.37502 6.78893
#
# Compressibility (1/GPa) = 0.01816930
#
# Stress axis : x y z
#
# Youngs Moduli (GPa) = 90.60466 72.40636 81.09238
#
# Poissons Ratio (x) = 0.24710 0.05405
# Poissons Ratio (y) = 0.30920 0.44000
# Poissons Ratio (z) = 0.06040 0.39287
#
# Static dielectric constant tensor:
#      x y z
#    x 3.457890 -0.870900 -0.655970 
#    y -0.870900 3.673590 -0.300090 
#    z -0.655970 -0.300090 4.364960 
# 
# 
# High freq. dielectric constant tensor:
#      x y z
#    x 1.866220 -0.025600 -0.016850 
#    y -0.025600 1.893250 0.002470 
#    z -0.016850 0.002470 1.922830 
# 
# From -- ./inp_files/391998.got.cif
#   From: 2010.06.25/outbox.cif.g09.slc.cpg/sg2_196_cif.got.tgz:391998.got - 2010.06.27 13:26:56.
