data_PCOD8030202
_publ_section_title
;
Structure prediction by ZEFSAII (Michael W. Deem and Ramdas Pophale) SiO2 
 PCOD8030202
Probable space group: P -1
;
_chemical_formula_sum "Si O2"
_cell_formula_units_Z 16
_cell_length_a 8.966534
_cell_length_b 23.154702
_cell_length_c 14.220942
_cell_angle_alpha 30.634079
_cell_angle_beta 50.698279
_cell_angle_gamma 30.363413
_cell_volume 689.008773
_symmetry_space_group_name_H-M "P -1"
_symmetry_group_IT_number 2
_symmetry_cell_setting 'triclinic'
loop_
_space_group_symop_operation_xyz
x,y,z
-x,-y,-z
loop_
_atom_site_type_symbol
_atom_site_label
_atom_site_fract_x
_atom_site_fract_y
_atom_site_fract_z
Si Si1 0.284380 0.436785 0.431701
Si Si2 0.787511 0.437326 0.429507
Si Si3 0.782900 0.560858 0.917838
Si Si4 0.358386 0.975824 0.515825
Si Si5 0.118145 0.969172 0.284110
Si Si6 0.536859 0.015737 0.737915
Si Si7 0.432991 0.613711 0.138739
Si Si8 0.084904 0.378659 0.855565
O O1 0.610136 0.212081 0.638320
O O2 0.297020 0.555737 0.303995
O O3 0.000000 0.500000 0.500000
O O4 0.236056 0.480572 0.277934
O O5 0.500000 0.500000 0.500000
O O6 0.722680 0.497995 0.260122
O O7 0.769477 0.567422 0.304544
O O8 0.143769 0.211967 0.617533
O O9 0.584265 0.766264 0.681724
O O10 0.973987 0.420149 0.950220
O O11 0.564190 0.563890 0.048480
O O12 0.000000 0.500000 0.000000
O O13 0.296843 0.068971 0.312733
O O14 0.500000 0.000000 0.500000
O O15 0.036490 0.069669 0.552773
O O16 0.290498 0.969262 0.290702
O O17 0.860513 0.156019 0.058449
O O18 0.644291 0.841223 0.977497
#
# Coordination Sequence:
#
# PCOD8030202 Si02
#       8
#     2   2   2   2   2   2   2   2
#     4  12  27  47  72 104 144 190 241 289 354 430
#     4  12  27  48  72 103 147 189 244 297 348 428
#     4  11  21  43  69 103 148 174 233 300 354 421
#     4  11  24  41  70 108 143 183 234 295 361 423
#     4  11  26  46  71 104 143 187 235 294 359 425
#     4  12  25  46  71 103 144 189 235 294 358 429
#     4  11  26  45  72 108 139 187 237 297 362 413
#     4  12  25  45  74 105 141 193 236 293 363 419
#
# _framework density 23.221764
#
# number of rings (size 3 to 8) (size 9 to 14) (size 15 to 20)
#    0.000    0.500    5.000    1.875    7.000    3.500 
#    0.000    0.000    0.000    0.000    0.000    0.000 
#    0.000    0.000    0.000    0.000    0.000    0.000 
#
# Total GULP energy -198279.182991 kJ/mol
# GULP energy per Si atom -12392.448937 kJ/mol
# Density = 2.316891 g / cm^3
# Si number density = 23.221764 Si / 1000 Ang^3
#
#
#
# Elastic Constant Matrix: (Units=GPa)
#
#
# Indices 1 2 3 4 5 6 
#
# 1 84.2428 17.3928 34.5368 -14.1402 -8.1052 -12.4701
# 2 17.3928 108.1484 48.6063 -20.4511 -16.1015 -21.5790
# 3 34.5368 48.6063 120.8543 -21.6997 -18.1312 -12.4607
# 4 -14.1402 -20.4511 -21.6997 28.5104 -3.1998 4.3875
# 5 -8.1052 -16.1015 -18.1312 -3.1998 50.1186 6.1064
# 6 -12.4701 -21.5790 -12.4607 4.3875 6.1064 33.3711
#
#
#
# Elastic Compliance Matrix: (Units=1/GPa)
#
#
# Indices 1 2 3 4 5 6 
#
# 1 0.014487 0.001003 -0.002987 0.005174 0.001427 0.004005
# 2 0.001003 0.013690 -0.003408 0.007062 0.002989 0.006479
# 3 -0.002987 -0.003408 0.011944 0.005539 0.003116 -0.000158
# 4 0.005174 0.007062 0.005539 0.047700 0.008055 0.000823
# 5 0.001427 0.002989 0.003116 0.008055 0.022984 -0.001635
# 6 0.004005 0.006479 -0.000158 0.000823 -0.001635 0.035784
#
#
# Mechanical properties :
#
#
# Convention : Reuss Voigt Hill
#
# Bulk Modulus (GPa) = 34.08732 57.14635 45.61684
# Shear Modulus (GPa) = 29.91248 36.58067 33.24658
#
# Velocity S-wave (km/s) = 3.59294 3.97328 3.78788
# Velocity P-wave (km/s) = 5.65006 6.76104 6.23036
#
# Compressibility (1/GPa) = 0.02933642
#
# Stress axis : x y z
#
# Youngs Moduli (GPa) = 69.02888 73.04420 83.72058
#
# Poissons Ratio (x) = -0.07325 0.25008
# Poissons Ratio (y) = -0.06922 0.28534
# Poissons Ratio (z) = 0.20620 0.24895
#
# Static dielectric constant tensor:
#      x y z
#    x 4.555180 -0.161870 0.103840 
#    y -0.161870 4.076110 0.086630 
#    z 0.103840 0.086630 4.483100 
# 
# 
# High freq. dielectric constant tensor:
#      x y z
#    x 1.924650 -0.009610 -0.004120 
#    y -0.009610 1.909170 0.001880 
#    z -0.004120 0.001880 1.937600 
# 
# From -- ./inp_files/505288.got.cif
#   From: 2010.06.25/outbox.cif.g09.slc.cpg/sg2_253_cif.got.tgz:505288.got - 2010.06.27 13:26:56.
