data_PCOD8030492
_publ_section_title
;
Structure prediction by ZEFSAII (Michael W. Deem and Ramdas Pophale) SiO2 
 PCOD8030492
Probable space group: P -1
;
_chemical_formula_sum "Si O2"
_cell_formula_units_Z 14
_cell_length_a 8.952517
_cell_length_b 20.480863
_cell_length_c 14.081112
_cell_angle_alpha 28.890144
_cell_angle_beta 138.905479
_cell_angle_gamma 148.738650
_cell_volume 647.175181
_symmetry_space_group_name_H-M "P -1"
_symmetry_group_IT_number 2
_symmetry_cell_setting 'triclinic'
loop_
_space_group_symop_operation_xyz
x,y,z
-x,-y,-z
loop_
_atom_site_type_symbol
_atom_site_label
_atom_site_fract_x
_atom_site_fract_y
_atom_site_fract_z
Si Si1 0.472734 0.313800 0.560550
Si Si2 0.698180 0.951380 0.883154
Si Si3 0.313649 0.675962 0.909257
Si Si4 0.713103 0.170026 0.754377
Si Si5 0.112826 0.783647 0.525011
Si Si6 0.273732 0.395479 0.843855
Si Si7 0.972130 0.462085 0.350656
O O1 0.464073 0.162390 0.699175
O O2 0.570650 0.461313 0.345136
O O3 0.693662 0.386359 0.661546
O O4 0.166048 0.234863 0.556099
O O5 0.470777 0.756573 0.984756
O O6 0.575466 0.987646 0.870037
O O7 0.721411 0.062923 0.664567
O O8 0.000000 0.000000 0.000000
O O9 0.293083 0.811285 0.670635
O O10 0.510392 0.648423 0.974053
O O11 0.000000 0.500000 0.000000
O O12 0.859019 0.316221 0.559453
O O13 0.969836 0.223363 0.881370
O O14 0.044791 0.610382 0.668781
O O15 0.213296 0.466788 0.817108
#
# Coordination Sequence:
#
# PCOD8030492 Si02
#       7
#     2   2   2   2   2   2   2
#     4   9  16  32  60  90 119 148 200 247 286 344
#     4  11  23  42  64  84 117 162 204 239 292 354
#     4  12  24  38  62  90 126 153 195 245 299 355
#     4   8  16  34  60  85 112 157 202 242 283 342
#     4  11  22  36  59  91 122 154 190 248 303 346
#     4   9  16  34  58  87 118 158 193 240 292 347
#     4   8  17  30  58  88 118 154 201 238 285 351
#
# _framework density 21.632473000000001
#
# number of rings (size 3 to 8) (size 9 to 14) (size 15 to 20)
#    0.000    2.286    2.857    2.571    0.000    1.714 
#    0.000    1.429    6.286    0.000    0.000    0.000 
#    0.000    0.000    0.000    0.000    0.000    0.000 
#
# Total GULP energy -173489.872506 kJ/mol
# GULP energy per Si atom -12392.133750 kJ/mol
# Density = 2.158324 g / cm^3
# Si number density = 21.632473 Si / 1000 Ang^3
#
#
#
# Elastic Constant Matrix: (Units=GPa)
#
#
# Indices 1 2 3 4 5 6 
#
# 1 131.8661 51.9432 13.4985 2.0169 45.2327 -4.0465
# 2 51.9432 104.9848 27.0282 7.4933 25.2944 -12.3565
# 3 13.4985 27.0282 56.2054 7.6781 15.4349 3.1104
# 4 2.0169 7.4933 7.6781 19.8963 -0.4838 8.9852
# 5 45.2327 25.2944 15.4349 -0.4838 39.7987 2.4196
# 6 -4.0465 -12.3565 3.1104 8.9852 2.4196 31.0585
#
#
#
# Elastic Compliance Matrix: (Units=1/GPa)
#
#
# Indices 1 2 3 4 5 6 
#
# 1 0.013838 -0.003627 0.002630 -0.002258 -0.014585 0.001886
# 2 -0.003627 0.015074 -0.004661 -0.007442 -0.004257 0.008476
# 3 0.002630 -0.004661 0.022877 -0.007077 -0.008920 -0.001061
# 4 -0.002258 -0.007442 -0.007077 0.066603 0.012235 -0.022768
# 5 -0.014585 -0.004257 -0.008920 0.012235 0.048626 -0.010028
# 6 0.001886 0.008476 -0.001061 -0.022768 -0.010028 0.043289
#
#
# Mechanical properties :
#
#
# Convention : Reuss Voigt Hill
#
# Bulk Modulus (GPa) = 24.70795 53.11068 38.90931
# Shear Modulus (GPa) = 21.26630 31.52311 26.39470
#
# Velocity S-wave (km/s) = 3.13880 3.82149 3.49684
# Velocity P-wave (km/s) = 4.95808 6.63900 5.85913
#
# Compressibility (1/GPa) = 0.04047281
#
# Stress axis : x y z
#
# Youngs Moduli (GPa) = 72.26483 66.33989 43.71212
#
# Poissons Ratio (x) = 0.24058 -0.11496
# Poissons Ratio (y) = 0.26207 0.20375
# Poissons Ratio (z) = -0.19004 0.30923
#
# Static dielectric constant tensor:
#      x y z
#    x 4.196410 -0.371300 0.430310 
#    y -0.371300 3.870570 0.041290 
#    z 0.430310 0.041290 3.758870 
# 
# 
# High freq. dielectric constant tensor:
#      x y z
#    x 1.852350 -0.011010 0.024110 
#    y -0.011010 1.829940 0.004220 
#    z 0.024110 0.004220 1.835670 
# 
# From -- ./inp_files/158189.got.cif
#   From: 2010.06.25/outbox.cif.g09.slc.cpg/sg2_80_cif.got.tgz:158189.got - 2010.06.27 13:26:56.
