data_PCOD8030988
_publ_section_title
;
Structure prediction by ZEFSAII (Michael W. Deem and Ramdas Pophale) SiO2 
 PCOD8030988
Probable space group: P -1
;
_chemical_formula_sum "Si O2"
_cell_formula_units_Z 16
_cell_length_a 11.509635
_cell_length_b 12.320147
_cell_length_c 12.802837
_cell_angle_alpha 71.459835
_cell_angle_beta 139.350289
_cell_angle_gamma 76.513527
_cell_volume 717.839024
_symmetry_space_group_name_H-M "P -1"
_symmetry_group_IT_number 2
_symmetry_cell_setting 'triclinic'
loop_
_space_group_symop_operation_xyz
x,y,z
-x,-y,-z
loop_
_atom_site_type_symbol
_atom_site_label
_atom_site_fract_x
_atom_site_fract_y
_atom_site_fract_z
Si Si1 0.249280 0.892780 0.940072
Si Si2 0.416568 0.258657 0.600195
Si Si3 0.826447 0.970774 0.501216
Si Si4 0.938151 0.759712 0.287108
Si Si5 0.967193 0.337475 0.381927
Si Si6 0.562803 0.728912 0.004812
Si Si7 0.794438 0.401638 0.692281
Si Si8 0.380162 0.046327 0.289161
O O1 0.491235 0.736227 0.073254
O O2 0.963092 0.970956 0.690643
O O3 0.228973 0.040224 0.878611
O O4 0.336088 0.807317 0.140884
O O5 0.221499 0.452132 0.358130
O O6 0.252262 0.260701 0.570526
O O7 0.557145 0.115774 0.648686
O O8 0.046543 0.773066 0.660140
O O9 0.728640 0.108934 0.303970
O O10 0.547903 0.047857 0.327847
O O11 0.060789 0.669525 0.511408
O O12 0.170054 0.658732 0.385109
O O13 0.742130 0.755674 0.112591
O O14 0.714824 0.544949 0.113129
O O15 0.500000 0.500000 0.500000
O O16 0.050489 0.235516 0.992474
O O17 0.500000 0.000000 0.500000
#
# Coordination Sequence:
#
# PCOD8030988 Si02
#       8
#     2   2   2   2   2   2   2   2
#     4  12  24  39  70 107 140 181 219 289 348 421
#     4  11  23  46  74 101 133 180 236 281 350 416
#     4  11  25  43  63 101 145 178 229 277 356 416
#     4  12  21  43  68 103 139 178 233 283 348 414
#     4  11  22  41  71 100 135 185 222 285 347 425
#     4  12  21  41  67  98 141 181 223 275 354 414
#     4  12  27  46  73 104 132 180 245 290 332 412
#     4  11  26  49  73  96 137 187 231 289 350 409
#
# _framework density 22.289121000000002
#
# number of rings (size 3 to 8) (size 9 to 14) (size 15 to 20)
#    0.000    0.500    6.250    2.625    1.750    2.500 
#    2.250    0.000    0.000    0.000    0.000    0.000 
#    0.000    0.000    0.000    0.000    0.000    0.000 
#
# Total GULP energy -198399.721549 kJ/mol
# GULP energy per Si atom -12399.982597 kJ/mol
# Density = 2.223839 g / cm^3
# Si number density = 22.289121 Si / 1000 Ang^3
#
#
#
# Elastic Constant Matrix: (Units=GPa)
#
#
# Indices 1 2 3 4 5 6 
#
# 1 73.3671 28.7774 36.8460 0.3606 -0.5450 -19.2191
# 2 28.7774 139.3284 88.9299 -20.1786 -17.0947 -8.2250
# 3 36.8460 88.9299 129.8896 -11.9057 -10.6256 -10.4841
# 4 0.3606 -20.1786 -11.9057 39.5390 -4.7149 -10.9825
# 5 -0.5450 -17.0947 -10.6256 -4.7149 33.4064 -3.7424
# 6 -19.2191 -8.2250 -10.4841 -10.9825 -3.7424 31.4743
#
#
#
# Elastic Compliance Matrix: (Units=1/GPa)
#
#
# Indices 1 2 3 4 5 6 
#
# 1 0.018504 -0.000489 -0.003955 0.001271 0.000128 0.010313
# 2 -0.000489 0.014620 -0.008447 0.006706 0.006156 0.003780
# 3 -0.003955 -0.008447 0.014699 0.000316 0.000381 0.000429
# 4 0.001271 0.006706 0.000316 0.034415 0.010186 0.015853
# 5 0.000128 0.006156 0.000381 0.010186 0.035723 0.009616
# 6 0.010313 0.003780 0.000429 0.015853 0.009616 0.045875
#
#
# Mechanical properties :
#
#
# Convention : Reuss Voigt Hill
#
# Bulk Modulus (GPa) = 45.37144 72.41019 58.89081
# Shear Modulus (GPa) = 25.38507 33.41940 29.40223
#
# Velocity S-wave (km/s) = 3.37842 3.87636 3.63592
# Velocity P-wave (km/s) = 5.96811 7.25205 6.64118
#
# Compressibility (1/GPa) = 0.02204030
#
# Stress axis : x y z
#
# Youngs Moduli (GPa) = 54.04138 68.40038 68.03152
#
# Poissons Ratio (x) = 0.03345 0.26906
# Poissons Ratio (y) = 0.02643 0.57469
# Poissons Ratio (z) = 0.21373 0.57781
#
# Static dielectric constant tensor:
#      x y z
#    x 3.946820 -0.007650 -0.051520 
#    y -0.007650 4.189350 -0.126880 
#    z -0.051520 -0.126880 3.888540 
# 
# 
# High freq. dielectric constant tensor:
#      x y z
#    x 1.868520 0.000210 -0.002750 
#    y 0.000210 1.885890 -0.010760 
#    z -0.002750 -0.010760 1.874890 
# 
# From -- ./inp_files/306967.got.cif
#   From: 2010.06.25/outbox.cif.g09.slc.cpg/sg2_154_cif.got.tgz:306967.got - 2010.06.27 13:26:56.
