data_PCOD8030018
_publ_section_title
;
Structure prediction by ZEFSAII (Michael W. Deem and Ramdas Pophale) SiO2 
 PCOD8030018
Probable space group: P -1
;
_chemical_formula_sum "Si O2"
_cell_formula_units_Z 16
_cell_length_a 19.155215
_cell_length_b 10.950117
_cell_length_c 17.099704
_cell_angle_alpha 138.744039
_cell_angle_beta 149.492423
_cell_angle_gamma 23.189199
_cell_volume 702.334930
_symmetry_space_group_name_H-M "P -1"
_symmetry_group_IT_number 2
_symmetry_cell_setting 'triclinic'
loop_
_space_group_symop_operation_xyz
x,y,z
-x,-y,-z
loop_
_atom_site_type_symbol
_atom_site_label
_atom_site_fract_x
_atom_site_fract_y
_atom_site_fract_z
Si Si1 0.827332 0.181834 0.223089
Si Si2 0.634631 0.690971 0.526155
Si Si3 0.871687 0.425678 0.965675
Si Si4 0.141003 0.153595 0.785205
Si Si5 0.640849 0.160496 0.899453
Si Si6 0.616013 0.789373 0.739872
Si Si7 0.486708 0.588331 0.734326
Si Si8 0.303543 0.842905 0.515996
O O1 0.618922 0.516219 0.232223
O O2 0.918308 0.903081 0.222538
O O3 0.715075 0.255609 0.067259
O O4 0.038903 0.084129 0.354815
O O5 0.655692 0.701285 0.644701
O O6 0.498154 0.649949 0.353972
O O7 0.909468 0.389270 0.619283
O O8 0.500000 0.000000 0.500000
O O9 0.808328 0.489725 0.841788
O O10 0.742208 0.399166 0.872854
O O11 0.797713 0.702556 0.064253
O O12 0.153690 0.093635 0.089232
O O13 0.372845 0.815117 0.807226
O O14 0.621025 0.002705 0.860010
O O15 0.360114 0.990446 0.614479
O O16 0.312690 0.816393 0.604854
O O17 0.500000 0.500000 0.500000
#
# Coordination Sequence:
#
# PCOD8030018 Si02
#       8
#     2   2   2   2   2   2   2   2
#     4  11  24  40  67  99 139 170 225 277 335 394
#     4  12  26  43  67 101 134 182 224 270 340 408
#     4  11  23  44  74  98 131 178 231 274 336 393
#     4  12  23  45  67  98 138 182 222 271 342 404
#     4  11  23  40  65 102 130 176 222 284 327 391
#     4  11  22  41  72  96 130 173 228 274 330 394
#     4  11  25  41  69 101 134 177 223 280 331 403
#     4  11  21  41  70  98 127 175 224 274 331 394
#
# _framework density 22.781153
#
# number of rings (size 3 to 8) (size 9 to 14) (size 15 to 20)
#    0.000    0.750    5.000    3.375    1.750    0.500 
#    0.000    5.000    0.000    0.000    0.000    0.000 
#    0.000    0.000    0.000    0.000    0.000    0.000 
#
# Total GULP energy -198320.839323 kJ/mol
# GULP energy per Si atom -12395.052458 kJ/mol
# Density = 2.272930 g / cm^3
# Si number density = 22.781153 Si / 1000 Ang^3
#
#
#
# Elastic Constant Matrix: (Units=GPa)
#
#
# Indices 1 2 3 4 5 6 
#
# 1 98.6528 46.9656 48.1427 -0.6215 28.6811 -1.6192
# 2 46.9656 113.3127 53.0082 -10.8504 25.4529 -5.7424
# 3 48.1427 53.0082 116.1518 -5.7678 47.0131 -4.3710
# 4 -0.6215 -10.8504 -5.7678 39.9732 -2.3539 2.9474
# 5 28.6811 25.4529 47.0131 -2.3539 51.6662 6.6106
# 6 -1.6192 -5.7424 -4.3710 2.9474 6.6106 28.1274
#
#
#
# Elastic Compliance Matrix: (Units=1/GPa)
#
#
# Indices 1 2 3 4 5 6 
#
# 1 0.014446 -0.003997 -0.002699 -0.001517 -0.003744 0.000635
# 2 -0.003997 0.012701 -0.003588 0.002689 -0.000872 0.001728
# 3 -0.002699 -0.003588 0.016561 0.000309 -0.012372 0.004561
# 4 -0.001517 0.002689 0.000309 0.025986 0.000726 -0.002384
# 5 -0.003744 -0.000872 -0.012372 0.000726 0.034498 -0.010500
# 6 0.000635 0.001728 0.004561 -0.002384 -0.010500 0.039368
#
#
# Mechanical properties :
#
#
# Convention : Reuss Voigt Hill
#
# Bulk Modulus (GPa) = 43.21751 69.37223 56.29487
# Shear Modulus (GPa) = 29.09638 35.95344 32.52491
#
# Velocity S-wave (km/s) = 3.57769 3.97698 3.78261
# Velocity P-wave (km/s) = 6.00653 7.18374 6.62135
#
# Compressibility (1/GPa) = 0.02313877
#
# Stress axis : x y z
#
# Youngs Moduli (GPa) = 69.22270 78.73200 60.38374
#
# Poissons Ratio (x) = 0.31467 0.16301
# Poissons Ratio (y) = 0.27667 0.21668
# Poissons Ratio (z) = 0.18687 0.28253
#
# Static dielectric constant tensor:
#      x y z
#    x 4.067400 0.010360 0.311810 
#    y 0.010360 4.087900 0.066150 
#    z 0.311810 0.066150 4.326450 
# 
# 
# High freq. dielectric constant tensor:
#      x y z
#    x 1.887830 -0.006540 0.019550 
#    y -0.006540 1.888780 0.008030 
#    z 0.019550 0.008030 1.909650 
# 
# From -- ./inp_files/577992.got.cif
#   From: 2010.06.25/outbox.cif.g09.slc.cpg/sg2_289_cif.got.tgz:577992.got - 2010.06.27 13:26:56.
