data_PCOD8030259
_publ_section_title
;
Structure prediction by ZEFSAII (Michael W. Deem and Ramdas Pophale) SiO2 
 PCOD8030259
Probable space group: P -1
;
_chemical_formula_sum "Si O2"
_cell_formula_units_Z 12
_cell_length_a 14.172092
_cell_length_b 11.244608
_cell_length_c 8.805632
_cell_angle_alpha 123.746494
_cell_angle_beta 139.260640
_cell_angle_gamma 32.624388
_cell_volume 479.926671
_symmetry_space_group_name_H-M "P -1"
_symmetry_group_IT_number 2
_symmetry_cell_setting 'triclinic'
loop_
_space_group_symop_operation_xyz
x,y,z
-x,-y,-z
loop_
_atom_site_type_symbol
_atom_site_label
_atom_site_fract_x
_atom_site_fract_y
_atom_site_fract_z
Si Si1 0.008239 0.758372 0.143463
Si Si2 0.662391 0.566102 0.452354
Si Si3 0.377700 0.973371 0.928918
Si Si4 0.816866 0.967908 0.744144
Si Si5 0.008924 0.083462 0.389312
Si Si6 0.247130 0.293057 0.585707
O O1 0.252279 0.506684 0.318573
O O2 0.981872 0.940747 0.308478
O O3 0.813624 0.817472 0.037983
O O4 0.982427 0.781624 0.948100
O O5 0.384904 0.770961 0.257150
O O6 0.743458 0.651243 0.533009
O O7 0.784024 0.344494 0.350181
O O8 0.253967 0.956299 0.654876
O O9 0.574798 0.756234 0.124845
O O10 0.500000 0.000000 0.000000
O O11 0.974170 0.927064 0.782689
O O12 0.692364 0.922078 0.493215
O O13 0.000000 0.500000 0.500000
#
# Coordination Sequence:
#
# PCOD8030259 Si02
#       6
#     2   2   2   2   2   2
#     4  11  26  47  71 106 147 186 235 294 352 428
#     4  11  24  45  70 104 142 188 234 295 349 415
#     4  11  21  43  73 101 138 188 235 290 346 418
#     4  12  25  45  73 105 144 184 241 291 351 423
#     4  11  25  50  70 105 148 186 238 287 356 427
#     4  12  23  44  71 107 141 182 240 296 352 413
#
# _framework density 25.003819
#
# number of rings (size 3 to 8) (size 9 to 14) (size 15 to 20)
#    0.000    0.667    5.000    4.000    0.000    3.333 
#    6.000    0.000    0.000    0.000    0.000    0.000 
#    0.000    0.000    0.000    0.000    0.000    0.000 
#
# Total GULP energy -148748.850731 kJ/mol
# GULP energy per Si atom -12395.737561 kJ/mol
# Density = 2.494691 g / cm^3
# Si number density = 25.003819 Si / 1000 Ang^3
#
#
#
# Elastic Constant Matrix: (Units=GPa)
#
#
# Indices 1 2 3 4 5 6 
#
# 1 143.1044 34.5951 20.0066 -14.0448 -14.7327 3.8467
# 2 34.5951 102.8445 13.4575 -13.3724 -4.8674 -3.2445
# 3 20.0066 13.4575 78.6598 -18.2987 -23.9528 -3.8006
# 4 -14.0448 -13.3724 -18.2987 32.4763 17.3856 -4.6110
# 5 -14.7327 -4.8674 -23.9528 17.3856 43.5206 -0.6008
# 6 3.8467 -3.2445 -3.8006 -4.6110 -0.6008 38.6393
#
#
#
# Elastic Compliance Matrix: (Units=1/GPa)
#
#
# Indices 1 2 3 4 5 6 
#
# 1 0.007978 -0.002387 -0.000986 0.000981 0.001486 -0.000951
# 2 -0.002387 0.011147 -0.000735 0.004246 -0.001640 0.001582
# 3 -0.000986 -0.000735 0.016443 0.005389 0.006514 0.002398
# 4 0.000981 0.004246 0.005389 0.044226 -0.013814 0.005852
# 5 0.001486 -0.001640 0.006514 -0.013814 0.032390 -0.000790
# 6 -0.000951 0.001582 0.002398 0.005852 -0.000790 0.027030
#
#
# Mechanical properties :
#
#
# Convention : Reuss Voigt Hill
#
# Bulk Modulus (GPa) = 36.56130 51.19188 43.87659
# Shear Modulus (GPa) = 31.93949 40.03055 35.98502
#
# Velocity S-wave (km/s) = 3.57793 4.00556 3.79777
# Velocity P-wave (km/s) = 5.63230 6.47385 6.06768
#
# Compressibility (1/GPa) = 0.02735133
#
# Stress axis : x y z
#
# Youngs Moduli (GPa) = 125.35184 89.71149 60.81761
#
# Poissons Ratio (x) = 0.21410 0.05996
# Poissons Ratio (y) = 0.29916 0.04472
# Poissons Ratio (z) = 0.12359 0.06596
#
# Static dielectric constant tensor:
#      x y z
#    x 4.814980 0.207280 -0.180840 
#    y 0.207280 4.395990 -0.047170 
#    z -0.180840 -0.047170 4.837680 
# 
# 
# High freq. dielectric constant tensor:
#      x y z
#    x 2.021490 0.003650 -0.016490 
#    y 0.003650 1.970020 -0.015890 
#    z -0.016490 -0.015890 1.997400 
# 
# From -- ./inp_files/308638.got.cif
#   From: 2010.06.25/outbox.cif.g09.slc.cpg/sg2_155_cif.got.tgz:308638.got - 2010.06.27 13:26:56.
