data_PCOD8030817
_publ_section_title
;
Structure prediction by ZEFSAII (Michael W. Deem and Ramdas Pophale) SiO2 
 PCOD8030817
Probable space group: P -1
;
_chemical_formula_sum "Si O2"
_cell_formula_units_Z 16
_cell_length_a 11.799704
_cell_length_b 15.030126
_cell_length_c 9.402416
_cell_angle_alpha 109.316718
_cell_angle_beta 78.423279
_cell_angle_gamma 151.702779
_cell_volume 730.531743
_symmetry_space_group_name_H-M "P -1"
_symmetry_group_IT_number 2
_symmetry_cell_setting 'triclinic'
loop_
_space_group_symop_operation_xyz
x,y,z
-x,-y,-z
loop_
_atom_site_type_symbol
_atom_site_label
_atom_site_fract_x
_atom_site_fract_y
_atom_site_fract_z
Si Si1 0.859039 0.320186 0.350814
Si Si2 0.868673 0.670645 0.656930
Si Si3 0.155216 0.055966 0.875992
Si Si4 0.695563 0.030731 0.751055
Si Si5 0.841224 0.315788 0.033718
Si Si6 0.504355 0.776097 0.889583
Si Si7 0.810894 0.620697 0.328562
Si Si8 0.434933 0.401216 0.818792
O O1 0.954757 0.391608 0.202759
O O2 0.000000 0.500000 0.500000
O O3 0.932601 0.270382 0.363492
O O4 0.565691 0.126381 0.333279
O O5 0.736819 0.578499 0.488939
O O6 0.668391 0.517097 0.751073
O O7 0.000130 0.863810 0.742989
O O8 0.239351 0.180872 0.789824
O O9 0.382677 0.178665 0.969686
O O10 0.000000 0.000000 0.000000
O O11 0.895355 0.159451 0.644819
O O12 0.681596 0.920906 0.784857
O O13 0.814623 0.194500 0.909721
O O14 0.576121 0.173474 0.036845
O O15 0.000000 0.500000 0.000000
O O16 0.279382 0.547120 0.786854
O O17 0.672772 0.601373 0.265077
O O18 0.500000 0.500000 0.000000
#
# Coordination Sequence:
#
# PCOD8030817 Si02
#       8
#     2   2   2   2   2   2   2   2
#     4  11  26  47  71 107 151 185 235 294 354 429
#     4  12  27  46  71 105 146 184 236 293 361 418
#     4  12  24  42  71 105 135 180 237 295 351 415
#     4  11  24  44  71 102 144 188 239 291 351 424
#     4  11  22  40  69  99 134 185 236 286 344 417
#     4  11  22  41  68  98 137 182 235 289 348 416
#     4  12  26  46  70 102 142 189 234 292 359 424
#     4  12  26  46  75 102 137 185 239 299 349 419
#
# _framework density 21.901852999999999
#
# number of rings (size 3 to 8) (size 9 to 14) (size 15 to 20)
#    0.000    0.500    3.750    5.625    3.500    3.000 
#    0.000    0.000    0.000    0.000    0.000    0.000 
#    0.000    0.000    0.000    0.000    0.000    0.000 
#
# Total GULP energy -198388.298248 kJ/mol
# GULP energy per Si atom -12399.268640 kJ/mol
# Density = 2.185200 g / cm^3
# Si number density = 21.901853 Si / 1000 Ang^3
#
#
#
# Elastic Constant Matrix: (Units=GPa)
#
#
# Indices 1 2 3 4 5 6 
#
# 1 94.1306 8.4669 22.0885 -0.7728 11.3658 -9.2287
# 2 8.4669 107.2065 5.0719 -6.6711 4.4793 -10.2354
# 3 22.0885 5.0719 96.2428 -2.7645 16.6153 4.2091
# 4 -0.7728 -6.6711 -2.7645 35.1131 -4.7276 0.3410
# 5 11.3658 4.4793 16.6153 -4.7276 34.1829 -1.3201
# 6 -9.2287 -10.2354 4.2091 0.3410 -1.3201 38.4841
#
#
#
# Elastic Compliance Matrix: (Units=1/GPa)
#
#
# Indices 1 2 3 4 5 6 
#
# 1 0.011821 -0.000460 -0.002367 -0.000400 -0.002664 0.002883
# 2 -0.000460 0.009751 -0.000361 0.001707 -0.000617 0.002486
# 3 -0.002367 -0.000361 0.011917 0.000163 -0.005019 -0.002141
# 4 -0.000400 0.001707 0.000163 0.029330 0.003895 0.000214
# 5 -0.002664 -0.000617 -0.005019 0.003895 0.033232 0.000851
# 6 0.002883 0.002486 -0.002141 0.000214 0.000851 0.027599
#
#
# Mechanical properties :
#
#
# Convention : Reuss Voigt Hill
#
# Bulk Modulus (GPa) = 36.88237 40.98161 38.93199
# Shear Modulus (GPa) = 35.95471 39.01950 37.48711
#
# Velocity S-wave (km/s) = 4.05610 4.22543 4.14163
# Velocity P-wave (km/s) = 6.22995 6.52364 6.37848
#
# Compressibility (1/GPa) = 0.02711323
#
# Stress axis : x y z
#
# Youngs Moduli (GPa) = 84.59290 102.55805 83.91175
#
# Poissons Ratio (x) = 0.04717 0.19858
# Poissons Ratio (y) = 0.03891 0.03033
# Poissons Ratio (z) = 0.20019 0.03707
#
# Static dielectric constant tensor:
#      x y z
#    x 4.311190 0.019740 -0.115020 
#    y 0.019740 4.571860 -0.258120 
#    z -0.115020 -0.258120 4.096550 
# 
# 
# High freq. dielectric constant tensor:
#      x y z
#    x 1.869850 -0.010030 0.001130 
#    y -0.010030 1.873260 -0.004290 
#    z 0.001130 -0.004290 1.860010 
# 
# From -- ./inp_files/246070.got.cif
#   From: 2010.06.25/outbox.cif.g09.slc.cpg/sg2_124_cif.got.tgz:246070.got - 2010.06.27 13:26:56.
