data_PCOD8030139
_publ_section_title
;
Structure prediction by ZEFSAII (Michael W. Deem and Ramdas Pophale) SiO2 
 PCOD8030139
Probable space group: P -1
;
_chemical_formula_sum "Si O2"
_cell_formula_units_Z 16
_cell_length_a 8.761986
_cell_length_b 10.872589
_cell_length_c 16.390281
_cell_angle_alpha 70.665680
_cell_angle_beta 125.169562
_cell_angle_gamma 67.025010
_cell_volume 792.157885
_symmetry_space_group_name_H-M "P -1"
_symmetry_group_IT_number 2
_symmetry_cell_setting 'triclinic'
loop_
_space_group_symop_operation_xyz
x,y,z
-x,-y,-z
loop_
_atom_site_type_symbol
_atom_site_label
_atom_site_fract_x
_atom_site_fract_y
_atom_site_fract_z
Si Si1 0.217368 0.813052 0.205571
Si Si2 0.847782 0.564812 0.185768
Si Si3 0.851507 0.116738 0.650710
Si Si4 0.594987 0.117721 0.891631
Si Si5 0.534850 0.109170 0.132187
Si Si6 0.197701 0.155250 0.328320
Si Si7 0.275496 0.304901 0.173800
Si Si8 0.633430 0.552840 0.688032
O O1 0.306457 0.779489 0.334465
O O2 0.389281 0.833614 0.205385
O O3 0.308544 0.627873 0.235925
O O4 0.878532 0.010506 0.050586
O O5 0.674987 0.679707 0.189860
O O6 0.967000 0.354505 0.267913
O O7 0.115841 0.520951 0.274396
O O8 0.654794 0.686197 0.019447
O O9 0.661376 0.276850 0.486458
O O10 0.914013 0.932104 0.695402
O O11 0.139691 0.046439 0.756715
O O12 0.570618 0.975685 0.911728
O O13 0.505792 0.143073 0.212791
O O14 0.214662 0.211570 0.231861
O O15 0.500000 0.000000 0.500000
O O16 0.394554 0.359461 0.253543
O O17 0.000000 0.500000 0.000000
#
# Coordination Sequence:
#
# PCOD8030139 Si02
#       8
#     2   2   2   2   2   2   2   2
#     4  11  23  42  68  96 134 170 224 272 336 391
#     4  11  21  43  70  92 131 176 217 272 329 392
#     4  12  25  42  66 100 132 178 218 271 340 393
#     4  11  23  42  67 100 129 171 222 286 318 390
#     4  12  23  42  68 101 132 171 226 273 328 394
#     4  11  23  45  67  96 136 176 214 272 338 388
#     4  11  21  42  71  96 127 179 225 269 327 393
#     4  11  23  43  67  94 134 176 216 272 339 392
#
# _framework density 20.197994000000001
#
# number of rings (size 3 to 8) (size 9 to 14) (size 15 to 20)
#    0.000    0.750    7.500    2.250    0.000    3.000 
#    2.250    1.250    0.000    0.000    0.000    0.000 
#    0.000    0.000    0.000    0.000    0.000    0.000 
#
# Total GULP energy -198475.630678 kJ/mol
# GULP energy per Si atom -12404.726917 kJ/mol
# Density = 2.015202 g / cm^3
# Si number density = 20.197994 Si / 1000 Ang^3
#
#
#
# Elastic Constant Matrix: (Units=GPa)
#
#
# Indices 1 2 3 4 5 6 
#
# 1 79.7975 28.9793 29.4565 -1.1618 2.9637 -6.7765
# 2 28.9793 116.6977 15.7097 -2.9206 1.1637 -17.8954
# 3 29.4565 15.7097 92.2082 -1.0778 0.0502 -10.4049
# 4 -1.1618 -2.9206 -1.0778 33.3984 -1.1512 -2.6806
# 5 2.9637 1.1637 0.0502 -1.1512 24.5708 4.3467
# 6 -6.7765 -17.8954 -10.4049 -2.6806 4.3467 36.5761
#
#
#
# Elastic Compliance Matrix: (Units=1/GPa)
#
#
# Indices 1 2 3 4 5 6 
#
# 1 0.015374 -0.003172 -0.004338 0.000080 -0.001740 0.000275
# 2 -0.003172 0.010106 -0.000189 0.001098 -0.000837 0.004483
# 3 -0.004338 -0.000189 0.012574 0.000457 0.000049 0.002708
# 4 0.000080 0.001098 0.000457 0.030310 0.000862 0.002801
# 5 -0.001740 -0.000837 0.000049 0.000862 0.041987 -0.005645
# 6 0.000275 0.004483 0.002708 0.002801 -0.005645 0.031231
#
#
# Mechanical properties :
#
#
# Convention : Reuss Voigt Hill
#
# Bulk Modulus (GPa) = 44.14078 48.55493 46.34786
# Shear Modulus (GPa) = 30.38916 33.21294 31.80105
#
# Velocity S-wave (km/s) = 3.88308 4.05948 3.97226
# Velocity P-wave (km/s) = 6.48119 6.78706 6.63589
#
# Compressibility (1/GPa) = 0.02265479
#
# Stress axis : x y z
#
# Youngs Moduli (GPa) = 65.04372 98.95449 79.52922
#
# Poissons Ratio (x) = 0.31392 0.34500
# Poissons Ratio (y) = 0.20634 0.01504
# Poissons Ratio (z) = 0.28216 0.01872
#
# Static dielectric constant tensor:
#      x y z
#    x 3.682180 -0.039510 -0.113630 
#    y -0.039510 3.885870 -0.041060 
#    z -0.113630 -0.041060 3.710770 
# 
# 
# High freq. dielectric constant tensor:
#      x y z
#    x 1.781450 0.000260 -0.006370 
#    y 0.000260 1.799960 -0.002330 
#    z -0.006370 -0.002330 1.789890 
# 
# From -- ./inp_files/179361.got.cif
#   From: 2010.06.25/outbox.cif.g09.slc.cpg/sg2_90_cif.got.tgz:179361.got - 2010.06.27 13:26:56.
