data_PCOD8030778
_publ_section_title
;
Structure prediction by ZEFSAII (Michael W. Deem and Ramdas Pophale) SiO2 
 PCOD8030778
Probable space group: P -1
;
_chemical_formula_sum "Si O2"
_cell_formula_units_Z 16
_cell_length_a 9.705017
_cell_length_b 9.310982
_cell_length_c 12.169890
_cell_angle_alpha 56.160288
_cell_angle_beta 61.587873
_cell_angle_gamma 62.284493
_cell_volume 772.666025
_symmetry_space_group_name_H-M "P -1"
_symmetry_group_IT_number 2
_symmetry_cell_setting 'triclinic'
loop_
_space_group_symop_operation_xyz
x,y,z
-x,-y,-z
loop_
_atom_site_type_symbol
_atom_site_label
_atom_site_fract_x
_atom_site_fract_y
_atom_site_fract_z
Si Si1 0.933365 0.861767 0.244089
Si Si2 0.232486 0.488328 0.991156
Si Si3 0.934066 0.019067 0.640358
Si Si4 0.927536 0.389684 0.212876
Si Si5 0.209470 0.809174 0.993138
Si Si6 0.604080 0.306248 0.670090
Si Si7 0.484485 0.823688 0.024813
Si Si8 0.284779 0.400561 0.612223
O O1 0.801045 0.746690 0.338424
O O2 0.977115 0.878834 0.349091
O O3 0.873216 0.059071 0.129458
O O4 0.090627 0.769926 0.149826
O O5 0.220549 0.555405 0.841105
O O6 0.302658 0.619596 0.984060
O O7 0.346114 0.286170 0.046871
O O8 0.049947 0.510324 0.094065
O O9 0.743350 0.124157 0.663807
O O10 0.000000 0.000000 0.500000
O O11 0.967288 0.815277 0.755494
O O12 0.844527 0.441375 0.340292
O O13 0.345582 0.890742 0.958743
O O14 0.567453 0.306978 0.812704
O O15 0.443099 0.300290 0.665565
O O16 0.657255 0.489273 0.553779
O O17 0.500000 0.000000 0.000000
#
# Coordination Sequence:
#
# PCOD8030778 Si02
#       8
#     2   2   2   2   2   2   2   2
#     4  11  24  42  68  98 132 174 224 276 338 391
#     4  11  23  39  66  96 135 173 218 274 334 392
#     4  12  24  44  67  95 131 174 225 277 324 403
#     4  11  22  40  67  96 128 176 219 270 338 393
#     4  11  23  40  66  98 136 170 219 281 334 393
#     4  11  24  42  69  96 132 177 224 266 340 395
#     4  12  24  41  67  99 136 171 222 280 332 399
#     4  11  23  45  69  94 134 180 222 274 332 404
#
# _framework density 20.707523999999999
#
# number of rings (size 3 to 8) (size 9 to 14) (size 15 to 20)
#    0.000    0.750    6.250    1.875    0.000    0.500 
#    2.250    0.625    0.000    0.000    0.000    0.000 
#    0.000    0.000    0.000    0.000    0.000    0.000 
#
# Total GULP energy -198354.220489 kJ/mol
# GULP energy per Si atom -12397.138781 kJ/mol
# Density = 2.066039 g / cm^3
# Si number density = 20.707524 Si / 1000 Ang^3
#
#
#
# Elastic Constant Matrix: (Units=GPa)
#
#
# Indices 1 2 3 4 5 6 
#
# 1 119.0988 53.2075 25.6735 6.4460 0.1344 7.0541
# 2 53.2075 122.4254 12.1266 3.5380 -5.3530 6.9338
# 3 25.6735 12.1266 75.5114 4.4515 0.4901 13.9737
# 4 6.4460 3.5380 4.4515 30.3274 2.3878 0.0176
# 5 0.1344 -5.3530 0.4901 2.3878 27.8345 -1.2743
# 6 7.0541 6.9338 13.9737 0.0176 -1.2743 44.7714
#
#
#
# Elastic Compliance Matrix: (Units=1/GPa)
#
#
# Indices 1 2 3 4 5 6 
#
# 1 0.011141 -0.004536 -0.002946 -0.001346 -0.000766 -0.000154
# 2 -0.004536 0.010280 0.000057 -0.000400 0.001994 -0.000838
# 3 -0.002946 0.000057 0.015121 -0.001574 -0.000302 -0.004272
# 4 -0.001346 -0.000400 -0.001574 0.033766 -0.002909 0.000669
# 5 -0.000766 0.001994 -0.000302 -0.002909 0.036612 0.000949
# 6 -0.000154 -0.000838 -0.004272 0.000669 0.000949 0.023850
#
#
# Mechanical properties :
#
#
# Convention : Reuss Voigt Hill
#
# Bulk Modulus (GPa) = 46.10160 55.45010 50.77585
# Shear Modulus (GPa) = 32.71159 35.65518 34.18338
#
# Velocity S-wave (km/s) = 3.97885 4.15402 4.06738
# Velocity P-wave (km/s) = 6.58938 7.06001 6.82875
#
# Compressibility (1/GPa) = 0.02169122
#
# Stress axis : x y z
#
# Youngs Moduli (GPa) = 89.75982 97.27453 66.13344
#
# Poissons Ratio (x) = 0.44123 0.19486
# Poissons Ratio (y) = 0.40714 -0.00377
# Poissons Ratio (z) = 0.26448 -0.00555
#
# Static dielectric constant tensor:
#      x y z
#    x 3.801580 -0.114230 0.092510 
#    y -0.114230 3.695640 0.049260 
#    z 0.092510 0.049260 3.822960 
# 
# 
# High freq. dielectric constant tensor:
#      x y z
#    x 1.814460 -0.008050 0.003880 
#    y -0.008050 1.813540 -0.000480 
#    z 0.003880 -0.000480 1.803540 
# 
# From -- ./inp_files/185791.got.cif
#   From: 2010.06.25/outbox.cif.g09.slc.cpg/sg2_93_cif.got.tgz:185791.got - 2010.06.27 13:26:56.
