data_PCOD8030667
_publ_section_title
;
Structure prediction by ZEFSAII (Michael W. Deem and Ramdas Pophale) SiO2 
 PCOD8030667
Probable space group: P -1
;
_chemical_formula_sum "Si O2"
_cell_formula_units_Z 16
_cell_length_a 12.985936
_cell_length_b 26.003880
_cell_length_c 15.837026
_cell_angle_alpha 24.641736
_cell_angle_beta 26.107962
_cell_angle_gamma 24.407154
_cell_volume 841.280530
_symmetry_space_group_name_H-M "P -1"
_symmetry_group_IT_number 2
_symmetry_cell_setting 'triclinic'
loop_
_space_group_symop_operation_xyz
x,y,z
-x,-y,-z
loop_
_atom_site_type_symbol
_atom_site_label
_atom_site_fract_x
_atom_site_fract_y
_atom_site_fract_z
Si Si1 0.381048 0.559310 0.906552
Si Si2 0.932540 0.742826 0.325652
Si Si3 0.745583 0.660643 0.437095
Si Si4 0.786650 0.795024 0.636318
Si Si5 0.155868 0.413741 0.704469
Si Si6 0.514578 0.627657 0.051490
Si Si7 0.607010 0.426045 0.440705
Si Si8 0.249677 0.022555 0.762525
O O1 0.460063 0.678777 0.651424
O O2 0.514143 0.444493 0.904504
O O3 0.500000 0.500000 0.000000
O O4 0.058747 0.623072 0.042154
O O5 0.794765 0.769537 0.294522
O O6 0.728291 0.869980 0.348169
O O7 0.005497 0.585090 0.540207
O O8 0.202976 0.755188 0.105552
O O9 0.724091 0.691817 0.307136
O O10 0.000000 0.500000 0.500000
O O11 0.798176 0.908981 0.396990
O O12 0.084281 0.705185 0.591378
O O13 0.546888 0.875142 0.763861
O O14 0.717838 0.686726 0.798596
O O15 0.407020 0.367440 0.651642
O O16 0.604314 0.529972 0.215005
O O17 0.500000 0.500000 0.500000
O O18 0.000000 0.000000 0.000000
#
# Coordination Sequence:
#
# PCOD8030667 Si02
#       8
#     2   2   2   2   2   2   2   2
#     4  12  18  29  55  85 118 151 175 226 303 352
#     4  10  17  33  55  78 114 146 178 240 283 333
#     4  10  17  31  48  82 116 140 184 228 292 343
#     4  11  24  38  59  82 114 158 197 235 291 347
#     4  10  20  34  51  85 119 144 182 236 294 347
#     4  11  20  35  57  88 122 144 189 239 291 356
#     4  11  22  38  58  84 122 159 187 237 301 349
#     4  11  23  41  57  81 114 155 203 245 279 335
#
# _framework density 19.018626000000001
#
# number of rings (size 3 to 8) (size 9 to 14) (size 15 to 20)
#    0.000    1.250    7.500    3.375    0.000    0.000 
#    0.000    0.000    0.000    0.750    0.000    1.750 
#    0.000    0.000    0.000    0.000    0.000    0.000 
#
# Total GULP energy -198263.089112 kJ/mol
# GULP energy per Si atom -12391.443069 kJ/mol
# Density = 1.897534 g / cm^3
# Si number density = 19.018626 Si / 1000 Ang^3
#
#
#
# Elastic Constant Matrix: (Units=GPa)
#
#
# Indices 1 2 3 4 5 6 
#
# 1 124.8837 62.6027 25.4815 12.1812 -13.1652 9.9755
# 2 62.6027 101.4006 33.9928 21.7755 -8.4753 3.7010
# 3 25.4815 33.9928 98.6449 29.2087 -12.5579 -13.9923
# 4 12.1812 21.7755 29.2087 29.4947 -3.5383 -6.0525
# 5 -13.1652 -8.4753 -12.5579 -3.5383 34.4026 12.5039
# 6 9.9755 3.7010 -13.9923 -6.0525 12.5039 30.2872
#
#
#
# Elastic Compliance Matrix: (Units=1/GPa)
#
#
# Indices 1 2 3 4 5 6 
#
# 1 0.012631 -0.006867 -0.001243 0.000475 0.004846 -0.005801
# 2 -0.006867 0.016611 -0.001818 -0.008049 0.000916 -0.002595
# 3 -0.001243 -0.001818 0.015675 -0.012499 0.001834 0.004618
# 4 0.000475 -0.008049 -0.012499 0.053067 -0.003485 0.007096
# 5 0.004846 0.000916 0.001834 -0.003485 0.037678 -0.017112
# 6 -0.005801 -0.002595 0.004618 0.007096 -0.017112 0.045861
#
#
# Mechanical properties :
#
#
# Convention : Reuss Voigt Hill
#
# Bulk Modulus (GPa) = 39.90412 63.23147 51.56780
# Shear Modulus (GPa) = 23.83989 32.36039 28.10014
#
# Velocity S-wave (km/s) = 3.54432 4.12941 3.84800
# Velocity P-wave (km/s) = 6.14628 7.48701 6.84953
#
# Compressibility (1/GPa) = 0.02506007
#
# Stress axis : x y z
#
# Youngs Moduli (GPa) = 79.16900 60.20223 63.79759
#
# Poissons Ratio (x) = 0.41339 0.07931
# Poissons Ratio (y) = 0.54364 0.11600
# Poissons Ratio (z) = 0.09842 0.10946
#
# Static dielectric constant tensor:
#      x y z
#    x 3.709670 0.227030 -0.189120 
#    y 0.227030 3.388720 0.408000 
#    z -0.189120 0.408000 3.612450 
# 
# 
# High freq. dielectric constant tensor:
#      x y z
#    x 1.744650 0.025050 -0.018590 
#    y 0.025050 1.705110 0.041160 
#    z -0.018590 0.041160 1.737440 
# 
# From -- ./inp_files/454723.got.cif
#   From: 2010.06.25/outbox.cif.g09.slc.cpg/sg2_228_cif.got.tgz:454723.got - 2010.06.27 13:26:56.
