data_PCOD8030224
_publ_section_title
;
Structure prediction by ZEFSAII (Michael W. Deem and Ramdas Pophale) SiO2 
 PCOD8030224
Probable space group: P -1
;
_chemical_formula_sum "Si O2"
_cell_formula_units_Z 16
_cell_length_a 6.451654
_cell_length_b 9.247734
_cell_length_c 18.595283
_cell_angle_alpha 116.915718
_cell_angle_beta 53.970605
_cell_angle_gamma 97.500126
_cell_volume 785.736714
_symmetry_space_group_name_H-M "P -1"
_symmetry_group_IT_number 2
_symmetry_cell_setting 'triclinic'
loop_
_space_group_symop_operation_xyz
x,y,z
-x,-y,-z
loop_
_atom_site_type_symbol
_atom_site_label
_atom_site_fract_x
_atom_site_fract_y
_atom_site_fract_z
Si Si1 0.383535 0.837943 0.005199
Si Si2 0.701783 0.569188 0.378709
Si Si3 0.947922 0.667445 0.003375
Si Si4 0.380519 0.883480 0.446266
Si Si5 0.788977 0.964190 0.629135
Si Si6 0.646586 0.212786 0.838099
Si Si7 0.753117 0.616493 0.539988
Si Si8 0.151123 0.452618 0.154890
O O1 0.595195 0.678411 0.905547
O O2 0.293604 0.853476 0.109261
O O3 0.128511 0.805073 0.007676
O O4 0.500000 0.000000 0.000000
O O5 0.550385 0.703153 0.384155
O O6 0.797272 0.640028 0.450137
O O7 0.512529 0.446551 0.409036
O O8 0.956471 0.470205 0.265496
O O9 0.660942 0.757776 0.105094
O O10 0.979973 0.615736 0.902258
O O11 0.000000 0.500000 0.000000
O O12 0.080353 0.893765 0.527694
O O13 0.500000 0.000000 0.500000
O O14 0.396150 0.932218 0.370367
O O15 0.689503 0.796289 0.630539
O O16 0.793250 0.075647 0.723096
O O17 0.762332 0.376618 0.842113
O O18 0.000000 0.500000 0.500000
#
# Coordination Sequence:
#
# PCOD8030224 Si02
#       8
#     2   2   2   2   2   2   2   2
#     4  11  25  45  67 100 140 171 217 284 331 397
#     4  11  25  41  68  94 132 179 220 272 338 394
#     4  11  21  43  70  93 131 177 213 269 339 392
#     4  11  22  41  61  94 130 165 222 277 322 389
#     4  11  25  39  66  96 131 171 222 278 332 388
#     4  11  24  41  67 101 130 170 229 272 329 400
#     4  11  24  46  62  91 138 178 216 272 333 404
#     4  11  24  42  68 101 129 170 233 270 325 407
#
# _framework density 20.363054999999999
#
# number of rings (size 3 to 8) (size 9 to 14) (size 15 to 20)
#    0.000    1.000    5.000    1.500    3.500    7.000 
#    0.000    0.000    0.000    0.000    0.000    0.000 
#    0.000    0.000    0.000    0.000    0.000    0.000 
#
# Total GULP energy -198381.690991 kJ/mol
# GULP energy per Si atom -12398.855687 kJ/mol
# Density = 2.031671 g / cm^3
# Si number density = 20.363055 Si / 1000 Ang^3
#
#
#
# Elastic Constant Matrix: (Units=GPa)
#
#
# Indices 1 2 3 4 5 6 
#
# 1 108.1476 33.0816 27.3137 -2.4052 11.7042 8.1548
# 2 33.0816 114.0123 33.5775 7.2731 11.6637 11.6566
# 3 27.3137 33.5775 104.7839 -3.2739 10.0390 -3.6092
# 4 -2.4052 7.2731 -3.2739 29.5440 6.0306 0.1050
# 5 11.7042 11.6637 10.0390 6.0306 16.9443 3.0502
# 6 8.1548 11.6566 -3.6092 0.1050 3.0502 42.6946
#
#
#
# Elastic Compliance Matrix: (Units=1/GPa)
#
#
# Indices 1 2 3 4 5 6 
#
# 1 0.011102 -0.002179 -0.001599 0.002467 -0.005875 -0.001247
# 2 -0.002179 0.010973 -0.002832 -0.002574 -0.002986 -0.002599
# 3 -0.001599 -0.002832 0.011546 0.002911 -0.005259 0.002423
# 4 0.002467 -0.002574 0.002911 0.038165 -0.015509 0.001492
# 5 -0.005875 -0.002986 -0.005259 -0.015509 0.074448 -0.003788
# 6 -0.001247 -0.002599 0.002423 0.001492 -0.003788 0.024842
#
#
# Mechanical properties :
#
#
# Convention : Reuss Voigt Hill
#
# Bulk Modulus (GPa) = 49.01790 57.20993 53.11391
# Shear Modulus (GPa) = 26.16499 33.36800 29.76650
#
# Velocity S-wave (km/s) = 3.58847 4.05242 3.82748
# Velocity P-wave (km/s) = 6.42602 7.07475 6.75818
#
# Compressibility (1/GPa) = 0.02040071
#
# Stress axis : x y z
#
# Youngs Moduli (GPa) = 90.07665 91.13454 86.61061
#
# Poissons Ratio (x) = 0.19861 0.13845
# Poissons Ratio (y) = 0.19631 0.24528
# Poissons Ratio (z) = 0.14399 0.25809
#
# Static dielectric constant tensor:
#      x y z
#    x 3.509450 -0.171910 -0.006970 
#    y -0.171910 3.822630 0.014980 
#    z -0.006970 0.014980 4.098020 
# 
# 
# High freq. dielectric constant tensor:
#      x y z
#    x 1.810630 0.007880 0.004270 
#    y 0.007880 1.801820 0.002790 
#    z 0.004270 0.002790 1.791870 
# 
# From -- ./inp_files/49261.got.cif
#   From: 2010.06.25/outbox.cif.g09.slc.cpg/sg2_25_cif.got.tgz:49261.got - 2010.06.27 13:26:56.
