data_PCOD8030724
_publ_section_title
;
Structure prediction by ZEFSAII (Michael W. Deem and Ramdas Pophale) SiO2 
 PCOD8030724
Probable space group: P -1
;
_chemical_formula_sum "Si O2"
_cell_formula_units_Z 14
_cell_length_a 15.831655
_cell_length_b 11.753548
_cell_length_c 6.469586
_cell_angle_alpha 56.591225
_cell_angle_beta 137.239667
_cell_angle_gamma 131.529294
_cell_volume 607.024405
_symmetry_space_group_name_H-M "P -1"
_symmetry_group_IT_number 2
_symmetry_cell_setting 'triclinic'
loop_
_space_group_symop_operation_xyz
x,y,z
-x,-y,-z
loop_
_atom_site_type_symbol
_atom_site_label
_atom_site_fract_x
_atom_site_fract_y
_atom_site_fract_z
Si Si1 0.607283 0.053742 0.829975
Si Si2 0.841513 0.170725 0.824774
Si Si3 0.146956 0.323467 0.120935
Si Si4 0.242449 0.580626 0.730522
Si Si5 0.333011 0.416528 0.743173
Si Si6 0.757600 0.838182 0.850638
Si Si7 0.499959 0.783892 0.216163
O O1 0.765069 0.132428 0.946955
O O2 0.587449 0.174702 0.814710
O O3 0.500000 0.000000 0.500000
O O4 0.587267 0.913256 0.076652
O O5 0.796920 0.281006 0.502858
O O6 0.796955 0.015921 0.767909
O O7 0.007438 0.253717 0.080800
O O8 0.287424 0.393723 0.443539
O O9 0.137616 0.186125 0.093014
O O10 0.137664 0.451474 0.827636
O O11 0.257938 0.513022 0.606722
O O12 0.394475 0.637678 0.047988
O O13 0.500000 0.500000 0.000000
O O14 0.257881 0.244942 0.874789
O O15 0.605606 0.743145 0.571134
#
# Coordination Sequence:
#
# PCOD8030724 Si02
#       7
#     2   2   2   2   2   2   2
#     4  11  22  40  64 107 140 169 226 288 340 395
#     4  12  25  45  72 102 141 178 231 285 336 416
#     4  11  27  48  66 100 143 190 218 276 359 401
#     4  11  25  45  70 101 138 179 231 285 335 409
#     4  11  26  47  70  99 138 183 235 279 337 416
#     4  11  25  45  70 101 138 179 231 285 335 409
#     4  11  22  41  70 104 132 176 224 288 346 386
#
# _framework density 23.063323
#
# number of rings (size 3 to 8) (size 9 to 14) (size 15 to 20)
#    0.000    0.857    2.857    3.429    8.000    3.429 
#   10.286    0.000    0.000    0.000    0.000    0.000 
#    0.000    0.000    0.000    0.000    0.000    0.000 
#
# Total GULP energy -173581.909298 kJ/mol
# GULP energy per Si atom -12398.707807 kJ/mol
# Density = 2.301083 g / cm^3
# Si number density = 23.063323 Si / 1000 Ang^3
#
#
#
# Elastic Constant Matrix: (Units=GPa)
#
#
# Indices 1 2 3 4 5 6 
#
# 1 143.3040 58.8578 37.7382 -13.9661 -12.3113 25.9690
# 2 58.8578 105.2447 34.9388 -14.1838 5.6670 -14.1524
# 3 37.7382 34.9388 84.7854 -6.3399 -4.6026 -7.2923
# 4 -13.9661 -14.1838 -6.3399 35.4498 0.6734 11.5553
# 5 -12.3113 5.6670 -4.6026 0.6734 35.2335 7.2767
# 6 25.9690 -14.1524 -7.2923 11.5553 7.2767 34.7967
#
#
#
# Elastic Compliance Matrix: (Units=1/GPa)
#
#
# Indices 1 2 3 4 5 6 
#
# 1 0.021865 -0.013889 -0.004893 0.011690 0.015219 -0.030057
# 2 -0.013889 0.020932 -0.001531 -0.004554 -0.013041 0.022798
# 3 -0.004893 -0.001531 0.015002 -0.002148 -0.000925 0.007080
# 4 0.011690 -0.004554 -0.002148 0.038858 0.009131 -0.025840
# 5 0.015219 -0.013041 -0.000925 0.009131 0.041398 -0.028545
# 6 -0.030057 0.022798 0.007080 -0.025840 -0.028545 0.076477
#
#
# Mechanical properties :
#
#
# Convention : Reuss Voigt Hill
#
# Bulk Modulus (GPa) = 58.23961 66.26710 62.25335
# Shear Modulus (GPa) = 19.16578 34.54930 26.85754
#
# Velocity S-wave (km/s) = 2.88585 3.87462 3.41620
# Velocity P-wave (km/s) = 6.03415 6.98656 6.52775
#
# Compressibility (1/GPa) = 0.01717044
#
# Stress axis : x y z
#
# Youngs Moduli (GPa) = 45.73498 47.77464 66.65935
#
# Poissons Ratio (x) = 0.66356 0.32620
# Poissons Ratio (y) = 0.63523 0.10207
# Poissons Ratio (z) = 0.22380 0.07315
#
# Static dielectric constant tensor:
#      x y z
#    x 4.457550 -0.317930 0.065320 
#    y -0.317930 4.861400 -0.512150 
#    z 0.065320 -0.512150 4.197670 
# 
# 
# High freq. dielectric constant tensor:
#      x y z
#    x 1.921070 -0.003270 -0.007270 
#    y -0.003270 1.912450 -0.011760 
#    z -0.007270 -0.011760 1.903260 
# 
# From -- ./inp_files/69238.got.cif
#   From: 2010.06.25/outbox.cif.g09.slc.cpg/sg2_35_cif.got.tgz:69238.got - 2010.06.27 13:26:56.
