data_PCOD8030531
_publ_section_title
;
Structure prediction by ZEFSAII (Michael W. Deem and Ramdas Pophale) SiO2 
 PCOD8030531
Probable space group: P -1
;
_chemical_formula_sum "Si O2"
_cell_formula_units_Z 16
_cell_length_a 13.291710
_cell_length_b 10.279823
_cell_length_c 16.049521
_cell_angle_alpha 66.987146
_cell_angle_beta 153.105582
_cell_angle_gamma 95.223759
_cell_volume 717.278440
_symmetry_space_group_name_H-M "P -1"
_symmetry_group_IT_number 2
_symmetry_cell_setting 'triclinic'
loop_
_space_group_symop_operation_xyz
x,y,z
-x,-y,-z
loop_
_atom_site_type_symbol
_atom_site_label
_atom_site_fract_x
_atom_site_fract_y
_atom_site_fract_z
Si Si1 0.334650 0.507807 0.794985
Si Si2 0.499045 0.143671 0.575966
Si Si3 0.331085 0.205562 0.787771
Si Si4 0.059365 0.672020 0.964059
Si Si5 0.137123 0.259556 0.023862
Si Si6 0.528881 0.623388 0.767766
Si Si7 0.164589 0.788803 0.306998
Si Si8 0.394572 0.815884 0.178853
O O1 0.367611 0.325068 0.848747
O O2 0.510784 0.519263 0.852815
O O3 0.006042 0.687885 0.502007
O O4 0.500000 0.500000 0.000000
O O5 0.585195 0.236979 0.554529
O O6 0.417766 0.231291 0.587175
O O7 0.238415 0.160733 0.337657
O O8 0.765914 0.935301 0.828596
O O9 0.448577 0.193970 0.785914
O O10 0.500000 0.000000 0.000000
O O11 0.025100 0.621251 0.043623
O O12 0.174551 0.505947 0.030182
O O13 0.314723 0.684107 0.144884
O O14 0.413106 0.236064 0.198038
O O15 0.916847 0.326947 0.768644
O O16 0.257577 0.712325 0.487400
O O17 0.897719 0.991438 0.071128
#
# Coordination Sequence:
#
# PCOD8030531 Si02
#       8
#     2   2   2   2   2   2   2   2
#     4  11  28  51  74 104 145 181 240 312 365 417
#     4  11  22  37  64  94 135 178 221 270 323 405
#     4  11  26  50  79 105 136 187 246 303 361 427
#     4  12  22  38  60  95 134 174 213 257 329 404
#     4  11  22  39  62  95 135 178 218 263 328 411
#     4  12  26  40  62  96 132 178 215 276 345 406
#     4  11  22  40  64  94 136 177 221 269 329 409
#     4  11  22  41  69  95 128 174 223 276 339 402
#
# _framework density 22.306539000000001
#
# number of rings (size 3 to 8) (size 9 to 14) (size 15 to 20)
#    0.000    0.750    5.000    3.000    1.750    6.000 
#    0.000    0.000    0.000    0.000    0.000    0.000 
#    0.000    0.000    0.000    0.000    0.000    0.000 
#
# Total GULP energy -198243.537760 kJ/mol
# GULP energy per Si atom -12390.221110 kJ/mol
# Density = 2.225577 g / cm^3
# Si number density = 22.306539 Si / 1000 Ang^3
#
#
#
# Elastic Constant Matrix: (Units=GPa)
#
#
# Indices 1 2 3 4 5 6 
#
# 1 413.4624 -19.2226 233.6921 -6.2727 -17.3690 -61.2122
# 2 -19.2226 104.5719 6.0859 26.8808 -7.1252 24.5879
# 3 233.6921 6.0859 234.2241 7.5786 -12.5492 -44.9736
# 4 -6.2727 26.8808 7.5786 43.2027 -5.9755 4.8566
# 5 -17.3690 -7.1252 -12.5492 -5.9755 32.4762 4.4523
# 6 -61.2122 24.5879 -44.9736 4.8566 4.4523 46.3855
#
#
#
# Elastic Compliance Matrix: (Units=1/GPa)
#
#
# Indices 1 2 3 4 5 6 
#
# 1 0.005946 0.000732 -0.005589 0.001352 0.001185 0.001784
# 2 0.000732 0.013591 -0.002268 -0.006733 0.002349 -0.007958
# 3 -0.005589 -0.002268 0.010822 -0.001846 -0.000267 0.004537
# 4 0.001352 -0.006733 -0.001846 0.028343 0.003715 0.000239
# 5 0.001185 0.002349 -0.000267 0.003715 0.033001 -0.003497
# 6 0.001784 -0.007958 0.004537 0.000239 -0.003497 0.032841
#
#
# Mechanical properties :
#
#
# Convention : Reuss Voigt Hill
#
# Bulk Modulus (GPa) = 62.07742 132.59658 97.33700
# Shear Modulus (GPa) = 34.68280 59.85976 47.27128
#
# Velocity S-wave (km/s) = 3.94741 5.18588 4.60844
# Velocity P-wave (km/s) = 6.97608 9.76881 8.48809
#
# Compressibility (1/GPa) = 0.01610892
#
# Stress axis : x y z
#
# Youngs Moduli (GPa) = 168.17250 73.57695 92.40696
#
# Poissons Ratio (x) = -0.05387 0.51650
# Poissons Ratio (y) = -0.12312 0.20956
# Poissons Ratio (z) = 0.93999 0.16686
#
# Static dielectric constant tensor:
#      x y z
#    x 4.290770 -0.137240 -0.286430 
#    y -0.137240 4.404340 0.196430 
#    z -0.286430 0.196430 4.171160 
# 
# 
# High freq. dielectric constant tensor:
#      x y z
#    x 1.871970 -0.003890 -0.002460 
#    y -0.003890 1.893640 0.011750 
#    z -0.002460 0.011750 1.882910 
# 
# From -- ./inp_files/519640.got.cif
#   From: 2010.06.25/outbox.cif.g09.slc.cpg/sg2_260_cif.got.tgz:519640.got - 2010.06.27 13:26:56.
