data_PCOD8030180
_publ_section_title
;
Structure prediction by ZEFSAII (Michael W. Deem and Ramdas Pophale) SiO2 
 PCOD8030180
Probable space group: P -1
;
_chemical_formula_sum "Si O2"
_cell_formula_units_Z 14
_cell_length_a 8.332983
_cell_length_b 7.843482
_cell_length_c 12.053138
_cell_angle_alpha 74.670080
_cell_angle_beta 76.226958
_cell_angle_gamma 53.079158
_cell_volume 604.183045
_symmetry_space_group_name_H-M "P -1"
_symmetry_group_IT_number 2
_symmetry_cell_setting 'triclinic'
loop_
_space_group_symop_operation_xyz
x,y,z
-x,-y,-z
loop_
_atom_site_type_symbol
_atom_site_label
_atom_site_fract_x
_atom_site_fract_y
_atom_site_fract_z
Si Si1 0.976850 0.324661 0.834991
Si Si2 0.184095 0.200449 0.211463
Si Si3 0.695582 0.192708 0.876243
Si Si4 0.395824 0.918000 0.872262
Si Si5 0.890470 0.228011 0.424571
Si Si6 0.452334 0.632471 0.721114
Si Si7 0.850341 0.465328 0.593415
O O1 0.898036 0.558893 0.859693
O O2 0.832628 0.252145 0.909278
O O3 0.977087 0.311824 0.702504
O O4 0.200948 0.161962 0.870251
O O5 0.425161 0.069398 0.205569
O O6 0.065043 0.245817 0.339273
O O7 0.155574 0.045251 0.164885
O O8 0.553080 0.379988 0.777581
O O9 0.558396 0.181533 0.994002
O O10 0.357218 0.776601 0.821589
O O11 0.724152 0.280943 0.352695
O O12 0.780099 0.375935 0.523848
O O13 0.000000 0.000000 0.500000
O O14 0.630486 0.658363 0.644767
O O15 0.000000 0.500000 0.500000
#
# Coordination Sequence:
#
# PCOD8030180 Si02
#       7
#     2   2   2   2   2   2   2
#     4  11  25  46  71 103 146 179 237 286 345 424
#     4  12  26  46  69 109 138 180 245 285 339 428
#     4  11  25  47  72 102 143 183 235 286 354 414
#     4  12  24  47  73 102 142 189 226 293 353 405
#     4  12  25  44  68 100 141 182 235 287 350 415
#     4  11  24  44  72 101 139 188 231 286 349 419
#     4  11  21  43  66  98 136 178 229 285 342 409
#
# _framework density 23.171786999999998
#
# number of rings (size 3 to 8) (size 9 to 14) (size 15 to 20)
#    0.000    0.571    4.286    5.143    2.000    1.714 
#    0.000    2.857    0.000    0.000    0.000    0.000 
#    0.000    0.000    0.000    0.000    0.000    0.000 
#
# Total GULP energy -173460.739026 kJ/mol
# GULP energy per Si atom -12390.052788 kJ/mol
# Density = 2.311905 g / cm^3
# Si number density = 23.171787 Si / 1000 Ang^3
#
#
#
# Elastic Constant Matrix: (Units=GPa)
#
#
# Indices 1 2 3 4 5 6 
#
# 1 93.1142 41.6207 33.2553 -26.1690 -14.9279 -22.4132
# 2 41.6207 144.9508 21.6635 -5.2081 4.9512 5.1812
# 3 33.2553 21.6635 102.2384 -0.3482 -2.9704 -13.9699
# 4 -26.1690 -5.2081 -0.3482 28.1663 -0.7346 7.7369
# 5 -14.9279 4.9512 -2.9704 -0.7346 37.5003 2.9727
# 6 -22.4132 5.1812 -13.9699 7.7369 2.9727 48.7984
#
#
#
# Elastic Compliance Matrix: (Units=1/GPa)
#
#
# Indices 1 2 3 4 5 6 
#
# 1 0.023848 -0.005918 -0.005281 0.019497 0.009732 0.006386
# 2 -0.005918 0.008781 -0.000465 -0.003122 -0.003369 -0.003084
# 3 -0.005281 -0.000465 0.011805 -0.005417 -0.001366 0.001945
# 4 0.019497 -0.003122 -0.005417 0.053562 0.008897 -0.001298
# 5 0.009732 -0.003369 -0.001366 0.008897 0.030961 0.001140
# 6 0.006386 -0.003084 0.001945 -0.001298 0.001140 0.024446
#
#
# Mechanical properties :
#
#
# Convention : Reuss Voigt Hill
#
# Bulk Modulus (GPa) = 47.38466 59.26471 53.32468
# Shear Modulus (GPa) = 27.20814 39.14393 33.17604
#
# Velocity S-wave (km/s) = 3.43037 4.11456 3.78794
# Velocity P-wave (km/s) = 6.01528 6.94295 6.49570
#
# Compressibility (1/GPa) = 0.02110388
#
# Stress axis : x y z
#
# Youngs Moduli (GPa) = 41.93236 113.88220 84.70855
#
# Poissons Ratio (x) = 0.67401 0.44737
# Poissons Ratio (y) = 0.24818 0.03942
# Poissons Ratio (z) = 0.22146 0.05300
#
# Static dielectric constant tensor:
#      x y z
#    x 4.904470 0.219820 -0.538550 
#    y 0.219820 4.305330 0.142720 
#    z -0.538550 0.142720 4.305860 
# 
# 
# High freq. dielectric constant tensor:
#      x y z
#    x 1.917050 0.006820 -0.009250 
#    y 0.006820 1.913680 0.018510 
#    z -0.009250 0.018510 1.921410 
# 
# From -- ./inp_files/203487.got.cif
#   From: 2010.06.25/outbox.cif.g09.slc.cpg/sg2_102_cif.got.tgz:203487.got - 2010.06.27 13:26:56.
