data_PCOD8030470
_publ_section_title
;
Structure prediction by ZEFSAII (Michael W. Deem and Ramdas Pophale) SiO2 
 PCOD8030470
Probable space group: P -1
;
_chemical_formula_sum "Si O2"
_cell_formula_units_Z 16
_cell_length_a 13.316626
_cell_length_b 18.595803
_cell_length_c 9.662806
_cell_angle_alpha 26.082373
_cell_angle_beta 134.365325
_cell_angle_gamma 133.095931
_cell_volume 740.410361
_symmetry_space_group_name_H-M "P -1"
_symmetry_group_IT_number 2
_symmetry_cell_setting 'triclinic'
loop_
_space_group_symop_operation_xyz
x,y,z
-x,-y,-z
loop_
_atom_site_type_symbol
_atom_site_label
_atom_site_fract_x
_atom_site_fract_y
_atom_site_fract_z
Si Si1 0.113641 0.506041 0.717970
Si Si2 0.240275 0.889337 0.604697
Si Si3 0.397377 0.231354 0.096308
Si Si4 0.447849 0.836747 0.141946
Si Si5 0.705266 0.176256 0.531881
Si Si6 0.638753 0.490355 0.231217
Si Si7 0.680590 0.804740 0.216014
Si Si8 0.041143 0.349831 0.206909
O O1 0.177248 0.691288 0.508468
O O2 0.238903 0.431984 0.892139
O O3 0.000000 0.500000 0.500000
O O4 0.045795 0.397541 0.968241
O O5 0.279665 0.797086 0.664229
O O6 0.076287 0.816858 0.606247
O O7 0.264419 0.085595 0.256360
O O8 0.341951 0.865787 0.869119
O O9 0.541658 0.196212 0.371599
O O10 0.351646 0.400040 0.811022
O O11 0.418020 0.247329 0.923470
O O12 0.359609 0.699088 0.395654
O O13 0.583812 0.769805 0.321084
O O14 0.500000 0.000000 0.000000
O O15 0.738045 0.001774 0.920408
O O16 0.500000 0.500000 0.000000
O O17 0.807118 0.697127 0.523505
O O18 0.000000 0.500000 0.000000
#
# Coordination Sequence:
#
# PCOD8030470 Si02
#       8
#     2   2   2   2   2   2   2   2
#     4  12  27  47  69 101 150 190 235 297 363 421
#     4  11  23  45  72  98 144 185 233 304 348 427
#     4  11  23  43  74 110 138 181 245 295 362 418
#     4  12  24  43  72 107 142 186 244 296 359 422
#     4  11  21  47  73 104 144 182 240 298 357 425
#     4  12  25  40  67 101 141 188 233 297 359 420
#     4  11  25  43  75 106 138 190 237 296 360 426
#     4  12  28  48  69 108 144 187 245 294 352 434
#
# _framework density 21.609636999999999
#
# number of rings (size 3 to 8) (size 9 to 14) (size 15 to 20)
#    0.000    0.500    5.000    3.750    3.500    3.500 
#    0.000    1.875    0.000    0.000    0.000    0.000 
#    0.000    0.000    0.000    0.000    0.000    0.000 
#
# Total GULP energy -198373.983205 kJ/mol
# GULP energy per Si atom -12398.373950 kJ/mol
# Density = 2.156045 g / cm^3
# Si number density = 21.609637 Si / 1000 Ang^3
#
#
#
# Elastic Constant Matrix: (Units=GPa)
#
#
# Indices 1 2 3 4 5 6 
#
# 1 126.6024 35.6913 34.3701 -2.0207 -6.7675 1.2728
# 2 35.6913 137.7110 34.1207 0.2530 -0.9232 -7.3087
# 3 34.3701 34.1207 86.7050 6.1900 -1.0175 -6.2119
# 4 -2.0207 0.2530 6.1900 41.0189 0.0990 2.2516
# 5 -6.7675 -0.9232 -1.0175 0.0990 43.3822 -0.1652
# 6 1.2728 -7.3087 -6.2119 2.2516 -0.1652 40.4067
#
#
#
# Elastic Compliance Matrix: (Units=1/GPa)
#
#
# Indices 1 2 3 4 5 6 
#
# 1 0.009335 -0.001686 -0.003175 0.001009 0.001339 -0.001138
# 2 -0.001686 0.008395 -0.002567 0.000189 -0.000141 0.001166
# 3 -0.003175 -0.002567 0.014108 -0.002375 -0.000206 0.001936
# 4 0.001009 0.000189 -0.002375 0.024882 0.000042 -0.001749
# 5 0.001339 -0.000141 -0.000206 0.000042 0.023252 -0.000007
# 6 -0.001138 0.001166 0.001936 -0.001749 -0.000007 0.025390
#
#
# Mechanical properties :
#
#
# Convention : Reuss Voigt Hill
#
# Bulk Modulus (GPa) = 58.88391 62.15362 60.51877
# Shear Modulus (GPa) = 39.72084 41.41733 40.56908
#
# Velocity S-wave (km/s) = 4.29197 4.38266 4.33755
# Velocity P-wave (km/s) = 7.20204 7.37799 7.29055
#
# Compressibility (1/GPa) = 0.01698257
#
# Stress axis : x y z
#
# Youngs Moduli (GPa) = 107.12274 119.11597 70.88242
#
# Poissons Ratio (x) = 0.20084 0.22503
# Poissons Ratio (y) = 0.18062 0.18195
# Poissons Ratio (z) = 0.34009 0.30577
#
# Static dielectric constant tensor:
#      x y z
#    x 4.194650 -0.130380 -0.110220 
#    y -0.130380 4.015070 0.076190 
#    z -0.110220 0.076190 3.537020 
# 
# 
# High freq. dielectric constant tensor:
#      x y z
#    x 1.858250 -0.008050 -0.014920 
#    y -0.008050 1.861050 0.000120 
#    z -0.014920 0.000120 1.840230 
# 
# From -- ./inp_files/188467.got.cif
#   From: 2010.06.25/outbox.cif.g09.slc.cpg/sg2_95_cif.got.tgz:188467.got - 2010.06.27 13:26:56.
