data_PCOD8030613
_publ_section_title
;
Structure prediction by ZEFSAII (Michael W. Deem and Ramdas Pophale) SiO2 
 PCOD8030613
Probable space group: P -1
;
_chemical_formula_sum "Si O2"
_cell_formula_units_Z 16
_cell_length_a 11.812468
_cell_length_b 15.082480
_cell_length_c 14.541761
_cell_angle_alpha 28.945832
_cell_angle_beta 139.234023
_cell_angle_gamma 120.575666
_cell_volume 714.830214
_symmetry_space_group_name_H-M "P -1"
_symmetry_group_IT_number 2
_symmetry_cell_setting 'triclinic'
loop_
_space_group_symop_operation_xyz
x,y,z
-x,-y,-z
loop_
_atom_site_type_symbol
_atom_site_label
_atom_site_fract_x
_atom_site_fract_y
_atom_site_fract_z
Si Si1 0.351818 0.195178 0.537895
Si Si2 0.471797 0.803014 0.865197
Si Si3 0.232465 0.000137 0.940862
Si Si4 0.606124 0.548470 0.832468
Si Si5 0.037068 0.754588 0.081917
Si Si6 0.042806 0.360347 0.351503
Si Si7 0.099975 0.259357 0.797233
Si Si8 0.378330 0.879066 0.540741
O O1 0.382549 0.348770 0.348945
O O2 0.155490 0.335711 0.347720
O O3 0.315597 0.027376 0.609406
O O4 0.538178 0.068180 0.837068
O O5 0.421019 0.756979 0.774015
O O6 0.467602 0.618170 0.089762
O O7 0.673098 0.815307 0.970480
O O8 0.149702 0.137031 0.672959
O O9 0.089048 0.139942 0.808663
O O10 0.218491 0.784923 0.127111
O O11 0.432623 0.722278 0.631132
O O12 0.813854 0.437640 0.116670
O O13 0.848743 0.950672 0.745299
O O14 0.017602 0.777806 0.159078
O O15 0.060331 0.532513 0.268070
O O16 0.000000 0.500000 0.500000
O O17 0.500000 0.000000 0.500000
#
# Coordination Sequence:
#
# PCOD8030613 Si02
#       8
#     2   2   2   2   2   2   2   2
#     4  11  26  46  64  92 131 169 221 269 306 372
#     4  11  24  41  65  94 131 166 205 264 320 377
#     4  11  26  42  66  96 127 171 214 262 322 377
#     4  12  25  41  70  97 125 172 213 259 328 381
#     4  12  24  41  67  96 132 167 208 262 321 385
#     4  12  25  45  66  93 128 172 220 265 312 372
#     4  11  22  39  62  93 129 162 203 257 317 381
#     4  12  20  41  65  95 132 159 203 263 325 379
#
# _framework density 22.382937999999999
#
# number of rings (size 3 to 8) (size 9 to 14) (size 15 to 20)
#    0.000    0.500    5.000    3.000    3.500    2.000 
#    0.000    0.000    0.000    0.000    0.000    0.000 
#    0.000    0.000    0.000    0.000    0.000    0.000 
#
# Total GULP energy -198405.375699 kJ/mol
# GULP energy per Si atom -12400.335981 kJ/mol
# Density = 2.233199 g / cm^3
# Si number density = 22.382938 Si / 1000 Ang^3
#
#
#
# Elastic Constant Matrix: (Units=GPa)
#
#
# Indices 1 2 3 4 5 6 
#
# 1 103.1627 29.7557 17.9050 -17.6777 -10.6796 -6.8905
# 2 29.7557 50.0106 2.4003 -10.8587 -5.8632 10.5481
# 3 17.9050 2.4003 67.3308 -0.8296 -14.7833 0.7260
# 4 -17.6777 -10.8587 -0.8296 33.5080 -1.3150 -10.2585
# 5 -10.6796 -5.8632 -14.7833 -1.3150 43.7826 -6.8793
# 6 -6.8905 10.5481 0.7260 -10.2585 -6.8793 35.6407
#
#
#
# Elastic Compliance Matrix: (Units=1/GPa)
#
#
# Indices 1 2 3 4 5 6 
#
# 1 0.014788 -0.008371 -0.002970 0.007635 0.002997 0.008173
# 2 -0.008371 0.027278 0.001538 0.001710 0.000755 -0.009085
# 3 -0.002970 0.001538 0.016684 -0.000639 0.005003 -0.000587
# 4 0.007635 0.001710 -0.000639 0.038614 0.005091 0.013080
# 5 0.002997 0.000755 0.005003 0.005091 0.026591 0.006852
# 6 0.008173 -0.009085 -0.000587 0.013080 0.006852 0.037426
#
#
# Mechanical properties :
#
#
# Convention : Reuss Voigt Hill
#
# Bulk Modulus (GPa) = 25.54601 35.62511 30.58556
# Shear Modulus (GPa) = 25.76859 33.94913 29.85886
#
# Velocity S-wave (km/s) = 3.39670 3.89876 3.65636
# Velocity P-wave (km/s) = 5.17894 6.01813 5.61424
#
# Compressibility (1/GPa) = 0.03914506
#
# Stress axis : x y z
#
# Youngs Moduli (GPa) = 67.62373 36.65921 59.93745
#
# Poissons Ratio (x) = 0.30686 0.17802
# Poissons Ratio (y) = 0.56605 -0.09220
# Poissons Ratio (z) = 0.20085 -0.05639
#
# Static dielectric constant tensor:
#      x y z
#    x 3.965290 -0.177220 -0.148960 
#    y -0.177220 3.938390 -0.235940 
#    z -0.148960 -0.235940 3.909050 
# 
# 
# High freq. dielectric constant tensor:
#      x y z
#    x 1.882310 0.004610 -0.012670 
#    y 0.004610 1.877290 -0.004930 
#    z -0.012670 -0.004930 1.887480 
# 
# From -- ./inp_files/522216.got.cif
#   From: 2010.06.25/outbox.cif.g09.slc.cpg/sg2_262_cif.got.tgz:522216.got - 2010.06.27 13:26:56.
