data_PCOD8030993
_publ_section_title
;
Structure prediction by ZEFSAII (Michael W. Deem and Ramdas Pophale) SiO2 
 PCOD8030993
Probable space group: P -1
;
_chemical_formula_sum "Si O2"
_cell_formula_units_Z 14
_cell_length_a 8.317804
_cell_length_b 14.020154
_cell_length_c 9.062485
_cell_angle_alpha 51.200133
_cell_angle_beta 48.364051
_cell_angle_gamma 61.017784
_cell_volume 611.332772
_symmetry_space_group_name_H-M "P -1"
_symmetry_group_IT_number 2
_symmetry_cell_setting 'triclinic'
loop_
_space_group_symop_operation_xyz
x,y,z
-x,-y,-z
loop_
_atom_site_type_symbol
_atom_site_label
_atom_site_fract_x
_atom_site_fract_y
_atom_site_fract_z
Si Si1 0.714646 0.408921 0.413337
Si Si2 0.252426 0.242475 0.621476
Si Si3 0.562314 0.008215 0.127104
Si Si4 0.123138 0.816601 0.282087
Si Si5 0.856593 0.024395 0.423903
Si Si6 0.992457 0.555149 0.287376
Si Si7 0.701342 0.302676 0.206115
O O1 0.500000 0.500000 0.500000
O O2 0.736589 0.271308 0.602155
O O3 0.931377 0.464060 0.284121
O O4 0.728027 0.384178 0.255935
O O5 0.283560 0.113277 0.807921
O O6 0.212677 0.338683 0.686989
O O7 0.450604 0.278220 0.364213
O O8 0.027539 0.260230 0.649576
O O9 0.371331 0.018654 0.351178
O O10 0.500000 0.000000 0.000000
O O11 0.688471 0.124323 0.977137
O O12 0.962882 0.933985 0.322534
O O13 0.842786 0.168523 0.249664
O O14 0.000000 0.000000 0.500000
O O15 0.000000 0.500000 0.500000
O O16 0.215509 0.613980 0.056535
#
# Coordination Sequence:
#
# PCOD8030993 Si02
#       7
#     2   2   2   2   2   2   2
#     4  12  25  47  71 104 138 185 241 284 344 421
#     4  11  25  45  68 103 144 179 234 286 354 416
#     4  11  23  40  70 102 135 181 224 285 347 412
#     4  12  24  44  68 104 139 181 230 286 350 415
#     4  11  22  41  71 102 137 177 229 284 354 415
#     4  12  26  47  70 101 140 191 236 291 348 408
#     4  11  25  46  73 100 141 184 235 295 345 416
#
# _framework density 22.900783000000001
#
# number of rings (size 3 to 8) (size 9 to 14) (size 15 to 20)
#    0.000    0.571    5.714    2.571    0.000    4.000 
#    2.571    0.000    0.000    0.000    0.000    0.000 
#    0.000    0.000    0.000    0.000    0.000    0.000 
#
# Total GULP energy -173465.359709 kJ/mol
# GULP energy per Si atom -12390.382836 kJ/mol
# Density = 2.284866 g / cm^3
# Si number density = 22.900783 Si / 1000 Ang^3
#
#
#
# Elastic Constant Matrix: (Units=GPa)
#
#
# Indices 1 2 3 4 5 6 
#
# 1 96.0382 16.0258 43.4402 -13.6126 -8.4907 3.3134
# 2 16.0258 123.4196 37.1637 -2.4366 -5.1216 -2.8147
# 3 43.4402 37.1637 164.7919 -22.3295 -15.9789 -0.6710
# 4 -13.6126 -2.4366 -22.3295 26.5757 7.3085 -1.0698
# 5 -8.4907 -5.1216 -15.9789 7.3085 34.7996 -3.9947
# 6 3.3134 -2.8147 -0.6710 -1.0698 -3.9947 32.7618
#
#
#
# Elastic Compliance Matrix: (Units=1/GPa)
#
#
# Indices 1 2 3 4 5 6 
#
# 1 0.012323 -0.000771 -0.002473 0.003895 0.000809 -0.001137
# 2 -0.000771 0.008791 -0.001895 -0.001315 0.000606 0.000825
# 3 -0.002473 -0.001895 0.007977 0.004779 0.001849 0.000632
# 4 0.003895 -0.001315 0.004779 0.045327 -0.006537 0.000274
# 5 0.000809 0.000606 0.001849 -0.006537 0.031664 0.003656
# 6 -0.001137 0.000825 0.000632 0.000274 0.003656 0.031177
#
#
# Mechanical properties :
#
#
# Convention : Reuss Voigt Hill
#
# Bulk Modulus (GPa) = 53.15596 64.16770 58.66183
# Shear Modulus (GPa) = 32.50802 38.00208 35.25505
#
# Velocity S-wave (km/s) = 3.77173 4.07802 3.92786
# Velocity P-wave (km/s) = 6.49844 7.08903 6.80015
#
# Compressibility (1/GPa) = 0.01881257
#
# Stress axis : x y z
#
# Youngs Moduli (GPa) = 81.15203 113.74868 125.36027
#
# Poissons Ratio (x) = 0.08769 0.30999
# Poissons Ratio (y) = 0.06256 0.23761
# Poissons Ratio (z) = 0.20067 0.21560
#
# Static dielectric constant tensor:
#      x y z
#    x 4.098570 -0.092460 -0.203510 
#    y -0.092460 4.409300 -0.123480 
#    z -0.203510 -0.123480 4.106270 
# 
# 
# High freq. dielectric constant tensor:
#      x y z
#    x 1.900920 -0.000630 -0.013200 
#    y -0.000630 1.922680 -0.012700 
#    z -0.013200 -0.012700 1.904890 
# 
# From -- ./inp_files/199230.got.cif
#   From: 2010.06.25/outbox.cif.g09.slc.cpg/sg2_100_cif.got.tgz:199230.got - 2010.06.27 13:26:56.
