data_PCOD8030517
_publ_section_title
;
Structure prediction by ZEFSAII (Michael W. Deem and Ramdas Pophale) SiO2 
 PCOD8030517
Probable space group: P -1
;
_chemical_formula_sum "Si O2"
_cell_formula_units_Z 16
_cell_length_a 11.100849
_cell_length_b 23.465995
_cell_length_c 20.256421
_cell_angle_alpha 161.276487
_cell_angle_beta 150.996338
_cell_angle_gamma 30.167305
_cell_volume 798.676191
_symmetry_space_group_name_H-M "P -1"
_symmetry_group_IT_number 2
_symmetry_cell_setting 'triclinic'
loop_
_space_group_symop_operation_xyz
x,y,z
-x,-y,-z
loop_
_atom_site_type_symbol
_atom_site_label
_atom_site_fract_x
_atom_site_fract_y
_atom_site_fract_z
Si Si1 0.067693 0.424768 0.599612
Si Si2 0.475512 0.418382 0.504073
Si Si3 0.478951 0.632428 0.044027
Si Si4 0.224379 0.745706 0.175934
Si Si5 0.228117 0.373515 0.211034
Si Si6 0.281784 0.670566 0.345702
Si Si7 0.509678 0.117404 0.434539
Si Si8 0.313197 0.271664 0.879877
O O1 0.227015 0.219090 0.436124
O O2 0.805792 0.475173 0.486318
O O3 0.983745 0.454122 0.669397
O O4 0.245518 0.565428 0.823739
O O5 0.432082 0.300298 0.288243
O O6 0.633561 0.565729 0.719062
O O7 0.631948 0.292374 0.497915
O O8 0.381422 0.760847 0.201053
O O9 0.603738 0.745983 0.176356
O O10 0.692073 0.455693 0.973590
O O11 0.278949 0.886794 0.410920
O O12 0.920319 0.779533 0.051935
O O13 0.422011 0.784476 0.490093
O O14 0.981406 0.733067 0.260026
O O15 0.373848 0.453774 0.139110
O O16 0.522107 0.903731 0.193588
#
# Coordination Sequence:
#
# PCOD8030517 Si02
#       8
#     2   2   2   2   2   2   2   2
#     4   8  16  34  56  86 111 143 182 232 276 329
#     4   9  18  33  61  85 108 154 193 215 282 343
#     4   9  16  32  56  82 110 146 181 228 280 324
#     4   9  16  31  59  84 112 139 180 238 278 321
#     4   8  16  32  58  91 105 147 193 224 276 340
#     4  11  23  39  57  81 112 156 187 231 276 338
#     4  11  22  37  57  88 116 142 187 239 281 327
#     4  11  23  38  57  84 112 150 193 229 282 331
#
# _framework density 20.033149999999999
#
# number of rings (size 3 to 8) (size 9 to 14) (size 15 to 20)
#    0.750    1.750    2.500    1.875    1.750    1.000 
#    0.000    0.625    0.000    0.750    0.000    0.000 
#    0.000    0.000    0.000    0.000    0.000    0.000 
#
# Total GULP energy -198223.486080 kJ/mol
# GULP energy per Si atom -12388.967880 kJ/mol
# Density = 1.998755 g / cm^3
# Si number density = 20.033150 Si / 1000 Ang^3
#
#
#
# Elastic Constant Matrix: (Units=GPa)
#
#
# Indices 1 2 3 4 5 6 
#
# 1 89.8726 19.3826 14.3475 7.1167 8.3984 12.0364
# 2 19.3826 46.2192 14.0530 6.0790 3.4144 4.1376
# 3 14.3475 14.0530 32.0794 9.4273 5.3533 4.7593
# 4 7.1167 6.0790 9.4273 32.0485 2.4158 2.1083
# 5 8.3984 3.4144 5.3533 2.4158 15.9256 -5.0734
# 6 12.0364 4.1376 4.7593 2.1083 -5.0734 26.1597
#
#
#
# Elastic Compliance Matrix: (Units=1/GPa)
#
#
# Indices 1 2 3 4 5 6 
#
# 1 0.014035 -0.003983 -0.001951 -0.000726 -0.008001 -0.006966
# 2 -0.003983 0.026373 -0.009207 -0.001332 -0.000463 -0.000646
# 3 -0.001951 -0.009207 0.041629 -0.008725 -0.011837 -0.006812
# 4 -0.000726 -0.001332 -0.008725 0.034396 -0.001940 -0.001016
# 5 -0.008001 -0.000463 -0.011837 -0.001940 0.078144 0.021220
# 6 -0.006966 -0.000646 -0.006812 -0.001016 0.021220 0.046971
#
#
# Mechanical properties :
#
#
# Convention : Reuss Voigt Hill
#
# Bulk Modulus (GPa) = 19.32147 29.30417 24.31282
# Shear Modulus (GPa) = 17.29620 22.85264 20.07442
#
# Velocity S-wave (km/s) = 2.94152 3.38115 3.16897
# Velocity P-wave (km/s) = 4.60461 5.46832 5.05494
#
# Compressibility (1/GPa) = 0.05175589
#
# Stress axis : x y z
#
# Youngs Moduli (GPa) = 71.24878 37.91765 24.02191
#
# Poissons Ratio (x) = 0.15101 0.04686
# Poissons Ratio (y) = 0.28376 0.22118
# Poissons Ratio (z) = 0.13897 0.34912
#
# Static dielectric constant tensor:
#      x y z
#    x 3.677550 -0.129350 0.021670 
#    y -0.129350 3.501670 -0.296370 
#    z 0.021670 -0.296370 3.419330 
# 
# 
# High freq. dielectric constant tensor:
#      x y z
#    x 1.789380 -0.007280 0.005420 
#    y -0.007280 1.753930 -0.025330 
#    z 0.005420 -0.025330 1.746670 
# 
# From -- ./inp_files/596345.got.cif
#   From: 2010.06.25/outbox.cif.g09.slc.cpg/sg2_299_cif.got.tgz:596345.got - 2010.06.27 13:26:56.
