data_PCOD8030422
_publ_section_title
;
Structure prediction by ZEFSAII (Michael W. Deem and Ramdas Pophale) SiO2 
 PCOD8030422
Probable space group: P -1
;
_chemical_formula_sum "Si O2"
_cell_formula_units_Z 12
_cell_length_a 19.288594
_cell_length_b 9.330413
_cell_length_c 5.280411
_cell_angle_alpha 95.397474
_cell_angle_beta 112.317095
_cell_angle_gamma 37.899323
_cell_volume 503.455154
_symmetry_space_group_name_H-M "P -1"
_symmetry_group_IT_number 2
_symmetry_cell_setting 'triclinic'
loop_
_space_group_symop_operation_xyz
x,y,z
-x,-y,-z
loop_
_atom_site_type_symbol
_atom_site_label
_atom_site_fract_x
_atom_site_fract_y
_atom_site_fract_z
Si Si1 0.113489 0.501246 0.043419
Si Si2 0.399847 0.032695 0.310349
Si Si3 0.954871 0.990022 0.686681
Si Si4 0.710847 0.240650 0.247283
Si Si5 0.550214 0.225614 0.174805
Si Si6 0.058790 0.296829 0.748691
O O1 0.049880 0.633916 0.253001
O O2 0.259157 0.331210 0.181529
O O3 0.122341 0.313771 0.029532
O O4 0.022555 0.722389 0.737437
O O5 0.413428 0.896859 0.528046
O O6 0.500000 0.000000 0.500000
O O7 0.417777 0.928467 0.044577
O O8 0.797546 0.216847 0.529876
O O9 0.000000 0.000000 0.500000
O O10 0.000000 0.000000 0.000000
O O11 0.634123 0.240015 0.295903
O O12 0.821240 0.995617 0.188232
O O13 0.604002 0.498646 0.986071
O O14 0.000000 0.500000 0.500000
#
# Coordination Sequence:
#
# PCOD8030422 Si02
#       6
#     2   2   2   2   2   2
#     4  11  26  42  76 106 142 189 246 300 373 428
#     4  12  28  49  74 107 151 191 246 298 368 436
#     4  12  29  45  72 106 150 191 234 305 369 433
#     4  11  25  49  76 105 151 189 254 295 368 431
#     4  11  28  48  77 107 144 202 243 301 355 445
#     4  11  21  45  74 108 139 183 243 313 354 436
#
# _framework density 23.835293
#
# number of rings (size 3 to 8) (size 9 to 14) (size 15 to 20)
#    0.000    0.667    3.333    2.500    7.000    5.333 
#    0.000    0.000    0.000    0.000    0.000    0.000 
#    0.000    0.000    0.000    0.000    0.000    0.000 
#
# Total GULP energy -148691.890436 kJ/mol
# GULP energy per Si atom -12390.990870 kJ/mol
# Density = 2.378104 g / cm^3
# Si number density = 23.835293 Si / 1000 Ang^3
#
#
#
# Elastic Constant Matrix: (Units=GPa)
#
#
# Indices 1 2 3 4 5 6 
#
# 1 109.2122 31.3676 48.3952 -12.0375 12.5385 -19.9348
# 2 31.3676 133.1723 35.9205 -23.2233 -1.6923 -26.5396
# 3 48.3952 35.9205 98.4562 -18.1783 4.7201 -17.6445
# 4 -12.0375 -23.2233 -18.1783 51.7586 -3.2129 14.4704
# 5 12.5385 -1.6923 4.7201 -3.2129 58.5194 -6.8458
# 6 -19.9348 -26.5396 -17.6445 14.4704 -6.8458 40.6252
#
#
#
# Elastic Compliance Matrix: (Units=1/GPa)
#
#
# Indices 1 2 3 4 5 6 
#
# 1 0.012487 -0.001028 -0.005196 -0.000339 -0.001955 0.002991
# 2 -0.001028 0.009519 -0.001837 0.002256 0.001274 0.004327
# 3 -0.005196 -0.001837 0.014106 0.002511 0.000238 0.001523
# 4 -0.000339 0.002256 0.002511 0.022737 0.000527 -0.005612
# 5 -0.001955 0.001274 0.000238 0.000527 0.017882 0.002802
# 6 0.002991 0.004327 0.001523 -0.005612 0.002802 0.032042
#
#
# Mechanical properties :
#
#
# Convention : Reuss Voigt Hill
#
# Bulk Modulus (GPa) = 50.02222 63.57860 56.80041
# Shear Modulus (GPa) = 38.00635 45.19112 41.59873
#
# Velocity S-wave (km/s) = 3.99750 4.35900 4.18216
# Velocity P-wave (km/s) = 6.50683 7.21572 6.87042
#
# Compressibility (1/GPa) = 0.01999111
#
# Stress axis : x y z
#
# Youngs Moduli (GPa) = 80.08282 105.05851 70.89224
#
# Poissons Ratio (x) = 0.10797 0.36835
# Poissons Ratio (y) = 0.08230 0.13020
# Poissons Ratio (z) = 0.41610 0.19294
#
# Static dielectric constant tensor:
#      x y z
#    x 5.297930 0.552540 0.954080 
#    y 0.552540 5.380300 0.275830 
#    z 0.954080 0.275830 5.208950 
# 
# 
# High freq. dielectric constant tensor:
#      x y z
#    x 1.956820 0.003550 0.010250 
#    y 0.003550 1.954600 -0.004910 
#    z 0.010250 -0.004910 1.954520 
# 
# From -- ./inp_files/42679.got.cif
#   From: 2010.06.25/outbox.cif.g09.slc.cpg/sg2_22_cif.got.tgz:42679.got - 2010.06.27 13:26:56.
