data_PCOD8030466
_publ_section_title
;
Structure prediction by ZEFSAII (Michael W. Deem and Ramdas Pophale) SiO2 
 PCOD8030466
Probable space group: P -1
;
_chemical_formula_sum "Si O2"
_cell_formula_units_Z 12
_cell_length_a 11.376733
_cell_length_b 12.736443
_cell_length_c 9.161877
_cell_angle_alpha 91.225997
_cell_angle_beta 110.801998
_cell_angle_gamma 146.002646
_cell_volume 552.924184
_symmetry_space_group_name_H-M "P -1"
_symmetry_group_IT_number 2
_symmetry_cell_setting 'triclinic'
loop_
_space_group_symop_operation_xyz
x,y,z
-x,-y,-z
loop_
_atom_site_type_symbol
_atom_site_label
_atom_site_fract_x
_atom_site_fract_y
_atom_site_fract_z
Si Si1 0.300736 0.924991 0.320219
Si Si2 0.300907 0.473833 0.252852
Si Si3 0.667462 0.414116 0.021876
Si Si4 0.656103 0.020471 0.995186
Si Si5 0.277321 0.144111 0.317904
Si Si6 0.325361 0.285800 0.058172
O O1 0.400213 0.005656 0.200512
O O2 0.997262 0.645050 0.199276
O O3 0.500000 0.000000 0.500000
O O4 0.308187 0.048961 0.388078
O O5 0.533863 0.640731 0.487452
O O6 0.296651 0.366569 0.148557
O O7 0.385818 0.627052 0.177461
O O8 0.993730 0.267556 0.181323
O O9 0.581599 0.463977 0.059982
O O10 0.482094 0.187218 0.008040
O O11 0.500000 0.000000 0.000000
O O12 0.371413 0.224408 0.192401
O O13 0.952939 0.939608 0.170855
#
# Coordination Sequence:
#
# PCOD8030466 Si02
#       6
#     2   2   2   2   2   2
#     4  11  26  45  67 100 138 181 227 279 338 399
#     4  11  25  43  69 105 135 177 227 282 338 404
#     4  11  24  45  71  96 143 179 221 288 336 403
#     4  11  25  45  67  98 136 184 226 277 340 399
#     4  11  23  43  71 100 140 177 226 282 337 400
#     4  11  21  47  70  99 142 177 224 279 346 397
#
# _framework density 21.702794000000001
#
# number of rings (size 3 to 8) (size 9 to 14) (size 15 to 20)
#    0.000    1.000    5.000    2.000    4.667    4.000 
#    0.000    0.000    0.000    0.000    0.000    0.000 
#    0.000    0.000    0.000    0.000    0.000    0.000 
#
# Total GULP energy -148722.530589 kJ/mol
# GULP energy per Si atom -12393.544216 kJ/mol
# Density = 2.165340 g / cm^3
# Si number density = 21.702794 Si / 1000 Ang^3
#
#
#
# Elastic Constant Matrix: (Units=GPa)
#
#
# Indices 1 2 3 4 5 6 
#
# 1 101.3926 50.5196 48.2874 3.6617 7.0519 12.1857
# 2 50.5196 138.8390 66.1758 5.4044 2.1084 16.9166
# 3 48.2874 66.1758 175.7219 9.3497 13.2998 0.4078
# 4 3.6617 5.4044 9.3497 16.2056 -7.5220 3.2866
# 5 7.0519 2.1084 13.2998 -7.5220 27.4012 -0.7713
# 6 12.1857 16.9166 0.4078 3.2866 -0.7713 29.6164
#
#
#
# Elastic Compliance Matrix: (Units=1/GPa)
#
#
# Indices 1 2 3 4 5 6 
#
# 1 0.013128 -0.003264 -0.002122 -0.001115 -0.002501 -0.003449
# 2 -0.003264 0.010412 -0.003184 0.000816 0.001678 -0.004607
# 3 -0.002122 -0.003184 0.008140 -0.005975 -0.004712 0.003120
# 4 -0.001115 0.000816 -0.005975 0.078037 0.024323 -0.007951
# 5 -0.002501 0.001678 -0.004712 0.024323 0.045935 -0.001368
# 6 -0.003449 -0.004607 0.003120 -0.007951 -0.001368 0.038620
#
#
# Mechanical properties :
#
#
# Convention : Reuss Voigt Hill
#
# Bulk Modulus (GPa) = 68.77049 82.87988 75.82518
# Shear Modulus (GPa) = 23.12055 31.37604 27.24830
#
# Velocity S-wave (km/s) = 3.26747 3.80638 3.54718
# Velocity P-wave (km/s) = 6.78169 7.58878 7.19656
#
# Compressibility (1/GPa) = 0.01454112
#
# Stress axis : x y z
#
# Youngs Moduli (GPa) = 76.17192 96.04362 122.84638
#
# Poissons Ratio (x) = 0.31349 0.26065
# Poissons Ratio (y) = 0.24863 0.39113
# Poissons Ratio (z) = 0.16162 0.30579
#
# Static dielectric constant tensor:
#      x y z
#    x 4.117440 -0.020050 0.147620 
#    y -0.020050 4.243560 -0.215780 
#    z 0.147620 -0.215780 3.856360 
# 
# 
# High freq. dielectric constant tensor:
#      x y z
#    x 1.855600 -0.001800 0.009880 
#    y -0.001800 1.871760 -0.010780 
#    z 0.009880 -0.010780 1.845440 
# 
# From -- ./inp_files/168327.got.cif
#   From: 2010.06.25/outbox.cif.g09.slc.cpg/sg2_85_cif.got.tgz:168327.got - 2010.06.27 13:26:56.
