data_PCOD8030856
_publ_section_title
;
Structure prediction by ZEFSAII (Michael W. Deem and Ramdas Pophale) SiO2 
 PCOD8030856
Probable space group: P -1
;
_chemical_formula_sum "Si O2"
_cell_formula_units_Z 16
_cell_length_a 11.794720
_cell_length_b 9.220028
_cell_length_c 10.888496
_cell_angle_alpha 50.033303
_cell_angle_beta 111.113793
_cell_angle_gamma 79.554351
_cell_volume 691.319472
_symmetry_space_group_name_H-M "P -1"
_symmetry_group_IT_number 2
_symmetry_cell_setting 'triclinic'
loop_
_space_group_symop_operation_xyz
x,y,z
-x,-y,-z
loop_
_atom_site_type_symbol
_atom_site_label
_atom_site_fract_x
_atom_site_fract_y
_atom_site_fract_z
Si Si1 0.540262 0.492720 0.881485
Si Si2 0.156139 0.657406 0.832558
Si Si3 0.359550 0.988610 0.448580
Si Si4 0.484362 0.904127 0.923570
Si Si5 0.015817 0.780734 0.187909
Si Si6 0.801897 0.738713 0.529943
Si Si7 0.769652 0.786630 0.966813
Si Si8 0.974270 0.159832 0.558065
O O1 0.414679 0.728011 0.639197
O O2 0.500000 0.500000 0.000000
O O3 0.698593 0.454765 0.964957
O O4 0.552899 0.273778 0.947748
O O5 0.166483 0.713034 0.660566
O O6 0.032333 0.892009 0.726079
O O7 0.116443 0.468963 0.912309
O O8 0.500000 0.000000 0.500000
O O9 0.230119 0.174963 0.388780
O O10 0.290868 0.025142 0.266413
O O11 0.637371 0.778368 0.975583
O O12 0.356734 0.112503 0.679280
O O13 0.500000 0.000000 0.000000
O O14 0.135426 0.533441 0.304784
O O15 0.062949 0.751018 0.365346
O O16 0.852912 0.831103 0.080595
O O17 0.000000 0.000000 0.000000
O O18 0.906981 0.798397 0.473410
#
# Coordination Sequence:
#
# PCOD8030856 Si02
#       8
#     2   2   2   2   2   2   2   2
#     4  12  21  42  71 107 140 185 243 292 347 426
#     4  11  22  40  76 104 135 188 242 294 356 413
#     4  12  24  44  73 110 149 182 243 303 355 428
#     4  12  26  44  73 109 144 190 242 293 362 430
#     4  12  31  50  69 107 152 191 238 299 367 431
#     4  12  24  46  75 105 140 197 239 294 360 424
#     4  12  26  48  72 105 147 192 235 303 364 421
#     4  11  25  46  74 107 142 188 247 297 350 439
#
# _framework density 23.144148999999999
#
# number of rings (size 3 to 8) (size 9 to 14) (size 15 to 20)
#    0.000    0.250    7.500    1.125    3.500    4.500 
#    0.000    1.250    0.000    0.000    0.000    0.000 
#    0.000    0.000    0.000    0.000    0.000    0.000 
#
# Total GULP energy -198303.945435 kJ/mol
# GULP energy per Si atom -12393.996590 kJ/mol
# Density = 2.309147 g / cm^3
# Si number density = 23.144149 Si / 1000 Ang^3
#
#
#
# Elastic Constant Matrix: (Units=GPa)
#
#
# Indices 1 2 3 4 5 6 
#
# 1 59.8378 22.4384 4.5523 -10.4189 -2.6658 3.5847
# 2 22.4384 143.8971 55.1576 -6.5264 -4.6937 7.8145
# 3 4.5523 55.1576 131.5029 -19.8720 -6.4423 -4.0892
# 4 -10.4189 -6.5264 -19.8720 51.5006 2.8276 -7.5403
# 5 -2.6658 -4.6937 -6.4423 2.8276 27.7652 0.4879
# 6 3.5847 7.8145 -4.0892 -7.5403 0.4879 35.8147
#
#
#
# Elastic Compliance Matrix: (Units=1/GPa)
#
#
# Indices 1 2 3 4 5 6 
#
# 1 0.018519 -0.003166 0.001303 0.003749 0.001168 -0.000241
# 2 -0.003166 0.009038 -0.003943 -0.001396 0.000493 -0.002406
# 3 0.001303 -0.003943 0.009954 0.003924 0.001322 0.002674
# 4 0.003749 -0.001396 0.003924 0.022332 -0.001329 0.005097
# 5 0.001168 0.000493 0.001322 -0.001329 0.036669 -0.000853
# 6 -0.000241 -0.002406 0.002674 0.005097 -0.000853 0.029861
#
#
# Mechanical properties :
#
#
# Convention : Reuss Voigt Hill
#
# Bulk Modulus (GPa) = 38.61105 55.50383 47.05744
# Shear Modulus (GPa) = 34.10239 39.88871 36.99555
#
# Velocity S-wave (km/s) = 3.84276 4.15600 4.00244
# Velocity P-wave (km/s) = 6.03391 6.86029 6.46033
#
# Compressibility (1/GPa) = 0.02589932
#
# Stress axis : x y z
#
# Youngs Moduli (GPa) = 53.99828 110.64536 100.46295
#
# Poissons Ratio (x) = 0.35031 -0.13091
# Poissons Ratio (y) = 0.17096 0.39611
# Poissons Ratio (z) = -0.07037 0.43626
#
# Static dielectric constant tensor:
#      x y z
#    x 1.411840 -0.772580 -1.694370 
#    y -0.772580 4.199230 -0.433590 
#    z -1.694370 -0.433590 3.061420 
# 
# 
# High freq. dielectric constant tensor:
#      x y z
#    x 1.889800 0.015060 0.007820 
#    y 0.015060 1.922000 -0.004150 
#    z 0.007820 -0.004150 1.938280 
# 
# From -- ./inp_files/216355.got.cif
#   From: 2010.06.25/outbox.cif.g09.slc.cpg/sg2_109_cif.got.tgz:216355.got - 2010.06.27 13:26:56.
