data_PCOD8030200
_publ_section_title
;
Structure prediction by ZEFSAII (Michael W. Deem and Ramdas Pophale) SiO2 
 PCOD8030200
Probable space group: P -1
;
_chemical_formula_sum "Si O2"
_cell_formula_units_Z 16
_cell_length_a 19.942081
_cell_length_b 17.651677
_cell_length_c 9.556312
_cell_angle_alpha 36.146028
_cell_angle_beta 145.191223
_cell_angle_gamma 158.313688
_cell_volume 693.565274
_symmetry_space_group_name_H-M "P -1"
_symmetry_group_IT_number 2
_symmetry_cell_setting 'triclinic'
loop_
_space_group_symop_operation_xyz
x,y,z
-x,-y,-z
loop_
_atom_site_type_symbol
_atom_site_label
_atom_site_fract_x
_atom_site_fract_y
_atom_site_fract_z
Si Si1 0.595518 0.338541 0.571305
Si Si2 0.772932 0.840398 0.754641
Si Si3 0.279181 0.204762 0.696372
Si Si4 0.272962 0.403620 0.161564
Si Si5 0.847466 0.463771 0.074085
Si Si6 0.405987 0.965760 0.602777
Si Si7 0.171184 0.234087 0.759713
Si Si8 0.258398 0.900733 0.146167
O O1 0.427833 0.268777 0.474631
O O2 0.745823 0.417268 0.825359
O O3 0.706101 0.529309 0.370645
O O4 0.496229 0.143765 0.599943
O O5 0.802704 0.719281 0.931163
O O6 0.766302 0.820997 0.939666
O O7 0.948623 0.077621 0.642763
O O8 0.202053 0.232638 0.403504
O O9 0.503596 0.385155 0.790523
O O10 0.211280 0.207729 0.718781
O O11 0.194150 0.987986 0.859717
O O12 0.184709 0.463299 0.962938
O O13 0.771063 0.258260 0.291874
O O14 0.077532 0.652090 0.173442
O O15 0.324820 0.963152 0.328773
O O16 0.565944 0.997761 0.796262
#
# Coordination Sequence:
#
# PCOD8030200 Si02
#       8
#     2   2   2   2   2   2   2   2
#     4  12  25  43  70  97 140 184 225 285 344 404
#     4  11  25  40  66 104 143 180 226 282 343 419
#     4  11  21  43  69 102 135 174 225 282 347 408
#     4  11  22  39  72 102 136 175 220 287 345 407
#     4  12  25  46  69 102 135 178 231 290 339 404
#     4  11  27  47  66  98 134 184 235 281 336 401
#     4  11  24  41  66 103 142 185 225 273 353 418
#     4  11  26  44  74  95 132 183 232 283 340 409
#
# _framework density 23.069206999999999
#
# number of rings (size 3 to 8) (size 9 to 14) (size 15 to 20)
#    0.000    0.750    3.750    3.375    3.500    3.500 
#    0.000    0.000    0.000    0.000    0.000    0.000 
#    0.000    0.000    0.000    0.000    0.000    0.000 
#
# Total GULP energy -198389.483457 kJ/mol
# GULP energy per Si atom -12399.342716 kJ/mol
# Density = 2.301670 g / cm^3
# Si number density = 23.069207 Si / 1000 Ang^3
#
#
#
# Elastic Constant Matrix: (Units=GPa)
#
#
# Indices 1 2 3 4 5 6 
#
# 1 66.2454 24.8496 30.0535 -9.1825 -13.2882 -19.5304
# 2 24.8496 183.6853 15.0925 -23.2769 -0.2818 38.3531
# 3 30.0535 15.0925 49.6466 -10.7122 -3.1411 -5.8715
# 4 -9.1825 -23.2769 -10.7122 49.1186 -3.2950 -4.4057
# 5 -13.2882 -0.2818 -3.1411 -3.2950 25.5283 -4.9380
# 6 -19.5304 38.3531 -5.8715 -4.4057 -4.9380 87.2024
#
#
#
# Elastic Compliance Matrix: (Units=1/GPa)
#
#
# Indices 1 2 3 4 5 6 
#
# 1 0.028625 -0.004187 -0.013660 0.002142 0.015054 0.008293
# 2 -0.004187 0.007112 0.000173 0.002083 -0.002603 -0.004096
# 3 -0.013660 0.000173 0.028750 0.003464 -0.003359 -0.001215
# 4 0.002142 0.002083 0.003464 0.022931 0.004761 0.001225
# 5 0.015054 -0.002603 -0.003359 0.004761 0.048589 0.007282
# 6 0.008293 -0.004096 -0.001215 0.001225 0.007282 0.015519
#
#
# Mechanical properties :
#
#
# Convention : Reuss Voigt Hill
#
# Bulk Modulus (GPa) = 34.31866 48.84095 41.57981
# Shear Modulus (GPa) = 25.43421 47.67528 36.55475
#
# Velocity S-wave (km/s) = 3.32402 4.55094 3.98498
# Velocity P-wave (km/s) = 5.44434 6.98800 6.26391
#
# Compressibility (1/GPa) = 0.02913866
#
# Stress axis : x y z
#
# Youngs Moduli (GPa) = 34.93500 140.61591 34.78283
#
# Poissons Ratio (x) = 0.58880 0.47512
# Poissons Ratio (y) = 0.14628 -0.00602
# Poissons Ratio (z) = 0.47720 -0.02435
#
# Static dielectric constant tensor:
#      x y z
#    x 4.173430 0.150890 -0.100240 
#    y 0.150890 4.492840 -0.147080 
#    z -0.100240 -0.147080 4.081290 
# 
# 
# High freq. dielectric constant tensor:
#      x y z
#    x 1.910990 0.007810 -0.011560 
#    y 0.007810 1.935940 -0.005260 
#    z -0.011560 -0.005260 1.897060 
# 
# From -- ./inp_files/348849.got.cif
#   From: 2010.06.25/outbox.cif.g09.slc.cpg/sg2_175_cif.got.tgz:348849.got - 2010.06.27 13:26:56.
