data_PCOD8030195
_publ_section_title
;
Structure prediction by ZEFSAII (Michael W. Deem and Ramdas Pophale) SiO2 
 PCOD8030195
Probable space group: P -1
;
_chemical_formula_sum "Si O2"
_cell_formula_units_Z 16
_cell_length_a 19.412628
_cell_length_b 16.596230
_cell_length_c 10.366220
_cell_angle_alpha 146.671224
_cell_angle_beta 43.003912
_cell_angle_gamma 156.904369
_cell_volume 708.973934
_symmetry_space_group_name_H-M "P -1"
_symmetry_group_IT_number 2
_symmetry_cell_setting 'triclinic'
loop_
_space_group_symop_operation_xyz
x,y,z
-x,-y,-z
loop_
_atom_site_type_symbol
_atom_site_label
_atom_site_fract_x
_atom_site_fract_y
_atom_site_fract_z
Si Si1 0.233713 0.984663 0.179966
Si Si2 0.963599 0.403827 0.739734
Si Si3 0.673940 0.541587 0.669154
Si Si4 0.403711 0.243203 0.026468
Si Si5 0.779474 0.651687 0.967161
Si Si6 0.020392 0.869762 0.512892
Si Si7 0.948954 0.279163 0.319130
Si Si8 0.596436 0.981015 0.779701
O O1 0.108283 0.970236 0.382988
O O2 0.360627 0.088265 0.262497
O O3 0.115957 0.707170 0.918695
O O4 0.358441 0.191273 0.170630
O O5 0.006006 0.337880 0.705762
O O6 0.950659 0.280278 0.471399
O O7 0.773407 0.251109 0.826360
O O8 0.764353 0.648257 0.828682
O O9 0.533655 0.242100 0.449003
O O10 0.826915 0.712019 0.577197
O O11 0.568070 0.562680 0.812916
O O12 0.589756 0.382397 0.931170
O O13 0.247978 0.980843 0.809967
O O14 0.916367 0.686576 0.867860
O O15 0.847314 0.887876 0.246217
O O16 0.000000 0.500000 0.500000
O O17 0.500000 0.000000 0.000000
#
# Coordination Sequence:
#
# PCOD8030195 Si02
#       8
#     2   2   2   2   2   2   2   2
#     4  11  25  44  64 100 145 181 226 288 347 413
#     4  11  21  43  68  94 141 179 229 288 339 406
#     4  12  23  44  72 102 136 179 238 287 342 414
#     4  12  26  45  69 106 141 183 230 282 357 413
#     4  12  26  46  73 102 139 179 237 296 336 412
#     4  11  22  43  73  96 134 184 226 287 347 402
#     4  12  25  45  70 103 138 182 231 284 356 405
#     4  11  24  40  69 103 131 185 235 280 345 413
#
# _framework density 22.567826
#
# number of rings (size 3 to 8) (size 9 to 14) (size 15 to 20)
#    0.000    0.500    3.750    6.750    0.000    4.000 
#    2.250    0.000    0.000    0.000    0.000    0.000 
#    0.000    0.000    0.000    0.000    0.000    0.000 
#
# Total GULP energy -198398.760258 kJ/mol
# GULP energy per Si atom -12399.922516 kJ/mol
# Density = 2.251646 g / cm^3
# Si number density = 22.567826 Si / 1000 Ang^3
#
#
#
# Elastic Constant Matrix: (Units=GPa)
#
#
# Indices 1 2 3 4 5 6 
#
# 1 41.4895 17.7268 10.5838 2.7684 -0.0441 -2.7761
# 2 17.7268 134.2018 23.5161 -10.3305 -2.7297 6.6031
# 3 10.5838 23.5161 105.0593 5.1482 0.4879 6.1397
# 4 2.7684 -10.3305 5.1482 39.6028 0.9089 6.2887
# 5 -0.0441 -2.7297 0.4879 0.9089 37.6832 -1.0679
# 6 -2.7761 6.6031 6.1397 6.2887 -1.0679 36.0342
#
#
#
# Elastic Compliance Matrix: (Units=1/GPa)
#
#
# Indices 1 2 3 4 5 6 
#
# 1 0.026575 -0.003588 -0.001931 -0.003110 -0.000027 0.003576
# 2 -0.003588 0.008546 -0.001579 0.003005 0.000504 -0.002083
# 3 -0.001931 -0.001579 0.010215 -0.001382 -0.000254 -0.001366
# 4 -0.003110 0.003005 -0.001382 0.027292 -0.000578 -0.005335
# 5 -0.000027 0.000504 -0.000254 -0.000578 0.026614 0.000838
# 6 0.003576 -0.002083 -0.001366 -0.005335 0.000838 0.029597
#
#
# Mechanical properties :
#
#
# Convention : Reuss Voigt Hill
#
# Bulk Modulus (GPa) = 32.11250 42.71156 37.41203
# Shear Modulus (GPa) = 32.59128 37.92561 35.25845
#
# Velocity S-wave (km/s) = 3.80432 4.10386 3.95692
# Velocity P-wave (km/s) = 5.79287 6.43603 6.12290
#
# Compressibility (1/GPa) = 0.03114052
#
# Stress axis : x y z
#
# Youngs Moduli (GPa) = 37.62988 117.01180 97.89352
#
# Poissons Ratio (x) = 0.41982 0.18899
# Poissons Ratio (y) = 0.13501 0.15461
# Poissons Ratio (z) = 0.07265 0.18480
#
# Static dielectric constant tensor:
#      x y z
#    x 3.932300 -0.005600 0.216900 
#    y -0.005600 4.433520 -0.373070 
#    z 0.216900 -0.373070 4.070480 
# 
# 
# High freq. dielectric constant tensor:
#      x y z
#    x 1.864590 0.006710 0.011900 
#    y 0.006710 1.906060 -0.006670 
#    z 0.011900 -0.006670 1.905650 
# 
# From -- ./inp_files/472490.got.cif
#   From: 2010.06.25/outbox.cif.g09.slc.cpg/sg2_237_cif.got.tgz:472490.got - 2010.06.27 13:26:56.
