data_PCOD8030752
_publ_section_title
;
Structure prediction by ZEFSAII (Michael W. Deem and Ramdas Pophale) SiO2 
 PCOD8030752
Probable space group: P -1
;
_chemical_formula_sum "Si O2"
_cell_formula_units_Z 16
_cell_length_a 19.594470
_cell_length_b 9.588867
_cell_length_c 17.457559
_cell_angle_alpha 50.507149
_cell_angle_beta 159.719514
_cell_angle_gamma 117.820826
_cell_volume 767.061288
_symmetry_space_group_name_H-M "P -1"
_symmetry_group_IT_number 2
_symmetry_cell_setting 'triclinic'
loop_
_space_group_symop_operation_xyz
x,y,z
-x,-y,-z
loop_
_atom_site_type_symbol
_atom_site_label
_atom_site_fract_x
_atom_site_fract_y
_atom_site_fract_z
Si Si1 0.576158 0.336413 0.801413
Si Si2 0.003836 0.323642 0.757250
Si Si3 0.555016 0.972159 0.156532
Si Si4 0.439194 0.419512 0.889722
Si Si5 0.986019 0.766286 0.778210
Si Si6 0.121783 0.998796 0.262288
Si Si7 0.408933 0.404978 0.137187
Si Si8 0.921594 0.406443 0.817911
O O1 0.578688 0.139067 0.912345
O O2 0.620765 0.487485 0.850097
O O3 0.333399 0.480581 0.456792
O O4 0.777836 0.239282 0.986414
O O5 0.815456 0.441782 0.453895
O O6 0.911598 0.421103 0.709770
O O7 0.217230 0.341311 0.948562
O O8 0.060618 0.083488 0.900155
O O9 0.820101 0.843479 0.502436
O O10 0.500000 0.000000 0.000000
O O11 0.468514 0.198420 0.020242
O O12 0.608833 0.423052 0.002492
O O13 0.500000 0.500000 0.000000
O O14 0.864325 0.912288 0.671508
O O15 0.041292 0.530983 0.935162
O O16 0.357579 0.805344 0.553730
O O17 0.055407 0.170910 0.067305
#
# Coordination Sequence:
#
# PCOD8030752 Si02
#       8
#     2   2   2   2   2   2   2   2
#     4  11  23  41  67  93 128 164 215 261 305 376
#     4  11  23  41  67  95 126 166 216 257 307 381
#     4  11  22  40  66  91 123 169 214 252 313 380
#     4  11  23  42  64  94 131 163 206 266 318 365
#     4  11  25  42  63  96 131 161 208 269 316 366
#     4  11  25  42  65  96 131 163 208 266 318 368
#     4  11  23  42  66  93 128 166 211 261 310 373
#     4  11  22  43  68  92 127 169 211 256 315 381
#
# _framework density 20.858827999999999
#
# number of rings (size 3 to 8) (size 9 to 14) (size 15 to 20)
#    0.000    1.000    5.000    3.000    0.000    7.000 
#    0.000    0.000    0.000    0.000    0.000    0.000 
#    0.000    0.000    0.000    0.000    0.000    0.000 
#
# Total GULP energy -198350.673097 kJ/mol
# GULP energy per Si atom -12396.917069 kJ/mol
# Density = 2.081135 g / cm^3
# Si number density = 20.858828 Si / 1000 Ang^3
#
#
#
# Elastic Constant Matrix: (Units=GPa)
#
#
# Indices 1 2 3 4 5 6 
#
# 1 60.6544 32.3590 42.3920 4.4575 -0.1702 -0.2375
# 2 32.3590 171.1051 46.8941 -7.5381 1.0880 11.9172
# 3 42.3920 46.8941 88.6468 -0.8779 -0.1032 16.0455
# 4 4.4575 -7.5381 -0.8779 41.4329 5.4909 2.8810
# 5 -0.1702 1.0880 -0.1032 5.4909 20.8110 4.7286
# 6 -0.2375 11.9172 16.0455 2.8810 4.7286 44.2911
#
#
#
# Elastic Compliance Matrix: (Units=1/GPa)
#
#
# Indices 1 2 3 4 5 6 
#
# 1 0.026865 -0.002146 -0.012764 -0.003945 0.000038 0.005598
# 2 -0.002146 0.007089 -0.002518 0.001618 -0.000589 -0.001049
# 3 -0.012764 -0.002518 0.019978 0.001650 0.001252 -0.006869
# 4 -0.003945 0.001618 0.001650 0.025890 -0.006474 -0.002047
# 5 0.000038 -0.000589 0.001252 -0.006474 0.051006 -0.005319
# 6 0.005598 -0.001049 -0.006869 -0.002047 -0.005319 0.026080
#
#
# Mechanical properties :
#
#
# Convention : Reuss Voigt Hill
#
# Bulk Modulus (GPa) = 52.42712 62.63293 57.53003
# Shear Modulus (GPa) = 25.23703 34.55774 29.89738
#
# Velocity S-wave (km/s) = 3.48213 4.07473 3.79003
# Velocity P-wave (km/s) = 6.43085 7.22704 6.84054
#
# Compressibility (1/GPa) = 0.01907410
#
# Stress axis : x y z
#
# Youngs Moduli (GPa) = 37.22338 141.07311 50.05522
#
# Poissons Ratio (x) = 0.30280 0.63890
# Poissons Ratio (y) = 0.07990 0.12605
# Poissons Ratio (z) = 0.47512 0.35525
#
# Static dielectric constant tensor:
#      x y z
#    x 3.679510 0.199590 -0.072130 
#    y 0.199590 4.277620 0.022490 
#    z -0.072130 0.022490 3.600540 
# 
# 
# High freq. dielectric constant tensor:
#      x y z
#    x 1.800670 0.002440 -0.005790 
#    y 0.002440 1.850070 0.000120 
#    z -0.005790 0.000120 1.805590 
# 
# From -- ./inp_files/577261.got.cif
#   From: 2010.06.25/outbox.cif.g09.slc.cpg/sg2_289_cif.got.tgz:577261.got - 2010.06.27 13:26:56.
