data_PCOD8030495
_publ_section_title
;
Structure prediction by ZEFSAII (Michael W. Deem and Ramdas Pophale) SiO2 
 PCOD8030495
Probable space group: P -1
;
_chemical_formula_sum "Si O2"
_cell_formula_units_Z 14
_cell_length_a 11.277085
_cell_length_b 17.026638
_cell_length_c 11.827295
_cell_angle_alpha 143.719799
_cell_angle_beta 57.406477
_cell_angle_gamma 148.000087
_cell_volume 631.443540
_symmetry_space_group_name_H-M "P -1"
_symmetry_group_IT_number 2
_symmetry_cell_setting 'triclinic'
loop_
_space_group_symop_operation_xyz
x,y,z
-x,-y,-z
loop_
_atom_site_type_symbol
_atom_site_label
_atom_site_fract_x
_atom_site_fract_y
_atom_site_fract_z
Si Si1 0.712930 0.584638 0.384971
Si Si2 0.215065 0.866217 0.362115
Si Si3 0.270897 0.688331 0.294832
Si Si4 0.189338 0.828667 0.072815
Si Si5 0.091764 0.699012 0.614027
Si Si6 0.192143 0.263330 0.249099
Si Si7 0.468760 0.135685 0.088745
O O1 0.483325 0.469365 0.296260
O O2 0.814464 0.756788 0.634023
O O3 0.581405 0.360311 0.254643
O O4 0.944837 0.725618 0.350023
O O5 0.214920 0.714059 0.231607
O O6 0.284895 0.927277 0.265019
O O7 0.434252 0.115524 0.609051
O O8 0.189394 0.733208 0.481106
O O9 0.114407 0.428033 0.075631
O O10 0.292354 0.022424 0.159781
O O11 0.294234 0.773776 0.899740
O O12 0.000000 0.500000 0.500000
O O13 0.874612 0.640140 0.644780
O O14 0.320687 0.949966 0.848738
O O15 0.000000 0.000000 0.000000
#
# Coordination Sequence:
#
# PCOD8030495 Si02
#       7
#     2   2   2   2   2   2   2
#     4  11  24  42  65  96 130 171 225 264 327 397
#     4  11  23  37  60  93 135 175 211 268 328 393
#     4  11  22  36  59  96 133 170 215 269 330 385
#     4  11  22  36  60  97 136 168 213 271 331 382
#     4  12  22  41  68 101 132 167 221 281 326 380
#     4  11  24  42  66  95 130 176 217 272 325 395
#     4  11  22  38  64 100 133 169 216 275 329 385
#
# _framework density 22.171420999999999
#
# number of rings (size 3 to 8) (size 9 to 14) (size 15 to 20)
#    0.000    0.857    7.143    0.429    2.000    1.143 
#    0.000    0.000    0.000    8.571    0.000    0.000 
#    0.000    0.000    0.000    0.000    0.000    0.000 
#
# Total GULP energy -173526.930402 kJ/mol
# GULP energy per Si atom -12394.780743 kJ/mol
# Density = 2.212096 g / cm^3
# Si number density = 22.171421 Si / 1000 Ang^3
#
#
#
# Elastic Constant Matrix: (Units=GPa)
#
#
# Indices 1 2 3 4 5 6 
#
# 1 96.0184 36.8762 19.2044 7.6043 5.5818 19.6059
# 2 36.8762 101.1534 22.7664 6.8773 10.1202 8.1531
# 3 19.2044 22.7664 91.9446 7.3063 23.6240 0.5173
# 4 7.6043 6.8773 7.3063 35.0208 1.4347 12.1861
# 5 5.5818 10.1202 23.6240 1.4347 27.7051 1.2337
# 6 19.6059 8.1531 0.5173 12.1861 1.2337 37.1750
#
#
#
# Elastic Compliance Matrix: (Units=1/GPa)
#
#
# Indices 1 2 3 4 5 6 
#
# 1 0.013628 -0.004100 -0.002023 0.000479 0.000739 -0.006442
# 2 -0.004100 0.012008 -0.001450 -0.001063 -0.002268 -0.000027
# 3 -0.002023 -0.001450 0.014872 -0.002759 -0.011711 0.002471
# 4 0.000479 -0.001063 -0.002759 0.032944 0.001420 -0.010828
# 5 0.000739 -0.002268 -0.011711 0.001420 0.046765 -0.001747
# 6 -0.006442 -0.000027 0.002471 -0.010828 -0.001747 0.033876
#
#
# Mechanical properties :
#
#
# Convention : Reuss Voigt Hill
#
# Bulk Modulus (GPa) = 39.42755 49.64561 44.53658
# Shear Modulus (GPa) = 28.13827 33.99813 31.06820
#
# Velocity S-wave (km/s) = 3.56634 3.92014 3.74742
# Velocity P-wave (km/s) = 5.89746 6.55212 6.23339
#
# Compressibility (1/GPa) = 0.02536298
#
# Stress axis : x y z
#
# Youngs Moduli (GPa) = 73.37588 83.27485 67.24037
#
# Poissons Ratio (x) = 0.34146 0.13603
# Poissons Ratio (y) = 0.30087 0.09747
# Poissons Ratio (z) = 0.14844 0.12071
#
# Static dielectric constant tensor:
#      x y z
#    x 4.383290 -0.034700 0.907520 
#    y -0.034700 4.344990 -0.294490 
#    z 0.907520 -0.294490 5.254890 
# 
# 
# High freq. dielectric constant tensor:
#      x y z
#    x 1.848050 0.003780 0.029210 
#    y 0.003780 1.868600 0.016510 
#    z 0.029210 0.016510 1.881350 
# 
# From -- ./inp_files/260900.got.cif
#   From: 2010.06.25/outbox.cif.g09.slc.cpg/sg2_131_cif.got.tgz:260900.got - 2010.06.27 13:26:56.
