data_PCOD8030366
_publ_section_title
;
Structure prediction by ZEFSAII (Michael W. Deem and Ramdas Pophale) SiO2 
 PCOD8030366
Probable space group: P -1
;
_chemical_formula_sum "Si O2"
_cell_formula_units_Z 16
_cell_length_a 14.337337
_cell_length_b 14.248153
_cell_length_c 11.604616
_cell_angle_alpha 44.853277
_cell_angle_beta 116.950651
_cell_angle_gamma 151.412896
_cell_volume 692.117377
_symmetry_space_group_name_H-M "P -1"
_symmetry_group_IT_number 2
_symmetry_cell_setting 'triclinic'
loop_
_space_group_symop_operation_xyz
x,y,z
-x,-y,-z
loop_
_atom_site_type_symbol
_atom_site_label
_atom_site_fract_x
_atom_site_fract_y
_atom_site_fract_z
Si Si1 0.573883 0.831805 0.568888
Si Si2 0.026832 0.214764 0.086830
Si Si3 0.774099 0.668380 0.693614
Si Si4 0.660365 0.370501 0.691599
Si Si5 0.807464 0.173156 0.168619
Si Si6 0.944651 0.283553 0.540036
Si Si7 0.824167 0.452871 0.332493
Si Si8 0.634373 0.597953 0.326151
O O1 0.429356 0.799442 0.549385
O O2 0.400867 0.517345 0.715748
O O3 0.738174 0.050380 0.364453
O O4 0.737203 0.965491 0.647539
O O5 0.885331 0.133121 0.175057
O O6 0.221730 0.357856 0.143916
O O7 0.874884 0.940210 0.169219
O O8 0.137064 0.437324 0.864188
O O9 0.754243 0.504385 0.756305
O O10 0.561725 0.515889 0.670496
O O11 0.000000 0.000000 0.500000
O O12 0.622994 0.475102 0.525928
O O13 0.832922 0.477003 0.622034
O O14 0.416068 0.021475 0.853682
O O15 0.000000 0.500000 0.000000
O O16 0.854725 0.331694 0.441782
O O17 0.998397 0.296640 0.688381
#
# Coordination Sequence:
#
# PCOD8030366 Si02
#       8
#     2   2   2   2   2   2   2   2
#     4  11  24  45  72 100 137 190 236 285 358 425
#     4  12  26  44  67 111 145 177 238 300 348 414
#     4  12  22  39  72 103 143 191 224 281 365 421
#     4  11  21  44  73 106 139 188 236 287 349 433
#     4  11  23  44  71 102 144 179 232 301 345 409
#     4  11  23  47  76  96 132 197 239 276 363 423
#     4  11  26  47  71 100 142 186 237 300 344 426
#     4  11  23  41  68 102 145 179 233 291 347 423
#
# _framework density 23.117464999999999
#
# number of rings (size 3 to 8) (size 9 to 14) (size 15 to 20)
#    0.000    0.750    5.000    4.500    0.000    1.500 
#    2.250    3.125    0.000    0.000    0.000    0.000 
#    0.000    0.000    0.000    0.000    0.000    0.000 
#
# Total GULP energy -198352.394173 kJ/mol
# GULP energy per Si atom -12397.024636 kJ/mol
# Density = 2.306485 g / cm^3
# Si number density = 23.117465 Si / 1000 Ang^3
#
#
#
# Elastic Constant Matrix: (Units=GPa)
#
#
# Indices 1 2 3 4 5 6 
#
# 1 111.0789 21.0680 17.5801 -8.4664 -21.6622 1.0990
# 2 21.0680 149.2269 24.7900 -1.1640 -8.0617 -13.5151
# 3 17.5801 24.7900 66.2036 9.8571 -12.8304 -2.5164
# 4 -8.4664 -1.1640 9.8571 37.7840 -5.8363 3.0498
# 5 -21.6622 -8.0617 -12.8304 -5.8363 21.5916 -4.0336
# 6 1.0990 -13.5151 -2.5164 3.0498 -4.0336 32.0334
#
#
#
# Elastic Compliance Matrix: (Units=1/GPa)
#
#
# Indices 1 2 3 4 5 6 
#
# 1 0.012171 -0.000771 -0.001231 0.004946 0.012579 0.000274
# 2 -0.000771 0.007564 -0.002325 0.000633 0.001430 0.003155
# 3 -0.001231 -0.002325 0.018572 -0.004084 0.008191 0.001940
# 4 0.004946 0.000633 -0.004084 0.030451 0.010670 -0.001779
# 5 0.012579 0.001430 0.008191 0.010670 0.068801 0.008463
# 6 0.000274 0.003155 0.001940 -0.001779 0.008463 0.033927
#
#
# Mechanical properties :
#
#
# Convention : Reuss Voigt Hill
#
# Bulk Modulus (GPa) = 33.72376 50.37616 42.04996
# Shear Modulus (GPa) = 26.31241 35.81990 31.06615
#
# Velocity S-wave (km/s) = 3.37739 3.94061 3.66982
# Velocity P-wave (km/s) = 5.46156 6.52251 6.01547
#
# Compressibility (1/GPa) = 0.02965269
#
# Stress axis : x y z
#
# Youngs Moduli (GPa) = 82.16158 132.20215 53.84519
#
# Poissons Ratio (x) = 0.10191 0.06631
# Poissons Ratio (y) = 0.06333 0.12519
# Poissons Ratio (z) = 0.10117 0.30736
#
# Static dielectric constant tensor:
#      x y z
#    x 4.336070 -0.180300 -0.050880 
#    y -0.180300 5.064210 0.049260 
#    z -0.050880 0.049260 3.635880 
# 
# 
# High freq. dielectric constant tensor:
#      x y z
#    x 1.923530 -0.005110 -0.005560 
#    y -0.005110 1.952940 0.001390 
#    z -0.005560 0.001390 1.862630 
# 
# From -- ./inp_files/455558.got.cif
#   From: 2010.06.25/outbox.cif.g09.slc.cpg/sg2_228_cif.got.tgz:455558.got - 2010.06.27 13:26:56.
