data_PCOD8030169
_publ_section_title
;
Structure prediction by ZEFSAII (Michael W. Deem and Ramdas Pophale) SiO2 
 PCOD8030169
Probable space group: P -1
;
_chemical_formula_sum "Si O2"
_cell_formula_units_Z 14
_cell_length_a 11.182375
_cell_length_b 11.594312
_cell_length_c 12.254673
_cell_angle_alpha 49.367127
_cell_angle_beta 45.800494
_cell_angle_gamma 32.148987
_cell_volume 598.338018
_symmetry_space_group_name_H-M "P -1"
_symmetry_group_IT_number 2
_symmetry_cell_setting 'triclinic'
loop_
_space_group_symop_operation_xyz
x,y,z
-x,-y,-z
loop_
_atom_site_type_symbol
_atom_site_label
_atom_site_fract_x
_atom_site_fract_y
_atom_site_fract_z
Si Si1 0.667260 0.975791 0.070420
Si Si2 0.543057 0.649574 0.859500
Si Si3 0.532061 0.221730 0.409181
Si Si4 0.939100 0.578505 0.303250
Si Si5 0.450446 0.571411 0.364322
Si Si6 0.073428 0.156606 0.452638
Si Si7 0.319837 0.966731 0.201560
O O1 0.433883 0.045499 0.127199
O O2 0.829570 0.756376 0.170526
O O3 0.574786 0.182276 0.068908
O O4 0.812377 0.927489 0.897235
O O5 0.413731 0.801829 0.739413
O O6 0.828722 0.485751 0.758448
O O7 0.500000 0.500000 0.000000
O O8 0.575256 0.365036 0.336325
O O9 0.265317 0.326135 0.534876
O O10 0.719294 0.990673 0.495866
O O11 0.028178 0.363175 0.327062
O O12 0.500000 0.500000 0.500000
O O13 0.524815 0.698472 0.219586
O O14 0.166235 0.760724 0.398875
O O15 0.137238 0.034385 0.371749
#
# Coordination Sequence:
#
# PCOD8030169 Si02
#       7
#     2   2   2   2   2   2   2
#     4  11  25  44  66  93 135 175 217 274 326 396
#     4  12  27  47  67  97 132 173 226 273 338 390
#     4  11  24  43  70  98 134 174 220 275 324 393
#     4  11  23  45  67  99 129 177 225 270 329 392
#     4  11  22  39  66 103 135 166 219 270 326 390
#     4  11  22  42  69 101 130 174 218 269 331 389
#     4  11  21  43  64  98 137 169 218 268 328 394
#
# _framework density 23.398145
#
# number of rings (size 3 to 8) (size 9 to 14) (size 15 to 20)
#    0.000    0.857    4.286    2.571    0.000    6.857 
#    2.571    0.000    0.000    0.000    0.000    0.000 
#    0.000    0.000    0.000    0.000    0.000    0.000 
#
# Total GULP energy -173494.105145 kJ/mol
# GULP energy per Si atom -12392.436082 kJ/mol
# Density = 2.334489 g / cm^3
# Si number density = 23.398145 Si / 1000 Ang^3
#
#
#
# Elastic Constant Matrix: (Units=GPa)
#
#
# Indices 1 2 3 4 5 6 
#
# 1 104.5872 49.8897 48.7001 -3.4472 12.5786 16.6238
# 2 49.8897 105.5731 39.4285 -25.2105 6.5389 4.5712
# 3 48.7001 39.4285 123.2944 -25.1068 30.0557 4.3108
# 4 -3.4472 -25.2105 -25.1068 36.7930 2.9901 -10.1286
# 5 12.5786 6.5389 30.0557 2.9901 49.1258 -4.8874
# 6 16.6238 4.5712 4.3108 -10.1286 -4.8874 37.0726
#
#
#
# Elastic Compliance Matrix: (Units=1/GPa)
#
#
# Indices 1 2 3 4 5 6 
#
# 1 0.017294 -0.008018 -0.006134 -0.010524 0.000146 -0.008909
# 2 -0.008018 0.015697 0.000508 0.011698 -0.000590 0.004719
# 3 -0.006134 0.000508 0.014384 0.011044 -0.007669 0.003022
# 4 -0.010524 0.011698 0.011044 0.046076 -0.007066 0.013649
# 5 0.000146 -0.000590 -0.007669 -0.007066 0.025754 0.002364
# 6 -0.008909 0.004719 0.003022 0.013649 0.002364 0.034077
#
#
# Mechanical properties :
#
#
# Convention : Reuss Voigt Hill
#
# Bulk Modulus (GPa) = 49.78345 67.72126 58.75235
# Shear Modulus (GPa) = 26.70025 37.62736 32.16380
#
# Velocity S-wave (km/s) = 3.38172 4.01451 3.71162
# Velocity P-wave (km/s) = 6.04739 7.10593 6.59792
#
# Compressibility (1/GPa) = 0.02008700
#
# Stress axis : x y z
#
# Youngs Moduli (GPa) = 57.82404 63.70682 69.52339
#
# Poissons Ratio (x) = 0.51079 0.42646
# Poissons Ratio (y) = 0.46362 -0.03533
# Poissons Ratio (z) = 0.35469 -0.03237
#
# Static dielectric constant tensor:
#      x y z
#    x 4.523070 0.153430 -0.062870 
#    y 0.153430 4.242410 -0.062170 
#    z -0.062870 -0.062170 4.736740 
# 
# 
# High freq. dielectric constant tensor:
#      x y z
#    x 1.927800 0.015180 0.002060 
#    y 0.015180 1.921110 -0.021460 
#    z 0.002060 -0.021460 1.930040 
# 
# From -- ./inp_files/427507.got.cif
#   From: 2010.06.25/outbox.cif.g09.slc.cpg/sg2_214_cif.got.tgz:427507.got - 2010.06.27 13:26:56.
