data_PCOD8030545
_publ_section_title
;
Structure prediction by ZEFSAII (Michael W. Deem and Ramdas Pophale) SiO2 
 PCOD8030545
Probable space group: P -1
;
_chemical_formula_sum "Si O2"
_cell_formula_units_Z 16
_cell_length_a 18.111184
_cell_length_b 7.868149
_cell_length_c 20.800202
_cell_angle_alpha 51.537568
_cell_angle_beta 20.389977
_cell_angle_gamma 41.700379
_cell_volume 647.076585
_symmetry_space_group_name_H-M "P -1"
_symmetry_group_IT_number 2
_symmetry_cell_setting 'triclinic'
loop_
_space_group_symop_operation_xyz
x,y,z
-x,-y,-z
loop_
_atom_site_type_symbol
_atom_site_label
_atom_site_fract_x
_atom_site_fract_y
_atom_site_fract_z
Si Si1 0.792588 0.738643 0.339252
Si Si2 0.267702 0.648194 0.439742
Si Si3 0.963931 0.382504 0.486586
Si Si4 0.591726 0.602197 0.844738
Si Si5 0.977200 0.037977 0.809701
Si Si6 0.244217 0.499735 0.790459
Si Si7 0.232292 0.017428 0.486997
Si Si8 0.169541 0.685795 0.946297
O O1 0.774842 0.506172 0.434089
O O2 0.500000 0.000000 0.500000
O O3 0.939452 0.802413 0.255205
O O4 0.980660 0.622484 0.148950
O O5 0.055342 0.740838 0.534421
O O6 0.230068 0.909990 0.441661
O O7 0.547196 0.453045 0.217349
O O8 0.830681 0.340794 0.667864
O O9 0.274304 0.258782 0.268703
O O10 0.781750 0.713514 0.563169
O O11 0.500000 0.500000 0.000000
O O12 0.335079 0.822453 0.958303
O O13 0.171203 0.722183 0.744606
O O14 0.994341 0.071082 0.711813
O O15 0.509172 0.203793 0.628241
O O16 0.296752 0.564836 0.801784
O O17 0.000000 0.500000 0.000000
O O18 0.000000 0.000000 0.000000
#
# Coordination Sequence:
#
# PCOD8030545 Si02
#       8
#     2   2   2   2   2   2   2   2
#     4  12  22  36  65  93 130 182 219 263 333 393
#     4  11  24  43  64  97 132 175 222 269 336 392
#     4  11  24  46  77  93 133 181 220 281 335 390
#     4  11  23  45  75 103 124 177 233 274 339 391
#     4  12  23  42  68  95 139 176 223 282 329 396
#     4  11  25  37  60  98 136 181 217 265 339 398
#     4  11  24  43  65 103 137 170 226 271 329 408
#     4  11  22  38  56  91 131 169 226 263 313 405
#
# _framework density 24.726590000000002
#
# number of rings (size 3 to 8) (size 9 to 14) (size 15 to 20)
#    0.000    0.750    5.000    2.625    5.250    0.000 
#    0.000    3.125    0.000    0.000    0.000    0.000 
#    0.000    0.000    0.000    0.000    0.000    0.000 
#
# Total GULP energy -198216.950386 kJ/mol
# GULP energy per Si atom -12388.559399 kJ/mol
# Density = 2.467031 g / cm^3
# Si number density = 24.726590 Si / 1000 Ang^3
#
#
#
# Elastic Constant Matrix: (Units=GPa)
#
#
# Indices 1 2 3 4 5 6 
#
# 1 106.9343 13.6857 35.1904 -1.9184 -6.7967 -4.2594
# 2 13.6857 95.7461 30.6823 -3.8204 0.5845 6.2542
# 3 35.1904 30.6823 165.7556 -3.6426 -9.5811 -9.9609
# 4 -1.9184 -3.8204 -3.6426 42.6469 -15.4799 5.2156
# 5 -6.7967 0.5845 -9.5811 -15.4799 54.4377 -11.4443
# 6 -4.2594 6.2542 -9.9609 5.2156 -11.4443 26.4116
#
#
#
# Elastic Compliance Matrix: (Units=1/GPa)
#
#
# Indices 1 2 3 4 5 6 
#
# 1 0.010242 -0.000993 -0.001786 0.000549 0.001500 0.001755
# 2 -0.000993 0.011656 -0.002279 0.000867 -0.001358 -0.004539
# 3 -0.001786 -0.002279 0.007188 0.000608 0.002021 0.003718
# 4 0.000549 0.000867 0.000608 0.026487 0.007286 -0.001961
# 5 0.001500 -0.001358 0.002021 0.007286 0.023077 0.009887
# 6 0.001755 -0.004539 0.003718 -0.001961 0.009887 0.045293
#
#
# Mechanical properties :
#
#
# Convention : Reuss Voigt Hill
#
# Bulk Modulus (GPa) = 52.71990 58.61698 55.66844
# Shear Modulus (GPa) = 35.61682 43.95775 39.78728
#
# Velocity S-wave (km/s) = 3.79941 4.22091 4.01570
# Velocity P-wave (km/s) = 6.37297 6.89292 6.63804
#
# Compressibility (1/GPa) = 0.01896817
#
# Stress axis : x y z
#
# Youngs Moduli (GPa) = 97.64134 85.79288 139.12727
#
# Poissons Ratio (x) = 0.08522 0.24851
# Poissons Ratio (y) = 0.09699 0.31706
# Poissons Ratio (z) = 0.17441 0.19552
#
# Static dielectric constant tensor:
#      x y z
#    x 4.406350 -0.297560 -0.101380 
#    y -0.297560 5.189210 0.167840 
#    z -0.101380 0.167840 4.814420 
# 
# 
# High freq. dielectric constant tensor:
#      x y z
#    x 1.987960 -0.024000 -0.009830 
#    y -0.024000 1.980380 0.004640 
#    z -0.009830 0.004640 2.010190 
# 
# From -- ./inp_files/348583.got.cif
#   From: 2010.06.25/outbox.cif.g09.slc.cpg/sg2_175_cif.got.tgz:348583.got - 2010.06.27 13:26:56.
