data_PCOD8030948
_publ_section_title
;
Structure prediction by ZEFSAII (Michael W. Deem and Ramdas Pophale) SiO2 
 PCOD8030948
Probable space group: P -1
;
_chemical_formula_sum "Si O2"
_cell_formula_units_Z 16
_cell_length_a 25.401248
_cell_length_b 8.596397
_cell_length_c 25.223618
_cell_angle_alpha 41.629040
_cell_angle_beta 10.897323
_cell_angle_gamma 41.573090
_cell_volume 687.316876
_symmetry_space_group_name_H-M "P -1"
_symmetry_group_IT_number 2
_symmetry_cell_setting 'triclinic'
loop_
_space_group_symop_operation_xyz
x,y,z
-x,-y,-z
loop_
_atom_site_type_symbol
_atom_site_label
_atom_site_fract_x
_atom_site_fract_y
_atom_site_fract_z
Si Si1 0.862843 0.652489 0.980849
Si Si2 0.058816 0.347434 0.770230
Si Si3 0.847457 0.740155 0.804205
Si Si4 0.258141 0.919591 0.078508
Si Si5 0.377618 0.482471 0.568906
Si Si6 0.408345 0.963776 0.658654
Si Si7 0.180007 0.408479 0.396583
Si Si8 0.331993 0.782024 0.238366
O O1 0.612700 0.509078 0.284565
O O2 0.068536 0.530019 0.762740
O O3 0.096460 0.667790 0.791989
O O4 0.712724 0.902785 0.044519
O O5 0.998317 0.493923 0.739042
O O6 0.331116 0.170129 0.532971
O O7 0.828225 0.198192 0.057718
O O8 0.036433 0.850849 0.543717
O O9 0.807433 0.937699 0.838756
O O10 0.556012 0.659862 0.090307
O O11 0.015356 0.766009 0.337664
O O12 0.535928 0.747733 0.861143
O O13 0.500000 0.500000 0.500000
O O14 0.285481 0.222366 0.731458
O O15 0.500000 0.000000 0.500000
O O16 0.264639 0.616866 0.297787
O O17 0.000000 0.500000 0.500000
O O18 0.500000 0.000000 0.000000
#
# Coordination Sequence:
#
# PCOD8030948 Si02
#       8
#     2   2   2   2   2   2   2   2
#     4  11  22  44  67  91 136 177 227 275 340 402
#     4  11  22  41  68  99 126 178 227 286 329 401
#     4  11  25  46  72 105 142 178 234 286 353 405
#     4  11  25  46  75 102 136 188 234 281 342 423
#     4  12  25  41  60  97 134 181 224 282 339 398
#     4  12  21  39  68  93 130 175 236 278 332 390
#     4  12  26  48  72 105 140 183 231 275 341 426
#     4  12  26  48  72 105 144 180 219 290 350 408
#
# _framework density 23.278928000000001
#
# number of rings (size 3 to 8) (size 9 to 14) (size 15 to 20)
#    0.000    0.500    2.500    6.000    0.000    6.000 
#   13.500    0.000    0.000    0.000    0.000    0.000 
#    0.000    0.000    0.000    0.000    0.000    0.000 
#
# Total GULP energy -198232.916471 kJ/mol
# GULP energy per Si atom -12389.557279 kJ/mol
# Density = 2.322594 g / cm^3
# Si number density = 23.278928 Si / 1000 Ang^3
#
#
#
# Elastic Constant Matrix: (Units=GPa)
#
#
# Indices 1 2 3 4 5 6 
#
# 1 96.7403 59.1240 31.0822 -4.4184 -24.9469 -0.3528
# 2 59.1240 123.4303 39.6005 -1.9628 -9.7538 -6.2396
# 3 31.0822 39.6005 135.3896 1.3886 -15.3601 1.0416
# 4 -4.4184 -1.9628 1.3886 49.4161 -3.4592 -5.3458
# 5 -24.9469 -9.7538 -15.3601 -3.4592 44.7249 -4.5311
# 6 -0.3528 -6.2396 1.0416 -5.3458 -4.5311 25.0345
#
#
#
# Elastic Compliance Matrix: (Units=1/GPa)
#
#
# Indices 1 2 3 4 5 6 
#
# 1 0.017194 -0.007266 -0.000953 0.001856 0.007852 0.000289
# 2 -0.007266 0.012266 -0.002149 0.000064 -0.001835 0.002726
# 3 -0.000953 -0.002149 0.008447 -0.000351 0.001808 -0.000648
# 4 0.001856 0.000064 -0.000351 0.021187 0.003088 0.005140
# 5 0.007852 -0.001835 0.001808 0.003088 0.027731 0.005257
# 6 0.000289 0.002726 -0.000648 0.005140 0.005257 0.042704
#
#
# Mechanical properties :
#
#
# Convention : Reuss Voigt Hill
#
# Bulk Modulus (GPa) = 58.23691 68.35260 63.29475
# Shear Modulus (GPa) = 32.05362 38.88533 35.46947
#
# Velocity S-wave (km/s) = 3.71474 4.09150 3.90766
# Velocity P-wave (km/s) = 6.59320 7.19351 6.89989
#
# Compressibility (1/GPa) = 0.01717124
#
# Stress axis : x y z
#
# Youngs Moduli (GPa) = 58.15866 81.52902 118.38285
#
# Poissons Ratio (x) = 0.59239 0.11277
# Poissons Ratio (y) = 0.42258 0.25444
# Poissons Ratio (z) = 0.05540 0.17523
#
# Static dielectric constant tensor:
#      x y z
#    x 4.153450 -0.547780 -0.734820 
#    y -0.547780 4.239400 -0.056870 
#    z -0.734820 -0.056870 4.058530 
# 
# 
# High freq. dielectric constant tensor:
#      x y z
#    x 1.918790 -0.025450 -0.011410 
#    y -0.025450 1.926430 -0.002100 
#    z -0.011410 -0.002100 1.938490 
# 
# From -- ./inp_files/621142.got.cif
#   From: 2010.06.25/outbox.cif.g09.slc.cpg/sg2_311_cif.got.tgz:621142.got - 2010.06.27 13:26:56.
