data_PCOD8030491
_publ_section_title
;
Structure prediction by ZEFSAII (Michael W. Deem and Ramdas Pophale) SiO2 
 PCOD8030491
Probable space group: P -1
;
_chemical_formula_sum "Si O2"
_cell_formula_units_Z 16
_cell_length_a 22.884264
_cell_length_b 11.440913
_cell_length_c 8.951206
_cell_angle_alpha 141.479023
_cell_angle_beta 54.075225
_cell_angle_gamma 147.541528
_cell_volume 764.201560
_symmetry_space_group_name_H-M "P -1"
_symmetry_group_IT_number 2
_symmetry_cell_setting 'triclinic'
loop_
_space_group_symop_operation_xyz
x,y,z
-x,-y,-z
loop_
_atom_site_type_symbol
_atom_site_label
_atom_site_fract_x
_atom_site_fract_y
_atom_site_fract_z
Si Si1 0.253527 0.642178 0.336678
Si Si2 0.533091 0.849034 0.635157
Si Si3 0.112642 0.657136 0.413112
Si Si4 0.253532 0.642200 0.687110
Si Si5 0.290907 0.326273 0.466443
Si Si6 0.466914 0.150985 0.036369
Si Si7 0.112644 0.657149 0.063244
Si Si8 0.709096 0.673743 0.186624
O O1 0.147902 0.528254 0.301110
O O2 0.236331 0.619893 0.515396
O O3 0.367040 0.979310 0.460100
O O4 0.256809 0.433744 0.073377
O O5 0.418825 0.512449 0.424811
O O6 0.500005 0.000015 0.843321
O O7 0.575492 0.866358 0.753124
O O8 0.092993 0.594339 0.204849
O O9 0.000000 0.500000 0.500000
O O10 0.209461 0.996475 0.645736
O O11 0.256816 0.433775 0.523716
O O12 0.367047 0.979334 0.897403
O O13 0.147909 0.528281 0.811709
O O14 0.282737 0.370886 0.696784
O O15 0.209460 0.996492 0.218850
O O16 0.581179 0.487570 0.156395
O O17 0.000000 0.500000 0.000000
#
# Coordination Sequence:
#
# PCOD8030491 Si02
#       8
#     2   2   2   2   2   2   2   2
#     4  11  22  36  58  88 120 151 183 228 286 340
#     4   8  15  32  57  84 114 148 187 227 273 334
#     4  11  24  42  61  82 111 148 195 242 281 331
#     4  11  22  36  58  88 120 151 183 228 286 340
#     4   9  20  39  62  85 112 151 192 231 279 334
#     4   8  15  32  57  84 114 148 187 227 273 334
#     4  11  24  42  61  82 111 148 195 242 281 331
#     4   9  20  39  62  85 112 151 192 231 279 334
#
# _framework density 20.936885
#
# number of rings (size 3 to 8) (size 9 to 14) (size 15 to 20)
#    0.000    2.250    0.000    4.500    0.000    8.500 
#    0.000    5.000    0.000    0.000    0.000    0.000 
#    0.000    0.000    0.000    0.000    0.000    0.000 
#
# Total GULP energy -198402.657141 kJ/mol
# GULP energy per Si atom -12400.166071 kJ/mol
# Density = 2.088923 g / cm^3
# Si number density = 20.936885 Si / 1000 Ang^3
#
#
#
# Elastic Constant Matrix: (Units=GPa)
#
#
# Indices 1 2 3 4 5 6 
#
# 1 106.8295 21.7595 28.7494 -18.9469 20.3566 5.3941
# 2 21.7595 75.9304 24.4618 -20.9008 5.5638 -1.6613
# 3 28.7494 24.4618 68.1973 -18.8415 16.9377 -5.2146
# 4 -18.9469 -20.9008 -18.8415 36.5491 3.6630 -1.1693
# 5 20.3566 5.5638 16.9377 3.6630 22.2227 -3.3033
# 6 5.3941 -1.6613 -5.2146 -1.1693 -3.3033 30.2638
#
#
#
# Elastic Compliance Matrix: (Units=1/GPa)
#
#
# Indices 1 2 3 4 5 6 
#
# 1 0.013893 -0.000774 -0.000084 0.008034 -0.014356 -0.003790
# 2 -0.000774 0.016685 -0.002758 0.007998 -0.002595 0.000604
# 3 -0.000084 -0.002758 0.024297 0.012939 -0.019524 0.002419
# 4 0.008034 0.007998 0.012939 0.045447 -0.026703 0.000078
# 5 -0.014356 -0.002595 -0.019524 -0.026703 0.079070 0.006651
# 6 -0.003790 0.000604 0.002419 0.000078 0.006651 0.034897
#
#
# Mechanical properties :
#
#
# Convention : Reuss Voigt Hill
#
# Bulk Modulus (GPa) = 20.98965 44.54430 32.76698
# Shear Modulus (GPa) = 21.06131 29.53956 25.30043
#
# Velocity S-wave (km/s) = 3.17510 3.76025 3.48000
# Velocity P-wave (km/s) = 4.84651 6.33832 5.64194
#
# Compressibility (1/GPa) = 0.04764253
#
# Stress axis : x y z
#
# Youngs Moduli (GPa) = 71.98076 59.93346 41.15759
#
# Poissons Ratio (x) = 0.04638 0.00345
# Poissons Ratio (y) = 0.05570 0.11353
# Poissons Ratio (z) = 0.00603 0.16532
#
# Static dielectric constant tensor:
#      x y z
#    x 3.752350 0.203350 0.037240 
#    y 0.203350 4.069740 0.128970 
#    z 0.037240 0.128970 3.692690 
# 
# 
# High freq. dielectric constant tensor:
#      x y z
#    x 1.818020 0.007690 -0.004670 
#    y 0.007690 1.818870 0.001470 
#    z -0.004670 0.001470 1.812460 
# 
# From -- ./inp_files/353723.got.cif
#   From: 2010.06.25/outbox.cif.g09.slc.cpg/sg2_177_cif.got.tgz:353723.got - 2010.06.27 13:26:56.
