data_PCOD8030322
_publ_section_title
;
Structure prediction by ZEFSAII (Michael W. Deem and Ramdas Pophale) SiO2 
 PCOD8030322
Probable space group: P -1
;
_chemical_formula_sum "Si O2"
_cell_formula_units_Z 14
_cell_length_a 15.207998
_cell_length_b 20.034739
_cell_length_c 12.001373
_cell_angle_alpha 29.082343
_cell_angle_beta 149.241975
_cell_angle_gamma 159.350908
_cell_volume 608.085464
_symmetry_space_group_name_H-M "P -1"
_symmetry_group_IT_number 2
_symmetry_cell_setting 'triclinic'
loop_
_space_group_symop_operation_xyz
x,y,z
-x,-y,-z
loop_
_atom_site_type_symbol
_atom_site_label
_atom_site_fract_x
_atom_site_fract_y
_atom_site_fract_z
Si Si1 0.992046 0.515422 0.777522
Si Si2 0.609517 0.212006 0.993678
Si Si3 0.041752 0.983158 0.694031
Si Si4 0.274595 0.187704 0.075592
Si Si5 0.781434 0.542031 0.321760
Si Si6 0.186393 0.438657 0.922531
Si Si7 0.656147 0.922390 0.479914
O O1 0.242175 0.672689 0.897907
O O2 0.998235 0.390165 0.881330
O O3 0.985259 0.642615 0.499195
O O4 0.748002 0.359232 0.821939
O O5 0.581185 0.032254 0.205473
O O6 0.334468 0.120334 0.841979
O O7 0.942286 0.053321 0.556157
O O8 0.000000 0.000000 0.500000
O O9 0.853249 0.745698 0.857657
O O10 0.521635 0.349501 0.027595
O O11 0.331822 0.089560 0.356961
O O12 0.279807 0.332806 0.940362
O O13 0.000000 0.000000 0.000000
O O14 0.866120 0.539218 0.294675
O O15 0.551377 0.308170 0.458285
#
# Coordination Sequence:
#
# PCOD8030322 Si02
#       7
#     2   2   2   2   2   2   2
#     4  11  25  45  65 101 145 183 228 294 347 404
#     4  11  27  46  66 103 145 184 235 287 343 413
#     4  12  24  43  73 101 134 187 235 281 344 416
#     4  11  23  41  68 102 140 176 223 290 354 407
#     4  11  21  44  70 100 138 177 233 288 342 416
#     4  11  23  42  68 103 134 180 239 280 346 418
#     4  11  22  45  68  98 138 181 231 284 339 411
#
# _framework density 23.02308
#
# number of rings (size 3 to 8) (size 9 to 14) (size 15 to 20)
#    0.000    0.857    2.857    4.714    2.000    2.857 
#    0.000    6.429    0.000    0.000    0.000    0.000 
#    0.000    0.000    0.000    0.000    0.000    0.000 
#
# Total GULP energy -173450.398903 kJ/mol
# GULP energy per Si atom -12389.314207 kJ/mol
# Density = 2.297068 g / cm^3
# Si number density = 23.023080 Si / 1000 Ang^3
#
#
#
# Elastic Constant Matrix: (Units=GPa)
#
#
# Indices 1 2 3 4 5 6 
#
# 1 105.2283 25.3424 24.5430 3.5417 -8.0615 8.6134
# 2 25.3424 112.4126 24.8557 11.4871 -18.0035 5.5672
# 3 24.5430 24.8557 96.6127 7.3899 -15.6883 0.8456
# 4 3.5417 11.4871 7.3899 28.6811 1.7017 6.7706
# 5 -8.0615 -18.0035 -15.6883 1.7017 42.4985 0.8618
# 6 8.6134 5.5672 0.8456 6.7706 0.8618 25.6487
#
#
#
# Elastic Compliance Matrix: (Units=1/GPa)
#
#
# Indices 1 2 3 4 5 6 
#
# 1 0.010733 -0.001753 -0.002217 0.000710 0.000514 -0.003355
# 2 -0.001753 0.010629 -0.001376 -0.003720 0.003828 -0.000820
# 3 -0.002217 -0.001376 0.012043 -0.002786 0.003528 0.001263
# 4 0.000710 -0.003720 -0.002786 0.039489 -0.003855 -0.009634
# 5 0.000514 0.003828 0.003528 -0.003855 0.026726 -0.001000
# 6 -0.003355 -0.000820 0.001263 -0.009634 -0.001000 0.042828
#
#
# Mechanical properties :
#
#
# Convention : Reuss Voigt Hill
#
# Bulk Modulus (GPa) = 44.02902 51.52620 47.77761
# Shear Modulus (GPa) = 31.11187 35.33315 33.22251
#
# Velocity S-wave (km/s) = 3.68004 3.92175 3.80282
# Velocity P-wave (km/s) = 6.10101 6.55253 6.33080
#
# Compressibility (1/GPa) = 0.02271229
#
# Stress axis : x y z
#
# Youngs Moduli (GPa) = 93.17401 94.08184 83.03834
#
# Poissons Ratio (x) = 0.16496 0.18407
# Poissons Ratio (y) = 0.16337 0.11425
# Poissons Ratio (z) = 0.20654 0.12944
#
# Static dielectric constant tensor:
#      x y z
#    x 4.238370 0.377090 -0.102390 
#    y 0.377090 4.555000 0.083190 
#    z -0.102390 0.083190 4.296160 
# 
# 
# High freq. dielectric constant tensor:
#      x y z
#    x 1.902960 0.009350 -0.008710 
#    y 0.009350 1.906320 0.005410 
#    z -0.008710 0.005410 1.920510 
# 
# From -- ./inp_files/185211.got.cif
#   From: 2010.06.25/outbox.cif.g09.slc.cpg/sg2_93_cif.got.tgz:185211.got - 2010.06.27 13:26:56.
