data_PCOD8030829
_publ_section_title
;
Structure prediction by ZEFSAII (Michael W. Deem and Ramdas Pophale) SiO2 
 PCOD8030829
Probable space group: P -1
;
_chemical_formula_sum "Si O2"
_cell_formula_units_Z 16
_cell_length_a 11.572157
_cell_length_b 9.747072
_cell_length_c 8.906307
_cell_angle_alpha 127.804241
_cell_angle_beta 105.147119
_cell_angle_gamma 76.983697
_cell_volume 763.362601
_symmetry_space_group_name_H-M "P -1"
_symmetry_group_IT_number 2
_symmetry_cell_setting 'triclinic'
loop_
_space_group_symop_operation_xyz
x,y,z
-x,-y,-z
loop_
_atom_site_type_symbol
_atom_site_label
_atom_site_fract_x
_atom_site_fract_y
_atom_site_fract_z
Si Si1 0.058618 0.305076 0.878452
Si Si2 0.584524 0.655157 0.632746
Si Si3 0.312274 0.155036 0.947475
Si Si4 0.698676 0.146654 0.021823
Si Si5 0.799645 0.457790 0.416403
Si Si6 0.492777 0.001209 0.678872
Si Si7 0.038826 0.300727 0.530853
Si Si8 0.925664 0.044494 0.858449
O O1 0.197214 0.288250 0.964203
O O2 0.049051 0.241041 0.664045
O O3 0.987289 0.180217 0.870457
O O4 0.000000 0.500000 0.000000
O O5 0.500000 0.500000 0.500000
O O6 0.719542 0.597666 0.582821
O O7 0.524836 0.801940 0.601073
O O8 0.592351 0.735229 0.856892
O O9 0.363209 0.072071 0.751288
O O10 0.278214 0.999647 0.940431
O O11 0.705792 0.333934 0.228297
O O12 0.577477 0.131196 0.877276
O O13 0.797015 0.131985 0.916084
O O14 0.875946 0.545304 0.371707
O O15 0.898317 0.352192 0.483643
O O16 0.500000 0.000000 0.500000
O O17 0.092018 0.135701 0.347180
O O18 0.000000 0.000000 0.000000
#
# Coordination Sequence:
#
# PCOD8030829 Si02
#       8
#     2   2   2   2   2   2   2   2
#     4  12  26  42  66 104 138 169 221 277 329 389
#     4  11  23  43  68  94 127 172 223 269 327 391
#     4  11  23  44  71  91 135 179 220 265 331 399
#     4  11  22  44  71  94 133 180 221 266 330 400
#     4  11  22  40  70  99 130 173 222 269 327 396
#     4  11  26  46  67  98 130 173 224 278 329 385
#     4  11  24  40  66  98 137 173 220 266 329 393
#     4  12  23  43  67  98 134 180 217 267 332 404
#
# _framework density 20.959897000000002
#
# number of rings (size 3 to 8) (size 9 to 14) (size 15 to 20)
#    0.000    0.750    2.500    6.375    5.250    0.000 
#    6.750    1.250    0.000    0.000    0.000    0.000 
#    0.000    0.000    0.000    0.000    0.000    0.000 
#
# Total GULP energy -198404.906001 kJ/mol
# GULP energy per Si atom -12400.306625 kJ/mol
# Density = 2.091219 g / cm^3
# Si number density = 20.959897 Si / 1000 Ang^3
#
#
#
# Elastic Constant Matrix: (Units=GPa)
#
#
# Indices 1 2 3 4 5 6 
#
# 1 90.6818 37.4571 30.9013 -7.1179 -4.7657 4.2913
# 2 37.4571 119.2420 58.9256 -14.1883 7.4196 7.7994
# 3 30.9013 58.9256 133.9213 -6.5457 -1.6519 10.1454
# 4 -7.1179 -14.1883 -6.5457 39.9459 7.9470 -4.4493
# 5 -4.7657 7.4196 -1.6519 7.9470 42.6147 8.1590
# 6 4.2913 7.7994 10.1454 -4.4493 8.1590 33.4980
#
#
#
# Elastic Compliance Matrix: (Units=1/GPa)
#
#
# Indices 1 2 3 4 5 6 
#
# 1 0.013115 -0.003463 -0.001389 0.000353 0.002127 -0.000924
# 2 -0.003463 0.012349 -0.004515 0.003749 -0.003465 0.000278
# 3 -0.001389 -0.004515 0.009927 -0.000796 0.001599 -0.002273
# 4 0.000353 0.003749 -0.000796 0.028178 -0.006803 0.004722
# 5 0.002127 -0.003465 0.001599 -0.006803 0.027063 -0.007445
# 6 -0.000924 0.000278 -0.002273 0.004722 -0.007445 0.033035
#
#
# Mechanical properties :
#
#
# Convention : Reuss Voigt Hill
#
# Bulk Modulus (GPa) = 60.03579 66.49033 63.26306
# Shear Modulus (GPa) = 33.79456 37.64913 35.72184
#
# Velocity S-wave (km/s) = 4.01976 4.24281 4.13279
# Velocity P-wave (km/s) = 7.08872 7.46950 7.28160
#
# Compressibility (1/GPa) = 0.01665673
#
# Stress axis : x y z
#
# Youngs Moduli (GPa) = 76.25107 80.97891 100.73446
#
# Poissons Ratio (x) = 0.28045 0.13989
# Poissons Ratio (y) = 0.26408 0.45481
# Poissons Ratio (z) = 0.10589 0.36561
#
# Static dielectric constant tensor:
#      x y z
#    x 3.719580 0.058520 -0.113390 
#    y 0.058520 3.630890 0.063740 
#    z -0.113390 0.063740 3.985790 
# 
# 
# High freq. dielectric constant tensor:
#      x y z
#    x 1.834380 0.003110 -0.009500 
#    y 0.003110 1.814690 0.005290 
#    z -0.009500 0.005290 1.835090 
# 
# From -- ./inp_files/222885.got.cif
#   From: 2010.06.25/outbox.cif.g09.slc.cpg/sg2_112_cif.got.tgz:222885.got - 2010.06.27 13:26:56.
