data_PCOD8030362
_publ_section_title
;
Structure prediction by ZEFSAII (Michael W. Deem and Ramdas Pophale) SiO2 
 PCOD8030362
Probable space group: P -1
;
_chemical_formula_sum "Si O2"
_cell_formula_units_Z 14
_cell_length_a 16.203216
_cell_length_b 15.227813
_cell_length_c 9.200947
_cell_angle_alpha 30.605472
_cell_angle_beta 149.262043
_cell_angle_gamma 149.741349
_cell_volume 519.397021
_symmetry_space_group_name_H-M "P -1"
_symmetry_group_IT_number 2
_symmetry_cell_setting 'triclinic'
loop_
_space_group_symop_operation_xyz
x,y,z
-x,-y,-z
loop_
_atom_site_type_symbol
_atom_site_label
_atom_site_fract_x
_atom_site_fract_y
_atom_site_fract_z
Si Si1 0.855994 0.690795 0.783739
Si Si2 0.605698 0.410581 0.566695
Si Si3 0.897633 0.121700 0.619920
Si Si4 0.726068 0.973204 0.272684
Si Si5 0.848617 0.422148 0.661254
Si Si6 0.647947 0.425588 0.081917
Si Si7 0.532236 0.043922 0.318162
O O1 0.690396 0.532607 0.665211
O O2 0.845396 0.892968 0.478401
O O3 0.824076 0.616434 0.009782
O O4 0.048519 0.712587 0.985420
O O5 0.460006 0.190576 0.700857
O O6 0.765995 0.414229 0.705458
O O7 0.504375 0.514938 0.180916
O O8 0.706171 0.022684 0.558312
O O9 0.014079 0.353316 0.498850
O O10 0.857863 0.111943 0.400788
O O11 0.000000 0.000000 0.000000
O O12 0.645866 0.076188 0.888069
O O13 0.694469 0.337807 0.421377
O O14 0.577505 0.271209 0.061371
O O15 0.500000 0.000000 0.500000
#
# Coordination Sequence:
#
# PCOD8030362 Si02
#       7
#     2   2   2   2   2   2   2
#     4  11  21  44  73 101 135 183 233 293 346 411
#     4  11  22  43  75 102 132 183 242 285 341 420
#     4  12  28  47  69 109 154 184 226 296 366 416
#     4  11  24  50  74 102 142 189 238 290 350 424
#     4  12  26  42  71 109 143 178 233 296 355 414
#     4  11  22  44  70 100 139 183 240 280 342 422
#     4  12  27  47  73 102 143 193 239 286 354 427
#
# _framework density 26.954333999999999
#
# number of rings (size 3 to 8) (size 9 to 14) (size 15 to 20)
#    0.000    0.571    4.286    4.286    6.000    0.000 
#    2.571    1.429    0.000    0.000    0.000    0.000 
#    0.000    0.000    0.000    0.000    0.000    0.000 
#
# Total GULP energy -173615.781621 kJ/mol
# GULP energy per Si atom -12401.127259 kJ/mol
# Density = 2.689298 g / cm^3
# Si number density = 26.954334 Si / 1000 Ang^3
#
#
#
# Elastic Constant Matrix: (Units=GPa)
#
#
# Indices 1 2 3 4 5 6 
#
# 1 158.1455 15.6502 85.7001 8.1547 24.7403 -2.4323
# 2 15.6502 60.9801 25.6273 19.8498 5.2342 -20.0011
# 3 85.7001 25.6273 208.2617 4.1204 9.3920 -4.5912
# 4 8.1547 19.8498 4.1204 34.4866 -9.5578 4.1205
# 5 24.7403 5.2342 9.3920 -9.5578 61.7623 12.5560
# 6 -2.4323 -20.0011 -4.5912 4.1205 12.5560 37.9906
#
#
#
# Elastic Compliance Matrix: (Units=1/GPa)
#
#
# Indices 1 2 3 4 5 6 
#
# 1 0.009107 0.002247 -0.003644 -0.004721 -0.004705 0.003393
# 2 0.002247 0.035812 -0.003643 -0.027351 -0.012853 0.025773
# 3 -0.003644 -0.003643 0.006567 0.002903 0.001671 -0.002225
# 4 -0.004721 -0.027351 0.002903 0.053389 0.017286 -0.025854
# 5 -0.004705 -0.012853 0.001671 0.017286 0.025046 -0.017019
# 6 0.003393 0.025773 -0.002225 -0.025854 -0.017019 0.048268
#
#
# Mechanical properties :
#
#
# Convention : Reuss Voigt Hill
#
# Bulk Modulus (GPa) = 24.14941 75.70471 49.92706
# Shear Modulus (GPa) = 24.74385 46.87524 35.80954
#
# Velocity S-wave (km/s) = 3.03312 4.17473 3.64885
# Velocity P-wave (km/s) = 4.60926 7.16834 6.02621
#
# Compressibility (1/GPa) = 0.04140887
#
# Stress axis : x y z
#
# Youngs Moduli (GPa) = 109.80447 27.92334 152.26499
#
# Poissons Ratio (x) = -0.06276 0.55482
# Poissons Ratio (y) = -0.24678 0.55466
# Poissons Ratio (z) = 0.40010 0.10172
#
# Static dielectric constant tensor:
#      x y z
#    x 4.628200 -0.251160 0.142440 
#    y -0.251160 6.107410 -0.498410 
#    z 0.142440 -0.498410 5.185650 
# 
# 
# High freq. dielectric constant tensor:
#      x y z
#    x 2.093680 0.002430 -0.002510 
#    y 0.002430 2.105890 -0.007530 
#    z -0.002510 -0.007530 2.096720 
# 
# From -- ./inp_files/241180.got.cif
#   From: 2010.06.25/outbox.cif.g09.slc.cpg/sg2_121_cif.got.tgz:241180.got - 2010.06.27 13:26:56.
