data_PCOD8030005
_publ_section_title
;
Structure prediction by ZEFSAII (Michael W. Deem and Ramdas Pophale) SiO2 
 PCOD8030005
Probable space group: P -1
;
_chemical_formula_sum "Si O2"
_cell_formula_units_Z 14
_cell_length_a 9.734865
_cell_length_b 21.878068
_cell_length_c 9.699383
_cell_angle_alpha 27.620051
_cell_angle_beta 44.014865
_cell_angle_gamma 43.208752
_cell_volume 637.950679
_symmetry_space_group_name_H-M "P -1"
_symmetry_group_IT_number 2
_symmetry_cell_setting 'triclinic'
loop_
_space_group_symop_operation_xyz
x,y,z
-x,-y,-z
loop_
_atom_site_type_symbol
_atom_site_label
_atom_site_fract_x
_atom_site_fract_y
_atom_site_fract_z
Si Si1 0.013481 0.932655 0.474733
Si Si2 0.335809 0.913941 0.788860
Si Si3 0.825246 0.710177 0.141300
Si Si4 0.356047 0.819603 0.255051
Si Si5 0.605785 0.488058 0.097148
Si Si6 0.382673 0.623514 0.243839
Si Si7 0.009071 0.428954 0.430744
O O1 0.240932 0.905317 0.299001
O O2 0.000000 0.000000 0.500000
O O3 0.849863 0.023697 0.305481
O O4 0.978237 0.783356 0.812545
O O5 0.500000 0.000000 0.500000
O O6 0.253288 0.901059 0.028925
O O7 0.446786 0.758916 0.968357
O O8 0.595982 0.812661 0.094867
O O9 0.877591 0.684084 0.315069
O O10 0.850833 0.564619 0.340565
O O11 0.336923 0.665405 0.578038
O O12 0.441277 0.592731 0.103081
O O13 0.500000 0.500000 0.000000
O O14 0.816295 0.532353 0.861533
O O15 0.500000 0.500000 0.500000
O O16 0.137498 0.642135 0.407541
#
# Coordination Sequence:
#
# PCOD8030005 Si02
#       7
#     2   2   2   2   2   2   2
#     4  12  28  46  73 104 145 198 253 298 364 450
#     4  12  27  52  74 103 156 200 240 307 374 441
#     4  11  21  41  70 104 143 185 237 301 366 427
#     4  12  24  47  73 102 146 196 240 300 371 435
#     4  12  23  42  77 109 142 188 240 309 373 432
#     4  12  26  47  72 108 147 185 251 306 364 443
#     4  11  22  39  72 109 143 181 239 309 368 421
#
# _framework density 21.945269
#
# number of rings (size 3 to 8) (size 9 to 14) (size 15 to 20)
#    0.000    0.286    7.143    2.143    2.000    1.143 
#    7.714    0.000    0.000    0.000    0.000    0.000 
#    0.000    0.000    0.000    0.000    0.000    0.000 
#
# Total GULP energy -173615.066359 kJ/mol
# GULP energy per Si atom -12401.076169 kJ/mol
# Density = 2.189532 g / cm^3
# Si number density = 21.945269 Si / 1000 Ang^3
#
#
#
# Elastic Constant Matrix: (Units=GPa)
#
#
# Indices 1 2 3 4 5 6 
#
# 1 111.5532 34.2003 47.0055 7.0206 -4.5692 0.8014
# 2 34.2003 106.9108 30.5948 14.8164 -8.5426 12.4861
# 3 47.0055 30.5948 135.7935 2.4449 0.2328 7.5052
# 4 7.0206 14.8164 2.4449 40.4110 -2.4925 -1.7213
# 5 -4.5692 -8.5426 0.2328 -2.4925 44.1566 4.3186
# 6 0.8014 12.4861 7.5052 -1.7213 4.3186 34.3714
#
#
#
# Elastic Compliance Matrix: (Units=1/GPa)
#
#
# Indices 1 2 3 4 5 6 
#
# 1 0.011248 -0.002659 -0.003357 -0.000688 0.000497 0.001340
# 2 -0.002659 0.011841 -0.001439 -0.003842 0.002237 -0.004399
# 3 -0.003357 -0.001439 0.008912 0.000486 -0.000523 -0.001255
# 4 -0.000688 -0.003842 0.000486 0.026380 0.000420 0.002574
# 5 0.000497 0.002237 -0.000523 0.000420 0.023514 -0.003643
# 6 0.001340 -0.004399 -0.001255 0.002574 -0.003643 0.031521
#
#
# Mechanical properties :
#
#
# Convention : Reuss Voigt Hill
#
# Bulk Modulus (GPa) = 58.51002 64.20653 61.35827
# Shear Modulus (GPa) = 37.30716 39.95158 38.62937
#
# Velocity S-wave (km/s) = 4.12759 4.27137 4.20010
# Velocity P-wave (km/s) = 7.03105 7.32443 7.17924
#
# Compressibility (1/GPa) = 0.01709109
#
# Stress axis : x y z
#
# Youngs Moduli (GPa) = 88.90361 84.45396 112.20963
#
# Poissons Ratio (x) = 0.22455 0.37669
# Poissons Ratio (y) = 0.23638 0.16146
# Poissons Ratio (z) = 0.29845 0.12153
#
# Static dielectric constant tensor:
#      x y z
#    x 4.144760 -0.048400 -0.085750 
#    y -0.048400 4.012300 0.142520 
#    z -0.085750 0.142520 4.331570 
# 
# 
# High freq. dielectric constant tensor:
#      x y z
#    x 1.864410 -0.008870 0.007370 
#    y -0.008870 1.849430 0.004780 
#    z 0.007370 0.004780 1.883210 
# 
# From -- ./inp_files/222808.got.cif
#   From: 2010.06.25/outbox.cif.g09.slc.cpg/sg2_112_cif.got.tgz:222808.got - 2010.06.27 13:26:56.
