data_PCOD8030966
_publ_section_title
;
Structure prediction by ZEFSAII (Michael W. Deem and Ramdas Pophale) SiO2 
 PCOD8030966
Probable space group: P -1
;
_chemical_formula_sum "Si O2"
_cell_formula_units_Z 16
_cell_length_a 18.845092
_cell_length_b 11.209977
_cell_length_c 4.988683
_cell_angle_alpha 62.344510
_cell_angle_beta 105.161200
_cell_angle_gamma 126.295336
_cell_volume 752.229115
_symmetry_space_group_name_H-M "P -1"
_symmetry_group_IT_number 2
_symmetry_cell_setting 'triclinic'
loop_
_space_group_symop_operation_xyz
x,y,z
-x,-y,-z
loop_
_atom_site_type_symbol
_atom_site_label
_atom_site_fract_x
_atom_site_fract_y
_atom_site_fract_z
Si Si1 0.138095 0.569337 0.506961
Si Si2 0.047331 0.752323 0.305413
Si Si3 0.446496 0.817755 0.046349
Si Si4 0.242809 0.587248 0.099217
Si Si5 0.749993 0.719495 0.530245
Si Si6 0.508319 0.295893 0.285774
Si Si7 0.070780 0.954616 0.616947
Si Si8 0.358869 0.336354 0.019183
O O1 0.116872 0.700447 0.434613
O O2 0.190150 0.624280 0.221523
O O3 0.049174 0.395886 0.555990
O O4 0.199368 0.560085 0.795210
O O5 0.078631 0.897380 0.391457
O O6 0.043162 0.810248 0.945234
O O7 0.342466 0.741202 0.025427
O O8 0.469014 0.717732 0.372368
O O9 0.478433 0.817516 0.777989
O O10 0.500000 0.000000 0.000000
O O11 0.236788 0.425871 0.348921
O O12 0.723561 0.726485 0.800662
O O13 0.837913 0.887495 0.369361
O O14 0.673862 0.696384 0.283665
O O15 0.407597 0.244573 0.222275
O O16 0.573822 0.475343 0.053601
O O17 0.000000 0.000000 0.500000
#
# Coordination Sequence:
#
# PCOD8030966 Si02
#       8
#     2   2   2   2   2   2   2   2
#     4  11  24  43  71  93 127 181 211 267 307 383
#     4  11  24  46  65  97 136 167 220 255 324 385
#     4  12  25  45  64  96 134 169 214 273 319 388
#     4  12  23  43  67  97 125 169 229 256 319 383
#     4  12  23  41  66  97 131 167 219 270 318 379
#     4  11  22  44  67  93 127 167 218 263 332 380
#     4  12  25  43  66 100 136 170 206 270 329 378
#     4  11  22  41  69  93 125 170 215 272 313 388
#
# _framework density 21.270116999999999
#
# number of rings (size 3 to 8) (size 9 to 14) (size 15 to 20)
#    0.000    0.500    2.500    6.750    0.000    4.000 
#   13.500    0.000    0.000    0.000    0.000    0.000 
#    0.000    0.000    0.000    0.000    0.000    0.000 
#
# Total GULP energy -198549.675574 kJ/mol
# GULP energy per Si atom -12409.354723 kJ/mol
# Density = 2.122170 g / cm^3
# Si number density = 21.270117 Si / 1000 Ang^3
#
#
#
# Elastic Constant Matrix: (Units=GPa)
#
#
# Indices 1 2 3 4 5 6 
#
# 1 110.0633 45.4850 18.8510 -6.9643 4.9012 3.7155
# 2 45.4850 101.8011 3.3871 5.3770 7.9498 -2.8698
# 3 18.8510 3.3871 77.4797 16.4635 7.4005 3.5432
# 4 -6.9643 5.3770 16.4635 30.4123 -0.3103 1.2645
# 5 4.9012 7.9498 7.4005 -0.3103 35.6866 11.9817
# 6 3.7155 -2.8698 3.5432 1.2645 11.9817 20.8432
#
#
#
# Elastic Compliance Matrix: (Units=1/GPa)
#
#
# Indices 1 2 3 4 5 6 
#
# 1 0.012828 -0.006188 -0.004232 0.006503 0.001853 -0.003879
# 2 -0.006188 0.013290 0.002213 -0.005236 -0.004437 0.005425
# 3 -0.004232 0.002213 0.016334 -0.010285 -0.003744 0.001058
# 4 0.006503 -0.005236 -0.010285 0.041127 0.004518 -0.005224
# 5 0.001853 -0.004437 -0.003744 0.004518 0.036884 -0.021782
# 6 -0.003879 0.005425 0.001058 -0.005224 -0.021782 0.062074
#
#
# Mechanical properties :
#
#
# Convention : Reuss Voigt Hill
#
# Bulk Modulus (GPa) = 38.40610 47.19893 42.80251
# Shear Modulus (GPa) = 24.08113 32.16314 28.12214
#
# Velocity S-wave (km/s) = 3.36841 3.89283 3.64007
# Velocity P-wave (km/s) = 5.76401 6.51490 6.15092
#
# Compressibility (1/GPa) = 0.02603753
#
# Stress axis : x y z
#
# Youngs Moduli (GPa) = 77.95619 75.24298 61.22161
#
# Poissons Ratio (x) = 0.46562 0.25908
# Poissons Ratio (y) = 0.48241 -0.13547
# Poissons Ratio (z) = 0.32990 -0.16650
#
# Static dielectric constant tensor:
#      x y z
#    x 3.959970 0.062320 0.021140 
#    y 0.062320 3.679490 0.136730 
#    z 0.021140 0.136730 3.751340 
# 
# 
# High freq. dielectric constant tensor:
#      x y z
#    x 1.846530 0.001190 -0.000520 
#    y 0.001190 1.834900 0.010570 
#    z -0.000520 0.010570 1.841880 
# 
# From -- ./inp_files/109527.got.cif
#   From: 2010.06.25/outbox.cif.g09.slc.cpg/sg2_55_cif.got.tgz:109527.got - 2010.06.27 13:26:56.
