data_PCOD8030044
_publ_section_title
;
Structure prediction by ZEFSAII (Michael W. Deem and Ramdas Pophale) SiO2 
 PCOD8030044
Probable space group: P -1
;
_chemical_formula_sum "Si O2"
_cell_formula_units_Z 14
_cell_length_a 12.372348
_cell_length_b 9.498030
_cell_length_c 13.088075
_cell_angle_alpha 144.990951
_cell_angle_beta 134.022056
_cell_angle_gamma 55.612151
_cell_volume 634.451648
_symmetry_space_group_name_H-M "P -1"
_symmetry_group_IT_number 2
_symmetry_cell_setting 'triclinic'
loop_
_space_group_symop_operation_xyz
x,y,z
-x,-y,-z
loop_
_atom_site_type_symbol
_atom_site_label
_atom_site_fract_x
_atom_site_fract_y
_atom_site_fract_z
Si Si1 0.755148 0.382929 0.028839
Si Si2 0.040454 0.415172 0.363353
Si Si3 0.696400 0.867837 0.382926
Si Si4 0.334490 0.124482 0.400008
Si Si5 0.158665 0.412981 0.012312
Si Si6 0.569177 0.357461 0.554571
Si Si7 0.033291 0.923273 0.590388
O O1 0.661776 0.604358 0.151628
O O2 0.892623 0.307293 0.147069
O O3 0.818109 0.473701 0.016270
O O4 0.649075 0.143857 0.801954
O O5 0.163332 0.205548 0.321219
O O6 0.104159 0.652729 0.483596
O O7 0.000000 0.500000 0.500000
O O8 0.622980 0.890935 0.461342
O O9 0.874855 0.912678 0.540496
O O10 0.627099 0.086612 0.398731
O O11 0.442834 0.325854 0.539698
O O12 0.292086 0.484873 0.218060
O O13 0.000000 0.500000 0.000000
O O14 0.151249 0.116881 0.830279
O O15 0.500000 0.500000 0.500000
O O16 0.000000 0.000000 0.500000
#
# Coordination Sequence:
#
# PCOD8030044 Si02
#       7
#     2   2   2   2   2   2   2
#     4  11  24  43  78 106 135 200 245 285 363 435
#     4  11  23  42  72 113 142 184 243 302 354 424
#     4  11  23  48  73 103 144 195 240 292 363 436
#     4  12  25  48  72 101 157 182 241 302 364 436
#     4  12  24  44  76 102 140 196 247 285 365 438
#     4  12  30  47  71 109 149 190 239 314 366 421
#     4  11  21  41  75 103 139 184 246 296 343 424
#
# _framework density 22.066299000000001
#
# number of rings (size 3 to 8) (size 9 to 14) (size 15 to 20)
#    0.000    0.571    8.571    0.857    4.000    1.714 
#    0.000    1.429    0.000    0.000    0.000    0.000 
#    0.000    0.000    0.000    0.000    0.000    0.000 
#
# Total GULP energy -173614.441314 kJ/mol
# GULP energy per Si atom -12401.031522 kJ/mol
# Density = 2.201608 g / cm^3
# Si number density = 22.066299 Si / 1000 Ang^3
#
#
#
# Elastic Constant Matrix: (Units=GPa)
#
#
# Indices 1 2 3 4 5 6 
#
# 1 74.8878 22.2871 59.6040 -1.1027 0.0094 15.4558
# 2 22.2871 141.4067 67.0275 0.3645 -8.0629 4.9551
# 3 59.6040 67.0275 165.2301 5.2059 -2.0537 1.9018
# 4 -1.1027 0.3645 5.2059 42.4458 -1.0137 -2.3222
# 5 0.0094 -8.0629 -2.0537 -1.0137 35.3353 3.3652
# 6 15.4558 4.9551 1.9018 -2.3222 3.3652 40.4174
#
#
#
# Elastic Compliance Matrix: (Units=1/GPa)
#
#
# Indices 1 2 3 4 5 6 
#
# 1 0.020940 0.000675 -0.007767 0.001080 0.000461 -0.007701
# 2 0.000675 0.008944 -0.003844 0.000387 0.001954 -0.001314
# 3 -0.007767 -0.003844 0.010414 -0.001300 -0.000586 0.002926
# 4 0.001080 0.000387 -0.001300 0.023808 0.000608 0.000918
# 5 0.000461 0.001954 -0.000586 0.000608 0.028993 -0.002767
# 6 -0.007701 -0.001314 0.002926 0.000918 -0.002767 0.027993
#
#
# Mechanical properties :
#
#
# Convention : Reuss Voigt Hill
#
# Bulk Modulus (GPa) = 54.27779 75.48464 64.88122
# Shear Modulus (GPa) = 33.53304 39.14675 36.33990
#
# Velocity S-wave (km/s) = 3.90250 4.21652 4.06254
# Velocity P-wave (km/s) = 6.70500 7.61497 7.17442
#
# Compressibility (1/GPa) = 0.01842374
#
# Stress axis : x y z
#
# Youngs Moduli (GPa) = 47.75656 111.80417 96.02903
#
# Poissons Ratio (x) = -0.07543 0.74585
# Poissons Ratio (y) = -0.03222 0.36918
# Poissons Ratio (z) = 0.37092 0.42983
#
# Static dielectric constant tensor:
#      x y z
#    x 4.032700 -0.023560 -0.005230 
#    y -0.023560 4.236730 -0.113230 
#    z -0.005230 -0.113230 3.204770 
# 
# 
# High freq. dielectric constant tensor:
#      x y z
#    x 1.870160 0.002190 0.002760 
#    y 0.002190 1.874790 0.006620 
#    z 0.002760 0.006620 1.871310 
# 
# From -- ./inp_files/420200.got.cif
#   From: 2010.06.25/outbox.cif.g09.slc.cpg/sg2_211_cif.got.tgz:420200.got - 2010.06.27 13:26:56.
