data_PCOD8030887
_publ_section_title
;
Structure prediction by ZEFSAII (Michael W. Deem and Ramdas Pophale) SiO2 
 PCOD8030887
Probable space group: P -1
;
_chemical_formula_sum "Si O2"
_cell_formula_units_Z 16
_cell_length_a 8.566797
_cell_length_b 16.205779
_cell_length_c 12.773102
_cell_angle_alpha 152.190976
_cell_angle_beta 102.817826
_cell_angle_gamma 70.851573
_cell_volume 772.085846
_symmetry_space_group_name_H-M "P -1"
_symmetry_group_IT_number 2
_symmetry_cell_setting 'triclinic'
loop_
_space_group_symop_operation_xyz
x,y,z
-x,-y,-z
loop_
_atom_site_type_symbol
_atom_site_label
_atom_site_fract_x
_atom_site_fract_y
_atom_site_fract_z
Si Si1 0.694235 0.216476 0.245626
Si Si2 0.442796 0.341624 0.534608
Si Si3 0.620761 0.475231 0.892436
Si Si4 0.134231 0.590402 0.664238
Si Si5 0.145417 0.926103 0.521045
Si Si6 0.589065 0.871185 0.274537
Si Si7 0.645599 0.007724 0.806633
Si Si8 0.005665 0.009260 0.824192
O O1 0.549818 0.306209 0.405478
O O2 0.756863 0.375187 0.378349
O O3 0.854235 0.075800 0.164765
O O4 0.614169 0.114879 0.032175
O O5 0.523265 0.456339 0.752143
O O6 0.252868 0.451246 0.605910
O O7 0.439648 0.155725 0.383524
O O8 0.776262 0.293980 0.731382
O O9 0.500000 0.500000 0.000000
O O10 0.676191 0.662511 0.095478
O O11 0.000000 0.500000 0.500000
O O12 0.047174 0.772119 0.921469
O O13 0.274292 0.044443 0.660392
O O14 0.076069 0.955912 0.660538
O O15 0.000000 0.000000 0.500000
O O16 0.449959 0.863316 0.157779
O O17 0.500000 0.000000 0.500000
O O18 0.844194 0.935217 0.732261
#
# Coordination Sequence:
#
# PCOD8030887 Si02
#       8
#     2   2   2   2   2   2   2   2
#     4  11  22  41  65  95 135 179 227 276 339 399
#     4  12  23  42  67 101 132 176 232 281 330 411
#     4  12  25  45  75 100 132 179 232 279 348 411
#     4  11  24  39  63  98 138 181 224 276 334 408
#     4  12  27  47  71 102 137 174 228 293 341 407
#     4  12  24  47  71 102 134 180 228 282 343 406
#     4  11  22  41  71  95 136 184 216 281 345 398
#     4  11  23  44  63  97 140 176 221 283 345 400
#
# _framework density 20.723085000000001
#
# number of rings (size 3 to 8) (size 9 to 14) (size 15 to 20)
#    0.000    0.500    3.750    6.000    1.750    2.500 
#    2.250    0.000    0.000    0.000    0.000    0.000 
#    0.000    0.000    0.000    0.000    0.000    0.000 
#
# Total GULP energy -198459.064552 kJ/mol
# GULP energy per Si atom -12403.691535 kJ/mol
# Density = 2.067592 g / cm^3
# Si number density = 20.723085 Si / 1000 Ang^3
#
#
#
# Elastic Constant Matrix: (Units=GPa)
#
#
# Indices 1 2 3 4 5 6 
#
# 1 68.5765 29.2316 55.0833 -3.9920 -2.5130 -2.3803
# 2 29.2316 124.2635 54.9237 -1.0036 -8.5351 -16.2586
# 3 55.0833 54.9237 127.2771 5.4233 -7.9940 11.0191
# 4 -3.9920 -1.0036 5.4233 48.8949 8.2112 -2.9967
# 5 -2.5130 -8.5351 -7.9940 8.2112 37.5524 -0.7434
# 6 -2.3803 -16.2586 11.0191 -2.9967 -0.7434 52.8492
#
#
#
# Elastic Compliance Matrix: (Units=1/GPa)
#
#
# Indices 1 2 3 4 5 6 
#
# 1 0.023467 -0.000556 -0.010440 0.003510 -0.001482 0.003241
# 2 -0.000556 0.010993 -0.004834 0.000760 0.001354 0.004427
# 3 -0.010440 -0.004834 0.015188 -0.003305 0.002054 -0.005283
# 4 0.003510 0.000760 -0.003305 0.022114 -0.005086 0.002263
# 5 -0.001482 0.001354 0.002054 -0.005086 0.028388 0.000032
# 6 0.003241 0.004427 -0.005283 0.002263 0.000032 0.021660
#
#
# Mechanical properties :
#
#
# Convention : Reuss Voigt Hill
#
# Bulk Modulus (GPa) = 55.58660 66.51047 61.04853
# Shear Modulus (GPa) = 31.35485 39.91785 35.63635
#
# Velocity S-wave (km/s) = 3.89400 4.39367 4.15136
# Velocity P-wave (km/s) = 6.86290 7.60944 7.24579
#
# Compressibility (1/GPa) = 0.01798995
#
# Stress axis : x y z
#
# Youngs Moduli (GPa) = 42.61288 90.96651 65.84076
#
# Poissons Ratio (x) = 0.05053 0.68735
# Poissons Ratio (y) = 0.02367 0.31828
# Poissons Ratio (z) = 0.44486 0.43974
#
# Static dielectric constant tensor:
#      x y z
#    x 4.191200 0.352400 0.111520 
#    y 0.352400 4.236210 0.255760 
#    z 0.111520 0.255760 3.921100 
# 
# 
# High freq. dielectric constant tensor:
#      x y z
#    x 1.814800 0.000010 -0.000660 
#    y 0.000010 1.833640 -0.001100 
#    z -0.000660 -0.001100 1.816990 
# 
# From -- ./inp_files/226845.got.cif
#   From: 2010.06.25/outbox.cif.g09.slc.cpg/sg2_114_cif.got.tgz:226845.got - 2010.06.27 13:26:56.
