data_PCOD8030482
_publ_section_title
;
Structure prediction by ZEFSAII (Michael W. Deem and Ramdas Pophale) SiO2 
 PCOD8030482
Probable space group: P -1
;
_chemical_formula_sum "Si O2"
_cell_formula_units_Z 16
_cell_length_a 20.008010
_cell_length_b 15.821601
_cell_length_c 12.771670
_cell_angle_alpha 153.967609
_cell_angle_beta 39.751310
_cell_angle_gamma 151.545620
_cell_volume 841.075463
_symmetry_space_group_name_H-M "P -1"
_symmetry_group_IT_number 2
_symmetry_cell_setting 'triclinic'
loop_
_space_group_symop_operation_xyz
x,y,z
-x,-y,-z
loop_
_atom_site_type_symbol
_atom_site_label
_atom_site_fract_x
_atom_site_fract_y
_atom_site_fract_z
Si Si1 0.838515 0.501687 0.132652
Si Si2 0.334191 0.106485 0.701607
Si Si3 0.914988 0.830150 0.216159
Si Si4 0.434278 0.356250 0.074227
Si Si5 0.156017 0.906904 0.279617
Si Si6 0.859217 0.806658 0.020375
Si Si7 0.618492 0.242742 0.699218
Si Si8 0.769251 0.769316 0.640317
O O1 0.841548 0.571482 0.085512
O O2 0.747026 0.533243 0.350065
O O3 0.995533 0.693122 0.200066
O O4 0.776580 0.209868 0.891401
O O5 0.482421 0.360332 0.759104
O O6 0.318182 0.856843 0.420564
O O7 0.330397 0.144146 0.873534
O O8 0.205328 0.058470 0.748876
O O9 0.839179 0.936112 0.456451
O O10 0.890481 0.763682 0.049970
O O11 0.081164 0.039322 0.269341
O O12 0.351848 0.337735 0.250807
O O13 0.540880 0.317132 0.941229
O O14 0.244425 0.087184 0.273830
O O15 0.745877 0.510457 0.780376
O O16 0.000000 0.000000 0.000000
O O17 0.500000 0.000000 0.500000
#
# Coordination Sequence:
#
# PCOD8030482 Si02
#       8
#     2   2   2   2   2   2   2   2
#     4   8  15  29  47  70 103 138 171 212 262 311
#     4   9  19  35  51  71 106 143 171 210 262 312
#     4   9  18  30  47  74 109 139 165 210 268 314
#     4   9  17  32  54  76 100 135 179 220 257 304
#     4   8  15  29  46  69 102 138 172 210 261 313
#     4  11  22  35  54  82 111 139 174 216 262 312
#     4   9  20  38  55  72 102 144 182 215 256 310
#     4   9  16  28  50  79 104 130 173 221 259 306
#
# _framework density 19.023263
#
# number of rings (size 3 to 8) (size 9 to 14) (size 15 to 20)
#    0.000    3.000    0.000    3.000    0.000    2.500 
#    0.000    8.750    0.000   12.000    0.000   14.000 
#    0.000    0.000    0.000    0.000    0.000    0.000 
#
# Total GULP energy -198240.735413 kJ/mol
# GULP energy per Si atom -12390.045963 kJ/mol
# Density = 1.897996 g / cm^3
# Si number density = 19.023263 Si / 1000 Ang^3
#
#
#
# Elastic Constant Matrix: (Units=GPa)
#
#
# Indices 1 2 3 4 5 6 
#
# 1 85.0424 41.8416 47.9598 -0.0031 -19.3768 -17.3020
# 2 41.8416 120.2852 66.7493 -15.3664 -9.3877 -12.0684
# 3 47.9598 66.7493 97.3477 0.2274 -31.4816 -18.6532
# 4 -0.0031 -15.3664 0.2274 32.3198 -7.7067 1.9596
# 5 -19.3768 -9.3877 -31.4816 -7.7067 39.5985 4.2975
# 6 -17.3020 -12.0684 -18.6532 1.9596 4.2975 26.7471
#
#
#
# Elastic Compliance Matrix: (Units=1/GPa)
#
#
# Indices 1 2 3 4 5 6 
#
# 1 0.017842 -0.003014 -0.004224 -0.000913 0.003753 0.006700
# 2 -0.003014 0.016076 -0.011821 0.006567 -0.005508 -0.002536
# 3 -0.004224 -0.011821 0.026994 -0.002718 0.015137 0.008527
# 4 -0.000913 0.006567 -0.002718 0.035763 0.006251 -0.003148
# 5 0.003753 -0.005508 0.015137 0.006251 0.038619 0.003836
# 6 0.006700 -0.002536 0.008527 -0.003148 0.003836 0.046138
#
#
# Mechanical properties :
#
#
# Convention : Reuss Voigt Hill
#
# Bulk Modulus (GPa) = 43.86878 68.41964 56.14421
# Shear Modulus (GPa) = 22.01209 29.47472 25.74341
#
# Velocity S-wave (km/s) = 3.40533 3.94052 3.68266
# Velocity P-wave (km/s) = 6.21066 7.53312 6.90363
#
# Compressibility (1/GPa) = 0.02279525
#
# Stress axis : x y z
#
# Youngs Moduli (GPa) = 56.04752 62.20370 37.04512
#
# Poissons Ratio (x) = 0.18748 0.15647
# Poissons Ratio (y) = 0.16893 0.43790
# Poissons Ratio (z) = 0.23673 0.73530
#
# Static dielectric constant tensor:
#      x y z
#    x 3.604870 -0.203980 -0.494570 
#    y -0.203980 3.323770 0.214150 
#    z -0.494570 0.214150 3.764340 
# 
# 
# High freq. dielectric constant tensor:
#      x y z
#    x 1.729970 -0.012040 -0.024200 
#    y -0.012040 1.718700 0.004170 
#    z -0.024200 0.004170 1.731460 
# 
# From -- ./inp_files/471787.got.cif
#   From: 2010.06.25/outbox.cif.g09.slc.cpg/sg2_236_cif.got.tgz:471787.got - 2010.06.27 13:26:56.
