data_PCOD8030101
_publ_section_title
;
Structure prediction by ZEFSAII (Michael W. Deem and Ramdas Pophale) SiO2 
 PCOD8030101
Probable space group: P -1
;
_chemical_formula_sum "Si O2"
_cell_formula_units_Z 16
_cell_length_a 6.908395
_cell_length_b 10.227034
_cell_length_c 24.779414
_cell_angle_alpha 46.118047
_cell_angle_beta 139.093970
_cell_angle_gamma 133.857977
_cell_volume 771.521478
_symmetry_space_group_name_H-M "P -1"
_symmetry_group_IT_number 2
_symmetry_cell_setting 'triclinic'
loop_
_space_group_symop_operation_xyz
x,y,z
-x,-y,-z
loop_
_atom_site_type_symbol
_atom_site_label
_atom_site_fract_x
_atom_site_fract_y
_atom_site_fract_z
Si Si1 0.188446 0.079008 0.350951
Si Si2 0.848461 0.650728 0.446424
Si Si3 0.717734 0.038786 0.173542
Si Si4 0.109926 0.821992 0.562652
Si Si5 0.175206 0.404544 0.333320
Si Si6 0.890997 0.264655 0.837542
Si Si7 0.278744 0.281401 0.017863
Si Si8 0.848782 0.018351 0.086029
O O1 0.525188 0.083398 0.401807
O O2 0.250201 0.232947 0.368191
O O3 0.001592 0.139069 0.246318
O O4 0.998297 0.860957 0.391141
O O5 0.478855 0.561130 0.380615
O O6 0.000000 0.500000 0.500000
O O7 0.899226 0.680090 0.512781
O O8 0.497847 0.162893 0.081707
O O9 0.877944 0.020145 0.156128
O O10 0.491008 0.835252 0.210247
O O11 0.080288 0.692019 0.646756
O O12 0.000000 0.000000 0.500000
O O13 0.025115 0.515213 0.228007
O O14 0.062234 0.163507 0.862196
O O15 0.005727 0.248805 0.926291
O O16 0.106724 0.214080 0.058625
O O17 0.500000 0.500000 0.000000
O O18 0.500000 0.000000 0.000000
#
# Coordination Sequence:
#
# PCOD8030101 Si02
#       8
#     2   2   2   2   2   2   2   2
#     4  12  26  46  70 105 143 179 233 297 347 412
#     4  12  24  47  76  98 139 189 226 284 365 419
#     4  11  23  43  69  98 136 185 229 285 345 407
#     4  12  26  47  75 105 142 182 237 289 352 431
#     4  12  26  46  72 106 142 180 235 295 347 420
#     4  11  23  42  69 100 135 181 234 282 346 414
#     4  11  23  41  66  97 138 180 226 282 342 410
#     4  11  21  42  69  92 132 188 230 275 339 412
#
# _framework density 20.738243000000001
#
# number of rings (size 3 to 8) (size 9 to 14) (size 15 to 20)
#    0.000    0.500    6.250    3.000    0.000    6.500 
#    2.250    0.000    0.000    0.000    0.000    0.000 
#    0.000    0.000    0.000    0.000    0.000    0.000 
#
# Total GULP energy -198429.952043 kJ/mol
# GULP energy per Si atom -12401.872003 kJ/mol
# Density = 2.069104 g / cm^3
# Si number density = 20.738243 Si / 1000 Ang^3
#
#
#
# Elastic Constant Matrix: (Units=GPa)
#
#
# Indices 1 2 3 4 5 6 
#
# 1 133.1981 50.4275 33.3234 -4.8215 -13.6421 -6.5487
# 2 50.4275 121.4569 32.4094 -8.3328 -6.2191 1.2828
# 3 33.3234 32.4094 95.4852 -1.2447 -9.9399 -4.9281
# 4 -4.8215 -8.3328 -1.2447 45.3071 5.1225 -4.3568
# 5 -13.6421 -6.2191 -9.9399 5.1225 34.0448 2.1934
# 6 -6.5487 1.2828 -4.9281 -4.3568 2.1934 27.3425
#
#
#
# Elastic Compliance Matrix: (Units=1/GPa)
#
#
# Indices 1 2 3 4 5 6 
#
# 1 0.009610 -0.003372 -0.001841 0.000255 0.002532 0.001966
# 2 -0.003372 0.010379 -0.002434 0.001371 -0.000276 -0.001493
# 3 -0.001841 -0.002434 0.012265 -0.000416 0.002357 0.001629
# 4 0.000255 0.001371 -0.000416 0.023108 -0.003496 0.003884
# 5 0.002532 -0.000276 0.002357 -0.003496 0.031684 -0.002055
# 6 0.001966 -0.001493 0.001629 0.003884 -0.002055 0.038191
#
#
# Mechanical properties :
#
#
# Convention : Reuss Voigt Hill
#
# Bulk Modulus (GPa) = 58.96156 64.71786 61.83971
# Shear Modulus (GPa) = 34.20337 36.93753 35.57045
#
# Velocity S-wave (km/s) = 4.06555 4.22492 4.14600
# Velocity P-wave (km/s) = 7.10854 7.42124 7.26657
#
# Compressibility (1/GPa) = 0.01696020
#
# Stress axis : x y z
#
# Youngs Moduli (GPa) = 104.05675 96.35169 81.53146
#
# Poissons Ratio (x) = 0.32494 0.15008
# Poissons Ratio (y) = 0.35093 0.19842
# Poissons Ratio (z) = 0.19155 0.23449
#
# Static dielectric constant tensor:
#      x y z
#    x 3.850570 -0.232170 -0.267360 
#    y -0.232170 26.869490 14.223920 
#    z -0.267360 14.223920 12.505090 
# 
# 
# High freq. dielectric constant tensor:
#      x y z
#    x 1.818920 0.004540 -0.005030 
#    y 0.004540 1.815510 -0.000540 
#    z -0.005030 -0.000540 1.823790 
# 
# From -- ./inp_files/49163.got.cif
#   From: 2010.06.25/outbox.cif.g09.slc.cpg/sg2_25_cif.got.tgz:49163.got - 2010.06.27 13:26:56.
