data_PCOD8030066
_publ_section_title
;
Structure prediction by ZEFSAII (Michael W. Deem and Ramdas Pophale) SiO2 
 PCOD8030066
Probable space group: P -1
;
_chemical_formula_sum "Si O2"
_cell_formula_units_Z 16
_cell_length_a 15.863278
_cell_length_b 24.421251
_cell_length_c 24.134940
_cell_angle_alpha 11.531123
_cell_angle_beta 157.692274
_cell_angle_gamma 157.109780
_cell_volume 695.890871
_symmetry_space_group_name_H-M "P -1"
_symmetry_group_IT_number 2
_symmetry_cell_setting 'triclinic'
loop_
_space_group_symop_operation_xyz
x,y,z
-x,-y,-z
loop_
_atom_site_type_symbol
_atom_site_label
_atom_site_fract_x
_atom_site_fract_y
_atom_site_fract_z
Si Si1 0.879793 0.968370 0.546458
Si Si2 0.534437 0.999279 0.219233
Si Si3 0.261003 0.015752 0.146042
Si Si4 0.513136 0.388530 0.266541
Si Si5 0.012723 0.500053 0.751887
Si Si6 0.121171 0.552714 0.154743
Si Si7 0.443125 0.465166 0.619873
Si Si8 0.308885 0.086946 0.335983
O O1 0.677238 0.758111 0.661413
O O2 0.791003 0.033830 0.366174
O O3 0.947610 0.265298 0.322770
O O4 0.084445 0.796518 0.846717
O O5 0.503788 0.728206 0.433733
O O6 0.351880 0.980629 0.175175
O O7 0.481124 0.226413 0.920295
O O8 0.413752 0.282593 0.004592
O O9 0.270552 0.749841 0.453984
O O10 0.000000 0.000000 0.000000
O O11 0.427060 0.319694 0.220691
O O12 0.922799 0.363079 0.892182
O O13 0.809376 0.567652 0.524159
O O14 0.176042 0.797941 0.567291
O O15 0.133136 0.270038 0.020993
O O16 0.380176 0.516420 0.341972
O O17 0.500000 0.000000 0.500000
#
# Coordination Sequence:
#
# PCOD8030066 Si02
#       8
#     2   2   2   2   2   2   2   2
#     4  11  22  41  72  95 138 179 230 289 329 414
#     4  11  25  44  63 102 142 178 228 288 355 393
#     4  11  24  41  69  95 128 180 227 267 341 417
#     4  11  21  42  66  95 132 170 218 287 332 396
#     4  12  25  48  68 100 144 181 233 285 341 418
#     4  12  23  43  72 101 131 190 238 272 354 409
#     4  12  27  43  68 100 148 185 222 291 348 417
#     4  12  26  44  72 105 131 179 233 289 353 394
#
# _framework density 22.99211
#
# number of rings (size 3 to 8) (size 9 to 14) (size 15 to 20)
#    0.000    0.500    2.500    7.125    0.000    6.000 
#    0.000    3.750    0.000    0.000    0.000    0.000 
#    0.000    0.000    0.000    0.000    0.000    0.000 
#
# Total GULP energy -198278.535982 kJ/mol
# GULP energy per Si atom -12392.408499 kJ/mol
# Density = 2.293978 g / cm^3
# Si number density = 22.992110 Si / 1000 Ang^3
#
#
#
# Elastic Constant Matrix: (Units=GPa)
#
#
# Indices 1 2 3 4 5 6 
#
# 1 105.9968 73.2783 56.5903 -5.3619 19.4126 -6.5030
# 2 73.2783 127.9854 38.3622 -8.0288 20.5049 -5.6186
# 3 56.5903 38.3622 154.7520 13.6640 9.8451 -4.8163
# 4 -5.3619 -8.0288 13.6640 74.5316 -10.2379 9.6549
# 5 19.4126 20.5049 9.8451 -10.2379 44.0814 5.3488
# 6 -6.5030 -5.6186 -4.8163 9.6549 5.3488 30.3658
#
#
#
# Elastic Compliance Matrix: (Units=1/GPa)
#
#
# Indices 1 2 3 4 5 6 
#
# 1 0.018499 -0.008624 -0.004395 0.000483 -0.003296 0.002096
# 2 -0.008624 0.013182 0.000034 0.000351 -0.002370 0.000903
# 3 -0.004395 0.000034 0.008313 -0.002060 -0.000553 0.001136
# 4 0.000483 0.000351 -0.002060 0.015205 0.004313 -0.005752
# 5 -0.003296 -0.002370 -0.000553 0.004313 0.027263 -0.007406
# 6 0.002096 0.000903 0.001136 -0.005752 -0.007406 0.036861
#
#
# Mechanical properties :
#
#
# Convention : Reuss Voigt Hill
#
# Bulk Modulus (GPa) = 71.30449 80.57730 75.94090
# Shear Modulus (GPa) = 33.34019 44.49599 38.91809
#
# Velocity S-wave (km/s) = 3.81211 4.40395 4.11867
# Velocity P-wave (km/s) = 7.10325 7.80906 7.46450
#
# Compressibility (1/GPa) = 0.01402436
#
# Stress axis : x y z
#
# Youngs Moduli (GPa) = 54.05616 75.85882 120.29218
#
# Poissons Ratio (x) = 0.65422 0.52866
# Poissons Ratio (y) = 0.46619 -0.00406
# Poissons Ratio (z) = 0.23757 -0.00256
#
# Static dielectric constant tensor:
#      x y z
#    x 4.045060 -0.027120 0.083350 
#    y -0.027120 4.135530 0.284670 
#    z 0.083350 0.284670 4.831970 
# 
# 
# High freq. dielectric constant tensor:
#      x y z
#    x 1.895200 0.001390 0.008150 
#    y 0.001390 1.909630 0.011250 
#    z 0.008150 0.011250 1.941420 
# 
# From -- ./inp_files/579944.got.cif
#   From: 2010.06.25/outbox.cif.g09.slc.cpg/sg2_290_cif.got.tgz:579944.got - 2010.06.27 13:26:56.
