data_PCOD8030686
_publ_section_title
;
Structure prediction by ZEFSAII (Michael W. Deem and Ramdas Pophale) SiO2 
 PCOD8030686
Probable space group: P -1
;
_chemical_formula_sum "Si O2"
_cell_formula_units_Z 16
_cell_length_a 15.783881
_cell_length_b 8.820390
_cell_length_c 8.836044
_cell_angle_alpha 101.858310
_cell_angle_beta 52.899108
_cell_angle_gamma 68.545704
_cell_volume 747.708696
_symmetry_space_group_name_H-M "P -1"
_symmetry_group_IT_number 2
_symmetry_cell_setting 'triclinic'
loop_
_space_group_symop_operation_xyz
x,y,z
-x,-y,-z
loop_
_atom_site_type_symbol
_atom_site_label
_atom_site_fract_x
_atom_site_fract_y
_atom_site_fract_z
Si Si1 0.987202 0.876638 0.366345
Si Si2 0.746363 0.041583 0.456746
Si Si3 0.357571 0.132614 0.263041
Si Si4 0.127754 0.278258 0.336044
Si Si5 0.503619 0.526797 0.178055
Si Si6 0.278866 0.113974 0.847227
Si Si7 0.457573 0.293122 0.395010
Si Si8 0.717417 0.518478 0.103917
O O1 0.911677 0.813133 0.522432
O O2 0.131627 0.691160 0.105102
O O3 0.000000 0.000000 0.500000
O O4 0.883804 0.001344 0.362319
O O5 0.639392 0.271128 0.570456
O O6 0.672262 0.004398 0.654971
O O7 0.781374 0.905091 0.244709
O O8 0.248381 0.269753 0.277757
O O9 0.354906 0.271623 0.415944
O O10 0.500000 0.000000 0.000000
O O11 0.000000 0.500000 0.500000
O O12 0.175042 0.161717 0.102322
O O13 0.526657 0.349744 0.215313
O O14 0.630927 0.526394 0.060975
O O15 0.500000 0.500000 0.000000
O O16 0.281954 0.296724 0.867872
O O17 0.428221 0.911849 0.683013
O O18 0.361968 0.465962 0.656276
#
# Coordination Sequence:
#
# PCOD8030686 Si02
#       8
#     2   2   2   2   2   2   2   2
#     4  11  27  47  70  99 145 184 222 279 348 414
#     4  11  25  45  66 101 137 181 228 281 345 404
#     4  11  22  39  68  97 133 179 231 279 335 402
#     4  11  25  42  68 101 137 181 230 280 336 409
#     4  12  27  42  69 102 141 179 235 280 342 412
#     4  12  24  44  73 100 141 175 233 289 341 395
#     4  12  25  42  71 106 137 179 230 289 346 399
#     4  12  25  46  71 101 140 183 227 282 347 409
#
# _framework density 21.398709
#
# number of rings (size 3 to 8) (size 9 to 14) (size 15 to 20)
#    0.000    0.500    5.000    3.000    5.250    2.500 
#    0.000    1.250    0.000    0.000    0.000    0.000 
#    0.000    0.000    0.000    0.000    0.000    0.000 
#
# Total GULP energy -198409.644029 kJ/mol
# GULP energy per Si atom -12400.602752 kJ/mol
# Density = 2.135000 g / cm^3
# Si number density = 21.398709 Si / 1000 Ang^3
#
#
#
# Elastic Constant Matrix: (Units=GPa)
#
#
# Indices 1 2 3 4 5 6 
#
# 1 164.6719 24.4366 38.4146 23.3927 -5.5251 -13.2251
# 2 24.4366 67.4241 10.8652 19.5238 -9.7433 -9.0107
# 3 38.4146 10.8652 131.2855 16.1510 -3.6047 -17.0485
# 4 23.3927 19.5238 16.1510 31.5913 -9.7512 2.4634
# 5 -5.5251 -9.7433 -3.6047 -9.7512 37.8147 5.6996
# 6 -13.2251 -9.0107 -17.0485 2.4634 5.6996 29.2689
#
#
#
# Elastic Compliance Matrix: (Units=1/GPa)
#
#
# Indices 1 2 3 4 5 6 
#
# 1 0.007362 -0.000797 -0.001115 -0.004922 -0.000962 0.003033
# 2 -0.000797 0.019614 0.001096 -0.012423 0.000751 0.007216
# 3 -0.001115 0.001096 0.009258 -0.005448 -0.001298 0.005938
# 4 -0.004922 -0.012423 -0.005448 0.050338 0.010889 -0.015579
# 5 -0.000962 0.000751 -0.001298 0.010889 0.030356 -0.007788
# 6 0.003033 0.007216 0.005938 -0.015579 -0.007788 0.044044
#
#
# Mechanical properties :
#
#
# Convention : Reuss Voigt Hill
#
# Bulk Modulus (GPa) = 28.90051 56.75715 42.82883
# Shear Modulus (GPa) = 28.71297 39.04598 33.87948
#
# Velocity S-wave (km/s) = 3.66704 4.27627 3.98332
# Velocity P-wave (km/s) = 5.60934 7.13885 6.41981
#
# Compressibility (1/GPa) = 0.03460147
#
# Stress axis : x y z
#
# Youngs Moduli (GPa) = 135.84030 50.98472 108.01172
#
# Poissons Ratio (x) = 0.04062 0.12044
# Poissons Ratio (y) = 0.10824 -0.11836
# Poissons Ratio (z) = 0.15147 -0.05587
#
# Static dielectric constant tensor:
#      x y z
#    x 5.252400 -0.336130 0.030910 
#    y -0.336130 3.857270 0.028610 
#    z 0.030910 0.028610 4.032840 
# 
# 
# High freq. dielectric constant tensor:
#      x y z
#    x 1.856890 -0.005110 0.008010 
#    y -0.005110 1.833190 -0.000680 
#    z 0.008010 -0.000680 1.847230 
# 
# From -- ./inp_files/190674.got.cif
#   From: 2010.06.25/outbox.cif.g09.slc.cpg/sg2_96_cif.got.tgz:190674.got - 2010.06.27 13:26:56.
