data_PCOD8030586
_publ_section_title
;
Structure prediction by ZEFSAII (Michael W. Deem and Ramdas Pophale) SiO2 
 PCOD8030586
Probable space group: P -1
;
_chemical_formula_sum "Si O2"
_cell_formula_units_Z 16
_cell_length_a 15.500210
_cell_length_b 15.500237
_cell_length_c 17.121043
_cell_angle_alpha 35.600420
_cell_angle_beta 35.600280
_cell_angle_gamma 18.134314
_cell_volume 726.542942
_symmetry_space_group_name_H-M "P -1"
_symmetry_group_IT_number 2
_symmetry_cell_setting 'triclinic'
loop_
_space_group_symop_operation_xyz
x,y,z
-x,-y,-z
loop_
_atom_site_type_symbol
_atom_site_label
_atom_site_fract_x
_atom_site_fract_y
_atom_site_fract_z
Si Si1 0.227181 0.436244 0.885908
Si Si2 0.372227 0.471105 0.905571
Si Si3 0.864436 0.002118 0.991843
Si Si4 0.997865 0.135582 0.508155
Si Si5 0.528879 0.627794 0.594424
Si Si6 0.563741 0.772832 0.614093
Si Si7 0.800903 0.996092 0.707282
Si Si8 0.003884 0.199119 0.792721
O O1 0.288773 0.415716 0.946084
O O2 0.087714 0.698776 0.756900
O O3 0.521009 0.152178 0.832120
O O4 0.000000 0.500000 0.000000
O O5 0.558917 0.226810 0.013328
O O6 0.562581 0.437420 0.749995
O O7 0.097721 0.782919 0.914605
O O8 0.825071 0.203485 0.904590
O O9 0.937482 0.829966 0.136591
O O10 0.773155 0.441115 0.486665
O O11 0.170029 0.062523 0.363410
O O12 0.796527 0.174909 0.595420
O O13 0.217052 0.902324 0.585389
O O14 0.584296 0.711217 0.553914
O O15 0.847792 0.479019 0.667888
O O16 0.500000 0.000000 0.500000
O O17 0.301193 0.912316 0.743097
#
# Coordination Sequence:
#
# PCOD8030586 Si02
#       8
#     2   2   2   2   2   2   2   2
#     4  12  25  41  63  92 133 174 210 260 325 394
#     4  12  21  39  64  97 127 164 220 268 318 379
#     4  11  22  38  67  97 124 162 217 279 317 370
#     4  11  22  38  67  97 124 162 217 279 317 370
#     4  12  21  39  64  97 127 164 220 268 318 379
#     4  12  25  41  63  92 133 174 210 260 325 394
#     4  11  22  41  63  95 129 165 213 265 329 377
#     4  11  22  41  63  95 129 165 213 265 329 377
#
# _framework density 22.022099000000001
#
# number of rings (size 3 to 8) (size 9 to 14) (size 15 to 20)
#    0.000    0.500    5.000    4.500    0.000    4.000 
#    0.000    5.000    0.000    0.000    0.000    0.000 
#    0.000    0.000    0.000    0.000    0.000    0.000 
#
# Total GULP energy -198455.010807 kJ/mol
# GULP energy per Si atom -12403.438175 kJ/mol
# Density = 2.197198 g / cm^3
# Si number density = 22.022099 Si / 1000 Ang^3
#
#
#
# Elastic Constant Matrix: (Units=GPa)
#
#
# Indices 1 2 3 4 5 6 
#
# 1 151.8509 46.2928 53.2592 -0.6784 17.4381 4.7462
# 2 46.2928 121.7081 24.3402 6.4871 15.5403 0.7420
# 3 53.2592 24.3402 62.8886 2.2411 12.6959 5.2617
# 4 -0.6784 6.4871 2.2411 31.7255 -0.4932 10.0178
# 5 17.4381 15.5403 12.6959 -0.4932 29.0341 -1.6521
# 6 4.7462 0.7420 5.2617 10.0178 -1.6521 40.4656
#
#
#
# Elastic Compliance Matrix: (Units=1/GPa)
#
#
# Indices 1 2 3 4 5 6 
#
# 1 0.010038 -0.002213 -0.007309 0.001343 -0.001659 -0.000587
# 2 -0.002213 0.009854 -0.001227 -0.002235 -0.003410 0.000652
# 3 -0.007309 -0.001227 0.023906 -0.000982 -0.005550 -0.002212
# 4 0.001343 -0.002235 -0.000982 0.034794 0.000923 -0.008565
# 5 -0.001659 -0.003410 -0.005550 0.000923 0.039842 0.002377
# 6 -0.000587 0.000652 -0.002212 -0.008565 0.002377 0.027274
#
#
# Mechanical properties :
#
#
# Convention : Reuss Voigt Hill
#
# Bulk Modulus (GPa) = 44.83826 64.91466 54.87646
# Shear Modulus (GPa) = 28.63071 34.41539 31.52305
#
# Velocity S-wave (km/s) = 3.60959 3.95747 3.78753
# Velocity P-wave (km/s) = 6.14630 7.10093 6.64079
#
# Compressibility (1/GPa) = 0.02230238
#
# Stress axis : x y z
#
# Youngs Moduli (GPa) = 99.61942 101.48417 41.83073
#
# Poissons Ratio (x) = 0.22454 0.30572
# Poissons Ratio (y) = 0.22042 0.05131
# Poissons Ratio (z) = 0.72808 0.12447
#
# Static dielectric constant tensor:
#      x y z
#    x 3.906620 -0.035330 0.360250 
#    y -0.035330 4.100840 0.063520 
#    z 0.360250 0.063520 3.781860 
# 
# 
# High freq. dielectric constant tensor:
#      x y z
#    x 1.862640 -0.003850 0.028880 
#    y -0.003850 1.883790 0.005090 
#    z 0.028880 0.005090 1.841480 
# 
# From -- ./inp_files/534254.got.cif
#   From: 2010.06.25/outbox.cif.g09.slc.cpg/sg2_268_cif.got.tgz:534254.got - 2010.06.27 13:26:56.
