data_PCOD8030151
_publ_section_title
;
Structure prediction by ZEFSAII (Michael W. Deem and Ramdas Pophale) SiO2 
 PCOD8030151
Probable space group: P -1
;
_chemical_formula_sum "Si O2"
_cell_formula_units_Z 16
_cell_length_a 22.908177
_cell_length_b 19.827581
_cell_length_c 8.655235
_cell_angle_alpha 31.222018
_cell_angle_beta 149.201824
_cell_angle_gamma 157.477665
_cell_volume 731.876219
_symmetry_space_group_name_H-M "P -1"
_symmetry_group_IT_number 2
_symmetry_cell_setting 'triclinic'
loop_
_space_group_symop_operation_xyz
x,y,z
-x,-y,-z
loop_
_atom_site_type_symbol
_atom_site_label
_atom_site_fract_x
_atom_site_fract_y
_atom_site_fract_z
Si Si1 0.240178 0.662836 0.975914
Si Si2 0.033973 0.013270 0.374435
Si Si3 0.628314 0.080258 0.498708
Si Si4 0.453828 0.717872 0.626642
Si Si5 0.281328 0.182427 0.151703
Si Si6 0.872589 0.193864 0.371723
Si Si7 0.922617 0.250807 0.040467
Si Si8 0.791302 0.664768 0.068085
O O1 0.354070 0.785962 0.844709
O O2 0.144951 0.715587 0.709118
O O3 0.348681 0.704525 0.283401
O O4 0.107169 0.447666 0.043580
O O5 0.088387 0.913373 0.651753
O O6 0.174546 0.230824 0.218303
O O7 0.000000 0.000000 0.500000
O O8 0.873048 0.920357 0.103176
O O9 0.500000 0.000000 0.500000
O O10 0.575117 0.911920 0.610242
O O11 0.807057 0.205909 0.729589
O O12 0.556505 0.686833 0.838793
O O13 0.338325 0.557494 0.808140
O O14 0.268470 0.028597 0.500325
O O15 0.289545 0.300315 0.065838
O O16 0.859322 0.253552 0.057060
O O17 0.045720 0.263586 0.632603
#
# Coordination Sequence:
#
# PCOD8030151 Si02
#       8
#     2   2   2   2   2   2   2   2
#     4  12  26  45  71 101 130 185 231 274 329 407
#     4  11  23  41  67  99 135 179 223 271 337 402
#     4  12  29  44  63 101 146 176 218 277 346 400
#     4  12  25  45  70 101 137 177 224 280 340 394
#     4  11  21  43  68 100 134 170 229 283 329 388
#     4  11  21  42  72  96 129 172 237 275 320 398
#     4  12  24  45  69 100 134 180 224 277 340 396
#     4  11  23  42  70 101 128 175 230 278 324 403
#
# _framework density 21.861619999999998
#
# number of rings (size 3 to 8) (size 9 to 14) (size 15 to 20)
#    0.000    0.500    5.000    3.750    5.250    1.000 
#    0.000    2.500    0.000    0.000    0.000    0.000 
#    0.000    0.000    0.000    0.000    0.000    0.000 
#
# Total GULP energy -198414.426207 kJ/mol
# GULP energy per Si atom -12400.901638 kJ/mol
# Density = 2.181186 g / cm^3
# Si number density = 21.861620 Si / 1000 Ang^3
#
#
#
# Elastic Constant Matrix: (Units=GPa)
#
#
# Indices 1 2 3 4 5 6 
#
# 1 101.8018 8.2227 18.9788 -0.2385 -16.4584 19.6475
# 2 8.2227 49.9595 -4.4930 -9.4090 -15.6970 12.3096
# 3 18.9788 -4.4930 47.8633 -11.8928 -5.1380 13.0618
# 4 -0.2385 -9.4090 -11.8928 33.6432 10.9957 -11.1437
# 5 -16.4584 -15.6970 -5.1380 10.9957 39.9306 -4.0808
# 6 19.6475 12.3096 13.0618 -11.1437 -4.0808 31.0200
#
#
#
# Elastic Compliance Matrix: (Units=1/GPa)
#
#
# Indices 1 2 3 4 5 6 
#
# 1 0.012954 0.000227 -0.003727 -0.005678 0.005693 -0.008016
# 2 0.000227 0.027160 0.007474 0.003229 0.009653 -0.011639
# 3 -0.003727 0.007474 0.027808 0.008304 0.001764 -0.009100
# 4 -0.005678 0.003229 0.008304 0.040820 -0.010000 0.012167
# 5 0.005693 0.009653 0.001764 -0.010000 0.033412 -0.007376
# 6 -0.008016 -0.011639 -0.009100 0.012167 -0.007376 0.049166
#
#
# Mechanical properties :
#
#
# Convention : Reuss Voigt Hill
#
# Bulk Modulus (GPa) = 13.18028 27.22685 20.20356
# Shear Modulus (GPa) = 23.96231 32.71316 28.33774
#
# Velocity S-wave (km/s) = 3.31432 3.87250 3.60423
# Velocity P-wave (km/s) = 4.54844 5.69879 5.15580
#
# Compressibility (1/GPa) = 0.07587095
#
# Stress axis : x y z
#
# Youngs Moduli (GPa) = 77.19747 36.81892 35.96067
#
# Poissons Ratio (x) = -0.00837 0.13403
# Poissons Ratio (y) = -0.01755 -0.26878
# Poissons Ratio (z) = 0.28773 -0.27520
#
# Static dielectric constant tensor:
#      x y z
#    x 4.167410 0.174580 -0.145660 
#    y 0.174580 4.035540 -0.255480 
#    z -0.145660 -0.255480 4.107080 
# 
# 
# High freq. dielectric constant tensor:
#      x y z
#    x 1.862260 0.013000 -0.001500 
#    y 0.013000 1.862320 -0.014270 
#    z -0.001500 -0.014270 1.859450 
# 
# From -- ./inp_files/184402.got.cif
#   From: 2010.06.25/outbox.cif.g09.slc.cpg/sg2_93_cif.got.tgz:184402.got - 2010.06.27 13:26:56.
