data_PCOD8030801
_publ_section_title
;
Structure prediction by ZEFSAII (Michael W. Deem and Ramdas Pophale) SiO2 
 PCOD8030801
Probable space group: P -1
;
_chemical_formula_sum "Si O2"
_cell_formula_units_Z 16
_cell_length_a 12.980437
_cell_length_b 9.343938
_cell_length_c 18.071456
_cell_angle_alpha 149.370057
_cell_angle_beta 44.369298
_cell_angle_gamma 133.543278
_cell_volume 763.974876
_symmetry_space_group_name_H-M "P -1"
_symmetry_group_IT_number 2
_symmetry_cell_setting 'triclinic'
loop_
_space_group_symop_operation_xyz
x,y,z
-x,-y,-z
loop_
_atom_site_type_symbol
_atom_site_label
_atom_site_fract_x
_atom_site_fract_y
_atom_site_fract_z
Si Si1 0.445862 0.847384 0.632806
Si Si2 0.188757 0.858036 0.676374
Si Si3 0.117319 0.814181 0.275177
Si Si4 0.330553 0.752525 0.404311
Si Si5 0.456528 0.673244 0.852843
Si Si6 0.946772 0.305493 0.580483
Si Si7 0.117058 0.429986 0.966451
Si Si8 0.429571 0.225743 0.316642
O O1 0.299221 0.964856 0.736645
O O2 0.392477 0.503588 0.499287
O O3 0.489542 0.936217 0.734688
O O4 0.584120 0.974919 0.564635
O O5 0.295151 0.865849 0.553264
O O6 0.096325 0.539240 0.592464
O O7 0.080169 0.083433 0.830709
O O8 0.109902 0.672972 0.297212
O O9 0.279908 0.019066 0.270865
O O10 0.089379 0.556392 0.116540
O O11 0.986193 0.992856 0.409433
O O12 0.426329 0.503763 0.250963
O O13 0.175802 0.630792 0.386286
O O14 0.288767 0.537758 0.902665
O O15 0.458815 0.668826 0.761000
O O16 0.500000 0.000000 0.000000
O O17 0.000000 0.500000 0.000000
#
# Coordination Sequence:
#
# PCOD8030801 Si02
#       8
#     2   2   2   2   2   2   2   2
#     4  11  22  40  69 101 129 174 225 279 325 391
#     4  12  24  43  68 101 136 175 229 284 323 399
#     4  11  23  47  65 101 142 173 225 276 339 403
#     4  12  23  44  70 102 131 176 237 271 332 401
#     4  12  25  43  70  98 136 177 221 282 334 397
#     4  11  25  42  74  96 133 185 221 280 334 398
#     4  12  28  45  67 100 139 177 220 279 346 397
#     4  11  22  42  70  99 138 171 227 274 336 397
#
# _framework density 20.943097000000002
#
# number of rings (size 3 to 8) (size 9 to 14) (size 15 to 20)
#    0.000    0.500    6.250    2.250    1.750    1.500 
#    2.250    1.875    0.000    0.000    0.000    0.000 
#    0.000    0.000    0.000    0.000    0.000    0.000 
#
# Total GULP energy -198434.990931 kJ/mol
# GULP energy per Si atom -12402.186933 kJ/mol
# Density = 2.089543 g / cm^3
# Si number density = 20.943097 Si / 1000 Ang^3
#
#
#
# Elastic Constant Matrix: (Units=GPa)
#
#
# Indices 1 2 3 4 5 6 
#
# 1 148.0489 30.3868 49.1083 -13.1579 -9.8754 -10.1458
# 2 30.3868 69.9336 4.0919 -5.4517 -3.7913 -13.7760
# 3 49.1083 4.0919 104.8689 -1.4829 -7.0027 -13.1429
# 4 -13.1579 -5.4517 -1.4829 31.0554 -0.8499 3.0414
# 5 -9.8754 -3.7913 -7.0027 -0.8499 28.5987 -0.2879
# 6 -10.1458 -13.7760 -13.1429 3.0414 -0.2879 34.1031
#
#
#
# Elastic Compliance Matrix: (Units=1/GPa)
#
#
# Indices 1 2 3 4 5 6 
#
# 1 0.009192 -0.003513 -0.004067 0.003184 0.001802 -0.000521
# 2 -0.003513 0.017172 0.001920 0.001021 0.001630 0.006554
# 3 -0.004067 0.001920 0.012010 -0.001186 0.001799 0.004315
# 4 0.003184 0.001021 -0.001186 0.033931 0.001931 -0.002107
# 5 0.001802 0.001630 0.001799 0.001931 0.036323 0.002022
# 6 -0.000521 0.006554 0.004315 -0.002107 0.002022 0.033683
#
#
# Mechanical properties :
#
#
# Convention : Reuss Voigt Hill
#
# Bulk Modulus (GPa) = 36.96439 54.44726 45.70583
# Shear Modulus (GPa) = 30.74074 34.70240 32.72157
#
# Velocity S-wave (km/s) = 3.83537 4.07502 3.95701
# Velocity P-wave (km/s) = 6.10751 6.94228 6.53823
#
# Compressibility (1/GPa) = 0.02705306
#
# Stress axis : x y z
#
# Youngs Moduli (GPa) = 108.78822 58.23334 83.26683
#
# Poissons Ratio (x) = 0.20456 0.33868
# Poissons Ratio (y) = 0.38214 -0.15984
# Poissons Ratio (z) = 0.44248 -0.11178
#
# Static dielectric constant tensor:
#      x y z
#    x 4.101140 -0.185260 -0.044480 
#    y -0.185260 3.936280 0.086820 
#    z -0.044480 0.086820 3.794570 
# 
# 
# High freq. dielectric constant tensor:
#      x y z
#    x 1.837460 -0.005220 -0.000940 
#    y -0.005220 1.828970 0.004730 
#    z -0.000940 0.004730 1.805090 
# 
# From -- ./inp_files/205324.got.cif
#   From: 2010.06.25/outbox.cif.g09.slc.cpg/sg2_103_cif.got.tgz:205324.got - 2010.06.27 13:26:56.
