data_PCOD8030319
_publ_section_title
;
Structure prediction by ZEFSAII (Michael W. Deem and Ramdas Pophale) SiO2 
 PCOD8030319
Probable space group: P -1
;
_chemical_formula_sum "Si O2"
_cell_formula_units_Z 14
_cell_length_a 9.771363
_cell_length_b 9.384530
_cell_length_c 24.640804
_cell_angle_alpha 152.503227
_cell_angle_beta 140.162500
_cell_angle_gamma 45.454742
_cell_volume 666.724265
_symmetry_space_group_name_H-M "P -1"
_symmetry_group_IT_number 2
_symmetry_cell_setting 'triclinic'
loop_
_space_group_symop_operation_xyz
x,y,z
-x,-y,-z
loop_
_atom_site_type_symbol
_atom_site_label
_atom_site_fract_x
_atom_site_fract_y
_atom_site_fract_z
Si Si1 0.764073 0.226186 0.899105
Si Si2 0.563584 0.661564 0.255216
Si Si3 0.385708 0.731478 0.344998
Si Si4 0.932953 0.833637 0.199160
Si Si5 0.299512 0.709086 0.530970
Si Si6 0.034042 0.750790 0.754147
Si Si7 0.559174 0.140930 0.260143
O O1 0.636648 0.364075 0.854408
O O2 0.598887 0.113947 0.855063
O O3 0.901339 0.485476 0.053682
O O4 0.926141 0.935855 0.834288
O O5 0.478420 0.683625 0.297309
O O6 0.720611 0.352413 0.191584
O O7 0.696245 0.955780 0.381359
O O8 0.420325 0.417609 0.283018
O O9 0.132666 0.825447 0.298222
O O10 0.500000 0.000000 0.500000
O O11 0.987015 0.035480 0.232409
O O12 0.722982 0.980181 0.213462
O O13 0.500000 0.500000 0.500000
O O14 0.310174 0.729046 0.605971
O O15 0.083036 0.561123 0.398379
#
# Coordination Sequence:
#
# PCOD8030319 Si02
#       7
#     2   2   2   2   2   2   2
#     4  11  26  47  68  97 136 180 230 274 324 402
#     4  11  24  42  69 101 131 177 225 276 332 403
#     4  12  26  42  68 102 139 172 220 281 344 394
#     4  12  26  45  69  98 138 181 223 275 336 394
#     4  11  21  44  69  98 139 172 222 280 334 397
#     4  12  23  41  71  99 131 178 224 276 333 391
#     4  11  25  44  68 100 137 174 222 283 334 396
#
# _framework density 20.998187999999999
#
# number of rings (size 3 to 8) (size 9 to 14) (size 15 to 20)
#    0.000    0.571    5.714    3.000    2.000    5.714 
#    0.000    0.000    0.000    0.000    0.000    0.000 
#    0.000    0.000    0.000    0.000    0.000    0.000 
#
# Total GULP energy -173696.137303 kJ/mol
# GULP energy per Si atom -12406.866950 kJ/mol
# Density = 2.095039 g / cm^3
# Si number density = 20.998188 Si / 1000 Ang^3
#
#
#
# Elastic Constant Matrix: (Units=GPa)
#
#
# Indices 1 2 3 4 5 6 
#
# 1 56.1023 -5.1412 9.8063 5.2019 17.0163 -9.4417
# 2 -5.1412 104.3480 26.1171 5.8562 16.0767 -14.7195
# 3 9.8063 26.1171 121.2613 0.0453 7.1865 -3.9792
# 4 5.2019 5.8562 0.0453 21.5779 -2.3178 3.3947
# 5 17.0163 16.0767 7.1865 -2.3178 20.5415 2.0479
# 6 -9.4417 -14.7195 -3.9792 3.3947 2.0479 41.0617
#
#
#
# Elastic Compliance Matrix: (Units=1/GPa)
#
#
# Indices 1 2 3 4 5 6 
#
# 1 0.037471 0.012765 -0.002612 -0.019861 -0.044030 0.016777
# 2 0.012765 0.017084 -0.002837 -0.012179 -0.025429 0.011059
# 3 -0.002612 -0.002837 0.008945 0.001699 0.001543 -0.000968
# 4 -0.019861 -0.012179 0.001699 0.060491 0.033756 -0.015453
# 5 -0.044030 -0.025429 0.001543 0.033756 0.111060 -0.027420
# 6 0.016777 0.011059 -0.000968 -0.015453 -0.027420 0.034727
#
#
# Mechanical properties :
#
#
# Convention : Reuss Voigt Hill
#
# Bulk Modulus (GPa) = 12.79915 38.14177 25.47046
# Shear Modulus (GPa) = 17.78157 33.36484 25.57320
#
# Velocity S-wave (km/s) = 2.91316 3.99047 3.49360
# Velocity P-wave (km/s) = 4.17420 6.27978 5.33196
#
# Compressibility (1/GPa) = 0.07813017
#
# Stress axis : x y z
#
# Youngs Moduli (GPa) = 26.68762 58.53532 111.79298
#
# Poissons Ratio (x) = -0.74719 0.29201
# Poissons Ratio (y) = -0.34066 0.31718
# Poissons Ratio (z) = 0.06971 0.16608
#
# Static dielectric constant tensor:
#      x y z
#    x 3.891830 0.037400 0.007810 
#    y 0.037400 3.991760 0.012320 
#    z 0.007810 0.012320 4.024370 
# 
# 
# High freq. dielectric constant tensor:
#      x y z
#    x 1.836050 -0.002030 0.003820 
#    y -0.002030 1.833700 0.005980 
#    z 0.003820 0.005980 1.822450 
# 
# From -- ./inp_files/184721.got.cif
#   From: 2010.06.25/outbox.cif.g09.slc.cpg/sg2_93_cif.got.tgz:184721.got - 2010.06.27 13:26:56.
