data_PCOD8030952
_publ_section_title
;
Structure prediction by ZEFSAII (Michael W. Deem and Ramdas Pophale) SiO2 
 PCOD8030952
Probable space group: P -1
;
_chemical_formula_sum "Si O2"
_cell_formula_units_Z 16
_cell_length_a 21.753675
_cell_length_b 20.127133
_cell_length_c 6.743159
_cell_angle_alpha 45.666561
_cell_angle_beta 56.889389
_cell_angle_gamma 20.942623
_cell_volume 686.348097
_symmetry_space_group_name_H-M "P -1"
_symmetry_group_IT_number 2
_symmetry_cell_setting 'triclinic'
loop_
_space_group_symop_operation_xyz
x,y,z
-x,-y,-z
loop_
_atom_site_type_symbol
_atom_site_label
_atom_site_fract_x
_atom_site_fract_y
_atom_site_fract_z
Si Si1 0.645799 0.450976 0.377900
Si Si2 0.738640 0.636310 0.882533
Si Si3 0.809326 0.456194 0.521847
Si Si4 0.711524 0.194571 0.549389
Si Si5 0.009905 0.085517 0.696806
Si Si6 0.477031 0.240438 0.291673
Si Si7 0.175860 0.269012 0.317567
Si Si8 0.950499 0.738788 0.179013
O O1 0.734131 0.259852 0.507578
O O2 0.513875 0.568553 0.549158
O O3 0.822745 0.309461 0.421368
O O4 0.512002 0.673380 0.018188
O O5 0.601389 0.753496 0.715647
O O6 0.708507 0.778227 0.701486
O O7 0.954981 0.376772 0.963438
O O8 0.705201 0.619266 0.176981
O O9 0.985995 0.186931 0.703580
O O10 0.648084 0.589989 0.648712
O O11 0.893313 0.436227 0.557735
O O12 0.797906 0.118199 0.339718
O O13 0.817632 0.983945 0.900549
O O14 0.000000 0.000000 0.000000
O O15 0.684414 0.961946 0.573315
O O16 0.140334 0.253460 0.617778
O O17 0.000000 0.500000 0.000000
#
# Coordination Sequence:
#
# PCOD8030952 Si02
#       8
#     2   2   2   2   2   2   2   2
#     4  11  23  43  69 104 136 188 231 271 358 415
#     4  11  23  45  68  95 133 183 234 277 351 417
#     4  11  22  41  68  99 134 178 232 282 346 413
#     4  11  23  42  72  99 143 186 227 280 346 417
#     4  12  23  42  67 104 143 183 229 284 342 410
#     4  11  24  46  69  96 143 178 227 296 339 417
#     4  12  25  45  69 103 131 181 234 292 356 402
#     4  11  22  45  68  96 141 177 224 295 340 407
#
# _framework density 23.311786999999999
#
# number of rings (size 3 to 8) (size 9 to 14) (size 15 to 20)
#    0.000    0.750    5.000    3.375    0.000    1.000 
#    9.000    0.000    0.000    0.000    0.000    0.000 
#    0.000    0.000    0.000    0.000    0.000    0.000 
#
# Total GULP energy -198239.646336 kJ/mol
# GULP energy per Si atom -12389.977896 kJ/mol
# Density = 2.325873 g / cm^3
# Si number density = 23.311787 Si / 1000 Ang^3
#
#
#
# Elastic Constant Matrix: (Units=GPa)
#
#
# Indices 1 2 3 4 5 6 
#
# 1 43.1120 7.8683 21.9401 9.0568 -17.5813 7.3831
# 2 7.8683 157.3730 38.8395 26.2729 -9.9894 10.6671
# 3 21.9401 38.8395 118.4025 5.9830 -24.8123 9.7613
# 4 9.0568 26.2729 5.9830 44.6488 2.9539 -9.6802
# 5 -17.5813 -9.9894 -24.8123 2.9539 36.2908 0.2900
# 6 7.3831 10.6671 9.7613 -9.6802 0.2900 31.1490
#
#
#
# Elastic Compliance Matrix: (Units=1/GPa)
#
#
# Indices 1 2 3 4 5 6 
#
# 1 0.035920 0.002857 -0.002147 -0.012662 0.017855 -0.012921
# 2 0.002857 0.008281 -0.001896 -0.006467 0.002933 -0.004956
# 3 -0.002147 -0.001896 0.010994 -0.000890 0.006048 -0.002620
# 4 -0.012662 -0.006467 -0.000890 0.033084 -0.011343 0.015882
# 5 0.017855 0.002933 0.006048 -0.011343 0.042159 -0.011049
# 6 -0.012921 -0.004956 -0.002620 0.015882 -0.011049 0.042723
#
#
# Mechanical properties :
#
#
# Convention : Reuss Voigt Hill
#
# Bulk Modulus (GPa) = 18.93060 50.68705 34.80882
# Shear Modulus (GPa) = 25.88784 39.10036 32.49410
#
# Velocity S-wave (km/s) = 3.33604 4.09990 3.73754
# Velocity P-wave (km/s) = 4.79344 6.64850 5.79567
#
# Compressibility (1/GPa) = 0.05282452
#
# Stress axis : x y z
#
# Youngs Moduli (GPa) = 27.83930 120.75657 90.95969
#
# Poissons Ratio (x) = -0.34499 0.19525
# Poissons Ratio (y) = -0.07953 0.17244
# Poissons Ratio (z) = 0.05976 0.22893
#
# Static dielectric constant tensor:
#      x y z
#    x 4.198040 -0.007300 -0.170890 
#    y -0.007300 4.560620 0.007300 
#    z -0.170890 0.007300 4.088210 
# 
# 
# High freq. dielectric constant tensor:
#      x y z
#    x 1.913330 0.004710 -0.027020 
#    y 0.004710 1.935770 0.005300 
#    z -0.027020 0.005300 1.915510 
# 
# From -- ./inp_files/99673.got.cif
#   From: 2010.06.25/outbox.cif.g09.slc.cpg/sg2_50_cif.got.tgz:99673.got - 2010.06.27 13:26:56.
