data_PCOD8030374
_publ_section_title
;
Structure prediction by ZEFSAII (Michael W. Deem and Ramdas Pophale) SiO2 
 PCOD8030374
Probable space group: P -1
;
_chemical_formula_sum "Si O2"
_cell_formula_units_Z 16
_cell_length_a 16.637261
_cell_length_b 9.090636
_cell_length_c 12.583681
_cell_angle_alpha 143.410270
_cell_angle_beta 139.927331
_cell_angle_gamma 42.332730
_cell_volume 690.598327
_symmetry_space_group_name_H-M "P -1"
_symmetry_group_IT_number 2
_symmetry_cell_setting 'triclinic'
loop_
_space_group_symop_operation_xyz
x,y,z
-x,-y,-z
loop_
_atom_site_type_symbol
_atom_site_label
_atom_site_fract_x
_atom_site_fract_y
_atom_site_fract_z
Si Si1 0.212375 0.868653 0.958902
Si Si2 0.062561 0.207731 0.634289
Si Si3 0.435005 0.195187 0.636835
Si Si4 0.248178 0.449438 0.087419
Si Si5 0.568099 0.989885 0.856391
Si Si6 0.387399 0.469733 0.036559
Si Si7 0.843684 0.745415 0.673720
Si Si8 0.079978 0.000643 0.307904
O O1 0.312044 0.910548 0.997788
O O2 0.269448 0.568683 0.886427
O O3 0.076471 0.926800 0.793217
O O4 0.199292 0.054031 0.156115
O O5 0.951257 0.486477 0.674280
O O6 0.127461 0.105701 0.525048
O O7 0.177294 0.253361 0.850809
O O8 0.000000 0.000000 0.500000
O O9 0.468182 0.016618 0.672571
O O10 0.502239 0.415931 0.829220
O O11 0.279620 0.328259 0.538763
O O12 0.500000 0.000000 0.500000
O O13 0.321577 0.565231 0.139027
O O14 0.146199 0.688575 0.185563
O O15 0.363897 0.300930 0.200290
O O16 0.468291 0.162335 0.944957
O O17 0.900922 0.864976 0.703571
#
# Coordination Sequence:
#
# PCOD8030374 Si02
#       8
#     2   2   2   2   2   2   2   2
#     4  11  21  44  74 101 139 190 243 291 361 423
#     4  12  30  45  73 112 144 189 236 301 360 436
#     4  11  22  42  69 104 135 185 249 282 350 425
#     4  12  26  51  70 106 153 185 243 291 371 426
#     4  11  26  42  70 100 141 197 227 296 356 424
#     4  11  24  45  70 100 139 198 236 295 351 426
#     4  12  24  46  71 107 146 181 248 301 349 434
#     4  12  26  47  76 107 142 195 236 304 363 413
#
# _framework density 23.168316000000001
#
# number of rings (size 3 to 8) (size 9 to 14) (size 15 to 20)
#    0.000    0.500    5.000    4.125    8.750    1.000 
#    0.000    1.250    0.000    0.000    0.000    0.000 
#    0.000    0.000    0.000    0.000    0.000    0.000 
#
# Total GULP energy -198309.969469 kJ/mol
# GULP energy per Si atom -12394.373092 kJ/mol
# Density = 2.311558 g / cm^3
# Si number density = 23.168316 Si / 1000 Ang^3
#
#
#
# Elastic Constant Matrix: (Units=GPa)
#
#
# Indices 1 2 3 4 5 6 
#
# 1 59.1137 16.5642 7.0408 2.1892 -12.2521 -11.3125
# 2 16.5642 147.1647 15.1397 -0.5614 -3.5022 -8.0888
# 3 7.0408 15.1397 73.2896 -5.1145 -5.8219 -9.0818
# 4 2.1892 -0.5614 -5.1145 29.7643 -1.2578 -2.3972
# 5 -12.2521 -3.5022 -5.8219 -1.2578 21.7849 1.0039
# 6 -11.3125 -8.0888 -9.0818 -2.3972 1.0039 42.8140
#
#
#
# Elastic Compliance Matrix: (Units=1/GPa)
#
#
# Indices 1 2 3 4 5 6 
#
# 1 0.020666 -0.001783 -0.000201 -0.000737 0.011020 0.004781
# 2 -0.001783 0.007153 -0.001238 0.000095 -0.000207 0.000628
# 3 -0.000201 -0.001238 0.014778 0.002921 0.003671 0.002925
# 4 -0.000737 0.000095 0.002921 0.034438 0.002263 0.002318
# 5 0.011020 -0.000207 0.003671 0.002263 0.053063 0.002534
# 6 0.004781 0.000628 0.002925 0.002318 0.002534 0.025430
#
#
# Mechanical properties :
#
#
# Convention : Reuss Voigt Hill
#
# Bulk Modulus (GPa) = 27.66045 39.67305 33.66675
# Shear Modulus (GPa) = 28.73192 34.92753 31.82973
#
# Velocity S-wave (km/s) = 3.52538 3.88694 3.71057
# Velocity P-wave (km/s) = 5.34190 6.10781 5.73765
#
# Compressibility (1/GPa) = 0.03615270
#
# Stress axis : x y z
#
# Youngs Moduli (GPa) = 48.38762 139.79849 67.67016
#
# Poissons Ratio (x) = 0.24929 0.01357
# Poissons Ratio (y) = 0.08629 0.08380
# Poissons Ratio (z) = 0.00971 0.17312
#
# Static dielectric constant tensor:
#      x y z
#    x 4.156070 -0.223470 -0.238150 
#    y -0.223470 4.433300 -0.243720 
#    z -0.238150 -0.243720 3.983000 
# 
# 
# High freq. dielectric constant tensor:
#      x y z
#    x 1.928350 -0.015860 -0.011920 
#    y -0.015860 1.928820 -0.008460 
#    z -0.011920 -0.008460 1.903040 
# 
# From -- ./inp_files/405656.got.cif
#   From: 2010.06.25/outbox.cif.g09.slc.cpg/sg2_203_cif.got.tgz:405656.got - 2010.06.27 13:26:56.
