data_PCOD8030194
_publ_section_title
;
Structure prediction by ZEFSAII (Michael W. Deem and Ramdas Pophale) SiO2 
 PCOD8030194
Probable space group: P -1
;
_chemical_formula_sum "Si O2"
_cell_formula_units_Z 14
_cell_length_a 9.298174
_cell_length_b 8.951214
_cell_length_c 11.617278
_cell_angle_alpha 43.241683
_cell_angle_beta 78.046359
_cell_angle_gamma 80.340061
_cell_volume 647.834467
_symmetry_space_group_name_H-M "P -1"
_symmetry_group_IT_number 2
_symmetry_cell_setting 'triclinic'
loop_
_space_group_symop_operation_xyz
x,y,z
-x,-y,-z
loop_
_atom_site_type_symbol
_atom_site_label
_atom_site_fract_x
_atom_site_fract_y
_atom_site_fract_z
Si Si1 0.475064 0.866852 0.692156
Si Si2 0.893089 0.648020 0.281975
Si Si3 0.069658 0.329118 0.999029
Si Si4 0.210214 0.655797 0.338233
Si Si5 0.209486 0.905277 0.864397
Si Si6 0.353548 0.098273 0.130221
Si Si7 0.409022 0.592822 0.149866
O O1 0.304853 0.911825 0.728089
O O2 0.575057 0.957919 0.726905
O O3 0.513589 0.610829 0.813185
O O4 0.500000 0.000000 0.500000
O O5 0.894764 0.580660 0.185559
O O6 0.816555 0.452418 0.473087
O O7 0.057588 0.683093 0.279931
O O8 0.791611 0.866433 0.193753
O O9 0.216572 0.261574 0.079292
O O10 0.000000 0.500000 0.000000
O O11 0.960189 0.128541 0.119700
O O12 0.332491 0.512875 0.325792
O O13 0.289849 0.884801 0.203155
O O14 0.273266 0.701354 0.040823
O O15 0.471093 0.217856 0.961337
#
# Coordination Sequence:
#
# PCOD8030194 Si02
#       7
#     2   2   2   2   2   2   2
#     4  11  25  45  67  97 139 177 215 276 347 388
#     4  11  24  42  66  98 140 177 217 276 342 383
#     4  12  23  41  67  99 129 174 229 273 322 400
#     4  11  23  42  66 101 137 176 219 278 332 391
#     4  11  21  43  68  93 133 182 219 263 334 400
#     4  11  24  41  66 101 129 173 234 269 320 406
#     4  11  22  43  69  96 134 177 220 270 332 398
#
# _framework density 21.610458999999999
#
# number of rings (size 3 to 8) (size 9 to 14) (size 15 to 20)
#    0.000    0.857    2.857    6.000    0.000    3.429 
#    0.000    5.714    0.000    0.000    0.000    0.000 
#    0.000    0.000    0.000    0.000    0.000    0.000 
#
# Total GULP energy -173549.901055 kJ/mol
# GULP energy per Si atom -12396.421504 kJ/mol
# Density = 2.156127 g / cm^3
# Si number density = 21.610459 Si / 1000 Ang^3
#
#
#
# Elastic Constant Matrix: (Units=GPa)
#
#
# Indices 1 2 3 4 5 6 
#
# 1 107.9531 13.4611 39.2915 12.1103 -15.3059 -11.8955
# 2 13.4611 110.3364 39.2765 11.7628 -11.0311 -25.6705
# 3 39.2915 39.2765 106.5082 19.7750 -13.0650 -13.6378
# 4 12.1103 11.7628 19.7750 40.1426 -5.1404 -8.4725
# 5 -15.3059 -11.0311 -13.0650 -5.1404 34.6830 -0.5522
# 6 -11.8955 -25.6705 -13.6378 -8.4725 -0.5522 36.9228
#
#
#
# Elastic Compliance Matrix: (Units=1/GPa)
#
#
# Indices 1 2 3 4 5 6 
#
# 1 0.011415 0.001053 -0.003578 -0.000862 0.003944 0.002950
# 2 0.001053 0.012289 -0.003531 -0.000176 0.003138 0.007585
# 3 -0.003578 -0.003531 0.012991 -0.004019 0.001601 0.000292
# 4 -0.000862 -0.000176 -0.004019 0.028493 0.002347 0.004688
# 5 0.003944 0.003138 0.001601 0.002347 0.032603 0.005070
# 6 0.002950 0.007585 0.000292 0.004688 0.005070 0.034567
#
#
# Mechanical properties :
#
#
# Convention : Reuss Voigt Hill
#
# Bulk Modulus (GPa) = 40.67809 56.53955 48.60882
# Shear Modulus (GPa) = 32.75157 37.86758 35.30957
#
# Velocity S-wave (km/s) = 3.89722 4.19057 4.04655
# Velocity P-wave (km/s) = 6.25422 7.04516 6.66144
#
# Compressibility (1/GPa) = 0.02458326
#
# Stress axis : x y z
#
# Youngs Moduli (GPa) = 87.60287 81.37303 76.97581
#
# Poissons Ratio (x) = -0.08573 0.27542
# Poissons Ratio (y) = -0.09229 0.27184
# Poissons Ratio (z) = 0.31345 0.28737
#
# Static dielectric constant tensor:
#      x y z
#    x 4.351560 -0.212770 -0.189960 
#    y -0.212770 4.034590 0.099320 
#    z -0.189960 0.099320 3.800420 
# 
# 
# High freq. dielectric constant tensor:
#      x y z
#    x 1.862250 -0.018800 -0.010220 
#    y -0.018800 1.853380 0.006610 
#    z -0.010220 0.006610 1.840050 
# 
# From -- ./inp_files/153882.got.cif
#   From: 2010.06.25/outbox.cif.g09.slc.cpg/sg2_77_cif.got.tgz:153882.got - 2010.06.27 13:26:56.
