data_PCOD8030753
_publ_section_title
;
Structure prediction by ZEFSAII (Michael W. Deem and Ramdas Pophale) SiO2 
 PCOD8030753
Probable space group: P -1
;
_chemical_formula_sum "Si O2"
_cell_formula_units_Z 16
_cell_length_a 9.903057
_cell_length_b 7.955627
_cell_length_c 14.796006
_cell_angle_alpha 113.939345
_cell_angle_beta 91.117705
_cell_angle_gamma 45.796646
_cell_volume 699.334806
_symmetry_space_group_name_H-M "P -1"
_symmetry_group_IT_number 2
_symmetry_cell_setting 'triclinic'
loop_
_space_group_symop_operation_xyz
x,y,z
-x,-y,-z
loop_
_atom_site_type_symbol
_atom_site_label
_atom_site_fract_x
_atom_site_fract_y
_atom_site_fract_z
Si Si1 0.508873 0.502744 0.893212
Si Si2 0.227393 0.857234 0.818053
Si Si3 0.689597 0.947004 0.786133
Si Si4 0.755958 0.734820 0.554302
Si Si5 0.608425 0.672478 0.382082
Si Si6 0.290426 0.213919 0.902871
Si Si7 0.859339 0.403820 0.858363
Si Si8 0.086643 0.459511 0.774651
O O1 0.281772 0.753895 0.900761
O O2 0.637954 0.544233 0.865012
O O3 0.615725 0.209263 0.793493
O O4 0.500000 0.500000 0.000000
O O5 0.342219 0.589104 0.698825
O O6 0.300200 0.990265 0.828418
O O7 0.984752 0.110418 0.847041
O O8 0.710251 0.773404 0.669566
O O9 0.897501 0.778790 0.807074
O O10 0.522819 0.050077 0.880046
O O11 0.676062 0.633591 0.479283
O O12 0.000000 0.500000 0.500000
O O13 0.633183 0.034170 0.572394
O O14 0.735011 0.698438 0.331787
O O15 0.182164 0.430514 0.864208
O O16 0.165566 0.394021 0.030951
O O17 0.984444 0.357310 0.763179
#
# Coordination Sequence:
#
# PCOD8030753 Si02
#       8
#     2   2   2   2   2   2   2   2
#     4  12  25  39  63  98 132 171 223 264 318 390
#     4  11  24  43  64  94 136 172 215 272 316 386
#     4  12  23  42  68  94 132 172 218 272 331 383
#     4  11  23  43  71  97 124 165 222 281 335 381
#     4  11  23  43  71  97 125 168 224 274 327 390
#     4  11  24  43  62  95 138 182 215 258 320 390
#     4  11  26  41  64  96 139 183 215 257 321 388
#     4  11  22  40  66  93 128 172 216 262 325 389
#
# _framework density 22.878883999999999
#
# number of rings (size 3 to 8) (size 9 to 14) (size 15 to 20)
#    0.000    0.750    5.000    3.000    3.500    1.500 
#    0.000    0.625    0.000    4.500    0.000    0.000 
#    0.000    0.000    0.000    0.000    0.000    0.000 
#
# Total GULP energy -198219.988899 kJ/mol
# GULP energy per Si atom -12388.749306 kJ/mol
# Density = 2.282681 g / cm^3
# Si number density = 22.878884 Si / 1000 Ang^3
#
#
#
# Elastic Constant Matrix: (Units=GPa)
#
#
# Indices 1 2 3 4 5 6 
#
# 1 71.1873 20.9813 24.6028 13.6843 2.0154 13.2714
# 2 20.9813 116.0031 45.7118 12.7342 4.1866 -13.1386
# 3 24.6028 45.7118 99.4608 10.2949 18.1699 5.9330
# 4 13.6843 12.7342 10.2949 34.4906 2.7353 -0.4935
# 5 2.0154 4.1866 18.1699 2.7353 38.2892 4.6987
# 6 13.2714 -13.1386 5.9330 -0.4935 4.6987 38.8928
#
#
#
# Elastic Compliance Matrix: (Units=1/GPa)
#
#
# Indices 1 2 3 4 5 6 
#
# 1 0.018005 -0.002417 -0.002681 -0.005695 0.001835 -0.006845
# 2 -0.002417 0.011883 -0.005130 -0.001876 0.000720 0.005511
# 3 -0.002681 -0.005130 0.014360 -0.000905 -0.005763 -0.002324
# 4 -0.005695 -0.001876 -0.000905 0.032374 -0.001631 0.002055
# 5 0.001835 0.000720 -0.005763 -0.001631 0.029167 -0.003048
# 6 -0.006845 0.005511 -0.002324 0.002055 -0.003048 0.030658
#
#
# Mechanical properties :
#
#
# Convention : Reuss Voigt Hill
#
# Bulk Modulus (GPa) = 42.02726 52.13812 47.08269
# Shear Modulus (GPa) = 30.33389 35.35821 32.84605
#
# Velocity S-wave (km/s) = 3.64517 3.93549 3.79311
# Velocity P-wave (km/s) = 6.01046 6.59462 6.30930
#
# Compressibility (1/GPa) = 0.02379408
#
# Stress axis : x y z
#
# Youngs Moduli (GPa) = 55.54003 84.15396 69.63837
#
# Poissons Ratio (x) = 0.20337 0.18667
# Poissons Ratio (y) = 0.13422 0.35722
# Poissons Ratio (z) = 0.14888 0.43168
#
# Static dielectric constant tensor:
#      x y z
#    x 4.037860 -0.313390 0.130160 
#    y -0.313390 4.500790 0.078330 
#    z 0.130160 0.078330 4.096540 
# 
# 
# High freq. dielectric constant tensor:
#      x y z
#    x 1.891530 -0.029080 0.008050 
#    y -0.029080 1.921080 0.003680 
#    z 0.008050 0.003680 1.881210 
# 
# From -- ./inp_files/515933.got.cif
#   From: 2010.06.25/outbox.cif.g09.slc.cpg/sg2_258_cif.got.tgz:515933.got - 2010.06.27 13:26:56.
