data_PCOD8030257
_publ_section_title
;
Structure prediction by ZEFSAII (Michael W. Deem and Ramdas Pophale) SiO2 
 PCOD8030257
Probable space group: P -1
;
_chemical_formula_sum "Si O2"
_cell_formula_units_Z 16
_cell_length_a 13.392626
_cell_length_b 10.949138
_cell_length_c 10.070092
_cell_angle_alpha 88.856954
_cell_angle_beta 73.164440
_cell_angle_gamma 35.372055
_cell_volume 753.307421
_symmetry_space_group_name_H-M "P -1"
_symmetry_group_IT_number 2
_symmetry_cell_setting 'triclinic'
loop_
_space_group_symop_operation_xyz
x,y,z
-x,-y,-z
loop_
_atom_site_type_symbol
_atom_site_label
_atom_site_fract_x
_atom_site_fract_y
_atom_site_fract_z
Si Si1 0.403005 0.025634 0.659127
Si Si2 0.440769 0.642657 0.847452
Si Si3 0.029104 0.644398 0.213253
Si Si4 0.623515 0.802055 0.063602
Si Si5 0.260405 0.487534 0.373924
Si Si6 0.070835 0.993725 0.839478
Si Si7 0.010956 0.085943 0.377336
Si Si8 0.583607 0.246078 0.867760
O O1 0.368304 0.143078 0.798316
O O2 0.192835 0.181578 0.692576
O O3 0.500000 0.000000 0.500000
O O4 0.550511 0.772409 0.645799
O O5 0.659633 0.469816 0.731999
O O6 0.298438 0.803708 0.773622
O O7 0.438064 0.503066 0.890496
O O8 0.359252 0.805468 0.997407
O O9 0.126975 0.540957 0.323924
O O10 0.155296 0.434041 0.070632
O O11 0.045677 0.767369 0.153384
O O12 0.524097 0.770719 0.126517
O O13 0.500000 0.000000 0.000000
O O14 0.133191 0.657264 0.544468
O O15 0.052036 0.914024 0.733635
O O16 0.000000 0.000000 0.000000
O O17 0.000000 0.000000 0.500000
O O18 0.224932 0.933026 0.292268
#
# Coordination Sequence:
#
# PCOD8030257 Si02
#       8
#     2   2   2   2   2   2   2   2
#     4  12  30  50  72 108 142 186 248 297 346 419
#     4  11  21  43  72 104 146 181 230 298 354 422
#     4  12  25  48  78 101 144 191 236 296 358 417
#     4  12  26  48  77 102 139 195 244 290 352 417
#     4  12  25  49  72 104 148 190 229 297 365 418
#     4  12  24  40  71 111 143 180 237 290 352 431
#     4  12  25  42  68 107 147 189 229 283 373 431
#     4  11  23  42  73 104 143 188 235 289 357 425
#
# _framework density 21.23967
#
# number of rings (size 3 to 8) (size 9 to 14) (size 15 to 20)
#    0.000    0.250    7.500    1.125    1.750    4.000 
#    0.000    0.000    0.000    0.000    0.000    0.000 
#    0.000    0.000    0.000    0.000    0.000    0.000 
#
# Total GULP energy -198443.503409 kJ/mol
# GULP energy per Si atom -12402.718963 kJ/mol
# Density = 2.119133 g / cm^3
# Si number density = 21.239670 Si / 1000 Ang^3
#
#
#
# Elastic Constant Matrix: (Units=GPa)
#
#
# Indices 1 2 3 4 5 6 
#
# 1 109.3425 44.7092 48.3497 5.2469 -1.4883 -11.1063
# 2 44.7092 108.8683 43.5402 15.5061 4.8356 -12.4506
# 3 48.3497 43.5402 138.1480 14.6071 7.8090 -4.6301
# 4 5.2469 15.5061 14.6071 39.5469 0.0247 4.1294
# 5 -1.4883 4.8356 7.8090 0.0247 45.0109 4.0737
# 6 -11.1063 -12.4506 -4.6301 4.1294 4.0737 38.7326
#
#
#
# Elastic Compliance Matrix: (Units=1/GPa)
#
#
# Indices 1 2 3 4 5 6 
#
# 1 0.012235 -0.003718 -0.003210 0.000841 0.001205 0.001713
# 2 -0.003718 0.012538 -0.002035 -0.004014 -0.001413 0.003297
# 3 -0.003210 -0.002035 0.009320 -0.002210 -0.001497 -0.000068
# 4 0.000841 -0.004014 -0.002210 0.028027 0.001228 -0.004431
# 5 0.001205 -0.001413 -0.001497 0.001228 0.022924 -0.002829
# 6 0.001713 0.003297 -0.000068 -0.004431 -0.002829 0.028131
#
#
# Mechanical properties :
#
#
# Convention : Reuss Voigt Hill
#
# Bulk Modulus (GPa) = 61.85904 69.95079 65.90491
# Shear Modulus (GPa) = 36.63240 39.30871 37.97056
#
# Velocity S-wave (km/s) = 4.15748 4.30667 4.23273
# Velocity P-wave (km/s) = 7.22729 7.59838 7.41515
#
# Compressibility (1/GPa) = 0.01616579
#
# Stress axis : x y z
#
# Youngs Moduli (GPa) = 81.72988 79.75677 107.30059
#
# Poissons Ratio (x) = 0.29656 0.34442
# Poissons Ratio (y) = 0.30390 0.21840
# Poissons Ratio (z) = 0.26235 0.16234
#
# Static dielectric constant tensor:
#      x y z
#    x 3.935220 -0.043570 -0.029530 
#    y -0.043570 3.985200 0.123600 
#    z -0.029530 0.123600 3.861390 
# 
# 
# High freq. dielectric constant tensor:
#      x y z
#    x 1.840690 -0.005980 -0.000820 
#    y -0.005980 1.841350 0.008400 
#    z -0.000820 0.008400 1.836570 
# 
# From -- ./inp_files/307300.got.cif
#   From: 2010.06.25/outbox.cif.g09.slc.cpg/sg2_154_cif.got.tgz:307300.got - 2010.06.27 13:26:56.
