data_PCOD8030999
_publ_section_title
;
Structure prediction by ZEFSAII (Michael W. Deem and Ramdas Pophale) SiO2 
 PCOD8030999
Probable space group: P -1
;
_chemical_formula_sum "Si O2"
_cell_formula_units_Z 16
_cell_length_a 11.752318
_cell_length_b 9.434474
_cell_length_c 17.975225
_cell_angle_alpha 142.933517
_cell_angle_beta 131.545468
_cell_angle_gamma 75.055801
_cell_volume 718.275641
_symmetry_space_group_name_H-M "P -1"
_symmetry_group_IT_number 2
_symmetry_cell_setting 'triclinic'
loop_
_space_group_symop_operation_xyz
x,y,z
-x,-y,-z
loop_
_atom_site_type_symbol
_atom_site_label
_atom_site_fract_x
_atom_site_fract_y
_atom_site_fract_z
Si Si1 0.666938 0.740564 0.120265
Si Si2 0.293378 0.242011 0.496079
Si Si3 0.583368 0.821279 0.956937
Si Si4 0.469794 0.674634 0.499345
Si Si5 0.233889 0.788416 0.529745
Si Si6 0.996926 0.826110 0.756500
Si Si7 0.030657 0.746628 0.287794
Si Si8 0.926704 0.741147 0.916495
O O1 0.842767 0.725737 0.188649
O O2 0.732483 0.054771 0.311536
O O3 0.500000 0.500000 0.000000
O O4 0.582105 0.689758 0.980485
O O5 0.467402 0.547992 0.735630
O O6 0.353434 0.158163 0.411264
O O7 0.131133 0.279288 0.417536
O O8 0.198457 0.970428 0.397287
O O9 0.500000 0.000000 0.000000
O O10 0.795636 0.077496 0.130398
O O11 0.500000 0.500000 0.500000
O O12 0.431251 0.882264 0.615333
O O13 0.297123 0.479271 0.285850
O O14 0.104164 0.436668 0.337277
O O15 0.120605 0.861783 0.457321
O O16 0.023931 0.115746 0.920593
O O17 0.974281 0.421471 0.115489
O O18 0.000000 0.000000 0.000000
#
# Coordination Sequence:
#
# PCOD8030999 Si02
#       8
#     2   2   2   2   2   2   2   2
#     4  12  28  49  70 108 148 194 247 296 371 443
#     4  12  25  47  72 109 153 184 247 308 369 426
#     4  12  29  46  76 109 146 199 248 301 355 442
#     4  11  22  41  71 110 143 189 241 301 361 430
#     4  11  25  45  76 103 146 200 240 298 368 438
#     4  12  24  47  73 109 146 189 246 302 361 438
#     4  11  26  46  73 107 148 196 235 313 372 431
#     4  11  22  44  73 106 142 189 247 297 369 438
#
# _framework density 22.275573000000001
#
# number of rings (size 3 to 8) (size 9 to 14) (size 15 to 20)
#    0.000    0.500    6.250    1.875    3.500    5.500 
#    2.250    0.000    0.000    0.000    0.000    0.000 
#    0.000    0.000    0.000    0.000    0.000    0.000 
#
# Total GULP energy -198354.199784 kJ/mol
# GULP energy per Si atom -12397.137486 kJ/mol
# Density = 2.222487 g / cm^3
# Si number density = 22.275573 Si / 1000 Ang^3
#
#
#
# Elastic Constant Matrix: (Units=GPa)
#
#
# Indices 1 2 3 4 5 6 
#
# 1 135.0281 44.0277 55.2859 0.2335 -0.4982 -13.9539
# 2 44.0277 118.5318 35.2241 -12.5153 -1.0501 -8.1864
# 3 55.2859 35.2241 85.1594 -10.5282 1.2365 -10.0118
# 4 0.2335 -12.5153 -10.5282 44.3158 2.0433 3.8348
# 5 -0.4982 -1.0501 1.2365 2.0433 37.2027 0.0249
# 6 -13.9539 -8.1864 -10.0118 3.8348 0.0249 41.1994
#
#
#
# Elastic Compliance Matrix: (Units=1/GPa)
#
#
# Indices 1 2 3 4 5 6 
#
# 1 0.010904 -0.002323 -0.006188 -0.002371 0.000415 0.001948
# 2 -0.002323 0.010293 -0.002414 0.002296 0.000213 0.000458
# 3 -0.006188 -0.002414 0.017348 0.003400 -0.000915 0.001324
# 4 -0.002371 0.002296 0.003400 0.024253 -0.001411 -0.001777
# 5 0.000415 0.000213 -0.000915 -0.001411 0.026999 0.000076
# 6 0.001948 0.000458 0.001324 -0.001777 0.000076 0.025510
#
#
# Mechanical properties :
#
#
# Convention : Reuss Voigt Hill
#
# Bulk Modulus (GPa) = 59.90534 67.53274 63.71904
# Shear Modulus (GPa) = 35.03271 38.15568 36.59419
#
# Velocity S-wave (km/s) = 3.97003 4.14320 4.05754
# Velocity P-wave (km/s) = 6.92575 7.29869 7.11467
#
# Compressibility (1/GPa) = 0.01669300
#
# Stress axis : x y z
#
# Youngs Moduli (GPa) = 91.70871 97.15316 57.64348
#
# Poissons Ratio (x) = 0.22573 0.35670
# Poissons Ratio (y) = 0.21308 0.13918
# Poissons Ratio (z) = 0.56750 0.23457
#
# Static dielectric constant tensor:
#      x y z
#    x 4.249750 0.061650 -0.023520 
#    y 0.061650 4.096080 -0.216690 
#    z -0.023520 -0.216690 4.155230 
# 
# 
# High freq. dielectric constant tensor:
#      x y z
#    x 1.887550 0.002160 0.002370 
#    y 0.002160 1.883380 -0.014630 
#    z 0.002370 -0.014630 1.877740 
# 
# From -- ./inp_files/567058.got.cif
#   From: 2010.06.25/outbox.cif.g09.slc.cpg/sg2_284_cif.got.tgz:567058.got - 2010.06.27 13:26:56.
