data_PCOD8030691
_publ_section_title
;
Structure prediction by ZEFSAII (Michael W. Deem and Ramdas Pophale) SiO2 
 PCOD8030691
Probable space group: P -1
;
_chemical_formula_sum "Si O2"
_cell_formula_units_Z 16
_cell_length_a 11.686688
_cell_length_b 8.707201
_cell_length_c 17.822534
_cell_angle_alpha 147.881113
_cell_angle_beta 122.284103
_cell_angle_gamma 46.556295
_cell_volume 694.594718
_symmetry_space_group_name_H-M "P -1"
_symmetry_group_IT_number 2
_symmetry_cell_setting 'triclinic'
loop_
_space_group_symop_operation_xyz
x,y,z
-x,-y,-z
loop_
_atom_site_type_symbol
_atom_site_label
_atom_site_fract_x
_atom_site_fract_y
_atom_site_fract_z
Si Si1 0.660530 0.405702 0.560483
Si Si2 0.806847 0.666677 0.286093
Si Si3 0.631074 0.666721 0.365470
Si Si4 0.454057 0.330959 0.211856
Si Si5 0.812669 0.296503 0.839083
Si Si6 0.259439 0.250931 0.866159
Si Si7 0.864351 0.648531 0.660632
Si Si8 0.893774 0.178810 0.351934
O O1 0.500000 0.500000 0.500000
O O2 0.632342 0.416436 0.644218
O O3 0.727109 0.648764 0.662263
O O4 0.796349 0.025508 0.429546
O O5 0.668034 0.710382 0.311051
O O6 0.764139 0.577280 0.152698
O O7 0.989098 0.382355 0.252752
O O8 0.575811 0.399025 0.238009
O O9 0.798336 0.506742 0.401009
O O10 0.500000 0.000000 0.500000
O O11 0.325510 0.393999 0.129776
O O12 0.555891 0.947457 0.122657
O O13 0.776390 0.009269 0.735153
O O14 0.847072 0.458630 0.990562
O O15 0.961777 0.125559 0.766427
O O16 0.215411 0.964923 0.720308
O O17 0.943581 0.321376 0.498276
#
# Coordination Sequence:
#
# PCOD8030691 Si02
#       8
#     2   2   2   2   2   2   2   2
#     4  12  23  43  71 105 139 175 227 285 349 402
#     4  12  24  43  69 102 142 173 229 279 355 403
#     4  11  22  39  69 105 136 173 219 294 341 401
#     4  11  24  42  70  99 133 182 235 276 340 406
#     4  12  26  45  68 100 139 181 234 280 338 410
#     4  11  26  46  67  96 143 187 222 277 348 416
#     4  12  26  43  70 108 133 176 229 292 337 400
#     4  11  23  45  67 102 135 178 230 278 344 405
#
# _framework density 23.035015000000001
#
# number of rings (size 3 to 8) (size 9 to 14) (size 15 to 20)
#    0.000    0.500    5.000    3.750    3.500    0.500 
#    0.000    3.750    0.000    0.000    0.000    0.000 
#    0.000    0.000    0.000    0.000    0.000    0.000 
#
# Total GULP energy -198352.352779 kJ/mol
# GULP energy per Si atom -12397.022049 kJ/mol
# Density = 2.298259 g / cm^3
# Si number density = 23.035015 Si / 1000 Ang^3
#
#
#
# Elastic Constant Matrix: (Units=GPa)
#
#
# Indices 1 2 3 4 5 6 
#
# 1 103.9278 51.1945 14.8837 -14.9159 -11.8737 10.6566
# 2 51.1945 140.0556 37.3111 -19.9827 -18.4627 -1.3630
# 3 14.8837 37.3111 89.3728 -21.3946 -18.3034 8.7193
# 4 -14.9159 -19.9827 -21.3946 33.7842 10.3137 -9.1485
# 5 -11.8737 -18.4627 -18.3034 10.3137 25.1989 -0.9380
# 6 10.6566 -1.3630 8.7193 -9.1485 -0.9380 36.7569
#
#
#
# Elastic Compliance Matrix: (Units=1/GPa)
#
#
# Indices 1 2 3 4 5 6 
#
# 1 0.012504 -0.004262 0.001028 0.001912 0.002603 -0.003485
# 2 -0.004262 0.010128 -0.002700 0.002402 0.002576 0.002915
# 3 0.001028 -0.002700 0.015195 0.005645 0.007143 -0.002415
# 4 0.001912 0.002402 0.005645 0.040524 -0.009526 0.008039
# 5 0.002603 0.002576 0.007143 -0.009526 0.051759 -0.003404
# 6 -0.003485 0.002915 -0.002415 0.008039 -0.003404 0.030811
#
#
# Mechanical properties :
#
#
# Convention : Reuss Voigt Hill
#
# Bulk Modulus (GPa) = 38.52486 60.01498 49.26992
# Shear Modulus (GPa) = 27.55703 34.47913 31.01808
#
# Velocity S-wave (km/s) = 3.46252 3.87306 3.67353
# Velocity P-wave (km/s) = 5.72243 6.79052 6.27923
#
# Compressibility (1/GPa) = 0.02595726
#
# Stress axis : x y z
#
# Youngs Moduli (GPa) = 79.97739 98.73615 65.81168
#
# Poissons Ratio (x) = 0.42083 -0.06765
# Poissons Ratio (y) = 0.34088 0.17771
# Poissons Ratio (z) = -0.08221 0.26661
#
# Static dielectric constant tensor:
#      x y z
#    x 4.153880 0.169640 -0.115780 
#    y 0.169640 4.531080 -0.007580 
#    z -0.115780 -0.007580 3.815260 
# 
# 
# High freq. dielectric constant tensor:
#      x y z
#    x 1.906250 0.007930 -0.016880 
#    y 0.007930 1.924700 -0.003810 
#    z -0.016880 -0.003810 1.883790 
# 
# From -- ./inp_files/199622.got.cif
#   From: 2010.06.25/outbox.cif.g09.slc.cpg/sg2_100_cif.got.tgz:199622.got - 2010.06.27 13:26:56.
