data_PCOD8030891
_publ_section_title
;
Structure prediction by ZEFSAII (Michael W. Deem and Ramdas Pophale) SiO2 
 PCOD8030891
Probable space group: P -1
;
_chemical_formula_sum "Si O2"
_cell_formula_units_Z 16
_cell_length_a 14.414998
_cell_length_b 9.212583
_cell_length_c 11.506966
_cell_angle_alpha 76.385313
_cell_angle_beta 149.070847
_cell_angle_gamma 93.742165
_cell_volume 734.230939
_symmetry_space_group_name_H-M "P -1"
_symmetry_group_IT_number 2
_symmetry_cell_setting 'triclinic'
loop_
_space_group_symop_operation_xyz
x,y,z
-x,-y,-z
loop_
_atom_site_type_symbol
_atom_site_label
_atom_site_fract_x
_atom_site_fract_y
_atom_site_fract_z
Si Si1 0.401618 0.164636 0.424329
Si Si2 0.614578 0.368726 0.232273
Si Si3 0.299974 0.784159 0.104831
Si Si4 0.163285 0.075263 0.740180
Si Si5 0.214489 0.945749 0.592551
Si Si6 0.953564 0.906221 0.858740
Si Si7 0.034283 0.379358 0.662229
Si Si8 0.657227 0.560772 0.865001
O O1 0.512895 0.177577 0.657778
O O2 0.186299 0.185355 0.223885
O O3 0.402663 0.313941 0.323291
O O4 0.500000 0.000000 0.500000
O O5 0.606445 0.202774 0.200777
O O6 0.832718 0.363368 0.490583
O O7 0.513887 0.386948 0.241810
O O8 0.500000 0.500000 0.000000
O O9 0.339602 0.610744 0.136363
O O10 0.150466 0.797717 0.046192
O O11 0.234798 0.908283 0.909374
O O12 0.937127 0.116274 0.484976
O O13 0.188892 0.219671 0.817001
O O14 0.251629 0.071482 0.703427
O O15 0.146209 0.999446 0.379398
O O16 0.000000 0.000000 0.000000
O O17 0.000000 0.500000 0.500000
O O18 0.137370 0.442324 0.865372
#
# Coordination Sequence:
#
# PCOD8030891 Si02
#       8
#     2   2   2   2   2   2   2   2
#     4  12  25  45  70  98 134 179 233 276 341 409
#     4  11  22  41  65  96 137 179 221 278 344 399
#     4  11  25  46  70  99 140 176 228 291 335 405
#     4   9  20  41  69  97 134 176 222 277 346 399
#     4   9  20  38  68  97 130 176 223 274 334 406
#     4  11  24  43  71  99 133 181 230 276 343 406
#     4  11  24  41  68  99 140 179 226 280 342 414
#     4  12  27  43  68 101 138 181 228 285 342 403
#
# _framework density 21.791509999999999
#
# number of rings (size 3 to 8) (size 9 to 14) (size 15 to 20)
#    0.000    1.250    2.500    2.625    8.750    1.500 
#    0.000    1.250    0.000    0.000    0.000    0.000 
#    0.000    0.000    0.000    0.000    0.000    0.000 
#
# Total GULP energy -198232.059185 kJ/mol
# GULP energy per Si atom -12389.503699 kJ/mol
# Density = 2.174191 g / cm^3
# Si number density = 21.791510 Si / 1000 Ang^3
#
#
#
# Elastic Constant Matrix: (Units=GPa)
#
#
# Indices 1 2 3 4 5 6 
#
# 1 134.2594 43.0815 38.0467 -1.3783 1.7704 -12.6313
# 2 43.0815 132.3882 43.3415 -10.4068 -1.8880 -22.7341
# 3 38.0467 43.3415 95.8563 5.7044 -1.2178 -8.9556
# 4 -1.3783 -10.4068 5.7044 46.2923 5.8143 -2.6180
# 5 1.7704 -1.8880 -1.2178 5.8143 39.9010 -0.8172
# 6 -12.6313 -22.7341 -8.9556 -2.6180 -0.8172 38.9286
#
#
#
# Elastic Compliance Matrix: (Units=1/GPa)
#
#
# Indices 1 2 3 4 5 6 
#
# 1 0.008900 -0.001806 -0.002627 0.000326 -0.000583 0.001238
# 2 -0.001806 0.010433 -0.003724 0.003010 0.000121 0.004855
# 3 -0.002627 -0.003724 0.013314 -0.002655 0.000731 -0.000128
# 4 0.000326 0.003010 -0.002655 0.023182 -0.003275 0.002743
# 5 -0.000583 0.000121 0.000731 -0.003275 0.025601 0.000367
# 6 0.001238 0.004855 -0.000128 0.002743 0.000367 0.029088
#
#
# Mechanical properties :
#
#
# Convention : Reuss Voigt Hill
#
# Bulk Modulus (GPa) = 61.22957 67.93813 64.58385
# Shear Modulus (GPa) = 37.79997 40.89331 39.34664
#
# Velocity S-wave (km/s) = 4.16939 4.33664 4.25384
# Velocity P-wave (km/s) = 7.16501 7.50462 7.33678
#
# Compressibility (1/GPa) = 0.01633198
#
# Stress axis : x y z
#
# Youngs Moduli (GPa) = 112.36228 95.85411 75.10781
#
# Poissons Ratio (x) = 0.17313 0.19730
# Poissons Ratio (y) = 0.20295 0.27972
# Poissons Ratio (z) = 0.29516 0.35698
#
# Static dielectric constant tensor:
#      x y z
#    x 4.350790 -0.237770 0.160850 
#    y -0.237770 4.085240 0.141770 
#    z 0.160850 0.141770 4.126400 
# 
# 
# High freq. dielectric constant tensor:
#      x y z
#    x 1.864340 -0.010130 -0.000770 
#    y -0.010130 1.856560 -0.000190 
#    z -0.000770 -0.000190 1.862280 
# 
# From -- ./inp_files/447264.got.cif
#   From: 2010.06.25/outbox.cif.g09.slc.cpg/sg2_224_cif.got.tgz:447264.got - 2010.06.27 13:26:56.
