data_PCOD8030783
_publ_section_title
;
Structure prediction by ZEFSAII (Michael W. Deem and Ramdas Pophale) SiO2 
 PCOD8030783
Probable space group: P -1
;
_chemical_formula_sum "Si O2"
_cell_formula_units_Z 16
_cell_length_a 11.652473
_cell_length_b 10.716771
_cell_length_c 12.401602
_cell_angle_alpha 47.341558
_cell_angle_beta 124.124784
_cell_angle_gamma 89.174715
_cell_volume 718.000696
_symmetry_space_group_name_H-M "P -1"
_symmetry_group_IT_number 2
_symmetry_cell_setting 'triclinic'
loop_
_space_group_symop_operation_xyz
x,y,z
-x,-y,-z
loop_
_atom_site_type_symbol
_atom_site_label
_atom_site_fract_x
_atom_site_fract_y
_atom_site_fract_z
Si Si1 0.027677 0.523674 0.878111
Si Si2 0.107036 0.825072 0.756181
Si Si3 0.769495 0.497452 0.363941
Si Si4 0.381743 0.871680 0.948309
Si Si5 0.762909 0.135965 0.511647
Si Si6 0.637081 0.961364 0.383905
Si Si7 0.707413 0.964810 0.784164
Si Si8 0.150320 0.200500 0.825214
O O1 0.149747 0.596357 0.883661
O O2 0.827345 0.712774 0.613232
O O3 0.000000 0.500000 0.000000
O O4 0.132312 0.291361 0.010991
O O5 0.293739 0.768051 0.918808
O O6 0.000000 0.000000 0.500000
O O7 0.977392 0.928615 0.732396
O O8 0.732403 0.362062 0.348395
O O9 0.826660 0.614581 0.252570
O O10 0.935206 0.326679 0.633288
O O11 0.578474 0.682136 0.218594
O O12 0.431720 0.944927 0.827357
O O13 0.246308 0.075940 0.836429
O O14 0.656510 0.116979 0.374104
O O15 0.704425 0.125538 0.607247
O O16 0.492509 0.958240 0.370877
O O17 0.757912 0.979874 0.924217
#
# Coordination Sequence:
#
# PCOD8030783 Si02
#       8
#     2   2   2   2   2   2   2   2
#     4  11  24  42  66 101 138 181 211 269 350 399
#     4  11  22  40  68 100 139 168 218 284 329 400
#     4  11  26  43  70  97 131 184 227 283 327 390
#     4  12  24  44  71 101 134 177 231 281 330 393
#     4  11  24  46  65 104 139 167 225 281 341 400
#     4  11  25  41  72 103 136 173 224 281 332 413
#     4  12  26  45  71  98 141 183 217 277 339 406
#     4  11  27  45  69  96 138 179 236 273 325 407
#
# _framework density 22.284103999999999
#
# number of rings (size 3 to 8) (size 9 to 14) (size 15 to 20)
#    0.000    0.750    7.500    0.750    7.000    1.000 
#    0.000    0.625    0.000    0.000    0.000    0.000 
#    0.000    0.000    0.000    0.000    0.000    0.000 
#
# Total GULP energy -198368.719136 kJ/mol
# GULP energy per Si atom -12398.044946 kJ/mol
# Density = 2.223338 g / cm^3
# Si number density = 22.284104 Si / 1000 Ang^3
#
#
#
# Elastic Constant Matrix: (Units=GPa)
#
#
# Indices 1 2 3 4 5 6 
#
# 1 114.3844 32.3427 38.2513 9.2638 11.6566 -0.8078
# 2 32.3427 69.4327 39.0710 3.0666 -2.6000 2.3809
# 3 38.2513 39.0710 81.2469 2.0485 21.6853 2.5507
# 4 9.2638 3.0666 2.0485 28.7834 -4.1350 -4.5810
# 5 11.6566 -2.6000 21.6853 -4.1350 47.9573 5.2174
# 6 -0.8078 2.3809 2.5507 -4.5810 5.2174 30.6652
#
#
#
# Elastic Compliance Matrix: (Units=1/GPa)
#
#
# Indices 1 2 3 4 5 6 
#
# 1 0.011191 -0.003448 -0.003051 -0.003181 -0.001874 0.000660
# 2 -0.003448 0.022630 -0.011163 0.000210 0.007364 -0.002141
# 3 -0.003051 -0.011163 0.021731 -0.000698 -0.009809 0.000543
# 4 -0.003181 0.000210 -0.000698 0.037109 0.003771 0.004860
# 5 -0.001874 0.007364 -0.009809 0.003771 0.026882 -0.003816
# 6 0.000660 -0.002141 0.000543 0.004860 -0.003816 0.034124
#
#
# Mechanical properties :
#
#
# Convention : Reuss Voigt Hill
#
# Bulk Modulus (GPa) = 49.43509 53.82156 51.62832
# Shear Modulus (GPa) = 25.54492 31.84111 28.69302
#
# Velocity S-wave (km/s) = 3.38942 3.78414 3.59221
# Velocity P-wave (km/s) = 6.12778 6.58011 6.35797
#
# Compressibility (1/GPa) = 0.02022855
#
# Stress axis : x y z
#
# Youngs Moduli (GPa) = 89.35758 44.18911 46.01670
#
# Poissons Ratio (x) = 0.15238 0.14039
# Poissons Ratio (y) = 0.30814 0.51366
# Poissons Ratio (z) = 0.27262 0.49326
#
# Static dielectric constant tensor:
#      x y z
#    x 4.228300 0.348300 -0.187250 
#    y 0.348300 3.240530 0.679090 
#    z -0.187250 0.679090 3.637720 
# 
# 
# High freq. dielectric constant tensor:
#      x y z
#    x 1.886940 0.003200 0.015420 
#    y 0.003200 1.864590 -0.000370 
#    z 0.015420 -0.000370 1.869670 
# 
# From -- ./inp_files/345887.got.cif
#   From: 2010.06.25/outbox.cif.g09.slc.cpg/sg2_173_cif.got.tgz:345887.got - 2010.06.27 13:26:56.
