data_PCOD8030748
_publ_section_title
;
Structure prediction by ZEFSAII (Michael W. Deem and Ramdas Pophale) SiO2 
 PCOD8030748
Probable space group: P -1
;
_chemical_formula_sum "Si O2"
_cell_formula_units_Z 16
_cell_length_a 11.381816
_cell_length_b 11.299254
_cell_length_c 12.458609
_cell_angle_alpha 112.520663
_cell_angle_beta 38.395184
_cell_angle_gamma 85.894742
_cell_volume 700.123352
_symmetry_space_group_name_H-M "P -1"
_symmetry_group_IT_number 2
_symmetry_cell_setting 'triclinic'
loop_
_space_group_symop_operation_xyz
x,y,z
-x,-y,-z
loop_
_atom_site_type_symbol
_atom_site_label
_atom_site_fract_x
_atom_site_fract_y
_atom_site_fract_z
Si Si1 0.958325 0.866909 0.641438
Si Si2 0.927846 0.829184 0.405885
Si Si3 0.795310 0.668992 0.763902
Si Si4 0.372256 0.755202 0.962649
Si Si5 0.670829 0.677570 0.514575
Si Si6 0.654630 0.135191 0.554752
Si Si7 0.773234 0.012993 0.194659
Si Si8 0.870473 0.678613 0.957215
O O1 0.982447 0.865073 0.495783
O O2 0.227872 0.775255 0.472625
O O3 0.813821 0.805811 0.759624
O O4 0.803104 0.048862 0.868668
O O5 0.835147 0.725535 0.453296
O O6 0.187414 0.718310 0.112780
O O7 0.715749 0.009856 0.565074
O O8 0.533803 0.720029 0.939067
O O9 0.840111 0.640506 0.846329
O O10 0.000000 0.500000 0.500000
O O11 0.540335 0.661417 0.703119
O O12 0.474559 0.816711 0.618471
O O13 0.858790 0.492812 0.258201
O O14 0.751907 0.019805 0.339975
O O15 0.359290 0.283999 0.801688
O O16 0.843564 0.842628 0.041339
O O17 0.000000 0.000000 0.000000
#
# Coordination Sequence:
#
# PCOD8030748 Si02
#       8
#     2   2   2   2   2   2   2   2
#     4  11  22  40  72 101 136 192 228 287 360 409
#     4  11  22  43  71 106 142 180 234 292 352 418
#     4  12  22  39  64 101 149 178 227 287 347 422
#     4  11  22  40  66 102 143 181 233 284 345 424
#     4  12  26  46  72 106 140 184 233 289 354 417
#     4  11  24  45  70 102 138 184 241 287 346 419
#     4  12  27  51  73  99 139 187 240 293 344 419
#     4  12  25  45  71 104 142 183 234 294 348 415
#
# _framework density 22.853116
#
# number of rings (size 3 to 8) (size 9 to 14) (size 15 to 20)
#    0.000    0.500    3.750    6.750    0.000    2.000 
#    2.250    2.500    0.000    0.000    0.000    0.000 
#    0.000    0.000    0.000    0.000    0.000    0.000 
#
# Total GULP energy -198340.519580 kJ/mol
# GULP energy per Si atom -12396.282474 kJ/mol
# Density = 2.280110 g / cm^3
# Si number density = 22.853116 Si / 1000 Ang^3
#
#
#
# Elastic Constant Matrix: (Units=GPa)
#
#
# Indices 1 2 3 4 5 6 
#
# 1 93.2546 13.9939 32.5555 11.5475 -9.3500 2.4977
# 2 13.9939 38.9548 26.6904 8.3857 -11.4038 -6.5330
# 3 32.5555 26.6904 138.9620 5.7836 -17.0462 10.6952
# 4 11.5475 8.3857 5.7836 37.0886 -1.0850 -6.7890
# 5 -9.3500 -11.4038 -17.0462 -1.0850 42.8620 -7.4480
# 6 2.4977 -6.5330 10.6952 -6.7890 -7.4480 19.3196
#
#
#
# Elastic Compliance Matrix: (Units=1/GPa)
#
#
# Indices 1 2 3 4 5 6 
#
# 1 0.012349 -0.002481 -0.002014 -0.003351 0.000765 -0.002203
# 2 -0.002481 0.038319 -0.006943 -0.002827 0.010315 0.020105
# 3 -0.002014 -0.006943 0.009640 -0.000689 0.000212 -0.007584
# 4 -0.003351 -0.002827 -0.000689 0.030802 0.000942 0.011045
# 5 0.000765 0.010315 0.000212 0.000942 0.028913 0.014749
# 6 -0.002203 0.020105 -0.007584 0.011045 0.014749 0.072610
#
#
# Mechanical properties :
#
#
# Convention : Reuss Voigt Hill
#
# Bulk Modulus (GPa) = 26.71434 46.40567 36.56000
# Shear Modulus (GPa) = 21.93115 33.04949 27.49032
#
# Velocity S-wave (km/s) = 3.10119 3.80698 3.47207
# Velocity P-wave (km/s) = 4.95360 6.29875 5.66623
#
# Compressibility (1/GPa) = 0.03743308
#
# Stress axis : x y z
#
# Youngs Moduli (GPa) = 80.97646 26.09668 103.73478
#
# Poissons Ratio (x) = 0.06473 0.20890
# Poissons Ratio (y) = 0.20086 0.72026
# Poissons Ratio (z) = 0.16307 0.18120
#
# Static dielectric constant tensor:
#      x y z
#    x 4.042360 -0.030080 -0.157750 
#    y -0.030080 3.757140 0.055090 
#    z -0.157750 0.055090 4.497830 
# 
# 
# High freq. dielectric constant tensor:
#      x y z
#    x 1.908200 0.002010 -0.010950 
#    y 0.002010 1.885640 -0.012100 
#    z -0.010950 -0.012100 1.915940 
# 
# From -- ./inp_files/428522.got.cif
#   From: 2010.06.25/outbox.cif.g09.slc.cpg/sg2_215_cif.got.tgz:428522.got - 2010.06.27 13:26:56.
