data_PCOD8030137
_publ_section_title
;
Structure prediction by ZEFSAII (Michael W. Deem and Ramdas Pophale) SiO2 
 PCOD8030137
Probable space group: P -1
;
_chemical_formula_sum "Si O2"
_cell_formula_units_Z 16
_cell_length_a 13.764703
_cell_length_b 7.887572
_cell_length_c 11.898025
_cell_angle_alpha 100.159805
_cell_angle_beta 57.549590
_cell_angle_gamma 136.786627
_cell_volume 692.966955
_symmetry_space_group_name_H-M "P -1"
_symmetry_group_IT_number 2
_symmetry_cell_setting 'triclinic'
loop_
_space_group_symop_operation_xyz
x,y,z
-x,-y,-z
loop_
_atom_site_type_symbol
_atom_site_label
_atom_site_fract_x
_atom_site_fract_y
_atom_site_fract_z
Si Si1 0.970754 0.445536 0.180442
Si Si2 0.828813 0.423807 0.617831
Si Si3 0.510212 0.916805 0.868001
Si Si4 0.058217 0.223097 0.215559
Si Si5 0.677698 0.643593 0.093114
Si Si6 0.316204 0.701433 0.541824
Si Si7 0.311590 0.355668 0.645372
Si Si8 0.270062 0.919400 0.913445
O O1 0.860720 0.384987 0.347669
O O2 0.815956 0.199212 0.167763
O O3 0.094772 0.430257 0.138863
O O4 0.103419 0.740325 0.082386
O O5 0.865479 0.640290 0.692831
O O6 0.705506 0.358895 0.584442
O O7 0.000000 0.500000 0.500000
O O8 0.710182 0.150630 0.726909
O O9 0.467137 0.665868 0.884787
O O10 0.386278 0.881271 0.854532
O O11 0.500000 0.000000 0.000000
O O12 0.154671 0.185649 0.077121
O O13 0.848885 0.948448 0.331901
O O14 0.709815 0.654129 0.207725
O O15 0.617145 0.772294 0.121247
O O16 0.285597 0.508093 0.620787
O O17 0.500000 0.000000 0.500000
O O18 0.500000 0.500000 0.500000
#
# Coordination Sequence:
#
# PCOD8030137 Si02
#       8
#     2   2   2   2   2   2   2   2
#     4  11  21  42  71 110 145 184 250 305 375 444
#     4  12  27  48  76 106 153 202 242 307 389 445
#     4  12  26  50  71 106 149 195 255 308 373 445
#     4  12  24  48  70 107 149 192 243 313 373 445
#     4  12  25  46  76 108 146 194 255 312 367 448
#     4  12  26  46  74 105 146 203 248 302 380 450
#     4  12  28  45  71 112 147 192 251 315 372 443
#     4  11  24  41  76 106 141 194 246 315 369 441
#
# _framework density 23.089124999999999
#
# number of rings (size 3 to 8) (size 9 to 14) (size 15 to 20)
#    0.000    0.250    5.000    4.125    5.250    1.000 
#    0.000    0.000    0.000    0.000    0.000    0.000 
#    0.000    0.000    0.000    0.000    0.000    0.000 
#
# Total GULP energy -198215.870569 kJ/mol
# GULP energy per Si atom -12388.491911 kJ/mol
# Density = 2.303657 g / cm^3
# Si number density = 23.089125 Si / 1000 Ang^3
#
#
#
# Elastic Constant Matrix: (Units=GPa)
#
#
# Indices 1 2 3 4 5 6 
#
# 1 71.4378 31.0901 15.9257 2.5238 11.1352 -5.3598
# 2 31.0901 155.7081 49.8225 -11.7843 14.4491 -5.7655
# 3 15.9257 49.8225 125.0324 -5.2399 -2.6365 9.8171
# 4 2.5238 -11.7843 -5.2399 39.2005 9.8271 10.9700
# 5 11.1352 14.4491 -2.6365 9.8271 36.8695 0.0210
# 6 -5.3598 -5.7655 9.8171 10.9700 0.0210 46.9222
#
#
#
# Elastic Compliance Matrix: (Units=1/GPa)
#
#
# Indices 1 2 3 4 5 6 
#
# 1 0.016178 -0.002505 -0.001384 -0.001715 -0.003547 0.002232
# 2 -0.002505 0.008491 -0.003069 0.003009 -0.003593 0.000697
# 3 -0.001384 -0.003069 0.009685 0.000689 0.002131 -0.002724
# 4 -0.001715 0.003009 0.000689 0.030838 -0.008827 -0.007176
# 5 -0.003547 -0.003593 0.002131 -0.008827 0.032107 0.000757
# 6 0.002232 0.000697 -0.002724 -0.007176 0.000757 0.023900
#
#
# Mechanical properties :
#
#
# Convention : Reuss Voigt Hill
#
# Bulk Modulus (GPa) = 48.93015 60.65056 54.79035
# Shear Modulus (GPa) = 35.22891 41.62112 38.42501
#
# Velocity S-wave (km/s) = 3.91036 4.25034 4.08389
# Velocity P-wave (km/s) = 6.45180 7.10016 6.78373
#
# Compressibility (1/GPa) = 0.02043730
#
# Stress axis : x y z
#
# Youngs Moduli (GPa) = 61.81186 117.76486 103.25442
#
# Poissons Ratio (x) = 0.29504 0.14294
# Poissons Ratio (y) = 0.15486 0.31688
# Poissons Ratio (z) = 0.08557 0.36142
#
# Static dielectric constant tensor:
#      x y z
#    x 4.026630 -0.327800 0.158870 
#    y -0.327800 4.730780 0.016510 
#    z 0.158870 0.016510 4.537500 
# 
# 
# High freq. dielectric constant tensor:
#      x y z
#    x 1.901840 0.002610 0.006840 
#    y 0.002610 1.916920 -0.006540 
#    z 0.006840 -0.006540 1.934420 
# 
# From -- ./inp_files/446072.got.cif
#   From: 2010.06.25/outbox.cif.g09.slc.cpg/sg2_224_cif.got.tgz:446072.got - 2010.06.27 13:26:56.
