data_PCOD8030047
_publ_section_title
;
Structure prediction by ZEFSAII (Michael W. Deem and Ramdas Pophale) SiO2 
 PCOD8030047
Probable space group: P -1
;
_chemical_formula_sum "Si O2"
_cell_formula_units_Z 16
_cell_length_a 22.426467
_cell_length_b 7.267138
_cell_length_c 8.539563
_cell_angle_alpha 118.741795
_cell_angle_beta 134.226980
_cell_angle_gamma 49.072127
_cell_volume 752.759178
_symmetry_space_group_name_H-M "P -1"
_symmetry_group_IT_number 2
_symmetry_cell_setting 'triclinic'
loop_
_space_group_symop_operation_xyz
x,y,z
-x,-y,-z
loop_
_atom_site_type_symbol
_atom_site_label
_atom_site_fract_x
_atom_site_fract_y
_atom_site_fract_z
Si Si1 0.942602 0.537477 0.571318
Si Si2 0.397194 0.709084 0.579462
Si Si3 0.273469 0.569291 0.462802
Si Si4 0.608400 0.446839 0.819975
Si Si5 0.900976 0.014176 0.848886
Si Si6 0.884253 0.865171 0.093369
Si Si7 0.793970 0.363276 0.281094
Si Si8 0.309632 0.073201 0.313783
O O1 0.858996 0.469690 0.376887
O O2 0.000000 0.500000 0.500000
O O3 0.017743 0.374476 0.776547
O O4 0.892115 0.816358 0.647178
O O5 0.346855 0.673428 0.626357
O O6 0.506658 0.639946 0.793924
O O7 0.401605 0.521609 0.374788
O O8 0.333841 0.983729 0.504903
O O9 0.186633 0.719117 0.244511
O O10 0.230011 0.584870 0.559887
O O11 0.335159 0.281907 0.411716
O O12 0.633976 0.167575 0.791586
O O13 0.693252 0.490224 0.052098
O O14 0.898256 0.984714 0.015324
O O15 0.000000 0.000000 0.000000
O O16 0.850945 0.070359 0.250527
O O17 0.804485 0.793674 0.876949
#
# Coordination Sequence:
#
# PCOD8030047 Si02
#       8
#     2   2   2   2   2   2   2   2
#     4  12  25  40  62  93 131 161 205 261 316 366
#     4   9  19  41  67  86 124 162 219 255 306 363
#     4  12  22  36  64  91 128 163 201 262 316 363
#     4   8  19  42  64  87 125 162 209 265 299 373
#     4  12  23  39  62  89 120 169 212 250 304 370
#     4  11  21  42  60  86 123 163 211 251 299 380
#     4  11  23  38  60  92 128 163 202 258 320 368
#     4   9  19  38  64  89 120 158 213 253 302 366
#
# _framework density 21.255137999999999
#
# number of rings (size 3 to 8) (size 9 to 14) (size 15 to 20)
#    0.750    0.750    1.250    4.500    0.000    2.000 
#    0.000    0.625    0.000    0.000    0.000    0.000 
#    0.000    0.000    0.000    0.000    0.000    0.000 
#
# Total GULP energy -198298.005625 kJ/mol
# GULP energy per Si atom -12393.625352 kJ/mol
# Density = 2.120676 g / cm^3
# Si number density = 21.255138 Si / 1000 Ang^3
#
#
#
# Elastic Constant Matrix: (Units=GPa)
#
#
# Indices 1 2 3 4 5 6 
#
# 1 99.6733 29.2946 34.4250 -12.8372 13.3929 11.9013
# 2 29.2946 110.1102 39.7063 -0.5636 11.2794 8.7360
# 3 34.4250 39.7063 86.5788 -18.9719 19.4970 3.1895
# 4 -12.8372 -0.5636 -18.9719 21.6946 -3.5881 -0.5570
# 5 13.3929 11.2794 19.4970 -3.5881 39.2666 -3.1292
# 6 11.9013 8.7360 3.1895 -0.5570 -3.1292 26.6994
#
#
#
# Elastic Compliance Matrix: (Units=1/GPa)
#
#
# Indices 1 2 3 4 5 6 
#
# 1 0.013036 -0.001883 -0.002451 0.004953 -0.002643 -0.005108
# 2 -0.001883 0.011914 -0.005798 -0.006050 -0.000659 -0.002570
# 3 -0.002451 -0.005798 0.019726 0.014675 -0.005933 0.000244
# 4 0.004953 -0.006050 0.014675 0.061397 -0.001699 -0.000900
# 5 -0.002643 -0.000659 -0.005933 -0.001699 0.029791 0.005558
# 6 -0.005108 -0.002570 0.000244 -0.000900 0.005558 0.041175
#
#
# Mechanical properties :
#
#
# Convention : Reuss Voigt Hill
#
# Bulk Modulus (GPa) = 40.96267 55.91266 48.43767
# Shear Modulus (GPa) = 24.33796 30.39455 27.36626
#
# Velocity S-wave (km/s) = 3.38751 3.78562 3.59209
# Velocity P-wave (km/s) = 5.88337 6.74318 6.32790
#
# Compressibility (1/GPa) = 0.02441247
#
# Stress axis : x y z
#
# Youngs Moduli (GPa) = 76.71284 83.93557 50.69336
#
# Poissons Ratio (x) = 0.15804 0.12425
# Poissons Ratio (y) = 0.14444 0.29391
# Poissons Ratio (z) = 0.18802 0.48665
#
# Static dielectric constant tensor:
#      x y z
#    x 4.184330 -0.253700 0.020260 
#    y -0.253700 3.918470 -0.055840 
#    z 0.020260 -0.055840 3.734550 
# 
# 
# High freq. dielectric constant tensor:
#      x y z
#    x 1.826320 -0.003320 0.013340 
#    y -0.003320 1.828800 -0.010540 
#    z 0.013340 -0.010540 1.821730 
# 
# From -- ./inp_files/340567.got.cif
#   From: 2010.06.25/outbox.cif.g09.slc.cpg/sg2_171_cif.got.tgz:340567.got - 2010.06.27 13:26:56.
