data_PCOD8030701
_publ_section_title
;
Structure prediction by ZEFSAII (Michael W. Deem and Ramdas Pophale) SiO2 
 PCOD8030701
Probable space group: P -1
;
_chemical_formula_sum "Si O2"
_cell_formula_units_Z 14
_cell_length_a 9.918499
_cell_length_b 9.658250
_cell_length_c 11.704909
_cell_angle_alpha 79.272393
_cell_angle_beta 127.400565
_cell_angle_gamma 65.673052
_cell_volume 647.620671
_symmetry_space_group_name_H-M "P -1"
_symmetry_group_IT_number 2
_symmetry_cell_setting 'triclinic'
loop_
_space_group_symop_operation_xyz
x,y,z
-x,-y,-z
loop_
_atom_site_type_symbol
_atom_site_label
_atom_site_fract_x
_atom_site_fract_y
_atom_site_fract_z
Si Si1 0.992241 0.039806 0.622900
Si Si2 0.526624 0.154923 0.852983
Si Si3 0.441095 0.552491 0.135859
Si Si4 0.848853 0.342699 0.228031
Si Si5 0.833241 0.797110 0.197600
Si Si6 0.504475 0.381074 0.422245
Si Si7 0.768761 0.637663 0.556715
O O1 0.754132 0.204695 0.534711
O O2 0.160010 0.077901 0.727371
O O3 0.000000 0.000000 0.500000
O O4 0.073389 0.850756 0.751603
O O5 0.642939 0.238902 0.930236
O O6 0.331658 0.232605 0.835264
O O7 0.406652 0.230325 0.656171
O O8 0.725679 0.922699 0.004430
O O9 0.717969 0.405315 0.274050
O O10 0.373617 0.515562 0.224566
O O11 0.331762 0.514550 0.986261
O O12 0.064191 0.324808 0.347452
O O13 0.084385 0.588488 0.347366
O O14 0.500000 0.500000 0.500000
O O15 0.382323 0.306613 0.416354
#
# Coordination Sequence:
#
# PCOD8030701 Si02
#       7
#     2   2   2   2   2   2   2
#     4  12  23  43  69 103 138 184 236 290 348 415
#     4  11  22  39  71 107 135 179 248 284 335 428
#     4  11  22  44  69 103 137 185 236 288 344 425
#     4  11  25  43  71  99 142 182 232 295 355 399
#     4  11  23  41  71 107 136 187 240 287 343 418
#     4  12  25  43  72 103 142 187 233 283 361 426
#     4  12  25  46  69 103 147 183 227 297 358 407
#
# _framework density 21.617594
#
# number of rings (size 3 to 8) (size 9 to 14) (size 15 to 20)
#    0.000    0.571    7.143    1.286    0.000    1.143 
#    5.143    2.143    0.000    0.000    0.000    0.000 
#    0.000    0.000    0.000    0.000    0.000    0.000 
#
# Total GULP energy -173491.645909 kJ/mol
# GULP energy per Si atom -12392.260422 kJ/mol
# Density = 2.156839 g / cm^3
# Si number density = 21.617594 Si / 1000 Ang^3
#
#
#
# Elastic Constant Matrix: (Units=GPa)
#
#
# Indices 1 2 3 4 5 6 
#
# 1 123.6082 24.8576 57.2266 17.8297 -21.9124 -1.0974
# 2 24.8576 75.2470 41.4316 8.3427 -7.0800 3.1232
# 3 57.2266 41.4316 125.0295 8.5420 -20.0023 1.5166
# 4 17.8297 8.3427 8.5420 40.2265 6.0923 4.9672
# 5 -21.9124 -7.0800 -20.0023 6.0923 33.4819 2.0097
# 6 -1.0974 3.1232 1.5166 4.9672 2.0097 37.3791
#
#
#
# Elastic Compliance Matrix: (Units=1/GPa)
#
#
# Indices 1 2 3 4 5 6 
#
# 1 0.011912 -0.000653 -0.003877 -0.005386 0.006266 0.000940
# 2 -0.000653 0.016547 -0.004944 -0.002058 0.000550 -0.000957
# 3 -0.003877 -0.004944 0.012026 -0.000325 0.003682 -0.000343
# 4 -0.005386 -0.002058 -0.000325 0.029576 -0.009332 -0.003402
# 5 0.006266 0.000550 0.003682 -0.009332 0.038030 -0.000816
# 6 0.000940 -0.000957 -0.000343 -0.003402 -0.000816 0.027370
#
#
# Mechanical properties :
#
#
# Convention : Reuss Voigt Hill
#
# Bulk Modulus (GPa) = 46.43058 63.43512 54.93285
# Shear Modulus (GPa) = 30.94257 35.57543 33.25900
#
# Velocity S-wave (km/s) = 3.78744 4.06109 3.92665
# Velocity P-wave (km/s) = 6.37581 7.16923 6.78413
#
# Compressibility (1/GPa) = 0.02153753
#
# Stress axis : x y z
#
# Youngs Moduli (GPa) = 83.94681 60.43306 83.15004
#
# Poissons Ratio (x) = 0.03945 0.32238
# Poissons Ratio (y) = 0.05480 0.41113
# Poissons Ratio (z) = 0.32547 0.29880
#
# Static dielectric constant tensor:
#      x y z
#    x 4.047740 0.204020 -0.148250 
#    y 0.204020 3.356610 -0.430300 
#    z -0.148250 -0.430300 4.128730 
# 
# 
# High freq. dielectric constant tensor:
#      x y z
#    x 1.840770 0.019100 -0.005070 
#    y 0.019100 1.838620 -0.005680 
#    z -0.005070 -0.005680 1.862870 
# 
# From -- ./inp_files/196253.got.cif
#   From: 2010.06.25/outbox.cif.g09.slc.cpg/sg2_99_cif.got.tgz:196253.got - 2010.06.27 13:26:56.
