data_PCOD8030048
_publ_section_title
;
Structure prediction by ZEFSAII (Michael W. Deem and Ramdas Pophale) SiO2 
 PCOD8030048
Probable space group: P -1
;
_chemical_formula_sum "Si O2"
_cell_formula_units_Z 14
_cell_length_a 8.003534
_cell_length_b 18.950449
_cell_length_c 9.456461
_cell_angle_alpha 119.751616
_cell_angle_beta 148.412005
_cell_angle_gamma 64.017777
_cell_volume 651.876610
_symmetry_space_group_name_H-M "P -1"
_symmetry_group_IT_number 2
_symmetry_cell_setting 'triclinic'
loop_
_space_group_symop_operation_xyz
x,y,z
-x,-y,-z
loop_
_atom_site_type_symbol
_atom_site_label
_atom_site_fract_x
_atom_site_fract_y
_atom_site_fract_z
Si Si1 0.999266 0.244473 0.807351
Si Si2 0.125420 0.571061 0.064832
Si Si3 0.264954 0.057383 0.301978
Si Si4 0.118015 0.433109 0.411361
Si Si5 0.330984 0.182481 0.259842
Si Si6 0.123388 0.210724 0.546036
Si Si7 0.800425 0.272801 0.126062
O O1 0.054470 0.341654 0.942462
O O2 0.627014 0.237015 0.569952
O O3 0.049278 0.201617 0.649029
O O4 0.235709 0.195346 0.038598
O O5 0.504273 0.579625 0.345601
O O6 0.000000 0.500000 0.000000
O O7 0.019707 0.537773 0.806494
O O8 0.418233 0.093401 0.301492
O O9 0.150649 0.123898 0.403567
O O10 0.500000 0.000000 0.500000
O O11 0.000000 0.000000 0.000000
O O12 0.000000 0.500000 0.500000
O O13 0.940970 0.352955 0.245148
O O14 0.013983 0.201007 0.140208
O O15 0.841072 0.264823 0.318326
O O16 0.439283 0.263157 0.808490
#
# Coordination Sequence:
#
# PCOD8030048 Si02
#       7
#     2   2   2   2   2   2   2
#     4  12  23  43  64  98 133 172 221 267 323 394
#     4  12  26  44  64  95 138 178 217 278 337 373
#     4  11  23  44  69  99 131 167 213 268 328 397
#     4  12  26  42  65  94 131 171 232 273 327 381
#     4  11  22  42  69  92 128 176 213 262 326 391
#     4  11  25  39  69  96 130 168 221 264 326 385
#     4  11  21  42  63  92 124 177 224 266 311 389
#
# _framework density 21.476455999999999
#
# number of rings (size 3 to 8) (size 9 to 14) (size 15 to 20)
#    0.000    0.571    2.857    6.857    4.000    0.000 
#    0.000    4.286    0.000    0.000    0.000    0.000 
#    0.000    0.000    0.000    0.000    0.000    0.000 
#
# Total GULP energy -173457.136654 kJ/mol
# GULP energy per Si atom -12389.795475 kJ/mol
# Density = 2.142757 g / cm^3
# Si number density = 21.476456 Si / 1000 Ang^3
#
#
#
# Elastic Constant Matrix: (Units=GPa)
#
#
# Indices 1 2 3 4 5 6 
#
# 1 83.4628 58.3893 38.1881 6.7752 -26.7325 11.4722
# 2 58.3893 138.0768 66.7848 -5.6566 -16.0439 31.8733
# 3 38.1881 66.7848 149.2546 -0.0152 -12.6935 10.8620
# 4 6.7752 -5.6566 -0.0152 37.6590 11.9021 -2.9870
# 5 -26.7325 -16.0439 -12.6935 11.9021 46.4169 -6.6224
# 6 11.4722 31.8733 10.8620 -2.9870 -6.6224 39.4059
#
#
#
# Elastic Compliance Matrix: (Units=1/GPa)
#
#
# Indices 1 2 3 4 5 6 
#
# 1 0.023009 -0.008542 -0.001132 -0.009264 0.012642 0.001945
# 2 -0.008542 0.014499 -0.003967 0.004070 -0.003232 -0.008382
# 3 -0.001132 -0.003967 0.008734 -0.000504 0.000666 0.001204
# 4 -0.009264 0.004070 -0.000504 0.032771 -0.012479 -0.000069
# 5 0.012642 -0.003232 0.000666 -0.012479 0.031533 0.003103
# 6 0.001945 -0.008382 0.001204 -0.000069 0.003103 0.031775
#
#
# Mechanical properties :
#
#
# Convention : Reuss Voigt Hill
#
# Bulk Modulus (GPa) = 52.74193 77.50206 65.12200
# Shear Modulus (GPa) = 28.42173 38.52514 33.47344
#
# Velocity S-wave (km/s) = 3.64179 4.23996 3.95221
# Velocity P-wave (km/s) = 6.50345 7.75468 7.15646
#
# Compressibility (1/GPa) = 0.01896025
#
# Stress axis : x y z
#
# Youngs Moduli (GPa) = 43.46082 68.96952 114.50133
#
# Poissons Ratio (x) = 0.58913 0.12965
# Poissons Ratio (y) = 0.37124 0.45419
# Poissons Ratio (z) = 0.04921 0.27358
#
# Static dielectric constant tensor:
#      x y z
#    x 3.864040 0.328290 -0.129960 
#    y 0.328290 4.035740 -0.324600 
#    z -0.129960 -0.324600 4.287260 
# 
# 
# High freq. dielectric constant tensor:
#      x y z
#    x 1.834700 0.023290 -0.003380 
#    y 0.023290 1.845260 -0.012800 
#    z -0.003380 -0.012800 1.869580 
# 
# From -- ./inp_files/216896.got.cif
#   From: 2010.06.25/outbox.cif.g09.slc.cpg/sg2_109_cif.got.tgz:216896.got - 2010.06.27 13:26:56.
