data_PCOD8030273
_publ_section_title
;
Structure prediction by ZEFSAII (Michael W. Deem and Ramdas Pophale) SiO2 
 PCOD8030273
Probable space group: P -1
;
_chemical_formula_sum "Si O2"
_cell_formula_units_Z 16
_cell_length_a 6.576445
_cell_length_b 9.180804
_cell_length_c 28.887838
_cell_angle_alpha 36.549002
_cell_angle_beta 46.806162
_cell_angle_gamma 46.849858
_cell_volume 720.234821
_symmetry_space_group_name_H-M "P -1"
_symmetry_group_IT_number 2
_symmetry_cell_setting 'triclinic'
loop_
_space_group_symop_operation_xyz
x,y,z
-x,-y,-z
loop_
_atom_site_type_symbol
_atom_site_label
_atom_site_fract_x
_atom_site_fract_y
_atom_site_fract_z
Si Si1 0.821423 0.452432 0.407345
Si Si2 0.289278 0.550334 0.922024
Si Si3 0.605773 0.415405 0.716544
Si Si4 0.844790 0.317702 0.544566
Si Si5 0.713122 0.164891 0.413607
Si Si6 0.398825 0.160604 0.141875
Si Si7 0.339133 0.934537 0.971533
Si Si8 0.756840 0.490489 0.161531
O O1 0.871775 0.341345 0.479260
O O2 0.492111 0.635858 0.402291
O O3 0.860625 0.227047 0.421603
O O4 0.055788 0.604062 0.323539
O O5 0.346196 0.783150 0.882109
O O6 0.270494 0.650841 0.846192
O O7 0.550810 0.277679 0.951660
O O8 0.000000 0.500000 0.000000
O O9 0.458192 0.586738 0.652120
O O10 0.430815 0.551447 0.754848
O O11 0.592873 0.133452 0.778324
O O12 0.000000 0.500000 0.500000
O O13 0.015283 0.026234 0.608299
O O14 0.500000 0.000000 0.500000
O O15 0.465913 0.203007 0.067452
O O16 0.099848 0.373523 0.150980
O O17 0.374291 0.208724 0.907513
O O18 0.000000 0.000000 0.000000
#
# Coordination Sequence:
#
# PCOD8030273 Si02
#       8
#     2   2   2   2   2   2   2   2
#     4  11  24  44  72 102 136 180 233 292 350 426
#     4  12  23  43  80 102 133 186 239 285 339 416
#     4  11  28  46  68  98 148 186 230 291 357 420
#     4  11  23  42  75 109 133 171 239 298 350 406
#     4  12  24  46  74 101 134 184 239 290 346 415
#     4  11  25  46  65 102 148 179 226 291 354 412
#     4  11  21  43  74 102 133 178 232 288 337 407
#     4  11  25  44  67 103 142 183 227 287 356 415
#
# _framework density 22.214976
#
# number of rings (size 3 to 8) (size 9 to 14) (size 15 to 20)
#    0.000    0.750    5.000    1.875    0.000    5.000 
#    0.000    0.000    0.000    0.000    0.000    0.000 
#    0.000    0.000    0.000    0.000    0.000    0.000 
#
# Total GULP energy -198306.253536 kJ/mol
# GULP energy per Si atom -12394.140846 kJ/mol
# Density = 2.216441 g / cm^3
# Si number density = 22.214976 Si / 1000 Ang^3
#
#
#
# Elastic Constant Matrix: (Units=GPa)
#
#
# Indices 1 2 3 4 5 6 
#
# 1 149.6462 54.8050 57.4814 -1.2387 -16.8479 10.9879
# 2 54.8050 132.4883 40.4433 3.5979 -13.8234 -6.9857
# 3 57.4814 40.4433 94.8502 4.7705 -12.9236 4.6128
# 4 -1.2387 3.5979 4.7705 39.0737 -1.3497 -3.8917
# 5 -16.8479 -13.8234 -12.9236 -1.3497 39.8858 3.2958
# 6 10.9879 -6.9857 4.6128 -3.8917 3.2958 50.8717
#
#
#
# Elastic Compliance Matrix: (Units=1/GPa)
#
#
# Indices 1 2 3 4 5 6 
#
# 1 0.009734 -0.002593 -0.004470 0.000951 0.001971 -0.002108
# 2 -0.002593 0.009611 -0.002428 -0.000429 0.001270 0.001985
# 3 -0.004470 -0.002428 0.014702 -0.001738 0.002055 -0.000967
# 4 0.000951 -0.000429 -0.001738 0.026074 0.000418 0.001861
# 5 0.001971 0.001270 0.002055 0.000418 0.027203 -0.002168
# 6 -0.002108 0.001985 -0.000967 0.001861 -0.002168 0.020756
#
#
# Mechanical properties :
#
#
# Convention : Reuss Voigt Hill
#
# Bulk Modulus (GPa) = 66.38686 75.82711 71.10699
# Shear Modulus (GPa) = 37.85494 40.91656 39.38575
#
# Velocity S-wave (km/s) = 4.13247 4.29633 4.21519
# Velocity P-wave (km/s) = 7.26074 7.66933 7.46783
#
# Compressibility (1/GPa) = 0.01506322
#
# Stress axis : x y z
#
# Youngs Moduli (GPa) = 102.73619 104.05133 68.01984
#
# Poissons Ratio (x) = 0.26984 0.30404
# Poissons Ratio (y) = 0.26643 0.16516
# Poissons Ratio (z) = 0.45921 0.25266
#
# Static dielectric constant tensor:
#      x y z
#    x 5.298240 -1.658450 1.744330 
#    y -1.658450 6.595560 -2.370000 
#    z 1.744330 -2.370000 6.492670 
# 
# 
# High freq. dielectric constant tensor:
#      x y z
#    x 1.888760 -0.001980 -0.001560 
#    y -0.001980 1.893830 0.001970 
#    z -0.001560 0.001970 1.852770 
# 
# From -- ./inp_files/621728.got.cif
#   From: 2010.06.25/outbox.cif.g09.slc.cpg/sg2_311_cif.got.tgz:621728.got - 2010.06.27 13:26:56.
