data_PCOD8030726
_publ_section_title
;
Structure prediction by ZEFSAII (Michael W. Deem and Ramdas Pophale) SiO2 
 PCOD8030726
Probable space group: P -1
;
_chemical_formula_sum "Si O2"
_cell_formula_units_Z 16
_cell_length_a 11.667671
_cell_length_b 9.858054
_cell_length_c 13.627408
_cell_angle_alpha 102.692300
_cell_angle_beta 31.884044
_cell_angle_gamma 92.867844
_cell_volume 778.822392
_symmetry_space_group_name_H-M "P -1"
_symmetry_group_IT_number 2
_symmetry_cell_setting 'triclinic'
loop_
_space_group_symop_operation_xyz
x,y,z
-x,-y,-z
loop_
_atom_site_type_symbol
_atom_site_label
_atom_site_fract_x
_atom_site_fract_y
_atom_site_fract_z
Si Si1 0.787488 0.358238 0.075228
Si Si2 0.643948 0.064511 0.827968
Si Si3 0.985157 0.957936 0.201141
Si Si4 0.914580 0.871162 0.435621
Si Si5 0.977960 0.427695 0.144912
Si Si6 0.630875 0.034318 0.317584
Si Si7 0.731559 0.846839 0.023471
Si Si8 0.642137 0.673876 0.535427
O O1 0.905030 0.347222 0.093667
O O2 0.519011 0.378777 0.279276
O O3 0.904441 0.212512 0.910950
O O4 0.828600 0.494289 0.009619
O O5 0.799582 0.935800 0.630052
O O6 0.813647 0.150631 0.765076
O O7 0.479170 0.173061 0.889803
O O8 0.500000 0.000000 0.000000
O O9 0.827465 0.971278 0.416315
O O10 0.873088 0.023014 0.189760
O O11 0.173264 0.042769 0.094315
O O12 0.842985 0.722162 0.451782
O O13 0.752701 0.540576 0.364165
O O14 0.086571 0.306763 0.126532
O O15 0.650353 0.917244 0.199226
O O16 0.500000 0.000000 0.500000
O O17 0.521707 0.195442 0.385272
#
# Coordination Sequence:
#
# PCOD8030726 Si02
#       8
#     2   2   2   2   2   2   2   2
#     4  11  22  40  64  91 138 182 201 256 329 402
#     4  11  23  43  67  97 126 168 224 282 322 365
#     4  12  20  40  66  99 130 170 214 264 321 399
#     4  11  23  40  68  97 126 165 222 269 322 383
#     4  11  25  41  60  97 139 170 213 260 326 392
#     4  12  21  34  63  97 129 166 213 258 319 391
#     4  12  23  42  66  96 129 170 220 274 320 378
#     4  12  23  41  61  94 132 179 212 254 331 394
#
# _framework density 20.543837
#
# number of rings (size 3 to 8) (size 9 to 14) (size 15 to 20)
#    0.000    0.500    7.500    1.500    1.750    0.000 
#    2.250    0.625    0.000    1.500    0.000    0.000 
#    0.000    0.000    0.000    0.000    0.000    0.000 
#
# Total GULP energy -198319.784780 kJ/mol
# GULP energy per Si atom -12394.986549 kJ/mol
# Density = 2.049708 g / cm^3
# Si number density = 20.543837 Si / 1000 Ang^3
#
#
#
# Elastic Constant Matrix: (Units=GPa)
#
#
# Indices 1 2 3 4 5 6 
#
# 1 92.9113 35.7916 33.0589 -3.2343 -10.4269 1.5727
# 2 35.7916 83.6462 39.9494 -2.6150 -7.5393 15.2861
# 3 33.0589 39.9494 105.5418 -19.8682 7.0130 3.1121
# 4 -3.2343 -2.6150 -19.8682 41.0236 -0.3402 -9.2675
# 5 -10.4269 -7.5393 7.0130 -0.3402 35.9827 -6.3545
# 6 1.5727 15.2861 3.1121 -9.2675 -6.3545 17.1809
#
#
#
# Elastic Compliance Matrix: (Units=1/GPa)
#
#
# Indices 1 2 3 4 5 6 
#
# 1 0.014304 -0.005539 -0.002703 0.000933 0.004637 0.006327
# 2 -0.005539 0.021384 -0.007142 -0.007263 0.000497 -0.020959
# 3 -0.002703 -0.007142 0.014565 0.007889 -0.003843 0.006797
# 4 0.000933 -0.007263 0.007889 0.033113 0.001661 0.023423
# 5 0.004637 0.000497 -0.003843 0.001661 0.032238 0.012648
# 6 0.006327 -0.020959 0.006797 0.023423 0.012648 0.092354
#
#
# Mechanical properties :
#
#
# Convention : Reuss Voigt Hill
#
# Bulk Modulus (GPa) = 51.31802 55.52211 53.42007
# Shear Modulus (GPa) = 20.38991 30.39075 25.39033
#
# Velocity S-wave (km/s) = 3.15383 3.85036 3.51936
# Velocity P-wave (km/s) = 6.18839 6.84484 6.52487
#
# Compressibility (1/GPa) = 0.01948633
#
# Stress axis : x y z
#
# Youngs Moduli (GPa) = 69.90959 46.76437 68.65834
#
# Poissons Ratio (x) = 0.25902 0.18558
# Poissons Ratio (y) = 0.38721 0.49032
# Poissons Ratio (z) = 0.18897 0.33397
#
# Static dielectric constant tensor:
#      x y z
#    x 4.826160 -0.208330 -0.313250 
#    y -0.208330 3.695100 -0.213740 
#    z -0.313250 -0.213740 3.951500 
# 
# 
# High freq. dielectric constant tensor:
#      x y z
#    x 1.801170 0.012760 -0.000280 
#    y 0.012760 1.782300 -0.025330 
#    z -0.000280 -0.025330 1.817560 
# 
# From -- ./inp_files/455115.got.cif
#   From: 2010.06.25/outbox.cif.g09.slc.cpg/sg2_228_cif.got.tgz:455115.got - 2010.06.27 13:26:56.
