data_PCOD8030485
_publ_section_title
;
Structure prediction by ZEFSAII (Michael W. Deem and Ramdas Pophale) SiO2 
 PCOD8030485
Probable space group: P -1
;
_chemical_formula_sum "Si O2"
_cell_formula_units_Z 16
_cell_length_a 18.375275
_cell_length_b 8.416350
_cell_length_c 14.525597
_cell_angle_alpha 115.240870
_cell_angle_beta 30.757938
_cell_angle_gamma 93.482383
_cell_volume 779.905174
_symmetry_space_group_name_H-M "P -1"
_symmetry_group_IT_number 2
_symmetry_cell_setting 'triclinic'
loop_
_space_group_symop_operation_xyz
x,y,z
-x,-y,-z
loop_
_atom_site_type_symbol
_atom_site_label
_atom_site_fract_x
_atom_site_fract_y
_atom_site_fract_z
Si Si1 0.402980 0.281883 0.448882
Si Si2 0.361400 0.273569 0.699665
Si Si3 0.079698 0.344580 0.511204
Si Si4 0.984699 0.923734 0.369845
Si Si5 0.402229 0.588768 0.840778
Si Si6 0.072003 0.376989 0.725928
Si Si7 0.279454 0.233138 0.088809
Si Si8 0.635966 0.438434 0.918231
O O1 0.392518 0.334337 0.580787
O O2 0.436735 0.433587 0.393266
O O3 0.204962 0.352883 0.652401
O O4 0.576996 0.010617 0.177993
O O5 0.406965 0.381207 0.754163
O O6 0.500000 0.000000 0.500000
O O7 0.144904 0.381650 0.967914
O O8 0.001272 0.210709 0.585555
O O9 0.148936 0.373479 0.539893
O O10 0.251932 0.191703 0.214077
O O11 0.918960 0.603588 0.709177
O O12 0.842136 0.198932 0.606334
O O13 0.924328 0.841761 0.330631
O O14 0.192860 0.835458 0.104003
O O15 0.437850 0.578649 0.908768
O O16 0.368814 0.350494 0.019539
O O17 0.500000 0.500000 0.000000
#
# Coordination Sequence:
#
# PCOD8030485 Si02
#       8
#     2   2   2   2   2   2   2   2
#     4  12  24  38  66  92 124 161 204 260 307 355
#     4  11  23  46  69  85 117 164 215 254 298 369
#     4   9  20  38  59  83 126 163 208 241 303 367
#     4   9  20  40  59  80 126 169 196 239 305 373
#     4  11  24  41  60  91 124 161 208 245 309 371
#     4   9  21  41  63  87 121 159 204 245 316 358
#     4  11  22  35  59  95 124 158 215 243 301 369
#     4  12  23  35  59  93 128 162 200 256 308 355
#
# _framework density 20.515315000000001
#
# number of rings (size 3 to 8) (size 9 to 14) (size 15 to 20)
#    0.750    0.750    1.250    4.125    5.250    0.500 
#    0.000    0.625    0.000    0.000    0.000    0.000 
#    0.000    0.000    0.000    0.000    0.000    0.000 
#
# Total GULP energy -198347.669797 kJ/mol
# GULP energy per Si atom -12396.729362 kJ/mol
# Density = 2.046862 g / cm^3
# Si number density = 20.515315 Si / 1000 Ang^3
#
#
#
# Elastic Constant Matrix: (Units=GPa)
#
#
# Indices 1 2 3 4 5 6 
#
# 1 111.1141 11.7896 26.8873 -3.9992 3.5258 -2.0791
# 2 11.7896 42.0078 4.9349 -6.4923 -2.1825 0.9083
# 3 26.8873 4.9349 71.6049 1.8726 8.1005 0.7859
# 4 -3.9992 -6.4923 1.8726 36.6341 -0.6295 5.4059
# 5 3.5258 -2.1825 8.1005 -0.6295 26.3266 -5.8344
# 6 -2.0791 0.9083 0.7859 5.4059 -5.8344 21.4003
#
#
#
# Elastic Compliance Matrix: (Units=1/GPa)
#
#
# Indices 1 2 3 4 5 6 
#
# 1 0.010188 -0.002346 -0.003672 0.000735 -0.000193 0.000986
# 2 -0.002346 0.025497 -0.001266 0.004628 0.002543 -0.001739
# 3 -0.003672 -0.001266 0.016053 -0.001245 -0.005013 -0.001945
# 4 0.000735 0.004628 -0.001245 0.029375 -0.000310 -0.007584
# 5 -0.000193 0.002543 -0.005013 -0.000310 0.042345 0.011680
# 6 0.000986 -0.001739 -0.001945 -0.007584 0.011680 0.052069
#
#
# Mechanical properties :
#
#
# Convention : Reuss Voigt Hill
#
# Bulk Modulus (GPa) = 26.90318 34.66115 30.78217
# Shear Modulus (GPa) = 24.69320 28.94653 26.81986
#
# Velocity S-wave (km/s) = 3.47313 3.76037 3.61960
# Velocity P-wave (km/s) = 5.40607 5.98212 5.70138
#
# Compressibility (1/GPa) = 0.03717032
#
# Stress axis : x y z
#
# Youngs Moduli (GPa) = 98.15198 39.22020 62.29481
#
# Poissons Ratio (x) = 0.09200 0.22876
# Poissons Ratio (y) = 0.23023 0.07886
# Poissons Ratio (z) = 0.36043 0.04965
#
# Static dielectric constant tensor:
#      x y z
#    x 3.732880 -0.071060 0.182590 
#    y -0.071060 3.497430 -0.032650 
#    z 0.182590 -0.032650 3.732390 
# 
# 
# High freq. dielectric constant tensor:
#      x y z
#    x 1.801540 0.000930 0.012510 
#    y 0.000930 1.786080 0.001230 
#    z 0.012510 0.001230 1.801510 
# 
# From -- ./inp_files/537500.got.cif
#   From: 2010.06.25/outbox.cif.g09.slc.cpg/sg2_269_cif.got.tgz:537500.got - 2010.06.27 13:26:56.
