data_PCOD8030885
_publ_section_title
;
Structure prediction by ZEFSAII (Michael W. Deem and Ramdas Pophale) SiO2 
 PCOD8030885
Probable space group: P -1
;
_chemical_formula_sum "Si O2"
_cell_formula_units_Z 16
_cell_length_a 9.724998
_cell_length_b 12.012405
_cell_length_c 9.123078
_cell_angle_alpha 89.999005
_cell_angle_beta 134.671938
_cell_angle_gamma 89.995212
_cell_volume 757.911254
_symmetry_space_group_name_H-M "P -1"
_symmetry_group_IT_number 2
_symmetry_cell_setting 'triclinic'
loop_
_space_group_symop_operation_xyz
x,y,z
-x,-y,-z
loop_
_atom_site_type_symbol
_atom_site_label
_atom_site_fract_x
_atom_site_fract_y
_atom_site_fract_z
Si Si1 0.479174 0.765460 0.151990
Si Si2 0.597638 0.000122 0.800893
Si Si3 0.806117 0.999998 0.668861
Si Si4 0.478611 0.234324 0.151491
Si Si5 0.098276 0.211643 0.422280
Si Si6 0.879873 0.629633 0.055425
Si Si7 0.120674 0.629480 0.945019
Si Si8 0.901278 0.211652 0.577216
O O1 0.393013 0.890710 0.090661
O O2 0.679444 0.755040 0.388212
O O3 0.500519 0.728239 0.000403
O O4 0.332383 0.682681 0.123705
O O5 0.779030 0.000053 0.824410
O O6 0.400145 0.000113 0.563522
O O7 0.606972 0.891042 0.909504
O O8 0.923158 0.109372 0.706999
O O9 0.923463 0.890679 0.707346
O O10 0.678975 0.244909 0.387618
O O11 0.331577 0.316837 0.123277
O O12 0.987067 0.317590 0.275004
O O13 0.999845 0.174240 0.499825
O O14 0.855802 0.500091 0.069550
O O15 0.987691 0.682366 0.275598
O O16 0.000432 0.653499 0.000394
#
# Coordination Sequence:
#
# PCOD8030885 Si02
#       8
#     2   2   2   2   2   2   2   2
#     4  11  22  41  65  95 129 168 206 259 315 373
#     4   9  19  35  61  94 129 164 204 252 312 382
#     4   9  19  35  61  94 129 164 204 252 312 382
#     4  11  22  41  65  95 129 168 206 259 315 373
#     4  11  22  41  65  95 129 168 206 259 315 373
#     4  11  26  45  65  93 125 163 218 266 308 372
#     4  11  26  45  65  93 125 163 218 266 308 372
#     4  11  22  41  65  95 129 168 206 259 315 373
#
# _framework density 21.110652000000002
#
# number of rings (size 3 to 8) (size 9 to 14) (size 15 to 20)
#    0.000    1.500    2.500    2.250    0.000    6.000 
#    0.000    5.000    0.000    0.000    0.000    0.000 
#    0.000    0.000    0.000    0.000    0.000    0.000 
#
# Total GULP energy -198507.093899 kJ/mol
# GULP energy per Si atom -12406.693369 kJ/mol
# Density = 2.106260 g / cm^3
# Si number density = 21.110652 Si / 1000 Ang^3
#
#
#
# Elastic Constant Matrix: (Units=GPa)
#
#
# Indices 1 2 3 4 5 6 
#
# 1 133.9199 57.3213 22.6480 0.1528 12.4193 0.2141
# 2 57.3213 120.8051 22.4354 0.1600 14.5250 0.1646
# 3 22.6480 22.4354 58.0742 0.0725 18.2512 0.0111
# 4 0.1528 0.1600 0.0725 21.2456 0.0182 -3.5672
# 5 12.4193 14.5250 18.2512 0.0182 36.0852 0.0595
# 6 0.2141 0.1646 0.0111 -3.5672 0.0595 27.5148
#
#
#
# Elastic Compliance Matrix: (Units=1/GPa)
#
#
# Indices 1 2 3 4 5 6 
#
# 1 0.009624 -0.004124 -0.001951 -0.000040 -0.000665 -0.000053
# 2 -0.004124 0.010834 -0.001965 -0.000049 -0.001948 -0.000034
# 3 -0.001951 -0.001965 0.021734 -0.000031 -0.009531 0.000035
# 4 -0.000040 -0.000049 -0.000031 0.048117 0.000015 0.006239
# 5 -0.000665 -0.001948 -0.009531 0.000015 0.033546 -0.000050
# 6 -0.000053 -0.000034 0.000035 0.006239 -0.000050 0.037154
#
#
# Mechanical properties :
#
#
# Convention : Reuss Voigt Hill
#
# Bulk Modulus (GPa) = 38.29541 57.51205 47.90373
# Shear Modulus (GPa) = 26.91174 30.99543 28.95358
#
# Velocity S-wave (km/s) = 3.57430 3.83591 3.70742
# Velocity P-wave (km/s) = 5.93413 6.84991 6.40840
#
# Compressibility (1/GPa) = 0.02611279
#
# Stress axis : x y z
#
# Youngs Moduli (GPa) = 103.90520 92.30307 46.00987
#
# Poissons Ratio (x) = 0.38067 0.08976
# Poissons Ratio (y) = 0.42852 0.09040
# Poissons Ratio (z) = 0.20270 0.18136
#
# Static dielectric constant tensor:
#      x y z
#    x 4.079320 0.000100 0.099300 
#    y 0.000100 3.771230 0.000330 
#    z 0.099300 0.000330 3.606670 
# 
# 
# High freq. dielectric constant tensor:
#      x y z
#    x 1.847890 0.000010 0.007100 
#    y 0.000010 1.819130 0.000040 
#    z 0.007100 0.000040 1.821820 
# 
# From -- ./inp_files/188032.got.cif
#   From: 2010.06.25/outbox.cif.g09.slc.cpg/sg2_95_cif.got.tgz:188032.got - 2010.06.27 13:26:56.
