data_PCOD8030442
_publ_section_title
;
Structure prediction by ZEFSAII (Michael W. Deem and Ramdas Pophale) SiO2 
 PCOD8030442
Probable space group: P -1
;
_chemical_formula_sum "Si O2"
_cell_formula_units_Z 16
_cell_length_a 17.939166
_cell_length_b 21.339693
_cell_length_c 11.697048
_cell_angle_alpha 140.210383
_cell_angle_beta 29.171160
_cell_angle_gamma 159.555361
_cell_volume 729.082698
_symmetry_space_group_name_H-M "P -1"
_symmetry_group_IT_number 2
_symmetry_cell_setting 'triclinic'
loop_
_space_group_symop_operation_xyz
x,y,z
-x,-y,-z
loop_
_atom_site_type_symbol
_atom_site_label
_atom_site_fract_x
_atom_site_fract_y
_atom_site_fract_z
Si Si1 0.661488 0.840104 0.727141
Si Si2 0.670996 0.172185 0.940233
Si Si3 0.274316 0.865662 0.443751
Si Si4 0.271557 0.089845 0.807349
Si Si5 0.716603 0.588507 0.162110
Si Si6 0.168903 0.496947 0.313082
Si Si7 0.226831 0.988800 0.967617
Si Si8 0.775960 0.566093 0.296455
O O1 0.495229 0.649387 0.673046
O O2 0.539541 0.847273 0.802656
O O3 0.595597 0.854188 0.955321
O O4 0.000000 0.000000 0.500000
O O5 0.749991 0.182779 0.721867
O O6 0.976286 0.356203 0.856366
O O7 0.500000 0.000000 0.000000
O O8 0.582724 0.007191 0.291316
O O9 0.013716 0.675102 0.600711
O O10 0.267648 0.979209 0.604940
O O11 0.560869 0.312756 0.707203
O O12 0.239790 0.065476 0.950644
O O13 0.000000 0.000000 0.000000
O O14 0.890784 0.662289 0.152311
O O15 0.373689 0.427693 0.420560
O O16 0.724484 0.504617 0.943561
O O17 0.888832 0.777045 0.146255
O O18 0.000000 0.500000 0.500000
#
# Coordination Sequence:
#
# PCOD8030442 Si02
#       8
#     2   2   2   2   2   2   2   2
#     4  11  23  43  71 101 134 186 237 284 355 428
#     4  11  27  47  69 102 146 183 232 302 358 421
#     4  11  25  48  74  99 146 190 238 290 361 429
#     4  12  27  43  69 105 140 181 232 299 358 411
#     4  11  24  41  77  99 144 188 238 294 360 424
#     4  12  25  47  76 104 138 193 246 291 354 435
#     4  11  21  46  68 101 140 186 231 295 350 432
#     4  11  24  44  69 107 141 188 236 296 359 423
#
# _framework density 21.945381999999999
#
# number of rings (size 3 to 8) (size 9 to 14) (size 15 to 20)
#    0.000    0.750    3.750    3.750    5.250    2.500 
#    2.250    0.000    0.000    0.000    0.000    0.000 
#    0.000    0.000    0.000    0.000    0.000    0.000 
#
# Total GULP energy -198318.255995 kJ/mol
# GULP energy per Si atom -12394.891000 kJ/mol
# Density = 2.189543 g / cm^3
# Si number density = 21.945382 Si / 1000 Ang^3
#
#
#
# Elastic Constant Matrix: (Units=GPa)
#
#
# Indices 1 2 3 4 5 6 
#
# 1 107.1074 18.2500 48.1026 -6.5542 -21.5146 7.6861
# 2 18.2500 106.1590 38.5904 -6.1313 -1.9155 5.3842
# 3 48.1026 38.5904 116.1687 3.3397 -14.6769 4.0602
# 4 -6.5542 -6.1313 3.3397 37.7402 3.3107 -4.4364
# 5 -21.5146 -1.9155 -14.6769 3.3107 47.0430 -11.3928
# 6 7.6861 5.3842 4.0602 -4.4364 -11.3928 33.9607
#
#
#
# Elastic Compliance Matrix: (Units=1/GPa)
#
#
# Indices 1 2 3 4 5 6 
#
# 1 0.012406 -0.000236 -0.004601 0.002105 0.003929 -0.000627
# 2 -0.000236 0.010979 -0.003723 0.002020 -0.001308 -0.001417
# 3 -0.004601 -0.003723 0.012034 -0.002572 0.001791 0.000457
# 4 0.002105 0.002020 -0.002572 0.027838 -0.001039 0.002799
# 5 0.003929 -0.001308 0.001791 -0.001039 0.025450 0.007506
# 6 -0.000627 -0.001417 0.000457 0.002799 0.007506 0.032641
#
#
# Mechanical properties :
#
#
# Convention : Reuss Voigt Hill
#
# Bulk Modulus (GPa) = 54.64777 59.92454 57.28616
# Shear Modulus (GPa) = 34.58569 38.71493 36.65031
#
# Velocity S-wave (km/s) = 3.97418 4.20473 4.09108
# Velocity P-wave (km/s) = 6.78341 7.13712 6.96251
#
# Compressibility (1/GPa) = 0.01829901
#
# Stress axis : x y z
#
# Youngs Moduli (GPa) = 80.60723 91.08497 83.09631
#
# Poissons Ratio (x) = 0.02149 0.38231
# Poissons Ratio (y) = 0.01902 0.30938
# Poissons Ratio (z) = 0.37086 0.33912
#
# Static dielectric constant tensor:
#      x y z
#    x 3.291540 0.376820 0.287440 
#    y 0.376820 4.938570 -0.730830 
#    z 0.287440 -0.730830 5.066590 
# 
# 
# High freq. dielectric constant tensor:
#      x y z
#    x 1.864370 -0.003600 0.000230 
#    y -0.003600 1.871740 0.002970 
#    z 0.000230 0.002970 1.871370 
# 
# From -- ./inp_files/467132.got.cif
#   From: 2010.06.25/outbox.cif.g09.slc.cpg/sg2_234_cif.got.tgz:467132.got - 2010.06.27 13:26:56.
