data_PCOD8030163
_publ_section_title
;
Structure prediction by ZEFSAII (Michael W. Deem and Ramdas Pophale) SiO2 
 PCOD8030163
Probable space group: P -1
;
_chemical_formula_sum "Si O2"
_cell_formula_units_Z 16
_cell_length_a 13.975264
_cell_length_b 8.751497
_cell_length_c 12.348655
_cell_angle_alpha 63.687828
_cell_angle_beta 130.572526
_cell_angle_gamma 77.547671
_cell_volume 691.542861
_symmetry_space_group_name_H-M "P -1"
_symmetry_group_IT_number 2
_symmetry_cell_setting 'triclinic'
loop_
_space_group_symop_operation_xyz
x,y,z
-x,-y,-z
loop_
_atom_site_type_symbol
_atom_site_label
_atom_site_fract_x
_atom_site_fract_y
_atom_site_fract_z
Si Si1 0.609658 0.232601 0.612038
Si Si2 0.568078 0.335851 0.997434
Si Si3 0.271538 0.350692 0.774180
Si Si4 0.324008 0.482885 0.143060
Si Si5 0.882372 0.772381 0.450873
Si Si6 0.973918 0.790847 0.920719
Si Si7 0.161000 0.315125 0.327863
Si Si8 0.595305 0.906813 0.820639
O O1 0.500000 0.500000 0.500000
O O2 0.479055 0.280732 0.409458
O O3 0.815941 0.077755 0.764176
O O4 0.654836 0.038336 0.792042
O O5 0.762538 0.062615 0.265589
O O6 0.500000 0.500000 0.000000
O O7 0.411194 0.359181 0.835639
O O8 0.602796 0.428984 0.896027
O O9 0.244878 0.250121 0.686275
O O10 0.068995 0.628933 0.566963
O O11 0.356475 0.163636 0.996394
O O12 0.293964 0.344659 0.091203
O O13 0.128985 0.731266 0.980313
O O14 0.943726 0.661988 0.652785
O O15 0.860161 0.772955 0.768326
O O16 0.079999 0.584655 0.160610
O O17 0.376537 0.100657 0.584817
#
# Coordination Sequence:
#
# PCOD8030163 Si02
#       8
#     2   2   2   2   2   2   2   2
#     4  12  28  45  72 106 144 182 234 306 369 421
#     4  12  26  45  70 108 147 186 243 296 349 417
#     4  11  25  46  74 103 146 193 238 295 354 430
#     4  12  25  46  72 103 142 194 238 295 351 428
#     4  11  25  45  72 105 141 196 238 291 364 420
#     4  11  24  44  73 106 138 183 245 292 355 428
#     4  11  21  42  78 105 135 189 242 296 348 427
#     4  12  22  48  75 102 141 189 243 290 363 425
#
# _framework density 23.136671
#
# number of rings (size 3 to 8) (size 9 to 14) (size 15 to 20)
#    0.000    0.500    5.000    3.750    1.750    2.000 
#    0.000    0.000    0.000    0.000    0.000    0.000 
#    0.000    0.000    0.000    0.000    0.000    0.000 
#
# Total GULP energy -198441.488141 kJ/mol
# GULP energy per Si atom -12402.593009 kJ/mol
# Density = 2.308401 g / cm^3
# Si number density = 23.136671 Si / 1000 Ang^3
#
#
#
# Elastic Constant Matrix: (Units=GPa)
#
#
# Indices 1 2 3 4 5 6 
#
# 1 131.7123 42.9664 37.9572 -24.8137 1.3989 3.7525
# 2 42.9664 84.8959 47.2582 -36.0688 -6.8187 -8.4124
# 3 37.9572 47.2582 119.3366 -10.3363 5.4215 -4.6268
# 4 -24.8137 -36.0688 -10.3363 35.0452 -10.3449 7.2857
# 5 1.3989 -6.8187 5.4215 -10.3449 40.6547 -5.2006
# 6 3.7525 -8.4124 -4.6268 7.2857 -5.2006 31.4168
#
#
#
# Elastic Compliance Matrix: (Units=1/GPa)
#
#
# Indices 1 2 3 4 5 6 
#
# 1 0.009879 -0.001840 -0.002102 0.005301 0.000582 -0.003115
# 2 -0.001840 0.036940 -0.011457 0.038062 0.017797 0.002543
# 3 -0.002102 -0.011457 0.012906 -0.011509 -0.006410 0.000692
# 4 0.005301 0.038062 -0.011509 0.077096 0.026637 -0.005606
# 5 0.000582 0.017797 -0.006410 0.026637 0.035639 0.003474
# 6 -0.003115 0.002543 0.000692 -0.005606 0.003474 0.034860
#
#
# Mechanical properties :
#
#
# Convention : Reuss Voigt Hill
#
# Bulk Modulus (GPa) = 34.56663 65.81204 50.18934
# Shear Modulus (GPa) = 20.18077 35.27421 27.72749
#
# Velocity S-wave (km/s) = 2.95658 3.90885 3.46558
# Velocity P-wave (km/s) = 5.16021 6.99134 6.14437
#
# Compressibility (1/GPa) = 0.02892964
#
# Stress axis : x y z
#
# Youngs Moduli (GPa) = 101.22029 27.07087 77.48153
#
# Poissons Ratio (x) = 0.04980 0.16286
# Poissons Ratio (y) = 0.18621 0.88767
# Poissons Ratio (z) = 0.21275 0.31014
#
# Static dielectric constant tensor:
#      x y z
#    x 4.205930 -0.259170 0.167560 
#    y -0.259170 4.084870 -0.027790 
#    z 0.167560 -0.027790 4.458680 
# 
# 
# High freq. dielectric constant tensor:
#      x y z
#    x 1.916560 -0.021470 0.010960 
#    y -0.021470 1.901390 -0.004280 
#    z 0.010960 -0.004280 1.935900 
# 
# From -- ./inp_files/447214.got.cif
#   From: 2010.06.25/outbox.cif.g09.slc.cpg/sg2_224_cif.got.tgz:447214.got - 2010.06.27 13:26:56.
