data_PCOD8030741
_publ_section_title
;
Structure prediction by ZEFSAII (Michael W. Deem and Ramdas Pophale) SiO2 
 PCOD8030741
Probable space group: P -1
;
_chemical_formula_sum "Si O2"
_cell_formula_units_Z 16
_cell_length_a 9.815267
_cell_length_b 9.048294
_cell_length_c 11.160064
_cell_angle_alpha 68.840068
_cell_angle_beta 55.309178
_cell_angle_gamma 75.389264
_cell_volume 758.587188
_symmetry_space_group_name_H-M "P -1"
_symmetry_group_IT_number 2
_symmetry_cell_setting 'triclinic'
loop_
_space_group_symop_operation_xyz
x,y,z
-x,-y,-z
loop_
_atom_site_type_symbol
_atom_site_label
_atom_site_fract_x
_atom_site_fract_y
_atom_site_fract_z
Si Si1 0.922978 0.877174 0.663977
Si Si2 0.236173 0.352740 0.880873
Si Si3 0.010126 0.064215 0.787796
Si Si4 0.454251 0.569478 0.179157
Si Si5 0.439454 0.240031 0.157823
Si Si6 0.907192 0.385866 0.663780
Si Si7 0.979615 0.554518 0.805540
Si Si8 0.252932 0.996854 0.882251
O O1 0.734409 0.843685 0.734196
O O2 0.031777 0.708949 0.659225
O O3 0.937564 0.934129 0.776571
O O4 0.000000 0.000000 0.500000
O O5 0.417423 0.421672 0.778222
O O6 0.141362 0.449264 0.794338
O O7 0.257973 0.168861 0.890048
O O8 0.138906 0.387055 0.043652
O O9 0.023100 0.224130 0.657473
O O10 0.188917 0.010150 0.772153
O O11 0.879459 0.101782 0.949959
O O12 0.439817 0.384830 0.208450
O O13 0.274313 0.642296 0.290169
O O14 0.519944 0.687107 0.011642
O O15 0.571006 0.099774 0.174347
O O16 0.000000 0.500000 0.500000
O O17 0.875132 0.453052 0.795108
#
# Coordination Sequence:
#
# PCOD8030741 Si02
#       8
#     2   2   2   2   2   2   2   2
#     4  12  25  44  65  93 132 172 212 257 320 386
#     4  11  23  39  69  95 128 162 215 271 313 369
#     4  11  24  39  65  96 125 173 210 263 318 374
#     4  11  22  40  65  98 124 167 214 265 314 371
#     4  11  23  41  65  96 130 162 217 265 313 374
#     4  12  24  43  65  91 132 172 212 258 315 387
#     4  11  22  43  65  93 127 169 217 259 312 379
#     4  11  23  40  64  99 130 159 215 271 317 366
#
# _framework density 21.091839
#
# number of rings (size 3 to 8) (size 9 to 14) (size 15 to 20)
#    0.000    0.750    6.250    1.500    3.500    1.000 
#    0.000    2.500    0.000    0.000    0.000    0.000 
#    0.000    0.000    0.000    0.000    0.000    0.000 
#
# Total GULP energy -198350.434578 kJ/mol
# GULP energy per Si atom -12396.902161 kJ/mol
# Density = 2.104383 g / cm^3
# Si number density = 21.091839 Si / 1000 Ang^3
#
#
#
# Elastic Constant Matrix: (Units=GPa)
#
#
# Indices 1 2 3 4 5 6 
#
# 1 171.9505 67.5202 55.3479 -15.3953 -7.8874 -9.5003
# 2 67.5202 109.8592 23.2031 -24.3120 0.9965 -13.2990
# 3 55.3479 23.2031 68.6303 -17.3911 -21.2518 -9.7972
# 4 -15.3953 -24.3120 -17.3911 27.8988 4.8868 5.3259
# 5 -7.8874 0.9965 -21.2518 4.8868 20.2534 -7.1701
# 6 -9.5003 -13.2990 -9.7972 5.3259 -7.1701 42.8280
#
#
#
# Elastic Compliance Matrix: (Units=1/GPa)
#
#
# Indices 1 2 3 4 5 6 
#
# 1 0.010197 -0.005257 -0.009240 -0.003407 -0.005336 -0.001954
# 2 -0.005257 0.014760 0.001167 0.010990 -0.003594 0.001716
# 3 -0.009240 0.001167 0.037584 0.010521 0.037444 0.011871
# 4 -0.003407 0.010990 0.010521 0.051146 -0.003856 -0.001942
# 5 -0.005336 -0.003594 0.037444 -0.003856 0.095757 0.022777
# 6 -0.001954 0.001716 0.011871 -0.001942 0.022777 0.030219
#
#
# Mechanical properties :
#
#
# Convention : Reuss Voigt Hill
#
# Bulk Modulus (GPa) = 27.87172 71.39802 49.63487
# Shear Modulus (GPa) = 17.96726 31.82061 24.89394
#
# Velocity S-wave (km/s) = 2.92183 3.88837 3.43922
# Velocity P-wave (km/s) = 4.96245 7.35417 6.27334
#
# Compressibility (1/GPa) = 0.03587866
#
# Stress axis : x y z
#
# Youngs Moduli (GPa) = 98.07168 67.75146 26.60707
#
# Poissons Ratio (x) = 0.35620 0.24586
# Poissons Ratio (y) = 0.51561 -0.03105
# Poissons Ratio (z) = 0.90622 -0.07906
#
# Static dielectric constant tensor:
#      x y z
#    x 4.207270 -0.007960 0.106570 
#    y -0.007960 4.000630 -0.166570 
#    z 0.106570 -0.166570 3.491750 
# 
# 
# High freq. dielectric constant tensor:
#      x y z
#    x 1.842670 0.001430 0.007540 
#    y 0.001430 1.837970 -0.023520 
#    z 0.007540 -0.023520 1.793230 
# 
# From -- ./inp_files/381267.got.cif
#   From: 2010.06.25/outbox.cif.g09.slc.cpg/sg2_191_cif.got.tgz:381267.got - 2010.06.27 13:26:56.
