data_PCOD8030677
_publ_section_title
;
Structure prediction by ZEFSAII (Michael W. Deem and Ramdas Pophale) SiO2 
 PCOD8030677
Probable space group: P -1
;
_chemical_formula_sum "Si O2"
_cell_formula_units_Z 14
_cell_length_a 12.355675
_cell_length_b 12.273325
_cell_length_c 4.970771
_cell_angle_alpha 114.997817
_cell_angle_beta 118.710149
_cell_angle_gamma 69.496409
_cell_volume 588.819010
_symmetry_space_group_name_H-M "P -1"
_symmetry_group_IT_number 2
_symmetry_cell_setting 'triclinic'
loop_
_space_group_symop_operation_xyz
x,y,z
-x,-y,-z
loop_
_atom_site_type_symbol
_atom_site_label
_atom_site_fract_x
_atom_site_fract_y
_atom_site_fract_z
Si Si1 0.594804 0.801530 0.751876
Si Si2 0.919139 0.128043 0.478697
Si Si3 0.360978 0.476997 0.346399
Si Si4 0.305494 0.853064 0.410904
Si Si5 0.760799 0.393380 0.154803
Si Si6 0.999151 0.758306 0.804212
Si Si7 0.723653 0.880408 0.488186
O O1 0.640583 0.657543 0.691262
O O2 0.447611 0.841641 0.668472
O O3 0.622450 0.842551 0.528595
O O4 0.673019 0.871132 0.118197
O O5 0.775119 0.135646 0.398673
O O6 0.930616 0.152823 0.201851
O O7 0.000000 0.000000 0.500000
O O8 0.982219 0.220798 0.835448
O O9 0.500000 0.500000 0.500000
O O10 0.284307 0.573336 0.562845
O O11 0.294527 0.496967 0.998170
O O12 0.262098 0.977603 0.310171
O O13 0.289734 0.731029 0.105916
O O14 0.914461 0.374053 0.303159
O O15 0.853197 0.782235 0.579975
#
# Coordination Sequence:
#
# PCOD8030677 Si02
#       7
#     2   2   2   2   2   2   2
#     4  12  28  45  69  99 141 191 226 273 346 415
#     4  11  22  39  68 100 137 180 225 282 330 399
#     4  12  25  48  71 100 135 173 244 292 333 390
#     4  11  25  43  73 106 143 175 230 283 353 405
#     4  11  25  43  76 105 127 177 236 302 335 382
#     4  11  24  43  67 103 138 181 227 279 348 397
#     4  12  27  46  66 103 151 184 216 270 349 446
#
# _framework density 23.776409000000001
#
# number of rings (size 3 to 8) (size 9 to 14) (size 15 to 20)
#    0.000    0.571    2.857    5.143    4.000    2.286 
#    0.000    4.286    0.000    0.000    0.000    0.000 
#    0.000    0.000    0.000    0.000    0.000    0.000 
#
# Total GULP energy -173569.184347 kJ/mol
# GULP energy per Si atom -12397.798882 kJ/mol
# Density = 2.372229 g / cm^3
# Si number density = 23.776409 Si / 1000 Ang^3
#
#
#
# Elastic Constant Matrix: (Units=GPa)
#
#
# Indices 1 2 3 4 5 6 
#
# 1 112.1988 15.2424 25.7742 0.0855 8.7327 -25.3766
# 2 15.2424 100.3424 7.9711 -7.7636 3.5362 -1.8816
# 3 25.7742 7.9711 51.5121 -4.5630 1.7261 -8.9402
# 4 0.0855 -7.7636 -4.5630 40.9117 -7.4595 7.2475
# 5 8.7327 3.5362 1.7261 -7.4595 39.4480 -10.8429
# 6 -25.3766 -1.8816 -8.9402 7.2475 -10.8429 55.3100
#
#
#
# Elastic Compliance Matrix: (Units=1/GPa)
#
#
# Indices 1 2 3 4 5 6 
#
# 1 0.011283 -0.001346 -0.004802 -0.001823 -0.001320 0.004335
# 2 -0.001346 0.010391 -0.000878 0.001929 -0.000435 -0.000744
# 3 -0.004802 -0.000878 0.022342 0.002283 0.000943 0.001264
# 4 -0.001823 0.001929 0.002283 0.026384 0.004290 -0.003018
# 5 -0.001320 -0.000435 0.000943 0.004290 0.027658 0.004392
# 6 0.004335 -0.000744 0.001264 -0.003018 0.004392 0.021504
#
#
# Mechanical properties :
#
#
# Convention : Reuss Voigt Hill
#
# Bulk Modulus (GPa) = 33.37429 40.22542 36.79986
# Shear Modulus (GPa) = 34.81827 41.47165 38.14496
#
# Velocity S-wave (km/s) = 3.83090 4.18094 4.00974
# Velocity P-wave (km/s) = 5.79957 6.34523 6.07852
#
# Compressibility (1/GPa) = 0.02996318
#
# Stress axis : x y z
#
# Youngs Moduli (GPa) = 88.62597 96.23997 44.75948
#
# Poissons Ratio (x) = 0.12951 0.21495
# Poissons Ratio (y) = 0.11927 0.03931
# Poissons Ratio (z) = 0.42561 0.08452
#
# Static dielectric constant tensor:
#      x y z
#    x 4.530850 -0.299580 -0.156210 
#    y -0.299580 6.525930 -2.038230 
#    z -0.156210 -2.038230 6.016580 
# 
# 
# High freq. dielectric constant tensor:
#      x y z
#    x 1.954180 -0.018720 -0.010090 
#    y -0.018720 1.956280 -0.019000 
#    z -0.010090 -0.019000 1.928020 
# 
# From -- ./inp_files/72451.got.cif
#   From: 2010.06.25/outbox.cif.g09.slc.cpg/sg2_37_cif.got.tgz:72451.got - 2010.06.27 13:26:56.
