data_PCOD8030732
_publ_section_title
;
Structure prediction by ZEFSAII (Michael W. Deem and Ramdas Pophale) SiO2 
 PCOD8030732
Probable space group: P -1
;
_chemical_formula_sum "Si O2"
_cell_formula_units_Z 12
_cell_length_a 8.184905
_cell_length_b 10.184719
_cell_length_c 8.696397
_cell_angle_alpha 102.550316
_cell_angle_beta 107.011915
_cell_angle_gamma 45.465714
_cell_volume 494.070301
_symmetry_space_group_name_H-M "P -1"
_symmetry_group_IT_number 2
_symmetry_cell_setting 'triclinic'
loop_
_space_group_symop_operation_xyz
x,y,z
-x,-y,-z
loop_
_atom_site_type_symbol
_atom_site_label
_atom_site_fract_x
_atom_site_fract_y
_atom_site_fract_z
Si Si1 0.458183 0.752746 0.772200
Si Si2 0.946572 0.465447 0.313510
Si Si3 0.980458 0.914144 0.118779
Si Si4 0.252096 0.233068 0.898632
Si Si5 0.413521 0.089512 0.334051
Si Si6 0.518088 0.440058 0.814733
O O1 0.522320 0.786597 0.636407
O O2 0.508718 0.569118 0.728162
O O3 0.181072 0.920569 0.763873
O O4 0.612958 0.738633 0.945417
O O5 0.945903 0.578856 0.205604
O O6 0.686318 0.551869 0.273281
O O7 0.000000 0.500000 0.500000
O O8 0.129602 0.243546 0.277058
O O9 0.874965 0.817508 0.050874
O O10 0.244137 0.764256 0.212766
O O11 0.000000 0.000000 0.000000
O O12 0.456384 0.064842 0.801456
O O13 0.500000 0.000000 0.500000
O O14 0.500000 0.500000 0.000000
#
# Coordination Sequence:
#
# PCOD8030732 Si02
#       6
#     2   2   2   2   2   2
#     4  11  25  43  73 108 136 181 235 295 340 411
#     4  12  26  47  72  98 145 188 230 286 354 419
#     4  11  22  40  65 106 143 168 224 299 341 396
#     4  11  24  43  74 106 135 187 234 283 353 407
#     4  11  24  45  72 100 138 188 233 278 351 424
#     4  12  25  41  70 108 136 183 235 289 348 405
#
# _framework density 24.288041
#
# number of rings (size 3 to 8) (size 9 to 14) (size 15 to 20)
#    0.000    0.667    5.000    3.000    4.667    2.667 
#    0.000    4.167    0.000    0.000    0.000    0.000 
#    0.000    0.000    0.000    0.000    0.000    0.000 
#
# Total GULP energy -148721.900006 kJ/mol
# GULP energy per Si atom -12393.491667 kJ/mol
# Density = 2.423276 g / cm^3
# Si number density = 24.288041 Si / 1000 Ang^3
#
#
#
# Elastic Constant Matrix: (Units=GPa)
#
#
# Indices 1 2 3 4 5 6 
#
# 1 147.1827 44.8913 52.1143 -19.9365 -7.2433 5.4154
# 2 44.8913 158.1638 40.1450 -47.5802 -0.3488 -11.5241
# 3 52.1143 40.1450 95.9039 -18.2641 -10.3905 0.2244
# 4 -19.9365 -47.5802 -18.2641 34.8169 6.9239 -5.7061
# 5 -7.2433 -0.3488 -10.3905 6.9239 40.4237 -15.3948
# 6 5.4154 -11.5241 0.2244 -5.7061 -15.3948 58.5551
#
#
#
# Elastic Compliance Matrix: (Units=1/GPa)
#
#
# Indices 1 2 3 4 5 6 
#
# 1 0.008780 -0.001192 -0.004059 0.001123 -0.000026 -0.000928
# 2 -0.001192 0.012150 -0.001597 0.016048 -0.001909 0.003570
# 3 -0.004059 -0.001597 0.014078 0.002477 0.002831 0.000993
# 4 0.001123 0.016048 0.002477 0.054875 -0.005808 0.006865
# 5 -0.000026 -0.001909 0.002831 -0.005808 0.028979 0.006669
# 6 -0.000928 0.003570 0.000993 0.006865 0.006669 0.020285
#
#
# Mechanical properties :
#
#
# Convention : Reuss Voigt Hill
#
# Bulk Modulus (GPa) = 46.92319 75.06128 60.99224
# Shear Modulus (GPa) = 31.26049 44.36581 37.81315
#
# Velocity S-wave (km/s) = 3.59147 4.27857 3.94999
# Velocity P-wave (km/s) = 6.04646 7.44177 6.78010
#
# Compressibility (1/GPa) = 0.02131142
#
# Stress axis : x y z
#
# Youngs Moduli (GPa) = 113.89638 82.30599 71.03474
#
# Poissons Ratio (x) = 0.09808 0.28833
# Poissons Ratio (y) = 0.13573 0.11346
# Poissons Ratio (z) = 0.46231 0.13146
#
# Static dielectric constant tensor:
#      x y z
#    x 4.766960 0.186850 -0.627380 
#    y 0.186850 4.978640 -0.157580 
#    z -0.627380 -0.157580 3.813340 
# 
# 
# High freq. dielectric constant tensor:
#      x y z
#    x 1.980010 -0.003620 -0.021010 
#    y -0.003620 1.996110 -0.022110 
#    z -0.021010 -0.022110 1.927180 
# 
# From -- ./inp_files/180513.got.cif
#   From: 2010.06.25/outbox.cif.g09.slc.cpg/sg2_91_cif.got.tgz:180513.got - 2010.06.27 13:26:56.
