data_PCOD8030396
_publ_section_title
;
Structure prediction by ZEFSAII (Michael W. Deem and Ramdas Pophale) SiO2 
 PCOD8030396
Probable space group: P -1
;
_chemical_formula_sum "Si O2"
_cell_formula_units_Z 14
_cell_length_a 8.755197
_cell_length_b 12.930919
_cell_length_c 8.857192
_cell_angle_alpha 82.538851
_cell_angle_beta 61.098380
_cell_angle_gamma 47.606217
_cell_volume 617.812583
_symmetry_space_group_name_H-M "P -1"
_symmetry_group_IT_number 2
_symmetry_cell_setting 'triclinic'
loop_
_space_group_symop_operation_xyz
x,y,z
-x,-y,-z
loop_
_atom_site_type_symbol
_atom_site_label
_atom_site_fract_x
_atom_site_fract_y
_atom_site_fract_z
Si Si1 0.842842 0.630546 0.167510
Si Si2 0.872760 0.108895 0.901832
Si Si3 0.570409 0.074350 0.862204
Si Si4 0.026192 0.157850 0.532019
Si Si5 0.590919 0.410690 0.120069
Si Si6 0.063202 0.581930 0.380463
Si Si7 0.520963 0.584208 0.360120
O O1 0.675937 0.786235 0.132447
O O2 0.014326 0.608813 0.218197
O O3 0.664347 0.624687 0.343572
O O4 0.000000 0.500000 0.000000
O O5 0.660952 0.125239 0.926880
O O6 0.051782 0.078864 0.689964
O O7 0.779313 0.243945 0.019890
O O8 0.000000 0.000000 0.000000
O O9 0.788728 0.962624 0.659374
O O10 0.500000 0.000000 0.000000
O O11 0.082777 0.257103 0.511047
O O12 0.744546 0.262304 0.595164
O O13 0.691999 0.461616 0.167911
O O14 0.348896 0.469256 0.308241
O O15 0.500000 0.500000 0.000000
O O16 0.000000 0.500000 0.500000
O O17 0.500000 0.500000 0.500000
#
# Coordination Sequence:
#
# PCOD8030396 Si02
#       7
#     2   2   2   2   2   2   2
#     4  12  26  44  73 104 146 184 235 295 358 417
#     4  12  27  46  75 104 142 192 237 293 358 433
#     4  12  30  49  71 106 149 190 237 300 364 426
#     4  11  26  50  69 104 150 186 243 294 355 431
#     4  11  21  45  69 100 138 179 239 288 348 414
#     4  11  25  43  72 106 142 184 237 296 353 422
#     4  11  24  42  75 103 135 187 237 294 346 426
#
# _framework density 22.660594
#
# number of rings (size 3 to 8) (size 9 to 14) (size 15 to 20)
#    0.000    0.571    4.286    3.857   10.000    1.714 
#    0.000    0.000    0.000    0.000    0.000    0.000 
#    0.000    0.000    0.000    0.000    0.000    0.000 
#
# Total GULP energy -173464.476361 kJ/mol
# GULP energy per Si atom -12390.319740 kJ/mol
# Density = 2.260902 g / cm^3
# Si number density = 22.660594 Si / 1000 Ang^3
#
#
#
# Elastic Constant Matrix: (Units=GPa)
#
#
# Indices 1 2 3 4 5 6 
#
# 1 68.2598 11.7313 -7.9543 1.9216 8.3780 4.2534
# 2 11.7313 130.8219 41.3286 -6.7704 1.0921 -1.0473
# 3 -7.9543 41.3286 90.6207 1.2522 3.5956 -1.8593
# 4 1.9216 -6.7704 1.2522 60.7692 9.9996 0.4964
# 5 8.3780 1.0921 3.5956 9.9996 35.0270 -10.1914
# 6 4.2534 -1.0473 -1.8593 0.4964 -10.1914 34.5315
#
#
#
# Elastic Compliance Matrix: (Units=1/GPa)
#
#
# Indices 1 2 3 4 5 6 
#
# 1 0.016170 -0.002246 0.002574 0.000048 -0.005070 -0.003418
# 2 -0.002246 0.009315 -0.004472 0.001111 0.000521 0.000456
# 3 0.002574 -0.004472 0.013373 -0.000564 -0.001759 -0.000244
# 4 0.000048 0.001111 -0.000564 0.017516 -0.005538 -0.001889
# 5 -0.005070 0.000521 -0.001759 -0.005538 0.034666 0.010856
# 6 -0.003418 0.000456 -0.000244 -0.001889 0.010856 0.032612
#
#
# Mechanical properties :
#
#
# Convention : Reuss Voigt Hill
#
# Bulk Modulus (GPa) = 32.71179 42.21264 37.46221
# Shear Modulus (GPa) = 35.17904 42.37198 38.77551
#
# Velocity S-wave (km/s) = 3.94437 4.32887 4.14108
# Velocity P-wave (km/s) = 5.93388 6.60713 6.27953
#
# Compressibility (1/GPa) = 0.03057002
#
# Stress axis : x y z
#
# Youngs Moduli (GPa) = 61.84399 107.35430 74.77748
#
# Poissons Ratio (x) = 0.24108 -0.19247
# Poissons Ratio (y) = 0.13888 0.33440
# Poissons Ratio (z) = -0.15918 0.48009
#
# Static dielectric constant tensor:
#      x y z
#    x 4.052060 0.260610 0.371050 
#    y 0.260610 4.110270 -0.134460 
#    z 0.371050 -0.134460 4.288150 
# 
# 
# High freq. dielectric constant tensor:
#      x y z
#    x 1.904060 0.017000 0.004780 
#    y 0.017000 1.904050 -0.013220 
#    z 0.004780 -0.013220 1.904740 
# 
# From -- ./inp_files/156615.got.cif
#   From: 2010.06.25/outbox.cif.g09.slc.cpg/sg2_79_cif.got.tgz:156615.got - 2010.06.27 13:26:56.
