data_PCOD8030991
_publ_section_title
;
Structure prediction by ZEFSAII (Michael W. Deem and Ramdas Pophale) SiO2 
 PCOD8030991
Probable space group: P -1
;
_chemical_formula_sum "Si O2"
_cell_formula_units_Z 16
_cell_length_a 13.107846
_cell_length_b 18.627716
_cell_length_c 8.378647
_cell_angle_alpha 73.970725
_cell_angle_beta 65.108130
_cell_angle_gamma 21.297994
_cell_volume 630.864125
_symmetry_space_group_name_H-M "P -1"
_symmetry_group_IT_number 2
_symmetry_cell_setting 'triclinic'
loop_
_space_group_symop_operation_xyz
x,y,z
-x,-y,-z
loop_
_atom_site_type_symbol
_atom_site_label
_atom_site_fract_x
_atom_site_fract_y
_atom_site_fract_z
Si Si1 0.145896 0.561311 0.725427
Si Si2 0.263313 0.068501 0.781160
Si Si3 0.585660 0.250986 0.363407
Si Si4 0.164341 0.293221 0.856668
Si Si5 0.792658 0.199925 0.699029
Si Si6 0.272335 0.707226 0.975407
Si Si7 0.165399 0.112469 0.449872
Si Si8 0.732324 0.657881 0.706463
O O1 0.274921 0.433705 0.568715
O O2 0.461485 0.387623 0.721338
O O3 0.949349 0.753688 0.677389
O O4 0.906969 0.663123 0.933644
O O5 0.195892 0.188187 0.838361
O O6 0.213062 0.113521 0.597515
O O7 0.050612 0.134507 0.956190
O O8 0.616249 0.813931 0.737890
O O9 0.565169 0.199693 0.272281
O O10 0.585446 0.334830 0.240503
O O11 0.912502 0.040106 0.379511
O O12 0.862489 0.525256 0.843708
O O13 0.495129 0.128693 0.694891
O O14 0.753768 0.220469 0.903212
O O15 0.900936 0.213471 0.558400
O O16 0.500000 0.500000 0.000000
O O17 0.000000 0.500000 0.500000
#
# Coordination Sequence:
#
# PCOD8030991 Si02
#       8
#     2   2   2   2   2   2   2   2
#     4  12  27  42  69  97 146 194 218 281 353 420
#     4  11  24  44  76 105 131 179 237 298 346 402
#     4  12  24  44  69 101 145 175 230 292 346 416
#     4  12  26  47  70 108 143 180 237 285 351 421
#     4  11  23  44  66 103 136 179 237 283 344 416
#     4  11  22  41  71 102 130 177 233 294 347 399
#     4  11  23  47  69  99 139 181 235 287 343 415
#     4  12  24  46  76 104 134 181 236 293 348 406
#
# _framework density 25.362038999999999
#
# number of rings (size 3 to 8) (size 9 to 14) (size 15 to 20)
#    0.000    0.500    3.750    6.375    3.500    1.000 
#    2.250    1.250    0.000    0.000    0.000    0.000 
#    0.000    0.000    0.000    0.000    0.000    0.000 
#
# Total GULP energy -198368.057763 kJ/mol
# GULP energy per Si atom -12398.003610 kJ/mol
# Density = 2.530431 g / cm^3
# Si number density = 25.362039 Si / 1000 Ang^3
#
#
#
# Elastic Constant Matrix: (Units=GPa)
#
#
# Indices 1 2 3 4 5 6 
#
# 1 34.3488 5.8105 -1.9228 -11.5296 -7.0659 4.9172
# 2 5.8105 143.9998 7.5199 -11.1598 12.9821 18.9232
# 3 -1.9228 7.5199 129.9022 -7.5061 4.4483 8.4863
# 4 -11.5296 -11.1598 -7.5061 42.4654 1.0197 -7.3238
# 5 -7.0659 12.9821 4.4483 1.0197 12.8330 1.0416
# 6 4.9172 18.9232 8.4863 -7.3238 1.0416 34.8496
#
#
#
# Elastic Compliance Matrix: (Units=1/GPa)
#
#
# Indices 1 2 3 4 5 6 
#
# 1 0.037517 -0.002528 0.000617 0.008582 0.022558 -0.002942
# 2 -0.002528 0.008510 0.000119 0.001159 -0.009829 -0.003756
# 3 0.000617 0.000119 0.007979 0.001371 -0.002514 -0.001731
# 4 0.008582 0.001159 0.001371 0.027011 0.000648 0.003483
# 5 0.022558 -0.009829 -0.002514 0.000648 0.101118 -0.000119
# 6 -0.002942 -0.003756 -0.001731 0.003483 -0.000119 0.032306
#
#
# Mechanical properties :
#
#
# Convention : Reuss Voigt Hill
#
# Bulk Modulus (GPa) = 19.83256 36.78508 28.30882
# Shear Modulus (GPa) = 21.29186 37.81914 29.55550
#
# Velocity S-wave (km/s) = 2.90058 3.86576 3.41742
# Velocity P-wave (km/s) = 4.36516 5.87034 5.17279
#
# Compressibility (1/GPa) = 0.05042213
#
# Stress axis : x y z
#
# Youngs Moduli (GPa) = 26.65436 117.51216 125.33244
#
# Poissons Ratio (x) = 0.29708 -0.07737
# Poissons Ratio (y) = 0.06738 -0.01490
# Poissons Ratio (z) = -0.01645 -0.01397
#
# Static dielectric constant tensor:
#      x y z
#    x 4.556160 -0.258830 -0.170580 
#    y -0.258830 5.398090 0.463710 
#    z -0.170580 0.463710 5.156630 
# 
# 
# High freq. dielectric constant tensor:
#      x y z
#    x 1.992800 0.001450 -0.011750 
#    y 0.001450 2.036080 0.008910 
#    z -0.011750 0.008910 2.021570 
# 
# From -- ./inp_files/319325.got.cif
#   From: 2010.06.25/outbox.cif.g09.slc.cpg/sg2_160_cif.got.tgz:319325.got - 2010.06.27 13:26:56.
