data_PCOD8030771
_publ_section_title
;
Structure prediction by ZEFSAII (Michael W. Deem and Ramdas Pophale) SiO2 
 PCOD8030771
Probable space group: P -1
;
_chemical_formula_sum "Si O2"
_cell_formula_units_Z 12
_cell_length_a 7.995833
_cell_length_b 11.813789
_cell_length_c 11.803443
_cell_angle_alpha 36.489251
_cell_angle_beta 100.940164
_cell_angle_gamma 120.400621
_cell_volume 518.143204
_symmetry_space_group_name_H-M "P -1"
_symmetry_group_IT_number 2
_symmetry_cell_setting 'triclinic'
loop_
_space_group_symop_operation_xyz
x,y,z
-x,-y,-z
loop_
_atom_site_type_symbol
_atom_site_label
_atom_site_fract_x
_atom_site_fract_y
_atom_site_fract_z
Si Si1 0.649362 0.492613 0.218248
Si Si2 0.984954 0.352750 0.010256
Si Si3 0.073814 0.343148 0.677236
Si Si4 0.691490 0.854332 0.083128
Si Si5 0.184876 0.122756 0.516614
Si Si6 0.784121 0.454157 0.703369
O O1 0.647396 0.717869 0.066310
O O2 0.408913 0.250124 0.375912
O O3 0.780540 0.471013 0.352406
O O4 0.771120 0.539353 0.077783
O O5 0.845526 0.074456 0.244987
O O6 0.866044 0.364944 0.879260
O O7 0.000000 0.500000 0.000000
O O8 0.917138 0.521214 0.546493
O O9 0.176004 0.202984 0.772421
O O10 0.829080 0.139589 0.852580
O O11 0.464339 0.752862 0.191316
O O12 0.181125 0.308876 0.440808
O O13 0.000000 0.000000 0.500000
#
# Coordination Sequence:
#
# PCOD8030771 Si02
#       6
#     2   2   2   2   2   2
#     4   9  22  40  65  92 128 161 207 260 310 372
#     4  12  26  43  60  94 128 166 218 254 303 374
#     4   9  18  37  67  94 124 162 205 252 321 369
#     4   8  18  37  65  96 123 164 201 251 318 374
#     4  11  24  45  65  92 125 171 208 258 310 369
#     4  11  22  40  67  93 127 162 206 258 313 370
#
# _framework density 23.15962
#
# number of rings (size 3 to 8) (size 9 to 14) (size 15 to 20)
#    1.000    1.000    1.667    1.500    0.000    3.333 
#    3.000    1.667    0.000    0.000    0.000    0.000 
#    0.000    0.000    0.000    0.000    0.000    0.000 
#
# Total GULP energy -148792.175650 kJ/mol
# GULP energy per Si atom -12399.347971 kJ/mol
# Density = 2.310691 g / cm^3
# Si number density = 23.159620 Si / 1000 Ang^3
#
#
#
# Elastic Constant Matrix: (Units=GPa)
#
#
# Indices 1 2 3 4 5 6 
#
# 1 103.8760 36.7304 63.9179 -6.0287 -35.5899 2.8866
# 2 36.7304 98.0647 58.7505 -2.7052 -24.4761 12.2516
# 3 63.9179 58.7505 168.3655 -9.7015 -13.2255 17.7196
# 4 -6.0287 -2.7052 -9.7015 33.3836 6.3605 -9.2332
# 5 -35.5899 -24.4761 -13.2255 6.3605 56.1984 1.6903
# 6 2.8866 12.2516 17.7196 -9.2332 1.6903 39.8130
#
#
#
# Elastic Compliance Matrix: (Units=1/GPa)
#
#
# Indices 1 2 3 4 5 6 
#
# 1 0.016042 -0.000887 -0.005225 -0.000020 0.008513 0.001070
# 2 -0.000887 0.014662 -0.004144 -0.002078 0.005183 -0.003305
# 3 -0.005225 -0.004144 0.009437 0.001458 -0.002996 -0.002081
# 4 -0.000020 -0.002078 0.001458 0.033264 -0.004577 0.007900
# 5 0.008513 0.005183 -0.002996 -0.004577 0.025346 -0.003016
# 6 0.001070 -0.003305 -0.002081 0.007900 -0.003016 0.028943
#
#
# Mechanical properties :
#
#
# Convention : Reuss Voigt Hill
#
# Bulk Modulus (GPa) = 50.95086 76.56709 63.75898
# Shear Modulus (GPa) = 32.31028 39.93950 36.12489
#
# Velocity S-wave (km/s) = 3.73917 4.15725 3.95374
# Velocity P-wave (km/s) = 6.37883 7.49507 6.95937
#
# Compressibility (1/GPa) = 0.01962675
#
# Stress axis : x y z
#
# Youngs Moduli (GPa) = 62.33697 68.20547 105.96644
#
# Poissons Ratio (x) = 0.06053 0.55372
# Poissons Ratio (y) = 0.05532 0.43912
# Poissons Ratio (z) = 0.32574 0.28264
#
# Static dielectric constant tensor:
#      x y z
#    x 4.939950 -0.341440 -0.513810 
#    y -0.341440 4.047960 0.194860 
#    z -0.513810 0.194860 4.761140 
# 
# 
# High freq. dielectric constant tensor:
#      x y z
#    x 1.942290 -0.006040 -0.000670 
#    y -0.006040 1.896870 -0.006830 
#    z -0.000670 -0.006830 1.920560 
# 
# From -- ./inp_files/41263.got.cif
#   From: 2010.06.25/outbox.cif.g09.slc.cpg/sg2_21_cif.got.tgz:41263.got - 2010.06.27 13:26:56.
