data_PCOD8030382
_publ_section_title
;
Structure prediction by ZEFSAII (Michael W. Deem and Ramdas Pophale) SiO2 
 PCOD8030382
Probable space group: P -1
;
_chemical_formula_sum "Si O2"
_cell_formula_units_Z 16
_cell_length_a 8.437958
_cell_length_b 8.090420
_cell_length_c 14.584378
_cell_angle_alpha 66.167741
_cell_angle_beta 78.599665
_cell_angle_gamma 123.761127
_cell_volume 629.733918
_symmetry_space_group_name_H-M "P -1"
_symmetry_group_IT_number 2
_symmetry_cell_setting 'triclinic'
loop_
_space_group_symop_operation_xyz
x,y,z
-x,-y,-z
loop_
_atom_site_type_symbol
_atom_site_label
_atom_site_fract_x
_atom_site_fract_y
_atom_site_fract_z
Si Si1 0.501227 0.658039 0.891007
Si Si2 0.900751 0.729387 0.102481
Si Si3 0.026434 0.935421 0.359132
Si Si4 0.712041 0.018803 0.404870
Si Si5 0.674425 0.529272 0.360945
Si Si6 0.673235 0.131554 0.035304
Si Si7 0.485572 0.204823 0.708806
Si Si8 0.996824 0.618108 0.563106
O O1 0.351312 0.481771 0.862243
O O2 0.372529 0.725253 0.934827
O O3 0.754245 0.896631 0.770587
O O4 0.500000 0.500000 0.000000
O O5 0.858530 0.677522 0.226033
O O6 0.067161 0.691118 0.069048
O O7 0.000000 0.000000 0.000000
O O8 0.929206 0.061043 0.348349
O O9 0.834708 0.644710 0.406231
O O10 0.069556 0.881828 0.466140
O O11 0.517310 0.777726 0.546346
O O12 0.593869 0.982693 0.328729
O O13 0.824132 0.274729 0.395317
O O14 0.541397 0.613163 0.362383
O O15 0.656113 0.951159 0.148947
O O16 0.500000 0.000000 0.000000
O O17 0.740461 0.384080 0.679276
O O18 0.000000 0.500000 0.500000
#
# Coordination Sequence:
#
# PCOD8030382 Si02
#       8
#     2   2   2   2   2   2   2   2
#     4  12  28  46  74 108 144 199 259 311 385 450
#     4  12  25  46  75 106 148 199 252 316 375 448
#     4  11  22  45  71 107 145 190 252 304 376 459
#     4  11  24  44  77 107 147 200 246 305 382 453
#     4  11  21  44  76 108 144 196 248 309 373 454
#     4  12  27  51  74 108 151 199 257 318 379 449
#     4  11  24  46  73 108 150 190 254 311 375 453
#     4  12  25  42  69 108 151 193 245 310 377 451
#
# _framework density 25.407557000000001
#
# number of rings (size 3 to 8) (size 9 to 14) (size 15 to 20)
#    0.000    0.500    3.750    5.250    3.500    0.500 
#    4.500    0.000    0.000    0.000    0.000    0.000 
#    0.000    0.000    0.000    0.000    0.000    0.000 
#
# Total GULP energy -198270.228542 kJ/mol
# GULP energy per Si atom -12391.889284 kJ/mol
# Density = 2.534973 g / cm^3
# Si number density = 25.407557 Si / 1000 Ang^3
#
#
#
# Elastic Constant Matrix: (Units=GPa)
#
#
# Indices 1 2 3 4 5 6 
#
# 1 89.7352 19.1322 25.7069 -2.7173 -19.8205 18.5878
# 2 19.1322 150.7426 28.7555 0.7518 -9.1145 31.5676
# 3 25.7069 28.7555 106.6899 10.1497 -18.8550 13.6176
# 4 -2.7173 0.7518 10.1497 32.0432 7.1145 -4.6505
# 5 -19.8205 -9.1145 -18.8550 7.1145 50.8401 11.2965
# 6 18.5878 31.5676 13.6176 -4.6505 11.2965 40.7789
#
#
#
# Elastic Compliance Matrix: (Units=1/GPa)
#
#
# Indices 1 2 3 4 5 6 
#
# 1 0.014920 0.000756 -0.001070 -0.001518 0.007851 -0.009377
# 2 0.000756 0.008561 -0.000651 -0.001893 0.003625 -0.007974
# 3 -0.001070 -0.000651 0.012135 -0.006041 0.006016 -0.005416
# 4 -0.001518 -0.001893 -0.006041 0.037117 -0.010905 0.011428
# 5 0.007851 0.003625 0.006016 -0.010905 0.031199 -0.018280
# 6 -0.009377 -0.007974 -0.005416 0.011428 -0.018280 0.043145
#
#
# Mechanical properties :
#
#
# Convention : Reuss Voigt Hill
#
# Bulk Modulus (GPa) = 29.68559 54.92855 42.30707
# Shear Modulus (GPa) = 31.20421 42.97065 37.08743
#
# Velocity S-wave (km/s) = 3.50829 4.11695 3.82475
# Velocity P-wave (km/s) = 5.30283 6.65319 6.01602
#
# Compressibility (1/GPa) = 0.03368638
#
# Stress axis : x y z
#
# Youngs Moduli (GPa) = 67.02545 116.81509 82.40383
#
# Poissons Ratio (x) = -0.08837 0.08817
# Poissons Ratio (y) = -0.05070 0.05365
# Poissons Ratio (z) = 0.07172 0.07605
#
# Static dielectric constant tensor:
#      x y z
#    x 4.744580 0.075260 0.297700 
#    y 0.075260 4.838030 0.577630 
#    z 0.297700 0.577630 4.388340 
# 
# 
# High freq. dielectric constant tensor:
#      x y z
#    x 2.028570 0.013320 -0.009140 
#    y 0.013320 2.017960 0.011700 
#    z -0.009140 0.011700 2.022890 
# 
# From -- ./inp_files/494662.got.cif
#   From: 2010.06.25/outbox.cif.g09.slc.cpg/sg2_248_cif.got.tgz:494662.got - 2010.06.27 13:26:56.
