data_PCOD8030606
_publ_section_title
;
Structure prediction by ZEFSAII (Michael W. Deem and Ramdas Pophale) SiO2 
 PCOD8030606
Probable space group: P -1
;
_chemical_formula_sum "Si O2"
_cell_formula_units_Z 16
_cell_length_a 8.346555
_cell_length_b 14.940865
_cell_length_c 9.681711
_cell_angle_alpha 65.075383
_cell_angle_beta 58.456718
_cell_angle_gamma 102.091393
_cell_volume 775.420633
_symmetry_space_group_name_H-M "P -1"
_symmetry_group_IT_number 2
_symmetry_cell_setting 'triclinic'
loop_
_space_group_symop_operation_xyz
x,y,z
-x,-y,-z
loop_
_atom_site_type_symbol
_atom_site_label
_atom_site_fract_x
_atom_site_fract_y
_atom_site_fract_z
Si Si1 0.719602 0.626852 0.289706
Si Si2 0.243941 0.206633 0.059761
Si Si3 0.253890 0.947064 0.505150
Si Si4 0.723404 0.011023 0.841940
Si Si5 0.010122 0.616970 0.941222
Si Si6 0.502733 0.163695 0.427339
Si Si7 0.291082 0.365296 0.158982
Si Si8 0.835678 0.770186 0.409833
O O1 0.500000 0.500000 0.500000
O O2 0.833419 0.690408 0.340665
O O3 0.672987 0.711005 0.166319
O O4 0.878789 0.600922 0.150247
O O5 0.321867 0.118568 0.054641
O O6 0.367017 0.291068 0.083724
O O7 0.970707 0.137379 0.246961
O O8 0.443457 0.916940 0.452036
O O9 0.188346 0.932203 0.385345
O O10 0.361688 0.084001 0.410161
O O11 0.926584 0.102941 0.789913
O O12 0.500000 0.000000 0.000000
O O13 0.264354 0.719409 0.796118
O O14 0.909570 0.641706 0.834564
O O15 0.000000 0.500000 0.000000
O O16 0.357674 0.204147 0.545241
O O17 0.197957 0.301829 0.388388
O O18 0.500000 0.500000 0.000000
#
# Coordination Sequence:
#
# PCOD8030606 Si02
#       8
#     2   2   2   2   2   2   2   2
#     4  11  25  44  66 100 140 175 226 286 348 399
#     4  11  22  47  70  94 139 186 228 277 344 418
#     4  11  22  43  68  98 133 175 232 275 334 416
#     4  12  27  42  66 103 143 177 224 285 353 413
#     4  11  23  44  69  99 130 178 239 281 329 414
#     4  11  22  38  71  97 127 177 228 278 331 406
#     4  11  22  43  71  96 131 182 234 278 337 406
#     4  12  24  42  69  98 139 174 225 286 351 396
#
# _framework density 20.633963000000001
#
# number of rings (size 3 to 8) (size 9 to 14) (size 15 to 20)
#    0.000    0.750    5.000    4.125    3.500    0.500 
#    2.250    0.625    0.000    0.000    0.000    0.000 
#    0.000    0.000    0.000    0.000    0.000    0.000 
#
# Total GULP energy -198385.715587 kJ/mol
# GULP energy per Si atom -12399.107224 kJ/mol
# Density = 2.058700 g / cm^3
# Si number density = 20.633963 Si / 1000 Ang^3
#
#
#
# Elastic Constant Matrix: (Units=GPa)
#
#
# Indices 1 2 3 4 5 6 
#
# 1 83.3932 61.9177 51.5243 7.3637 -9.8910 -6.6115
# 2 61.9177 190.7175 68.9882 -3.0805 -2.4069 3.6539
# 3 51.5243 68.9882 122.8526 -5.4143 -0.1298 0.3675
# 4 7.3637 -3.0805 -5.4143 39.7575 6.4646 -4.8302
# 5 -9.8910 -2.4069 -0.1298 6.4646 44.2929 -0.8713
# 6 -6.6115 3.6539 0.3675 -4.8302 -0.8713 49.5459
#
#
#
# Elastic Compliance Matrix: (Units=1/GPa)
#
#
# Indices 1 2 3 4 5 6 
#
# 1 0.020536 -0.004439 -0.006366 -0.005534 0.005186 0.002667
# 2 -0.004439 0.007556 -0.002331 0.001089 -0.000767 -0.001040
# 3 -0.006366 -0.002331 0.012247 0.002920 -0.001949 -0.000518
# 4 -0.005534 0.001089 0.002920 0.027717 -0.005178 0.001771
# 5 0.005186 -0.000767 -0.001949 -0.005178 0.024457 0.000688
# 6 0.002667 -0.001040 -0.000518 0.001771 0.000688 0.020804
#
#
# Mechanical properties :
#
#
# Convention : Reuss Voigt Hill
#
# Bulk Modulus (GPa) = 71.09429 84.64709 77.87069
# Shear Modulus (GPa) = 34.65540 41.02146 37.83843
#
# Velocity S-wave (km/s) = 4.10266 4.46360 4.28693
# Velocity P-wave (km/s) = 7.54799 8.22661 7.89460
#
# Compressibility (1/GPa) = 0.01406583
#
# Stress axis : x y z
#
# Youngs Moduli (GPa) = 48.69490 132.35362 81.65363
#
# Poissons Ratio (x) = 0.58756 0.51983
# Poissons Ratio (y) = 0.21617 0.19031
# Poissons Ratio (z) = 0.31001 0.30848
#
# Static dielectric constant tensor:
#      x y z
#    x 3.711310 0.042560 0.015130 
#    y 0.042560 4.433840 -0.179720 
#    z 0.015130 -0.179720 3.624810 
# 
# 
# High freq. dielectric constant tensor:
#      x y z
#    x 1.801450 0.003060 0.001050 
#    y 0.003060 1.836300 -0.012620 
#    z 0.001050 -0.012620 1.800120 
# 
# From -- ./inp_files/206222.got.cif
#   From: 2010.06.25/outbox.cif.g09.slc.cpg/sg2_104_cif.got.tgz:206222.got - 2010.06.27 13:26:56.
