data_PCOD8030633
_publ_section_title
;
Structure prediction by ZEFSAII (Michael W. Deem and Ramdas Pophale) SiO2 
 PCOD8030633
Probable space group: P -1
;
_chemical_formula_sum "Si O2"
_cell_formula_units_Z 16
_cell_length_a 8.833443
_cell_length_b 18.368875
_cell_length_c 13.933201
_cell_angle_alpha 157.860703
_cell_angle_beta 121.369019
_cell_angle_gamma 59.440176
_cell_volume 725.042734
_symmetry_space_group_name_H-M "P -1"
_symmetry_group_IT_number 2
_symmetry_cell_setting 'triclinic'
loop_
_space_group_symop_operation_xyz
x,y,z
-x,-y,-z
loop_
_atom_site_type_symbol
_atom_site_label
_atom_site_fract_x
_atom_site_fract_y
_atom_site_fract_z
Si Si1 0.371863 0.224912 0.379442
Si Si2 0.257086 0.325464 0.012864
Si Si3 0.482977 0.800838 0.903417
Si Si4 0.826019 0.851876 0.955036
Si Si5 0.283635 0.722850 0.567402
Si Si6 0.058983 0.783362 0.115667
Si Si7 0.323341 0.425482 0.806580
Si Si8 0.690198 0.879899 0.413680
O O1 0.551118 0.265847 0.435021
O O2 0.346529 0.372834 0.638869
O O3 0.385741 0.005132 0.154938
O O4 0.199254 0.246534 0.277510
O O5 0.446319 0.310020 0.113248
O O6 0.302088 0.281696 0.864362
O O7 0.117256 0.180619 0.831431
O O8 0.175847 0.546503 0.276214
O O9 0.642345 0.842222 0.937163
O O10 0.349006 0.681423 0.649276
O O11 0.992422 0.746248 0.938994
O O12 0.849796 0.082816 0.238092
O O13 0.161070 0.975803 0.383975
O O14 0.173849 0.602392 0.977602
O O15 0.270284 0.237951 0.618973
O O16 0.500000 0.500000 0.000000
O O17 0.500000 0.000000 0.500000
#
# Coordination Sequence:
#
# PCOD8030633 Si02
#       8
#     2   2   2   2   2   2   2   2
#     4   9  18  38  64  93 128 170 207 258 317 374
#     4  11  22  39  64  96 127 167 211 265 317 366
#     4   8  16  33  61  94 127 161 209 260 311 377
#     4   8  18  38  62  92 130 162 203 267 323 365
#     4   9  17  33  66  98 123 163 213 258 312 381
#     4  11  26  44  64  94 132 163 212 271 316 373
#     4  12  25  43  66  92 127 171 220 256 308 387
#     4  12  26  46  65  90 130 169 215 259 314 383
#
# _framework density 22.067664000000001
#
# number of rings (size 3 to 8) (size 9 to 14) (size 15 to 20)
#    0.000    2.000    1.250    3.750    1.750    1.000 
#    4.500    0.625    2.750    0.000    0.000    0.000 
#    0.000    0.000    0.000    0.000    0.000    0.000 
#
# Total GULP energy -198303.961253 kJ/mol
# GULP energy per Si atom -12393.997578 kJ/mol
# Density = 2.201744 g / cm^3
# Si number density = 22.067664 Si / 1000 Ang^3
#
#
#
# Elastic Constant Matrix: (Units=GPa)
#
#
# Indices 1 2 3 4 5 6 
#
# 1 46.5296 22.9354 24.6851 -7.7182 6.4646 2.7503
# 2 22.9354 134.9063 29.1535 -4.3930 -5.6507 -2.1899
# 3 24.6851 29.1535 105.1493 -16.2044 3.6828 3.5742
# 4 -7.7182 -4.3930 -16.2044 35.1755 10.4906 -1.1886
# 5 6.4646 -5.6507 3.6828 10.4906 29.0658 -1.6526
# 6 2.7503 -2.1899 3.5742 -1.1886 -1.6526 26.8240
#
#
#
# Elastic Compliance Matrix: (Units=1/GPa)
#
#
# Indices 1 2 3 4 5 6 
#
# 1 0.028173 -0.004129 -0.004069 0.006383 -0.009025 -0.002957
# 2 -0.004129 0.008634 -0.001859 -0.001685 0.003527 0.001519
# 3 -0.004069 -0.001859 0.011927 0.005196 -0.002915 -0.001273
# 4 0.006383 -0.001685 0.005196 0.036663 -0.015685 -0.000826
# 5 -0.009025 0.003527 -0.002915 -0.015685 0.043331 0.003576
# 6 -0.002957 0.001519 -0.001273 -0.000826 0.003576 0.038061
#
#
# Mechanical properties :
#
#
# Convention : Reuss Voigt Hill
#
# Bulk Modulus (GPa) = 34.94025 48.90369 41.92197
# Shear Modulus (GPa) = 25.45276 32.20047 28.82661
#
# Velocity S-wave (km/s) = 3.39985 3.82405 3.61817
# Velocity P-wave (km/s) = 5.59282 6.45807 6.04096
#
# Compressibility (1/GPa) = 0.02862029
#
# Stress axis : x y z
#
# Youngs Moduli (GPa) = 35.49503 115.82441 83.84225
#
# Poissons Ratio (x) = 0.47819 0.34115
# Poissons Ratio (y) = 0.14654 0.15589
# Poissons Ratio (z) = 0.14443 0.21535
#
# Static dielectric constant tensor:
#      x y z
#    x 3.557610 0.007630 0.147120 
#    y 0.007630 4.351400 -0.126770 
#    z 0.147120 -0.126770 4.061880 
# 
# 
# High freq. dielectric constant tensor:
#      x y z
#    x 1.831230 0.004710 0.009190 
#    y 0.004710 1.877340 -0.004860 
#    z 0.009190 -0.004860 1.871860 
# 
# From -- ./inp_files/508216.got.cif
#   From: 2010.06.25/outbox.cif.g09.slc.cpg/sg2_255_cif.got.tgz:508216.got - 2010.06.27 13:26:56.
