data_PCOD8030405
_publ_section_title
;
Structure prediction by ZEFSAII (Michael W. Deem and Ramdas Pophale) SiO2 
 PCOD8030405
Probable space group: P -1
;
_chemical_formula_sum "Si O2"
_cell_formula_units_Z 14
_cell_length_a 9.765796
_cell_length_b 12.490706
_cell_length_c 9.412782
_cell_angle_alpha 122.910569
_cell_angle_beta 134.791465
_cell_angle_gamma 72.136363
_cell_volume 678.480365
_symmetry_space_group_name_H-M "P -1"
_symmetry_group_IT_number 2
_symmetry_cell_setting 'triclinic'
loop_
_space_group_symop_operation_xyz
x,y,z
-x,-y,-z
loop_
_atom_site_type_symbol
_atom_site_label
_atom_site_fract_x
_atom_site_fract_y
_atom_site_fract_z
Si Si1 0.441411 0.635580 0.587410
Si Si2 0.752747 0.212157 0.661701
Si Si3 0.630716 0.315212 0.927330
Si Si4 0.174162 0.722080 0.672688
Si Si5 0.817610 0.768622 0.074329
Si Si6 0.766273 0.612371 0.205288
Si Si7 0.292671 0.966240 0.752284
O O1 0.500000 0.500000 0.500000
O O2 0.305393 0.669103 0.385213
O O3 0.319402 0.631434 0.641254
O O4 0.634304 0.739691 0.814154
O O5 0.645547 0.215767 0.736921
O O6 0.687167 0.081218 0.430136
O O7 0.984952 0.233741 0.871389
O O8 0.406174 0.318708 0.803449
O O9 0.745729 0.253642 0.093008
O O10 0.726040 0.458593 0.061530
O O11 0.173236 0.852927 0.675890
O O12 0.955938 0.650776 0.468071
O O13 0.803834 0.660262 0.107015
O O14 0.821375 0.910196 0.246919
O O15 0.500000 0.000000 0.000000
#
# Coordination Sequence:
#
# PCOD8030405 Si02
#       7
#     2   2   2   2   2   2   2
#     4  11  23  38  67  99 130 164 219 271 313 388
#     4  11  25  40  67  98 125 170 224 270 316 387
#     4  11  25  43  61  98 136 168 211 269 333 384
#     4  11  23  43  65  94 131 177 210 264 331 390
#     4  12  22  43  72  94 127 173 220 270 321 385
#     4  11  23  41  68  91 133 177 208 260 336 391
#     4  11  21  45  70  91 128 172 225 269 321 380
#
# _framework density 20.634349
#
# number of rings (size 3 to 8) (size 9 to 14) (size 15 to 20)
#    0.000    0.857    7.143    1.714    4.000    2.286 
#    0.000    3.571    0.000    0.000    0.000    0.000 
#    0.000    0.000    0.000    0.000    0.000    0.000 
#
# Total GULP energy -173625.210812 kJ/mol
# GULP energy per Si atom -12401.800772 kJ/mol
# Density = 2.058738 g / cm^3
# Si number density = 20.634349 Si / 1000 Ang^3
#
#
#
# Elastic Constant Matrix: (Units=GPa)
#
#
# Indices 1 2 3 4 5 6 
#
# 1 90.8888 6.8724 50.3262 -4.2511 -4.0246 -12.9961
# 2 6.8724 74.4063 12.7176 6.7133 -12.9016 -14.4540
# 3 50.3262 12.7176 113.0430 -4.0543 5.7566 -12.0105
# 4 -4.2511 6.7133 -4.0543 33.5576 -1.2027 -0.6432
# 5 -4.0246 -12.9016 5.7566 -1.2027 48.0437 -4.9462
# 6 -12.9961 -14.4540 -12.0105 -0.6432 -4.9462 29.4305
#
#
#
# Elastic Compliance Matrix: (Units=1/GPa)
#
#
# Indices 1 2 3 4 5 6 
#
# 1 0.015491 0.001117 -0.006576 0.001151 0.002952 0.005227
# 2 0.001117 0.016597 -0.001826 -0.003031 0.005597 0.008773
# 3 -0.006576 -0.001826 0.012220 0.000938 -0.002399 0.000804
# 4 0.001151 -0.003031 0.000938 0.030664 -0.000056 0.000063
# 5 0.002952 0.005597 -0.002399 -0.000056 0.023575 0.007034
# 6 0.005227 0.008773 0.000804 0.000063 0.007034 0.042107
#
#
# Mechanical properties :
#
#
# Convention : Reuss Voigt Hill
#
# Bulk Modulus (GPa) = 33.62699 46.46338 40.04518
# Shear Modulus (GPa) = 30.27787 36.10117 33.18952
#
# Velocity S-wave (km/s) = 3.83476 4.18732 4.01491
# Velocity P-wave (km/s) = 5.99493 6.77824 6.39858
#
# Compressibility (1/GPa) = 0.02973802
#
# Stress axis : x y z
#
# Youngs Moduli (GPa) = 64.55304 60.25252 81.83034
#
# Poissons Ratio (x) = -0.06728 0.53811
# Poissons Ratio (y) = -0.07208 0.14941
# Poissons Ratio (z) = 0.42450 0.11001
#
# Static dielectric constant tensor:
#      x y z
#    x 3.796920 -0.157200 0.067710 
#    y -0.157200 4.111210 -0.000410 
#    z 0.067710 -0.000410 4.030760 
# 
# 
# High freq. dielectric constant tensor:
#      x y z
#    x 1.798630 -0.017020 0.010250 
#    y -0.017020 1.804200 -0.009290 
#    z 0.010250 -0.009290 1.817710 
# 
# From -- ./inp_files/187137.got.cif
#   From: 2010.06.25/outbox.cif.g09.slc.cpg/sg2_94_cif.got.tgz:187137.got - 2010.06.27 13:26:56.
