data_PCOD8030301
_publ_section_title
;
Structure prediction by ZEFSAII (Michael W. Deem and Ramdas Pophale) SiO2 
 PCOD8030301
Probable space group: P -1
;
_chemical_formula_sum "Si O2"
_cell_formula_units_Z 16
_cell_length_a 6.712283
_cell_length_b 21.285625
_cell_length_c 8.733786
_cell_angle_alpha 90.683016
_cell_angle_beta 92.835994
_cell_angle_gamma 139.743755
_cell_volume 802.986707
_symmetry_space_group_name_H-M "P -1"
_symmetry_group_IT_number 2
_symmetry_cell_setting 'triclinic'
loop_
_space_group_symop_operation_xyz
x,y,z
-x,-y,-z
loop_
_atom_site_type_symbol
_atom_site_label
_atom_site_fract_x
_atom_site_fract_y
_atom_site_fract_z
Si Si1 0.151077 0.980731 0.096329
Si Si2 0.303129 0.997908 0.599156
Si Si3 0.182782 0.886816 0.862361
Si Si4 0.997225 0.487688 0.180903
Si Si5 0.199259 0.423767 0.380600
Si Si6 0.748294 0.876880 0.376109
Si Si7 0.652165 0.676481 0.691685
Si Si8 0.672719 0.336069 0.586673
O O1 0.006907 0.943417 0.257257
O O2 0.518156 0.086354 0.112814
O O3 0.085858 0.896075 0.018167
O O4 0.000000 0.000000 0.000000
O O5 0.313539 0.976113 0.770406
O O6 0.940851 0.909861 0.537927
O O7 0.500000 0.000000 0.500000
O O8 0.434178 0.100971 0.608671
O O9 0.894636 0.783238 0.773526
O O10 0.642228 0.395184 0.211528
O O11 0.192046 0.473314 0.243555
O O12 0.142274 0.582568 0.273932
O O13 0.000000 0.500000 0.000000
O O14 0.500000 0.500000 0.500000
O O15 0.185403 0.352104 0.302239
O O16 0.902404 0.361649 0.473119
O O17 0.505524 0.762690 0.336006
O O18 0.559126 0.673529 0.514652
#
# Coordination Sequence:
#
# PCOD8030301 Si02
#       8
#     2   2   2   2   2   2   2   2
#     4  11  24  44  61  88 138 172 208 264 328 385
#     4  11  22  40  62  94 127 162 217 266 308 373
#     4  11  24  41  65  93 126 173 214 262 320 383
#     4  11  25  44  65  99 137 163 213 281 327 383
#     4  11  21  44  68  90 128 176 217 263 326 387
#     4  11  24  38  65  93 127 170 211 266 320 376
#     4  11  23  43  70  94 124 172 221 265 322 391
#     4  11  23  41  67  97 128 167 217 272 322 383
#
# _framework density 19.925609000000001
#
# number of rings (size 3 to 8) (size 9 to 14) (size 15 to 20)
#    0.000    1.000    6.250    0.750    3.500    2.500 
#    0.000    0.000    0.000    0.000    0.000    0.000 
#    0.000    0.000    0.000    0.000    0.000    0.000 
#
# Total GULP energy -198382.689386 kJ/mol
# GULP energy per Si atom -12398.918087 kJ/mol
# Density = 1.988026 g / cm^3
# Si number density = 19.925609 Si / 1000 Ang^3
#
#
#
# Elastic Constant Matrix: (Units=GPa)
#
#
# Indices 1 2 3 4 5 6 
#
# 1 137.9181 43.8597 42.2823 -3.7816 4.1115 -7.3415
# 2 43.8597 113.7254 36.5019 5.3630 6.1165 -3.4869
# 3 42.2823 36.5019 102.6200 4.5792 2.8894 -1.0425
# 4 -3.7816 5.3630 4.5792 23.1528 3.0325 5.8613
# 5 4.1115 6.1165 2.8894 3.0325 33.5271 2.7449
# 6 -7.3415 -3.4869 -1.0425 5.8613 2.7449 26.3720
#
#
#
# Elastic Compliance Matrix: (Units=1/GPa)
#
#
# Indices 1 2 3 4 5 6 
#
# 1 0.009148 -0.002616 -0.002906 0.002357 -0.000741 0.001639
# 2 -0.002616 0.010878 -0.002625 -0.002590 -0.001311 0.001318
# 3 -0.002906 -0.002625 0.011971 -0.002186 0.000018 -0.000199
# 4 0.002357 -0.002590 -0.002186 0.047552 -0.003109 -0.010018
# 5 -0.000741 -0.001311 0.000018 -0.003109 0.030672 -0.002881
# 6 0.001639 0.001318 -0.000199 -0.010018 -0.002881 0.041068
#
#
# Mechanical properties :
#
#
# Convention : Reuss Voigt Hill
#
# Bulk Modulus (GPa) = 63.69051 66.61681 65.15366
# Shear Modulus (GPa) = 28.93229 32.05171 30.49200
#
# Velocity S-wave (km/s) = 3.81467 4.01505 3.91614
# Velocity P-wave (km/s) = 7.17187 7.41616 7.29504
#
# Compressibility (1/GPa) = 0.01570093
#
# Stress axis : x y z
#
# Youngs Moduli (GPa) = 109.31861 91.93049 83.53524
#
# Poissons Ratio (x) = 0.24050 0.24277
# Poissons Ratio (y) = 0.28599 0.21932
# Poissons Ratio (z) = 0.31770 0.24136
#
# Static dielectric constant tensor:
#      x y z
#    x 4.044220 0.010850 0.064700 
#    y 0.010850 3.681550 -0.201610 
#    z 0.064700 -0.201610 3.969970 
# 
# 
# High freq. dielectric constant tensor:
#      x y z
#    x 1.795250 -0.001420 0.003770 
#    y -0.001420 1.768620 0.007220 
#    z 0.003770 0.007220 1.777110 
# 
# From -- ./inp_files/56316.got.cif
#   From: 2010.06.25/outbox.cif.g09.slc.cpg/sg2_29_cif.got.tgz:56316.got - 2010.06.27 13:26:56.
