data_PCOD8030075
_publ_section_title
;
Structure prediction by ZEFSAII (Michael W. Deem and Ramdas Pophale) SiO2 
 PCOD8030075
Probable space group: P -1
;
_chemical_formula_sum "Si O2"
_cell_formula_units_Z 14
_cell_length_a 12.678872
_cell_length_b 7.546361
_cell_length_c 9.666744
_cell_angle_alpha 134.301285
_cell_angle_beta 107.959709
_cell_angle_gamma 91.905246
_cell_volume 586.197261
_symmetry_space_group_name_H-M "P -1"
_symmetry_group_IT_number 2
_symmetry_cell_setting 'triclinic'
loop_
_space_group_symop_operation_xyz
x,y,z
-x,-y,-z
loop_
_atom_site_type_symbol
_atom_site_label
_atom_site_fract_x
_atom_site_fract_y
_atom_site_fract_z
Si Si1 0.223295 0.481507 0.831090
Si Si2 0.181382 0.223550 0.174466
Si Si3 0.173908 0.009985 0.349447
Si Si4 0.009243 0.508466 0.346104
Si Si5 0.344682 0.744716 0.396544
Si Si6 0.907461 0.927519 0.231898
Si Si7 0.533256 0.258822 0.830679
O O1 0.195673 0.324510 0.880939
O O2 0.120875 0.601074 0.834368
O O3 0.227470 0.290923 0.603196
O O4 0.349252 0.726146 0.026800
O O5 0.074117 0.324250 0.215303
O O6 0.297174 0.481088 0.326371
O O7 0.205986 0.072725 0.234384
O O8 0.138168 0.029554 0.916829
O O9 0.235965 0.807704 0.315079
O O10 0.031764 0.878140 0.244085
O O11 0.000000 0.500000 0.500000
O O12 0.077120 0.827066 0.521881
O O13 0.435698 0.708271 0.301294
O O14 0.421992 0.984721 0.660751
O O15 0.500000 0.500000 0.000000
#
# Coordination Sequence:
#
# PCOD8030075 Si02
#       7
#     2   2   2   2   2   2   2
#     4  11  21  42  67  94 134 181 215 273 333 387
#     4  12  24  43  69 103 139 174 218 274 334 402
#     4  11  23  42  69 102 141 168 220 275 329 407
#     4  11  23  38  64 100 142 170 211 265 334 402
#     4  11  25  44  71  97 126 180 229 275 332 391
#     4  11  23  40  64 101 138 173 217 267 331 407
#     4  11  24  45  70  91 129 177 232 280 328 389
#
# _framework density 23.882745
#
# number of rings (size 3 to 8) (size 9 to 14) (size 15 to 20)
#    0.000    0.857    5.714    3.857    2.000    1.143 
#    0.000    3.571    3.143    0.000    0.000    0.000 
#    0.000    0.000    0.000    0.000    0.000    0.000 
#
# Total GULP energy -173608.406285 kJ/mol
# GULP energy per Si atom -12400.600449 kJ/mol
# Density = 2.382839 g / cm^3
# Si number density = 23.882745 Si / 1000 Ang^3
#
#
#
# Elastic Constant Matrix: (Units=GPa)
#
#
# Indices 1 2 3 4 5 6 
#
# 1 57.6647 11.9624 31.0039 9.8592 9.0251 3.5683
# 2 11.9624 66.1447 17.8786 -10.8155 12.5272 7.2957
# 3 31.0039 17.8786 132.9672 2.5899 16.1494 10.6430
# 4 9.8592 -10.8155 2.5899 38.7162 2.8415 -3.9329
# 5 9.0251 12.5272 16.1494 2.8415 52.2089 4.7411
# 6 3.5683 7.2957 10.6430 -3.9329 4.7411 18.4122
#
#
#
# Elastic Compliance Matrix: (Units=1/GPa)
#
#
# Indices 1 2 3 4 5 6 
#
# 1 0.021654 -0.003423 -0.004212 -0.006251 -0.001148 -0.001445
# 2 -0.003423 0.018028 -0.001026 0.005843 -0.003393 -0.003765
# 3 -0.004212 -0.001026 0.009120 -0.000087 -0.001508 -0.003679
# 4 -0.006251 0.005843 -0.000087 0.029844 -0.002459 0.005955
# 5 -0.001148 -0.003393 -0.001508 -0.002459 0.021086 -0.003517
# 6 -0.001445 -0.003765 -0.003679 0.005955 -0.003517 0.060388
#
#
# Mechanical properties :
#
#
# Convention : Reuss Voigt Hill
#
# Bulk Modulus (GPa) = 31.76665 42.05183 36.90924
# Shear Modulus (GPa) = 26.60468 34.92957 30.76712
#
# Velocity S-wave (km/s) = 3.34124 3.82847 3.59312
# Velocity P-wave (km/s) = 5.31179 6.09826 5.71856
#
# Compressibility (1/GPa) = 0.03147956
#
# Stress axis : x y z
#
# Youngs Moduli (GPa) = 46.18025 55.46896 109.64817
#
# Poissons Ratio (x) = 0.18988 0.46184
# Poissons Ratio (y) = 0.15808 0.11252
# Poissons Ratio (z) = 0.19451 0.05692
#
# Static dielectric constant tensor:
#      x y z
#    x 4.390140 0.065850 0.098550 
#    y 0.065850 4.479860 0.163910 
#    z 0.098550 0.163910 4.728660 
# 
# 
# High freq. dielectric constant tensor:
#      x y z
#    x 1.932920 0.007090 -0.007020 
#    y 0.007090 1.929040 0.007490 
#    z -0.007020 0.007490 1.976810 
# 
# From -- ./inp_files/236240.got.cif
#   From: 2010.06.25/outbox.cif.g09.slc.cpg/sg2_119_cif.got.tgz:236240.got - 2010.06.27 13:26:56.
