data_PCOD8030379
_publ_section_title
;
Structure prediction by ZEFSAII (Michael W. Deem and Ramdas Pophale) SiO2 
 PCOD8030379
Probable space group: P -1
;
_chemical_formula_sum "Si O2"
_cell_formula_units_Z 16
_cell_length_a 11.640816
_cell_length_b 16.482584
_cell_length_c 8.560989
_cell_angle_alpha 128.102153
_cell_angle_beta 146.163924
_cell_angle_gamma 58.913141
_cell_volume 719.708118
_symmetry_space_group_name_H-M "P -1"
_symmetry_group_IT_number 2
_symmetry_cell_setting 'triclinic'
loop_
_space_group_symop_operation_xyz
x,y,z
-x,-y,-z
loop_
_atom_site_type_symbol
_atom_site_label
_atom_site_fract_x
_atom_site_fract_y
_atom_site_fract_z
Si Si1 0.945741 0.152052 0.070738
Si Si2 0.648852 0.056332 0.850437
Si Si3 0.307930 0.426001 0.156807
Si Si4 0.905126 0.923104 0.178050
Si Si5 0.373759 0.249435 0.789376
Si Si6 0.183453 0.299916 0.150374
Si Si7 0.422892 0.689292 0.205324
Si Si8 0.892130 0.443670 0.171135
O O1 0.154579 0.205313 0.432351
O O2 0.864214 0.076583 0.025546
O O3 0.765165 0.233466 0.935989
O O4 0.974097 0.093469 0.868712
O O5 0.536271 0.159189 0.906194
O O6 0.500000 0.000000 0.500000
O O7 0.690918 0.979326 0.951773
O O8 0.500000 0.500000 0.500000
O O9 0.189880 0.389298 0.134648
O O10 0.372488 0.318115 0.023808
O O11 0.139824 0.483085 0.927035
O O12 0.890510 0.813352 0.121583
O O13 0.000000 0.000000 0.500000
O O14 0.462759 0.325931 0.848451
O O15 0.408658 0.271736 0.436334
O O16 0.027438 0.343123 0.157831
O O17 0.333075 0.584216 0.049372
O O18 0.000000 0.500000 0.500000
#
# Coordination Sequence:
#
# PCOD8030379 Si02
#       8
#     2   2   2   2   2   2   2   2
#     4  11  22  45  72 103 143 184 240 296 344 422
#     4  11  24  44  75 103 141 190 246 291 350 425
#     4  12  28  47  72 107 147 189 232 296 367 421
#     4  12  26  44  71 107 142 189 232 293 365 414
#     4  11  25  45  73 105 142 188 242 294 349 426
#     4  12  26  49  68 102 156 180 236 298 355 429
#     4  11  21  44  75 100 142 184 239 294 348 419
#     4  12  26  46  77 106 136 195 241 290 359 425
#
# _framework density 22.231235000000002
#
# number of rings (size 3 to 8) (size 9 to 14) (size 15 to 20)
#    0.000    0.500    5.000    3.000    3.500    3.000 
#    2.250    1.875    0.000    0.000    0.000    0.000 
#    0.000    0.000    0.000    0.000    0.000    0.000 
#
# Total GULP energy -198309.808807 kJ/mol
# GULP energy per Si atom -12394.363050 kJ/mol
# Density = 2.218064 g / cm^3
# Si number density = 22.231235 Si / 1000 Ang^3
#
#
#
# Elastic Constant Matrix: (Units=GPa)
#
#
# Indices 1 2 3 4 5 6 
#
# 1 85.9413 28.8994 51.3395 12.0093 10.3605 0.3388
# 2 28.8994 108.2621 47.0723 3.3767 1.9516 12.2354
# 3 51.3395 47.0723 134.1948 11.9270 -7.3758 -8.0717
# 4 12.0093 3.3767 11.9270 45.5192 -0.3359 -6.2854
# 5 10.3605 1.9516 -7.3758 -0.3359 40.2287 6.4012
# 6 0.3388 12.2354 -8.0717 -6.2854 6.4012 41.7188
#
#
#
# Elastic Compliance Matrix: (Units=1/GPa)
#
#
# Indices 1 2 3 4 5 6 
#
# 1 0.016748 -0.001687 -0.005876 -0.002848 -0.005269 -0.000399
# 2 -0.001687 0.011788 -0.003746 -0.000022 -0.000165 -0.004146
# 3 -0.005876 -0.003746 0.011430 -0.000765 0.003350 0.002729
# 4 -0.002848 -0.000022 -0.000765 0.023389 0.000254 0.003366
# 5 -0.005269 -0.000165 0.003350 0.000254 0.027384 -0.003424
# 6 -0.000399 -0.004146 0.002729 0.003366 -0.003424 0.026750
#
#
# Mechanical properties :
#
#
# Convention : Reuss Voigt Hill
#
# Bulk Modulus (GPa) = 57.64319 64.78009 61.21164
# Shear Modulus (GPa) = 34.27223 38.89913 36.58568
#
# Velocity S-wave (km/s) = 3.93061 4.18754 4.06111
# Velocity P-wave (km/s) = 6.82531 7.25142 7.04159
#
# Compressibility (1/GPa) = 0.01734810
#
# Stress axis : x y z
#
# Youngs Moduli (GPa) = 59.70810 84.83033 87.48691
#
# Poissons Ratio (x) = 0.14310 0.51409
# Poissons Ratio (y) = 0.10072 0.32774
# Poissons Ratio (z) = 0.35086 0.31779
#
# Static dielectric constant tensor:
#      x y z
#    x 4.152900 -0.110660 0.256120 
#    y -0.110660 3.993760 -0.021400 
#    z 0.256120 -0.021400 3.967860 
# 
# 
# High freq. dielectric constant tensor:
#      x y z
#    x 1.875030 0.006030 0.007420 
#    y 0.006030 1.899490 -0.002060 
#    z 0.007420 -0.002060 1.872040 
# 
# From -- ./inp_files/126926.got.cif
#   From: 2010.06.25/outbox.cif.g09.slc.cpg/sg2_64_cif.got.tgz:126926.got - 2010.06.27 13:26:56.
