data_PCOD8030857
_publ_section_title
;
Structure prediction by ZEFSAII (Michael W. Deem and Ramdas Pophale) SiO2 
 PCOD8030857
Probable space group: P -1
;
_chemical_formula_sum "Si O2"
_cell_formula_units_Z 16
_cell_length_a 21.302263
_cell_length_b 18.488106
_cell_length_c 12.910903
_cell_angle_alpha 27.299646
_cell_angle_beta 144.418557
_cell_angle_gamma 161.636352
_cell_volume 718.631467
_symmetry_space_group_name_H-M "P -1"
_symmetry_group_IT_number 2
_symmetry_cell_setting 'triclinic'
loop_
_space_group_symop_operation_xyz
x,y,z
-x,-y,-z
loop_
_atom_site_type_symbol
_atom_site_label
_atom_site_fract_x
_atom_site_fract_y
_atom_site_fract_z
Si Si1 0.456661 0.310346 0.763291
Si Si2 0.235576 0.758021 0.506816
Si Si3 0.813481 0.336780 0.215382
Si Si4 0.919203 0.623528 0.528384
Si Si5 0.657641 0.390730 0.285871
Si Si6 0.440047 0.943724 0.109288
Si Si7 0.028046 0.899971 0.751460
Si Si8 0.184375 0.228996 0.181149
O O1 0.500000 0.500000 0.500000
O O2 0.611146 0.515295 0.804128
O O3 0.242419 0.081550 0.817015
O O4 0.463848 0.151870 0.917331
O O5 0.229418 0.652890 0.739237
O O6 0.318830 0.763887 0.514461
O O7 0.000000 0.500000 0.500000
O O8 0.408769 0.113393 0.306199
O O9 0.976622 0.397942 0.359639
O O10 0.595629 0.017888 0.282059
O O11 0.879477 0.572014 0.938206
O O12 0.774740 0.547583 0.353674
O O13 0.787069 0.399058 0.734651
O O14 0.106547 0.957259 0.397760
O O15 0.777207 0.642488 0.041833
O O16 0.500000 0.000000 0.000000
O O17 0.991275 0.913404 0.801889
O O18 0.000000 0.000000 0.500000
#
# Coordination Sequence:
#
# PCOD8030857 Si02
#       8
#     2   2   2   2   2   2   2   2
#     4  12  26  48  73 105 142 189 243 287 354 435
#     4  11  22  40  76 107 134 184 238 295 349 423
#     4  12  24  46  72 105 139 187 241 285 356 428
#     4  12  28  46  71 105 147 188 237 298 358 424
#     4  11  24  45  71 103 144 184 243 292 358 425
#     4  12  28  46  74 105 142 186 238 297 355 424
#     4  12  25  45  73 102 143 187 235 289 350 427
#     4  12  28  45  72 106 147 190 236 298 358 420
#
# _framework density 22.26454
#
# number of rings (size 3 to 8) (size 9 to 14) (size 15 to 20)
#    0.000    0.250    7.500    0.375    8.750    0.500 
#    0.000    0.625    0.000    0.000    0.000    0.000 
#    0.000    0.000    0.000    0.000    0.000    0.000 
#
# Total GULP energy -198209.784202 kJ/mol
# GULP energy per Si atom -12388.111513 kJ/mol
# Density = 2.221387 g / cm^3
# Si number density = 22.264540 Si / 1000 Ang^3
#
#
#
# Elastic Constant Matrix: (Units=GPa)
#
#
# Indices 1 2 3 4 5 6 
#
# 1 105.1228 54.1152 40.7081 -4.3768 -12.8899 4.5863
# 2 54.1152 120.2308 34.5812 -1.6530 3.7661 8.6311
# 3 40.7081 34.5812 120.6288 -11.3126 -6.8701 -6.3761
# 4 -4.3768 -1.6530 -11.3126 36.2313 -5.0605 -4.2064
# 5 -12.8899 3.7661 -6.8701 -5.0605 32.5412 -4.3714
# 6 4.5863 8.6311 -6.3761 -4.2064 -4.3714 40.5473
#
#
#
# Elastic Compliance Matrix: (Units=1/GPa)
#
#
# Indices 1 2 3 4 5 6 
#
# 1 0.014374 -0.005866 -0.002687 0.001473 0.006035 0.000004
# 2 -0.005866 0.011870 -0.002018 -0.001801 -0.004791 -0.002884
# 3 -0.002687 -0.002018 0.010392 0.003496 0.002307 0.002979
# 4 0.001473 -0.001801 0.003496 0.030286 0.006864 0.004648
# 5 0.006035 -0.004791 0.002307 0.006864 0.035940 0.005287
# 6 0.000004 -0.002884 0.002979 0.004648 0.005287 0.026797
#
#
# Mechanical properties :
#
#
# Convention : Reuss Voigt Hill
#
# Bulk Modulus (GPa) = 64.53693 67.19905 65.86799
# Shear Modulus (GPa) = 32.05856 36.30247 34.18051
#
# Velocity S-wave (km/s) = 3.79871 4.04233 3.92241
# Velocity P-wave (km/s) = 6.94907 7.21352 7.08253
#
# Compressibility (1/GPa) = 0.01549500
#
# Stress axis : x y z
#
# Youngs Moduli (GPa) = 69.56992 84.24508 96.23002
#
# Poissons Ratio (x) = 0.49417 0.25858
# Poissons Ratio (y) = 0.40809 0.19414
# Poissons Ratio (z) = 0.18694 0.16996
#
# Static dielectric constant tensor:
#      x y z
#    x 5.430230 -0.472790 -1.878230 
#    y -0.472790 4.714280 0.646690 
#    z -1.878230 0.646690 6.097450 
# 
# 
# High freq. dielectric constant tensor:
#      x y z
#    x 1.871270 0.008790 -0.021530 
#    y 0.008790 1.895730 -0.010750 
#    z -0.021530 -0.010750 1.874940 
# 
# From -- ./inp_files/472344.got.cif
#   From: 2010.06.25/outbox.cif.g09.slc.cpg/sg2_237_cif.got.tgz:472344.got - 2010.06.27 13:26:56.
