data_PCOD8030938
_publ_section_title
;
Structure prediction by ZEFSAII (Michael W. Deem and Ramdas Pophale) SiO2 
 PCOD8030938
Probable space group: P -1
;
_chemical_formula_sum "Si O2"
_cell_formula_units_Z 16
_cell_length_a 11.369103
_cell_length_b 5.609795
_cell_length_c 15.113588
_cell_angle_alpha 89.276095
_cell_angle_beta 129.631008
_cell_angle_gamma 73.700062
_cell_volume 688.175488
_symmetry_space_group_name_H-M "P -1"
_symmetry_group_IT_number 2
_symmetry_cell_setting 'triclinic'
loop_
_space_group_symop_operation_xyz
x,y,z
-x,-y,-z
loop_
_atom_site_type_symbol
_atom_site_label
_atom_site_fract_x
_atom_site_fract_y
_atom_site_fract_z
Si Si1 0.353062 0.850856 0.263810
Si Si2 0.248233 0.575704 0.935786
Si Si3 0.365447 0.358034 0.169777
Si Si4 0.278257 0.322395 0.515047
Si Si5 0.316766 0.027329 0.703506
Si Si6 0.882712 0.867636 0.701931
Si Si7 0.976017 0.129942 0.582554
Si Si8 0.512787 0.785337 0.077679
O O1 0.306886 0.639187 0.186658
O O2 0.532633 0.704154 0.393945
O O3 0.335612 0.126245 0.209904
O O4 0.221776 0.922516 0.279455
O O5 0.342752 0.467136 0.890008
O O6 0.053521 0.689670 0.828099
O O7 0.274763 0.377990 0.031432
O O8 0.332842 0.774511 0.005644
O O9 0.562627 0.273824 0.243922
O O10 0.223272 0.291396 0.388155
O O11 0.153443 0.585791 0.494110
O O12 0.258995 0.113611 0.575188
O O13 0.434487 0.166899 0.798504
O O14 0.163595 0.097960 0.697280
O O15 0.915642 0.004243 0.632144
O O16 0.000000 0.000000 0.500000
O O17 0.500000 0.000000 0.000000
#
# Coordination Sequence:
#
# PCOD8030938 Si02
#       8
#     2   2   2   2   2   2   2   2
#     4  11  28  50  79 101 142 195 253 302 355 428
#     4  11  25  42  71 103 150 188 240 298 370 428
#     4  11  25  50  75 107 139 197 246 300 362 428
#     4  11  25  46  70 100 145 191 239 296 361 434
#     4  11  22  44  74 105 144 185 238 296 371 435
#     4  12  28  46  68 107 140 194 240 302 356 433
#     4  12  25  41  68 108 147 181 235 297 369 436
#     4  11  22  41  68 108 146 189 233 294 366 452
#
# _framework density 23.249884000000002
#
# number of rings (size 3 to 8) (size 9 to 14) (size 15 to 20)
#    0.000    0.750    2.500    4.500    7.000    1.500 
#    0.000    0.000    0.000    0.000    0.000    0.000 
#    0.000    0.000    0.000    0.000    0.000    0.000 
#
# Total GULP energy -198253.075701 kJ/mol
# GULP energy per Si atom -12390.817231 kJ/mol
# Density = 2.319697 g / cm^3
# Si number density = 23.249884 Si / 1000 Ang^3
#
#
#
# Elastic Constant Matrix: (Units=GPa)
#
#
# Indices 1 2 3 4 5 6 
#
# 1 107.6360 30.7287 37.7121 4.3024 -6.8450 -24.1314
# 2 30.7287 110.8583 41.0683 -4.7377 -9.0436 -17.1289
# 3 37.7121 41.0683 144.5931 -8.5998 2.5645 -13.8174
# 4 4.3024 -4.7377 -8.5998 53.3472 -8.2414 4.4699
# 5 -6.8450 -9.0436 2.5645 -8.2414 31.0012 -1.0520
# 6 -24.1314 -17.1289 -13.8174 4.4699 -1.0520 40.5838
#
#
#
# Elastic Compliance Matrix: (Units=1/GPa)
#
#
# Indices 1 2 3 4 5 6 
#
# 1 0.012064 -0.001455 -0.002295 -0.001636 0.002198 0.006015
# 2 -0.001455 0.011137 -0.002503 0.000995 0.003500 0.002964
# 3 -0.002295 -0.002503 0.008341 0.001031 -0.001644 0.000263
# 4 -0.001636 0.000995 0.001031 0.020113 0.005113 -0.002285
# 5 0.002198 0.003500 -0.001644 0.005113 0.035346 0.002578
# 6 0.006015 0.002964 0.000263 -0.002285 0.002578 0.029876
#
#
# Mechanical properties :
#
#
# Convention : Reuss Voigt Hill
#
# Bulk Modulus (GPa) = 52.53263 64.67840 58.60552
# Shear Modulus (GPa) = 36.83830 41.89167 39.36499
#
# Velocity S-wave (km/s) = 3.98483 4.24937 4.11923
# Velocity P-wave (km/s) = 6.61934 7.20801 6.91994
#
# Compressibility (1/GPa) = 0.01903579
#
# Stress axis : x y z
#
# Youngs Moduli (GPa) = 82.89361 89.78821 119.88886
#
# Poissons Ratio (x) = 0.13065 0.27510
# Poissons Ratio (y) = 0.12062 0.30013
# Poissons Ratio (z) = 0.19021 0.22478
#
# Static dielectric constant tensor:
#      x y z
#    x 4.624280 -0.257990 0.542860 
#    y -0.257990 5.063970 0.113750 
#    z 0.542860 0.113750 5.302160 
# 
# 
# High freq. dielectric constant tensor:
#      x y z
#    x 1.915830 -0.009690 -0.000730 
#    y -0.009690 1.918750 0.003230 
#    z -0.000730 0.003230 1.931720 
# 
# From -- ./inp_files/511022.got.cif
#   From: 2010.06.25/outbox.cif.g09.slc.cpg/sg2_256_cif.got.tgz:511022.got - 2010.06.27 13:26:56.
