data_PCOD8030203
_publ_section_title
;
Structure prediction by ZEFSAII (Michael W. Deem and Ramdas Pophale) SiO2 
 PCOD8030203
Probable space group: P -1
;
_chemical_formula_sum "Si O2"
_cell_formula_units_Z 14
_cell_length_a 8.643833
_cell_length_b 12.848441
_cell_length_c 9.641239
_cell_angle_alpha 34.908240
_cell_angle_beta 85.692097
_cell_angle_gamma 86.045434
_cell_volume 610.971642
_symmetry_space_group_name_H-M "P -1"
_symmetry_group_IT_number 2
_symmetry_cell_setting 'triclinic'
loop_
_space_group_symop_operation_xyz
x,y,z
-x,-y,-z
loop_
_atom_site_type_symbol
_atom_site_label
_atom_site_fract_x
_atom_site_fract_y
_atom_site_fract_z
Si Si1 0.324542 0.829980 0.090612
Si Si2 0.831972 0.237399 0.106796
Si Si3 0.177945 0.268971 0.967141
Si Si4 0.071003 0.622901 0.485399
Si Si5 0.632102 0.771153 0.263820
Si Si6 0.672740 0.921117 0.584438
Si Si7 0.221544 0.358898 0.350195
O O1 0.175907 0.783424 0.245354
O O2 0.472953 0.713836 0.262165
O O3 0.290149 0.787630 0.980844
O O4 0.376033 0.037566 0.865672
O O5 0.006969 0.195624 0.092937
O O6 0.788395 0.093331 0.386266
O O7 0.808330 0.445097 0.934488
O O8 0.302684 0.189449 0.154441
O O9 0.173092 0.489268 0.724358
O O10 0.227726 0.207833 0.877208
O O11 0.000000 0.500000 0.500000
O O12 0.938662 0.714124 0.491522
O O13 0.664705 0.620861 0.545815
O O14 0.711603 0.783338 0.608058
O O15 0.500000 0.000000 0.500000
#
# Coordination Sequence:
#
# PCOD8030203 Si02
#       7
#     2   2   2   2   2   2   2
#     4  11  22  38  68 107 138 175 227 287 342 405
#     4  11  23  45  71  96 136 180 229 284 338 407
#     4  11  24  44  68 102 136 180 230 279 343 408
#     4  11  21  43  69 104 134 172 230 284 339 403
#     4  11  23  39  68 104 138 180 226 281 351 399
#     4  12  28  47  66  97 144 182 228 283 339 415
#     4  11  24  45  72  99 135 181 230 279 346 405
#
# _framework density 22.914318999999999
#
# number of rings (size 3 to 8) (size 9 to 14) (size 15 to 20)
#    0.000    0.857    5.714    1.286    4.000    7.429 
#    2.571    0.000    0.000    0.000    0.000    0.000 
#    0.000    0.000    0.000    0.000    0.000    0.000 
#
# Total GULP energy -173554.199887 kJ/mol
# GULP energy per Si atom -12396.728563 kJ/mol
# Density = 2.286217 g / cm^3
# Si number density = 22.914319 Si / 1000 Ang^3
#
#
#
# Elastic Constant Matrix: (Units=GPa)
#
#
# Indices 1 2 3 4 5 6 
#
# 1 85.8107 26.2980 10.8227 -12.5505 12.4107 -8.9046
# 2 26.2980 78.9317 28.8776 -1.8273 4.4417 -22.9482
# 3 10.8227 28.8776 78.1186 19.6083 21.5276 0.3038
# 4 -12.5505 -1.8273 19.6083 18.0902 0.8623 3.4275
# 5 12.4107 4.4417 21.5276 0.8623 43.9104 1.4169
# 6 -8.9046 -22.9482 0.3038 3.4275 1.4169 36.6712
#
#
#
# Elastic Compliance Matrix: (Units=1/GPa)
#
#
# Indices 1 2 3 4 5 6 
#
# 1 0.015747 -0.003036 -0.004211 0.015177 -0.002398 0.000633
# 2 -0.003036 0.020897 -0.010573 0.009136 0.003379 0.011443
# 3 -0.004211 -0.010573 0.028896 -0.033971 -0.011102 -0.004274
# 4 0.015177 0.009136 -0.033971 0.103164 0.009426 -0.000323
# 5 -0.002398 0.003379 -0.011102 0.009426 0.028379 -0.000353
# 6 0.000633 0.011443 -0.004274 -0.000323 -0.000353 0.034663
#
#
# Mechanical properties :
#
#
# Convention : Reuss Voigt Hill
#
# Bulk Modulus (GPa) = 33.44358 41.65082 37.54720
# Shear Modulus (GPa) = 18.02761 31.52521 24.77641
#
# Velocity S-wave (km/s) = 2.80793 3.71318 3.29182
# Velocity P-wave (km/s) = 5.01392 6.04978 5.55604
#
# Compressibility (1/GPa) = 0.02990110
#
# Stress axis : x y z
#
# Youngs Moduli (GPa) = 63.50364 47.85332 34.60688
#
# Poissons Ratio (x) = 0.14527 0.14571
# Poissons Ratio (y) = 0.19278 0.36591
# Poissons Ratio (z) = 0.26738 0.50597
#
# Static dielectric constant tensor:
#      x y z
#    x 4.295080 -0.127920 0.239850 
#    y -0.127920 3.725350 0.052080 
#    z 0.239850 0.052080 4.580230 
# 
# 
# High freq. dielectric constant tensor:
#      x y z
#    x 1.910990 -0.013990 0.014860 
#    y -0.013990 1.876680 -0.000050 
#    z 0.014860 -0.000050 1.919250 
# 
# From -- ./inp_files/183772.got.cif
#   From: 2010.06.25/outbox.cif.g09.slc.cpg/sg2_92_cif.got.tgz:183772.got - 2010.06.27 13:26:56.
