data_PCOD8030855
_publ_section_title
;
Structure prediction by ZEFSAII (Michael W. Deem and Ramdas Pophale) SiO2 
 PCOD8030855
Probable space group: P -1
;
_chemical_formula_sum "Si O2"
_cell_formula_units_Z 16
_cell_length_a 12.227761
_cell_length_b 14.545827
_cell_length_c 8.872746
_cell_angle_alpha 70.553868
_cell_angle_beta 129.193580
_cell_angle_gamma 68.459555
_cell_volume 706.674803
_symmetry_space_group_name_H-M "P -1"
_symmetry_group_IT_number 2
_symmetry_cell_setting 'triclinic'
loop_
_space_group_symop_operation_xyz
x,y,z
-x,-y,-z
loop_
_atom_site_type_symbol
_atom_site_label
_atom_site_fract_x
_atom_site_fract_y
_atom_site_fract_z
Si Si1 0.872269 0.789045 0.575445
Si Si2 0.504598 0.705664 0.213633
Si Si3 0.938748 0.571819 0.569575
Si Si4 0.620318 0.330958 0.163224
Si Si5 0.667465 0.486979 0.719964
Si Si6 0.413653 0.313724 0.232890
Si Si7 0.157480 0.055655 0.790912
Si Si8 0.479653 0.936995 0.378167
O O1 0.947531 0.682426 0.554190
O O2 0.790277 0.931252 0.340242
O O3 0.686140 0.838412 0.492603
O O4 0.086998 0.693784 0.924892
O O5 0.674919 0.689218 0.296516
O O6 0.682560 0.562843 0.566760
O O7 0.409442 0.673339 0.038323
O O8 0.288756 0.879852 0.005318
O O9 0.000000 0.500000 0.500000
O O10 0.149377 0.417479 0.941393
O O11 0.513985 0.291421 0.170129
O O12 0.888410 0.189976 0.514275
O O13 0.500000 0.500000 0.000000
O O14 0.500000 0.500000 0.500000
O O15 0.555583 0.599482 0.705229
O O16 0.546462 0.155442 0.519987
O O17 0.252537 0.072266 0.001682
O O18 0.500000 0.000000 0.500000
#
# Coordination Sequence:
#
# PCOD8030855 Si02
#       8
#     2   2   2   2   2   2   2   2
#     4  11  25  47  71 105 146 186 246 298 355 440
#     4  12  24  45  73 105 141 186 242 299 365 421
#     4  11  22  40  76 102 134 182 237 294 355 422
#     4  12  27  46  73 106 145 192 247 291 361 451
#     4  11  23  45  71 101 139 188 235 292 363 430
#     4  11  24  45  68 106 142 180 242 297 356 432
#     4  12  27  48  71 105 148 192 239 303 365 431
#     4  12  28  45  71 104 143 192 243 301 372 418
#
# _framework density 22.641249999999999
#
# number of rings (size 3 to 8) (size 9 to 14) (size 15 to 20)
#    0.000    0.500    3.750    4.500    3.500    4.500 
#    0.000    0.000    0.000    0.000    0.000    0.000 
#    0.000    0.000    0.000    0.000    0.000    0.000 
#
# Total GULP energy -198212.175416 kJ/mol
# GULP energy per Si atom -12388.260963 kJ/mol
# Density = 2.258972 g / cm^3
# Si number density = 22.641250 Si / 1000 Ang^3
#
#
#
# Elastic Constant Matrix: (Units=GPa)
#
#
# Indices 1 2 3 4 5 6 
#
# 1 89.0031 16.8720 42.6523 -9.3547 -4.6659 3.4140
# 2 16.8720 125.3111 57.3421 21.8290 6.7896 -9.1472
# 3 42.6523 57.3421 177.9789 15.9906 5.4256 2.3527
# 4 -9.3547 21.8290 15.9906 38.7344 1.6397 -1.5152
# 5 -4.6659 6.7896 5.4256 1.6397 47.1601 0.4375
# 6 3.4140 -9.1472 2.3527 -1.5152 0.4375 27.4982
#
#
#
# Elastic Compliance Matrix: (Units=1/GPa)
#
#
# Indices 1 2 3 4 5 6 
#
# 1 0.013859 -0.001493 -0.003361 0.005435 0.001799 -0.001659
# 2 -0.001493 0.010592 -0.002611 -0.005056 -0.001230 0.003673
# 3 -0.003361 -0.002611 0.007525 -0.002464 -0.000725 -0.001219
# 4 0.005435 -0.005056 -0.002464 0.030958 0.000477 -0.000448
# 5 0.001799 -0.001230 -0.000725 0.000477 0.021635 -0.000889
# 6 -0.001659 0.003673 -0.001219 -0.000448 -0.000889 0.037888
#
#
# Mechanical properties :
#
#
# Convention : Reuss Voigt Hill
#
# Bulk Modulus (GPa) = 58.67324 69.55843 64.11584
# Shear Modulus (GPa) = 34.94820 41.04033 37.99427
#
# Velocity S-wave (km/s) = 3.93308 4.26212 4.10091
# Velocity P-wave (km/s) = 6.82613 7.41685 7.12761
#
# Compressibility (1/GPa) = 0.01704354
#
# Stress axis : x y z
#
# Youngs Moduli (GPa) = 72.15698 94.41383 132.88781
#
# Poissons Ratio (x) = 0.14097 0.44669
# Poissons Ratio (y) = 0.10774 0.34703
# Poissons Ratio (z) = 0.24255 0.24656
#
# Static dielectric constant tensor:
#      x y z
#    x 7.537200 -1.773670 -2.336240 
#    y -1.773670 5.004000 1.336430 
#    z -2.336240 1.336430 6.053360 
# 
# 
# High freq. dielectric constant tensor:
#      x y z
#    x 1.883530 0.001990 -0.006700 
#    y 0.001990 1.892790 0.017510 
#    z -0.006700 0.017510 1.913220 
# 
# From -- ./inp_files/242721.got.cif
#   From: 2010.06.25/outbox.cif.g09.slc.cpg/sg2_122_cif.got.tgz:242721.got - 2010.06.27 13:26:56.
