data_PCOD8030698
_publ_section_title
;
Structure prediction by ZEFSAII (Michael W. Deem and Ramdas Pophale) SiO2 
 PCOD8030698
Probable space group: P -1
;
_chemical_formula_sum "Si O2"
_cell_formula_units_Z 14
_cell_length_a 11.535711
_cell_length_b 20.853884
_cell_length_c 14.240104
_cell_angle_alpha 30.913140
_cell_angle_beta 20.216617
_cell_angle_gamma 30.412113
_cell_volume 575.600894
_symmetry_space_group_name_H-M "P -1"
_symmetry_group_IT_number 2
_symmetry_cell_setting 'triclinic'
loop_
_space_group_symop_operation_xyz
x,y,z
-x,-y,-z
loop_
_atom_site_type_symbol
_atom_site_label
_atom_site_fract_x
_atom_site_fract_y
_atom_site_fract_z
Si Si1 0.500648 0.207346 0.951581
Si Si2 0.781094 0.696583 0.150058
Si Si3 0.865175 0.108044 0.547083
Si Si4 0.703312 0.559805 0.846315
Si Si5 0.169025 0.866810 0.709966
Si Si6 0.788669 0.297606 0.790725
Si Si7 0.110107 0.085076 0.946086
O O1 0.464052 0.279709 0.787078
O O2 0.560830 0.308619 0.855340
O O3 0.128053 0.186719 0.277725
O O4 0.825053 0.069937 0.892034
O O5 0.516281 0.785780 0.318361
O O6 0.937726 0.546884 0.251689
O O7 0.100559 0.759717 0.823922
O O8 0.000000 0.000000 0.500000
O O9 0.854362 0.010530 0.764804
O O10 0.850830 0.666624 0.548759
O O11 0.500000 0.500000 0.000000
O O12 0.448354 0.608386 0.067896
O O13 0.523926 0.884610 0.377990
O O14 0.146950 0.827694 0.884986
O O15 0.898691 0.145810 0.935245
#
# Coordination Sequence:
#
# PCOD8030698 Si02
#       7
#     2   2   2   2   2   2   2
#     4  11  26  42  73 108 145 184 231 297 369 416
#     4  12  24  43  71 104 146 183 242 292 355 417
#     4  11  22  41  68 111 149 180 232 291 358 421
#     4  12  30  52  76  99 139 194 248 290 346 424
#     4  11  22  39  70 108 136 181 234 296 350 411
#     4  12  28  50  71 105 144 191 239 290 353 428
#     4  11  23  44  71 103 144 183 234 291 358 417
#
# _framework density 24.322406999999998
#
# number of rings (size 3 to 8) (size 9 to 14) (size 15 to 20)
#    0.000    0.571    2.857    5.571    4.000    1.143 
#    0.000    3.571    0.000    0.000    0.000    0.000 
#    0.000    0.000    0.000    0.000    0.000    0.000 
#
# Total GULP energy -173462.370423 kJ/mol
# GULP energy per Si atom -12390.169316 kJ/mol
# Density = 2.426705 g / cm^3
# Si number density = 24.322407 Si / 1000 Ang^3
#
#
#
# Elastic Constant Matrix: (Units=GPa)
#
#
# Indices 1 2 3 4 5 6 
#
# 1 160.5655 42.9961 39.2165 0.9583 0.9946 9.2203
# 2 42.9961 81.9692 11.6225 5.5967 13.8246 -8.9668
# 3 39.2165 11.6225 87.5630 1.6142 14.0364 22.1440
# 4 0.9583 5.5967 1.6142 31.3107 7.3275 6.9278
# 5 0.9946 13.8246 14.0364 7.3275 34.4090 -6.0040
# 6 9.2203 -8.9668 22.1440 6.9278 -6.0040 48.0026
#
#
#
# Elastic Compliance Matrix: (Units=1/GPa)
#
#
# Indices 1 2 3 4 5 6 
#
# 1 0.008251 -0.004377 -0.003444 0.000158 0.002807 -0.000485
# 2 -0.004377 0.015934 -0.000216 -0.002319 -0.005062 0.003618
# 3 -0.003444 -0.000216 0.016490 0.003224 -0.008717 -0.008541
# 4 0.000158 -0.002319 0.003224 0.036278 -0.009576 -0.008384
# 5 0.002807 -0.005062 -0.008717 -0.009576 0.038126 0.008687
# 6 -0.000485 0.003618 -0.008541 -0.008384 0.008687 0.027838
#
#
# Mechanical properties :
#
#
# Convention : Reuss Voigt Hill
#
# Bulk Modulus (GPa) = 40.64903 57.52976 49.08940
# Shear Modulus (GPa) = 29.90623 38.49531 34.20077
#
# Velocity S-wave (km/s) = 3.51033 3.98264 3.75392
# Velocity P-wave (km/s) = 5.76010 6.69723 6.24627
#
# Compressibility (1/GPa) = 0.02460083
#
# Stress axis : x y z
#
# Youngs Moduli (GPa) = 121.20070 62.75926 60.64465
#
# Poissons Ratio (x) = 0.27468 0.20889
# Poissons Ratio (y) = 0.53046 0.01307
# Poissons Ratio (z) = 0.41747 0.01353
#
# Static dielectric constant tensor:
#      x y z
#    x 4.838210 -0.600350 0.246800 
#    y -0.600350 4.584990 -0.026670 
#    z 0.246800 -0.026670 4.280610 
# 
# 
# High freq. dielectric constant tensor:
#      x y z
#    x 1.979580 -0.015260 0.014300 
#    y -0.015260 1.955610 0.008170 
#    z 0.014300 0.008170 1.960750 
# 
# From -- ./inp_files/524028.got.cif
#   From: 2010.06.25/outbox.cif.g09.slc.cpg/sg2_263_cif.got.tgz:524028.got - 2010.06.27 13:26:56.
