data_PCOD8030611
_publ_section_title
;
Structure prediction by ZEFSAII (Michael W. Deem and Ramdas Pophale) SiO2 
 PCOD8030611
Probable space group: P -1
;
_chemical_formula_sum "Si O2"
_cell_formula_units_Z 16
_cell_length_a 23.376914
_cell_length_b 15.042439
_cell_length_c 9.007620
_cell_angle_alpha 48.719221
_cell_angle_beta 147.210318
_cell_angle_gamma 152.521272
_cell_volume 743.071473
_symmetry_space_group_name_H-M "P -1"
_symmetry_group_IT_number 2
_symmetry_cell_setting 'triclinic'
loop_
_space_group_symop_operation_xyz
x,y,z
-x,-y,-z
loop_
_atom_site_type_symbol
_atom_site_label
_atom_site_fract_x
_atom_site_fract_y
_atom_site_fract_z
Si Si1 0.305988 0.031460 0.697659
Si Si2 0.506363 0.137852 0.302758
Si Si3 0.804584 0.767682 0.276413
Si Si4 0.888704 0.457129 0.673315
Si Si5 0.532360 0.368201 0.321018
Si Si6 0.364583 0.619825 0.144984
Si Si7 0.192794 0.707307 0.624219
Si Si8 0.059291 0.258443 0.670029
O O1 0.462512 0.256193 0.718601
O O2 0.255730 0.891154 0.615972
O O3 0.372262 0.024607 0.996369
O O4 0.136775 0.963638 0.446878
O O5 0.710643 0.357746 0.458653
O O6 0.454886 0.185414 0.263072
O O7 0.500000 0.000000 0.500000
O O8 0.704924 0.591207 0.372948
O O9 0.852029 0.745250 0.252546
O O10 0.650488 0.723058 0.951589
O O11 0.000000 0.000000 0.500000
O O12 0.831413 0.306362 0.592560
O O13 0.996503 0.663180 0.603926
O O14 0.000000 0.500000 0.000000
O O15 0.611277 0.398464 0.615361
O O16 0.337788 0.737526 0.949758
O O17 0.192904 0.393545 0.952281
O O18 0.000000 0.500000 0.500000
#
# Coordination Sequence:
#
# PCOD8030611 Si02
#       8
#     2   2   2   2   2   2   2   2
#     4  12  22  41  64  93 139 183 222 268 336 408
#     4  12  24  40  67 102 137 180 224 270 341 409
#     4  11  25  49  74  96 133 175 235 287 340 400
#     4  11  23  39  59  95 137 175 217 276 328 399
#     4  11  26  46  71 104 134 177 227 289 336 401
#     4  11  24  42  65  98 138 175 224 281 339 405
#     4  11  22  39  61  94 138 184 215 269 335 396
#     4  11  23  45  66  94 132 177 224 283 335 392
#
# _framework density 21.532249
#
# number of rings (size 3 to 8) (size 9 to 14) (size 15 to 20)
#    0.000    0.750    6.250    2.625    3.500    2.500 
#    0.000    1.250    0.000    0.000    0.000    0.000 
#    0.000    0.000    0.000    0.000    0.000    0.000 
#
# Total GULP energy -198359.865879 kJ/mol
# GULP energy per Si atom -12397.491617 kJ/mol
# Density = 2.148324 g / cm^3
# Si number density = 21.532249 Si / 1000 Ang^3
#
#
#
# Elastic Constant Matrix: (Units=GPa)
#
#
# Indices 1 2 3 4 5 6 
#
# 1 151.4084 27.0674 76.9242 -3.1211 0.7854 -2.6234
# 2 27.0674 61.5855 34.6448 5.7668 2.5099 3.1295
# 3 76.9242 34.6448 127.2659 8.9147 -15.9738 -0.0112
# 4 -3.1211 5.7668 8.9147 28.0814 13.0309 6.9056
# 5 0.7854 2.5099 -15.9738 13.0309 49.5734 11.1729
# 6 -2.6234 3.1295 -0.0112 6.9056 11.1729 39.6001
#
#
#
# Elastic Compliance Matrix: (Units=1/GPa)
#
#
# Indices 1 2 3 4 5 6 
#
# 1 0.010422 -0.001100 -0.006845 0.005118 -0.003881 0.000978
# 2 -0.001100 0.019707 -0.004838 -0.001526 -0.001955 -0.000814
# 3 -0.006845 -0.004838 0.014764 -0.007646 0.007299 -0.000793
# 4 0.005118 -0.001526 -0.007646 0.046230 -0.013782 -0.003716
# 5 -0.003881 -0.001955 0.007299 -0.013782 0.027540 -0.005467
# 6 0.000978 -0.000814 -0.000793 -0.003716 -0.005467 0.027572
#
#
# Mechanical properties :
#
#
# Convention : Reuss Voigt Hill
#
# Bulk Modulus (GPa) = 51.74637 68.61474 60.18055
# Shear Modulus (GPa) = 28.05175 36.89255 32.47215
#
# Velocity S-wave (km/s) = 3.61332 4.14377 3.88760
# Velocity P-wave (km/s) = 6.44145 7.40470 6.93981
#
# Compressibility (1/GPa) = 0.01932503
#
# Stress axis : x y z
#
# Youngs Moduli (GPa) = 95.95377 50.74391 67.73355
#
# Poissons Ratio (x) = 0.05584 0.46365
# Poissons Ratio (y) = 0.10559 0.32769
# Poissons Ratio (z) = 0.65682 0.24550
#
# Static dielectric constant tensor:
#      x y z
#    x 4.265550 0.048570 0.178130 
#    y 0.048570 4.124630 0.432250 
#    z 0.178130 0.432250 3.888080 
# 
# 
# High freq. dielectric constant tensor:
#      x y z
#    x 1.868870 0.010330 0.001540 
#    y 0.010330 1.830350 0.024220 
#    z 0.001540 0.024220 1.847340 
# 
# From -- ./inp_files/354528.got.cif
#   From: 2010.06.25/outbox.cif.g09.slc.cpg/sg2_178_cif.got.tgz:354528.got - 2010.06.27 13:26:56.
