data_PCOD8030615
_publ_section_title
;
Structure prediction by ZEFSAII (Michael W. Deem and Ramdas Pophale) SiO2 
 PCOD8030615
Probable space group: P -1
;
_chemical_formula_sum "Si O2"
_cell_formula_units_Z 16
_cell_length_a 13.251250
_cell_length_b 8.381176
_cell_length_c 11.466169
_cell_angle_alpha 55.994154
_cell_angle_beta 60.170159
_cell_angle_gamma 97.464467
_cell_volume 754.043750
_symmetry_space_group_name_H-M "P -1"
_symmetry_group_IT_number 2
_symmetry_cell_setting 'triclinic'
loop_
_space_group_symop_operation_xyz
x,y,z
-x,-y,-z
loop_
_atom_site_type_symbol
_atom_site_label
_atom_site_fract_x
_atom_site_fract_y
_atom_site_fract_z
Si Si1 0.766255 0.506352 0.965410
Si Si2 0.851924 0.322889 0.596584
Si Si3 0.426919 0.733592 0.622250
Si Si4 0.951907 0.016034 0.648271
Si Si5 0.082949 0.713189 0.953003
Si Si6 0.751188 0.557199 0.685243
Si Si7 0.304635 0.235938 0.562043
Si Si8 0.184976 0.459946 0.692059
O O1 0.884049 0.762166 0.849078
O O2 0.825791 0.344737 0.992502
O O3 0.726216 0.542056 0.843668
O O4 0.628804 0.399246 0.167759
O O5 0.733495 0.319359 0.746583
O O6 0.840434 0.394271 0.444292
O O7 0.000000 0.500000 0.500000
O O8 0.832989 0.074438 0.696680
O O9 0.543791 0.704132 0.509534
O O10 0.295198 0.641866 0.649808
O O11 0.500000 0.000000 0.500000
O O12 0.000000 0.000000 0.500000
O O13 0.093749 0.227382 0.540705
O O14 0.968422 0.726937 0.086963
O O15 0.000000 0.500000 0.000000
O O16 0.190276 0.957330 0.725653
O O17 0.656410 0.618452 0.642125
O O18 0.246800 0.323846 0.657920
#
# Coordination Sequence:
#
# PCOD8030615 Si02
#       8
#     2   2   2   2   2   2   2   2
#     4  11  22  39  62  94 126 166 217 264 319 382
#     4   9  18  37  61  95 132 160 201 267 335 377
#     4  12  25  45  62  91 134 179 217 264 321 394
#     4   9  17  32  59  91 125 154 203 267 318 366
#     4  12  21  39  65  98 127 164 222 272 323 382
#     4   9  20  37  61  90 125 163 210 265 323 373
#     4  11  24  42  63  92 131 173 211 272 324 387
#     4  11  23  41  68  96 127 171 220 269 328 382
#
# _framework density 21.218927000000001
#
# number of rings (size 3 to 8) (size 9 to 14) (size 15 to 20)
#    0.000    1.500    2.500    3.750    0.000    3.500 
#    4.500    0.000    0.000    3.000    0.000    0.000 
#    0.000    0.000    0.000    0.000    0.000    0.000 
#
# Total GULP energy -198257.186140 kJ/mol
# GULP energy per Si atom -12391.074134 kJ/mol
# Density = 2.117063 g / cm^3
# Si number density = 21.218927 Si / 1000 Ang^3
#
#
#
# Elastic Constant Matrix: (Units=GPa)
#
#
# Indices 1 2 3 4 5 6 
#
# 1 95.8898 29.4331 31.4809 6.4077 4.0061 -9.5180
# 2 29.4331 97.8165 39.3410 -0.8923 3.0080 -17.9323
# 3 31.4809 39.3410 102.4727 7.6429 -0.3450 -3.2397
# 4 6.4077 -0.8923 7.6429 31.0317 -3.9245 2.3996
# 5 4.0061 3.0080 -0.3450 -3.9245 33.2804 6.4983
# 6 -9.5180 -17.9323 -3.2397 2.3996 6.4983 38.5214
#
#
#
# Elastic Compliance Matrix: (Units=1/GPa)
#
#
# Indices 1 2 3 4 5 6 
#
# 1 0.012480 -0.002178 -0.002751 -0.002405 -0.002074 0.002338
# 2 -0.002178 0.013850 -0.004567 0.001270 -0.002017 0.005786
# 3 -0.002751 -0.004567 0.012482 -0.002382 0.000937 -0.001766
# 4 -0.002405 0.001270 -0.002382 0.034194 0.004796 -0.003142
# 5 -0.002074 -0.002017 0.000937 0.004796 0.032450 -0.007145
# 6 0.002338 0.005786 -0.001766 -0.003142 -0.007145 0.030483
#
#
# Mechanical properties :
#
#
# Convention : Reuss Voigt Hill
#
# Bulk Modulus (GPa) = 50.45563 55.18768 52.82166
# Shear Modulus (GPa) = 30.95237 33.62831 32.29034
#
# Velocity S-wave (km/s) = 3.82346 3.98531 3.90522
# Velocity P-wave (km/s) = 6.58194 6.87329 6.72919
#
# Compressibility (1/GPa) = 0.01981939
#
# Stress axis : x y z
#
# Youngs Moduli (GPa) = 80.12853 72.20422 80.11425
#
# Poissons Ratio (x) = 0.15727 0.22043
# Poissons Ratio (y) = 0.17453 0.36584
# Poissons Ratio (z) = 0.22047 0.32972
#
# Static dielectric constant tensor:
#      x y z
#    x 3.881210 -0.366940 0.153880 
#    y -0.366940 4.330130 -0.182160 
#    z 0.153880 -0.182160 3.678810 
# 
# 
# High freq. dielectric constant tensor:
#      x y z
#    x 1.829810 -0.016220 0.012410 
#    y -0.016220 1.840780 0.004790 
#    z 0.012410 0.004790 1.808760 
# 
# From -- ./inp_files/208720.got.cif
#   From: 2010.06.25/outbox.cif.g09.slc.cpg/sg2_105_cif.got.tgz:208720.got - 2010.06.27 13:26:56.
