data_PCOD8030730
_publ_section_title
;
Structure prediction by ZEFSAII (Michael W. Deem and Ramdas Pophale) SiO2 
 PCOD8030730
Probable space group: P -1
;
_chemical_formula_sum "Si O2"
_cell_formula_units_Z 10
_cell_length_a 8.312768
_cell_length_b 11.708598
_cell_length_c 11.519919
_cell_angle_alpha 24.024030
_cell_angle_beta 86.655874
_cell_angle_gamma 84.942655
_cell_volume 454.022506
_symmetry_space_group_name_H-M "P -1"
_symmetry_group_IT_number 2
_symmetry_cell_setting 'triclinic'
loop_
_space_group_symop_operation_xyz
x,y,z
-x,-y,-z
loop_
_atom_site_type_symbol
_atom_site_label
_atom_site_fract_x
_atom_site_fract_y
_atom_site_fract_z
Si Si1 0.322618 0.805078 0.400069
Si Si2 0.784242 0.520127 0.695005
Si Si3 0.492411 0.248437 0.860643
Si Si4 0.484952 0.287297 0.299363
Si Si5 0.023193 0.018626 0.843468
O O1 0.389052 0.542765 0.555942
O O2 0.369771 0.696048 0.628951
O O3 0.133831 0.855654 0.336309
O O4 0.408712 0.095779 0.113456
O O5 0.671319 0.324959 0.809036
O O6 0.690855 0.650399 0.690411
O O7 0.836427 0.775752 0.377332
O O8 0.935790 0.291980 0.926420
O O9 0.500000 0.000000 0.000000
O O10 0.500000 0.000000 0.500000
O O11 0.500000 0.500000 0.000000
O O12 0.000000 0.000000 0.000000
#
# Coordination Sequence:
#
# PCOD8030730 Si02
#       5
#     2   2   2   2   2
#     4  11  24  41  64  96 129 170 219 266 322 391
#     4  11  24  43  66  97 130 173 222 263 320 396
#     4  11  22  40  64  93 127 173 221 265 314 387
#     4  11  23  45  70  92 123 171 226 283 320 360
#     4  12  25  43  64  98 143 175 200 261 334 398
#
# _framework density 22.025338000000001
#
# number of rings (size 3 to 8) (size 9 to 14) (size 15 to 20)
#    0.000    0.800    0.000    9.600    0.000    4.800 
#    0.000    6.000    0.000    0.000    0.000    0.000 
#    0.000    0.000    0.000    0.000    0.000    0.000 
#
# Total GULP energy -123934.257718 kJ/mol
# GULP energy per Si atom -12393.425772 kJ/mol
# Density = 2.197521 g / cm^3
# Si number density = 22.025338 Si / 1000 Ang^3
#
#
#
# Elastic Constant Matrix: (Units=GPa)
#
#
# Indices 1 2 3 4 5 6 
#
# 1 107.0344 66.5468 56.7379 8.6350 10.8538 -12.1591
# 2 66.5468 118.5303 43.0057 -20.5157 7.1705 -20.6925
# 3 56.7379 43.0057 165.7293 -10.5818 -7.6014 -18.5890
# 4 8.6350 -20.5157 -10.5818 51.2930 -12.5821 6.1248
# 5 10.8538 7.1705 -7.6014 -12.5821 56.5206 -4.1123
# 6 -12.1591 -20.6925 -18.5890 6.1248 -4.1123 34.9418
#
#
#
# Elastic Compliance Matrix: (Units=1/GPa)
#
#
# Indices 1 2 3 4 5 6 
#
# 1 0.020152 -0.011094 -0.005039 -0.010076 -0.005464 -0.001115
# 2 -0.011094 0.016656 0.000717 0.008655 0.002415 0.005152
# 3 -0.005039 0.000717 0.008228 0.003207 0.002903 0.002828
# 4 -0.010076 0.008655 0.003207 0.027169 0.007274 -0.000581
# 5 -0.005464 0.002415 0.002903 0.007274 0.020607 0.002223
# 6 -0.001115 0.005152 0.002828 -0.000581 0.002223 0.033150
#
#
# Mechanical properties :
#
#
# Convention : Reuss Voigt Hill
#
# Bulk Modulus (GPa) = 70.40163 80.43053 75.41608
# Shear Modulus (GPa) = 30.95418 43.55132 37.25275
#
# Velocity S-wave (km/s) = 3.75292 4.45154 4.11707
# Velocity P-wave (km/s) = 7.12829 7.93840 7.54423
#
# Compressibility (1/GPa) = 0.01420422
#
# Stress axis : x y z
#
# Youngs Moduli (GPa) = 49.62352 60.03803 121.53263
#
# Poissons Ratio (x) = 0.66604 0.61245
# Poissons Ratio (y) = 0.55050 -0.08714
# Poissons Ratio (z) = 0.25007 -0.04305
#
# Static dielectric constant tensor:
#      x y z
#    x 3.973440 -0.190350 -0.011570 
#    y -0.190350 4.018680 0.056520 
#    z -0.011570 0.056520 5.142610 
# 
# 
# High freq. dielectric constant tensor:
#      x y z
#    x 1.858940 -0.013570 0.005190 
#    y -0.013570 1.851270 -0.014350 
#    z 0.005190 -0.014350 1.908270 
# 
# From -- ./inp_files/223098.got.cif
#   From: 2010.06.25/outbox.cif.g09.slc.cpg/sg2_112_cif.got.tgz:223098.got - 2010.06.27 13:26:56.
