data_PCOD8030352
_publ_section_title
;
Structure prediction by ZEFSAII (Michael W. Deem and Ramdas Pophale) SiO2 
 PCOD8030352
Probable space group: P -1
;
_chemical_formula_sum "Si O2"
_cell_formula_units_Z 16
_cell_length_a 11.159881
_cell_length_b 9.516493
_cell_length_c 9.487835
_cell_angle_alpha 124.818772
_cell_angle_beta 111.862235
_cell_angle_gamma 57.575002
_cell_volume 695.065459
_symmetry_space_group_name_H-M "P -1"
_symmetry_group_IT_number 2
_symmetry_cell_setting 'triclinic'
loop_
_space_group_symop_operation_xyz
x,y,z
-x,-y,-z
loop_
_atom_site_type_symbol
_atom_site_label
_atom_site_fract_x
_atom_site_fract_y
_atom_site_fract_z
Si Si1 0.024618 0.222097 0.517329
Si Si2 0.125473 0.649165 0.754565
Si Si3 0.304263 0.240902 0.616623
Si Si4 0.161505 0.792666 0.337936
Si Si5 0.010840 0.663813 0.006835
Si Si6 0.760761 0.059568 0.091502
Si Si7 0.575967 0.967449 0.728773
Si Si8 0.583840 0.276560 0.406643
O O1 0.168662 0.236993 0.636815
O O2 0.968032 0.337879 0.415999
O O3 0.902193 0.302992 0.627916
O O4 0.052951 0.006581 0.382618
O O5 0.272938 0.458662 0.698351
O O6 0.158220 0.832254 0.892095
O O7 0.029126 0.627254 0.827189
O O8 0.323214 0.123168 0.413001
O O9 0.440098 0.154078 0.727471
O O10 0.316397 0.775267 0.439503
O O11 0.155825 0.682894 0.130210
O O12 0.869426 0.857406 0.084199
O O13 0.000000 0.500000 0.000000
O O14 0.678647 0.195996 0.263118
O O15 0.654225 0.030355 0.919033
O O16 0.528054 0.813277 0.682871
O O17 0.500000 0.500000 0.500000
#
# Coordination Sequence:
#
# PCOD8030352 Si02
#       8
#     2   2   2   2   2   2   2   2
#     4  11  21  44  72 102 137 189 233 308 351 425
#     4  12  25  44  76 106 146 186 243 303 367 428
#     4  11  25  44  69 103 142 189 244 290 365 433
#     4  11  23  43  74 101 145 183 241 297 365 419
#     4  12  28  43  74 113 150 186 239 305 374 422
#     4  12  26  48  72 105 148 187 246 304 359 430
#     4  11  27  44  70 102 149 193 240 298 362 429
#     4  12  26  47  74 103 145 197 245 289 365 439
#
# _framework density 23.019416
#
# number of rings (size 3 to 8) (size 9 to 14) (size 15 to 20)
#    0.000    0.500    3.750    4.125    5.250    1.500 
#    0.000    0.000    0.000    0.000    0.000    0.000 
#    0.000    0.000    0.000    0.000    0.000    0.000 
#
# Total GULP energy -198409.254004 kJ/mol
# GULP energy per Si atom -12400.578375 kJ/mol
# Density = 2.296702 g / cm^3
# Si number density = 23.019416 Si / 1000 Ang^3
#
#
#
# Elastic Constant Matrix: (Units=GPa)
#
#
# Indices 1 2 3 4 5 6 
#
# 1 76.2656 36.9414 8.8796 2.4318 4.6233 3.7634
# 2 36.9414 170.6086 47.4223 7.8336 -4.8331 -4.1505
# 3 8.8796 47.4223 90.2444 -6.2463 9.2002 -17.4308
# 4 2.4318 7.8336 -6.2463 32.9399 -3.0042 -3.9990
# 5 4.6233 -4.8331 9.2002 -3.0042 42.2271 -5.1877
# 6 3.7634 -4.1505 -17.4308 -3.9990 -5.1877 38.1340
#
#
#
# Elastic Compliance Matrix: (Units=1/GPa)
#
#
# Indices 1 2 3 4 5 6 
#
# 1 0.015007 -0.003344 0.000035 -0.000793 -0.002364 -0.002233
# 2 -0.003344 0.007944 -0.004361 -0.002386 0.001960 -0.000782
# 3 0.000035 -0.004361 0.015225 0.004475 -0.002693 0.006584
# 4 -0.000793 -0.002386 0.004475 0.032674 0.001844 0.005542
# 5 -0.002364 0.001960 -0.002693 0.001844 0.025232 0.002842
# 6 -0.002233 -0.000782 0.006584 0.005542 0.002842 0.030336
#
#
# Mechanical properties :
#
#
# Convention : Reuss Voigt Hill
#
# Bulk Modulus (GPa) = 43.79086 58.17836 50.98461
# Shear Modulus (GPa) = 33.47418 38.91856 36.19637
#
# Velocity S-wave (km/s) = 3.81750 4.11625 3.96969
# Velocity P-wave (km/s) = 6.20450 6.92242 6.57327
#
# Compressibility (1/GPa) = 0.02283582
#
# Stress axis : x y z
#
# Youngs Moduli (GPa) = 66.63747 125.88511 65.67964
#
# Poissons Ratio (x) = 0.42097 -0.00233
# Poissons Ratio (y) = 0.22284 0.28645
# Poissons Ratio (z) = -0.00237 0.54903
#
# Static dielectric constant tensor:
#      x y z
#    x 4.046600 0.025150 -0.011340 
#    y 0.025150 4.355530 0.010140 
#    z -0.011340 0.010140 4.173740 
# 
# 
# High freq. dielectric constant tensor:
#      x y z
#    x 1.901820 0.008050 0.007230 
#    y 0.008050 1.925900 0.000000 
#    z 0.007230 0.000000 1.913890 
# 
# From -- ./inp_files/245476.got.cif
#   From: 2010.06.25/outbox.cif.g09.slc.cpg/sg2_123_cif.got.tgz:245476.got - 2010.06.27 13:26:56.
