data_PCOD8030125
_publ_section_title
;
Structure prediction by ZEFSAII (Michael W. Deem and Ramdas Pophale) SiO2 
 PCOD8030125
Probable space group: P -1
;
_chemical_formula_sum "Si O2"
_cell_formula_units_Z 14
_cell_length_a 14.830902
_cell_length_b 9.125858
_cell_length_c 9.447004
_cell_angle_alpha 76.685128
_cell_angle_beta 37.659026
_cell_angle_gamma 58.793008
_cell_volume 627.306265
_symmetry_space_group_name_H-M "P -1"
_symmetry_group_IT_number 2
_symmetry_cell_setting 'triclinic'
loop_
_space_group_symop_operation_xyz
x,y,z
-x,-y,-z
loop_
_atom_site_type_symbol
_atom_site_label
_atom_site_fract_x
_atom_site_fract_y
_atom_site_fract_z
Si Si1 0.122320 0.538494 0.430142
Si Si2 0.689365 0.827847 0.568457
Si Si3 0.571413 0.173426 0.296118
Si Si4 0.012476 0.812707 0.045892
Si Si5 0.553582 0.789303 0.256994
Si Si6 0.880949 0.783077 0.926477
Si Si7 0.684946 0.421721 0.061192
O O1 0.276153 0.338417 0.342274
O O2 0.202701 0.621053 0.211889
O O3 0.000000 0.500000 0.500000
O O4 0.017736 0.692082 0.646072
O O5 0.607960 0.813967 0.524103
O O6 0.863657 0.829370 0.331378
O O7 0.530705 0.029974 0.778454
O O8 0.585690 0.154381 0.452540
O O9 0.556233 0.352565 0.219406
O O10 0.752083 0.003548 0.037359
O O11 0.198925 0.669482 0.921279
O O12 0.999740 0.725657 0.934273
O O13 0.000000 0.000000 0.000000
O O14 0.752209 0.711482 0.087401
O O15 0.558311 0.638102 0.190905
#
# Coordination Sequence:
#
# PCOD8030125 Si02
#       7
#     2   2   2   2   2   2   2
#     4  12  26  45  67 101 136 186 225 271 337 408
#     4  11  23  43  69  94 137 175 227 271 343 399
#     4  11  23  44  67 104 135 174 225 284 339 393
#     4  12  22  42  72 107 128 173 232 284 330 392
#     4  11  21  42  70  99 133 177 223 284 336 390
#     4  11  22  43  71 100 134 178 223 280 341 394
#     4  12  26  43  69 101 143 174 229 276 331 411
#
# _framework density 22.317647999999998
#
# number of rings (size 3 to 8) (size 9 to 14) (size 15 to 20)
#    0.000    0.571    7.143    1.286    2.000    2.857 
#    0.000    0.000    0.000    0.000    0.000    0.000 
#    0.000    0.000    0.000    0.000    0.000    0.000 
#
# Total GULP energy -173509.710178 kJ/mol
# GULP energy per Si atom -12393.550727 kJ/mol
# Density = 2.226685 g / cm^3
# Si number density = 22.317648 Si / 1000 Ang^3
#
#
#
# Elastic Constant Matrix: (Units=GPa)
#
#
# Indices 1 2 3 4 5 6 
#
# 1 43.6632 19.7691 25.2727 7.7043 3.9543 -2.6510
# 2 19.7691 110.0966 55.0782 8.9776 8.7692 12.2479
# 3 25.2727 55.0782 89.0922 4.9398 14.1899 11.3094
# 4 7.7043 8.9776 4.9398 39.1073 8.3580 -3.5862
# 5 3.9543 8.7692 14.1899 8.3580 33.8535 -3.1550
# 6 -2.6510 12.2479 11.3094 -3.5862 -3.1550 39.4499
#
#
#
# Elastic Compliance Matrix: (Units=1/GPa)
#
#
# Indices 1 2 3 4 5 6 
#
# 1 0.029046 -0.001552 -0.007891 -0.004347 0.001804 0.004445
# 2 -0.001552 0.013559 -0.007552 -0.002095 0.000135 -0.002329
# 3 -0.007891 -0.007552 0.019532 0.001753 -0.006125 -0.004116
# 4 -0.004347 -0.002095 0.001753 0.028246 -0.006480 0.001905
# 5 0.001804 0.000135 -0.006125 -0.006480 0.033829 0.003952
# 6 0.004445 -0.002329 -0.004116 0.001905 0.003952 0.028039
#
#
# Mechanical properties :
#
#
# Convention : Reuss Voigt Hill
#
# Bulk Modulus (GPa) = 35.52587 49.23243 42.37915
# Shear Modulus (GPa) = 25.55946 31.99762 28.77854
#
# Velocity S-wave (km/s) = 3.38784 3.79058 3.59485
# Velocity P-wave (km/s) = 5.59072 6.42384 6.02170
#
# Compressibility (1/GPa) = 0.02814850
#
# Stress axis : x y z
#
# Youngs Moduli (GPa) = 34.42829 73.75387 51.19782
#
# Poissons Ratio (x) = 0.11445 0.40398
# Poissons Ratio (y) = 0.05342 0.38663
# Poissons Ratio (z) = 0.27166 0.55696
#
# Static dielectric constant tensor:
#      x y z
#    x 4.226570 -0.039080 -0.001590 
#    y -0.039080 4.300130 -0.029230 
#    z -0.001590 -0.029230 3.869130 
# 
# 
# High freq. dielectric constant tensor:
#      x y z
#    x 1.872900 0.007760 -0.008990 
#    y 0.007760 1.888630 0.005220 
#    z -0.008990 0.005220 1.862090 
# 
# From -- ./inp_files/157390.got.cif
#   From: 2010.06.25/outbox.cif.g09.slc.cpg/sg2_79_cif.got.tgz:157390.got - 2010.06.27 13:26:56.
