data_PCOD8030095
_publ_section_title
;
Structure prediction by ZEFSAII (Michael W. Deem and Ramdas Pophale) SiO2 
 PCOD8030095
Probable space group: P -1
;
_chemical_formula_sum "Si O2"
_cell_formula_units_Z 16
_cell_length_a 13.462975
_cell_length_b 11.484177
_cell_length_c 9.724234
_cell_angle_alpha 53.883827
_cell_angle_beta 101.591273
_cell_angle_gamma 137.170616
_cell_volume 748.830986
_symmetry_space_group_name_H-M "P -1"
_symmetry_group_IT_number 2
_symmetry_cell_setting 'triclinic'
loop_
_space_group_symop_operation_xyz
x,y,z
-x,-y,-z
loop_
_atom_site_type_symbol
_atom_site_label
_atom_site_fract_x
_atom_site_fract_y
_atom_site_fract_z
Si Si1 0.669374 0.210992 0.322220
Si Si2 0.837961 0.688147 0.017883
Si Si3 0.994744 0.440058 0.196547
Si Si4 0.814184 0.905595 0.062782
Si Si5 0.356213 0.453453 0.505597
Si Si6 0.877727 0.737322 0.671304
Si Si7 0.700938 0.083361 0.926264
Si Si8 0.489696 0.896114 0.254170
O O1 0.827615 0.286008 0.341610
O O2 0.500000 0.000000 0.500000
O O3 0.638225 0.128705 0.214563
O O4 0.712872 0.425347 0.207734
O O5 0.830541 0.686340 0.852919
O O6 0.788815 0.787878 0.997770
O O7 0.008091 0.839011 0.031781
O O8 0.035879 0.317061 0.305676
O O9 0.125654 0.683051 0.135796
O O10 0.000000 0.500000 0.000000
O O11 0.775521 0.764931 0.281971
O O12 0.699981 0.916062 0.997035
O O13 0.500000 0.500000 0.500000
O O14 0.277694 0.408761 0.367538
O O15 0.419966 0.668074 0.450871
O O16 0.000000 0.000000 0.500000
O O17 0.653619 0.143230 0.751184
O O18 0.554575 0.932648 0.096539
#
# Coordination Sequence:
#
# PCOD8030095 Si02
#       8
#     2   2   2   2   2   2   2   2
#     4  12  26  45  70 106 144 180 235 298 363 415
#     4  11  24  45  70 101 144 186 236 296 355 428
#     4  12  22  44  77  99 135 192 243 290 345 428
#     4  11  23  44  70  98 142 193 229 285 368 422
#     4  12  25  42  68 107 146 182 234 301 359 420
#     4  12  25  45  73 109 135 184 255 293 343 433
#     4  11  21  42  69 100 127 190 238 280 348 422
#     4  11  24  41  68 101 141 174 236 298 346 414
#
# _framework density 21.366634999999999
#
# number of rings (size 3 to 8) (size 9 to 14) (size 15 to 20)
#    0.000    0.500    7.500    0.750    3.500    0.000 
#    2.250    1.875    0.000    0.000    0.000    0.000 
#    0.000    0.000    0.000    0.000    0.000    0.000 
#
# Total GULP energy -198269.459616 kJ/mol
# GULP energy per Si atom -12391.841226 kJ/mol
# Density = 2.131800 g / cm^3
# Si number density = 21.366635 Si / 1000 Ang^3
#
#
#
# Elastic Constant Matrix: (Units=GPa)
#
#
# Indices 1 2 3 4 5 6 
#
# 1 188.0225 57.8090 59.3790 -5.1001 19.5039 -8.0199
# 2 57.8090 122.2046 30.7664 -18.4722 11.0167 -7.0027
# 3 59.3790 30.7664 81.1472 -23.2599 1.2100 -5.6700
# 4 -5.1001 -18.4722 -23.2599 38.2123 -3.7027 1.6430
# 5 19.5039 11.0167 1.2100 -3.7027 40.1820 -6.7103
# 6 -8.0199 -7.0027 -5.6700 1.6430 -6.7103 37.8481
#
#
#
# Elastic Compliance Matrix: (Units=1/GPa)
#
#
# Indices 1 2 3 4 5 6 
#
# 1 0.008401 -0.002731 -0.006325 -0.004389 -0.003562 -0.000114
# 2 -0.002731 0.010410 -0.000693 0.004113 -0.000980 0.000891
# 3 -0.006325 -0.000693 0.020633 0.011691 0.004022 0.001828
# 4 -0.004389 0.004113 0.011691 0.035044 0.004009 0.000772
# 5 -0.003562 -0.000980 0.004022 0.004009 0.027873 0.004434
# 6 -0.000114 0.000891 0.001828 0.000772 0.004434 0.027589
#
#
# Mechanical properties :
#
#
# Convention : Reuss Voigt Hill
#
# Bulk Modulus (GPa) = 50.13228 76.36479 63.24854
# Shear Modulus (GPa) = 32.03123 39.47647 35.75385
#
# Velocity S-wave (km/s) = 3.87605 4.30301 4.09510
# Velocity P-wave (km/s) = 6.59890 7.77854 7.21288
#
# Compressibility (1/GPa) = 0.01994723
#
# Stress axis : x y z
#
# Youngs Moduli (GPa) = 119.03061 96.05846 48.46499
#
# Poissons Ratio (x) = 0.26230 0.30655
# Poissons Ratio (y) = 0.32503 0.03359
# Poissons Ratio (z) = 0.75289 0.06658
#
# Static dielectric constant tensor:
#      x y z
#    x 4.398540 -0.116620 0.435800 
#    y -0.116620 4.011730 -0.047890 
#    z 0.435800 -0.047890 4.207830 
# 
# 
# High freq. dielectric constant tensor:
#      x y z
#    x 1.851650 -0.006540 0.006700 
#    y -0.006540 1.852500 -0.018820 
#    z 0.006700 -0.018820 1.823070 
# 
# From -- ./inp_files/304831.got.cif
#   From: 2010.06.25/outbox.cif.g09.slc.cpg/sg2_153_cif.got.tgz:304831.got - 2010.06.27 13:26:56.
