data_PCOD8030265
_publ_section_title
;
Structure prediction by ZEFSAII (Michael W. Deem and Ramdas Pophale) SiO2 
 PCOD8030265
Probable space group: P -1
;
_chemical_formula_sum "Si O2"
_cell_formula_units_Z 16
_cell_length_a 8.802803
_cell_length_b 13.673511
_cell_length_c 9.041456
_cell_angle_alpha 69.860794
_cell_angle_beta 112.681355
_cell_angle_gamma 137.505150
_cell_volume 675.154561
_symmetry_space_group_name_H-M "P -1"
_symmetry_group_IT_number 2
_symmetry_cell_setting 'triclinic'
loop_
_space_group_symop_operation_xyz
x,y,z
-x,-y,-z
loop_
_atom_site_type_symbol
_atom_site_label
_atom_site_fract_x
_atom_site_fract_y
_atom_site_fract_z
Si Si1 0.606411 0.283482 0.113785
Si Si2 0.308207 0.196711 0.776784
Si Si3 0.758357 0.573443 0.046212
Si Si4 0.023865 0.702083 0.793373
Si Si5 0.823385 0.012491 0.388000
Si Si6 0.289638 0.549496 0.408969
Si Si7 0.067164 0.291798 0.650463
Si Si8 0.623695 0.221044 0.478075
O O1 0.772532 0.455737 0.099971
O O2 0.733329 0.243161 0.098259
O O3 0.534139 0.219252 0.285380
O O4 0.389832 0.220889 0.964158
O O5 0.259668 0.059156 0.770142
O O6 0.484532 0.336203 0.663319
O O7 0.085661 0.174590 0.698279
O O8 0.916156 0.679155 0.184584
O O9 0.500000 0.500000 0.000000
O O10 0.870184 0.668914 0.890282
O O11 0.918106 0.563599 0.723838
O O12 0.054080 0.821726 0.649801
O O13 0.602270 0.923543 0.455217
O O14 0.000000 0.000000 0.500000
O O15 0.282546 0.445878 0.569880
O O16 0.254451 0.634205 0.456064
O O17 0.818618 0.218468 0.534522
#
# Coordination Sequence:
#
# PCOD8030265 Si02
#       8
#     2   2   2   2   2   2   2   2
#     4  12  24  46  73 109 145 183 240 295 364 416
#     4  11  26  45  73 102 147 190 240 294 359 433
#     4  12  25  42  73 115 147 182 236 306 363 422
#     4  12  26  45  74 104 147 191 237 296 361 429
#     4  11  29  52  71 101 147 199 242 292 361 439
#     4  11  21  43  73 106 139 190 238 295 355 427
#     4  12  22  42  69 112 137 187 240 303 356 418
#     4  11  26  45  77 104 147 182 245 301 357 430
#
# _framework density 23.698277000000001
#
# number of rings (size 3 to 8) (size 9 to 14) (size 15 to 20)
#    0.000    0.500    5.000    2.625    5.250    2.000 
#    0.000    1.250    0.000    0.000    0.000    0.000 
#    0.000    0.000    0.000    0.000    0.000    0.000 
#
# Total GULP energy -198350.731814 kJ/mol
# GULP energy per Si atom -12396.920738 kJ/mol
# Density = 2.364434 g / cm^3
# Si number density = 23.698277 Si / 1000 Ang^3
#
#
#
# Elastic Constant Matrix: (Units=GPa)
#
#
# Indices 1 2 3 4 5 6 
#
# 1 104.9958 23.5574 57.6551 -5.7288 17.4169 -5.4178
# 2 23.5574 70.5389 23.4565 -7.3097 -7.4230 -1.7245
# 3 57.6551 23.4565 133.6665 -5.8279 -17.8880 12.9393
# 4 -5.7288 -7.3097 -5.8279 23.0952 -4.8361 2.2984
# 5 17.4169 -7.4230 -17.8880 -4.8361 41.6158 3.3477
# 6 -5.4178 -1.7245 12.9393 2.2984 3.3477 25.9876
#
#
#
# Elastic Compliance Matrix: (Units=1/GPa)
#
#
# Indices 1 2 3 4 5 6 
#
# 1 0.019304 -0.004523 -0.010772 -0.003596 -0.014844 0.011318
# 2 -0.004523 0.016792 0.000109 0.005516 0.005665 -0.001101
# 3 -0.010772 0.000109 0.015156 0.005000 0.012576 -0.011847
# 4 -0.003596 0.005516 0.005000 0.048566 0.010972 -0.008582
# 5 -0.014844 0.005665 0.012576 0.010972 0.039139 -0.014993
# 6 0.011318 -0.001101 -0.011847 -0.008582 -0.014993 0.049355
#
#
# Mechanical properties :
#
#
# Convention : Reuss Voigt Hill
#
# Bulk Modulus (GPa) = 47.89020 57.61547 52.75283
# Shear Modulus (GPa) = 22.15882 31.77521 26.96702
#
# Velocity S-wave (km/s) = 3.06116 3.66570 3.37698
# Velocity P-wave (km/s) = 5.72245 6.50241 6.12486
#
# Compressibility (1/GPa) = 0.02088110
#
# Stress axis : x y z
#
# Youngs Moduli (GPa) = 51.80218 59.55389 65.97939
#
# Poissons Ratio (x) = 0.26936 0.71072
# Poissons Ratio (y) = 0.23430 -0.00722
# Poissons Ratio (z) = 0.55800 -0.00651
#
# Static dielectric constant tensor:
#      x y z
#    x 4.349690 -0.267320 -0.228210 
#    y -0.267320 4.278240 0.132130 
#    z -0.228210 0.132130 4.409920 
# 
# 
# High freq. dielectric constant tensor:
#      x y z
#    x 1.951180 -0.012330 -0.010380 
#    y -0.012330 1.919000 0.007340 
#    z -0.010380 0.007340 1.948210 
# 
# From -- ./inp_files/206505.got.cif
#   From: 2010.06.25/outbox.cif.g09.slc.cpg/sg2_104_cif.got.tgz:206505.got - 2010.06.27 13:26:56.
