data_PCOD8030222
_publ_section_title
;
Structure prediction by ZEFSAII (Michael W. Deem and Ramdas Pophale) SiO2 
 PCOD8030222
Probable space group: P -1
;
_chemical_formula_sum "Si O2"
_cell_formula_units_Z 16
_cell_length_a 11.929047
_cell_length_b 14.834744
_cell_length_c 14.353296
_cell_angle_alpha 40.784589
_cell_angle_beta 62.222287
_cell_angle_gamma 30.267704
_cell_volume 686.717291
_symmetry_space_group_name_H-M "P -1"
_symmetry_group_IT_number 2
_symmetry_cell_setting 'triclinic'
loop_
_space_group_symop_operation_xyz
x,y,z
-x,-y,-z
loop_
_atom_site_type_symbol
_atom_site_label
_atom_site_fract_x
_atom_site_fract_y
_atom_site_fract_z
Si Si1 0.195721 0.126828 0.848295
Si Si2 0.796384 0.125970 0.338348
Si Si3 0.715537 0.377107 0.575634
Si Si4 0.111048 0.230583 0.303021
Si Si5 0.538823 0.846490 0.286713
Si Si6 0.221486 0.674981 0.196086
Si Si7 0.250676 0.524918 0.898167
Si Si8 0.077541 0.300451 0.961621
O O1 0.247776 0.235613 0.717110
O O2 0.176107 0.127756 0.966502
O O3 0.919467 0.340566 0.739049
O O4 0.427241 0.801248 0.975036
O O5 0.470007 0.428548 0.218019
O O6 0.845649 0.228442 0.285796
O O7 0.914490 0.883746 0.538751
O O8 0.970962 0.962571 0.303067
O O9 0.500000 0.500000 0.500000
O O10 0.686049 0.566715 0.415544
O O11 0.661508 0.401666 0.686661
O O12 0.876237 0.459253 0.137777
O O13 0.062369 0.418188 0.233092
O O14 0.399725 0.955207 0.355424
O O15 0.328997 0.088699 0.097631
O O16 0.000000 0.000000 0.000000
O O17 0.143656 0.586269 0.993810
#
# Coordination Sequence:
#
# PCOD8030222 Si02
#       8
#     2   2   2   2   2   2   2   2
#     4  12  25  44  73 103 148 197 245 299 366 438
#     4  12  27  45  72 107 147 196 239 306 371 433
#     4  12  29  49  79 112 145 188 250 308 370 442
#     4  11  21  43  70 111 148 182 248 306 376 420
#     4  11  22  45  73 109 150 189 243 312 360 435
#     4  12  30  50  70 106 152 201 245 299 371 442
#     4  11  23  40  69 105 147 187 240 314 360 432
#     4  11  23  41  72 111 141 188 250 299 369 444
#
# _framework density 23.299251999999999
#
# number of rings (size 3 to 8) (size 9 to 14) (size 15 to 20)
#    0.000    0.500    5.000    3.750    7.000    2.000 
#    0.000    1.250    0.000    0.000    0.000    0.000 
#    0.000    0.000    0.000    0.000    0.000    0.000 
#
# Total GULP energy -198364.246068 kJ/mol
# GULP energy per Si atom -12397.765379 kJ/mol
# Density = 2.324622 g / cm^3
# Si number density = 23.299252 Si / 1000 Ang^3
#
#
#
# Elastic Constant Matrix: (Units=GPa)
#
#
# Indices 1 2 3 4 5 6 
#
# 1 120.5157 42.1226 38.9125 -4.9387 -16.6878 -11.5115
# 2 42.1226 131.0334 26.8142 -18.2818 -8.6349 -16.1328
# 3 38.9125 26.8142 95.0288 -7.4419 -29.4235 1.1954
# 4 -4.9387 -18.2818 -7.4419 41.7618 -0.7254 0.7786
# 5 -16.6878 -8.6349 -29.4235 -0.7254 38.4491 -3.9924
# 6 -11.5115 -16.1328 1.1954 0.7786 -3.9924 29.0093
#
#
#
# Elastic Compliance Matrix: (Units=1/GPa)
#
#
# Indices 1 2 3 4 5 6 
#
# 1 0.010719 -0.002287 -0.003176 -0.000327 0.002056 0.003404
# 2 -0.002287 0.009773 -0.001374 0.003689 0.000696 0.004581
# 3 -0.003176 -0.001374 0.015504 0.001985 0.010077 -0.001330
# 4 -0.000327 0.003689 0.001985 0.025896 0.002854 0.001538
# 5 0.002056 0.000696 0.010077 0.002854 0.035401 0.005583
# 6 0.003404 0.004581 -0.001330 0.001538 0.005583 0.039152
#
#
# Mechanical properties :
#
#
# Convention : Reuss Voigt Hill
#
# Bulk Modulus (GPa) = 44.80147 62.47516 53.63831
# Shear Modulus (GPa) = 31.73414 37.75931 34.74672
#
# Velocity S-wave (km/s) = 3.69456 4.03006 3.86596
# Velocity P-wave (km/s) = 6.12129 6.96618 6.55736
#
# Compressibility (1/GPa) = 0.02232070
#
# Stress axis : x y z
#
# Youngs Moduli (GPa) = 93.29403 102.32688 64.50133
#
# Poissons Ratio (x) = 0.23401 0.20485
# Poissons Ratio (y) = 0.21335 0.08865
# Poissons Ratio (z) = 0.29629 0.14064
#
# Static dielectric constant tensor:
#      x y z
#    x 4.154340 -0.128610 -0.290790 
#    y -0.128610 4.476970 -0.117160 
#    z -0.290790 -0.117160 3.901580 
# 
# 
# High freq. dielectric constant tensor:
#      x y z
#    x 1.912110 -0.009150 -0.035970 
#    y -0.009150 1.939750 -0.009320 
#    z -0.035970 -0.009320 1.905800 
# 
# From -- ./inp_files/522240.got.cif
#   From: 2010.06.25/outbox.cif.g09.slc.cpg/sg2_262_cif.got.tgz:522240.got - 2010.06.27 13:26:56.
