data_PCOD8030454
_publ_section_title
;
Structure prediction by ZEFSAII (Michael W. Deem and Ramdas Pophale) SiO2 
 PCOD8030454
Probable space group: P -1
;
_chemical_formula_sum "Si O2"
_cell_formula_units_Z 16
_cell_length_a 9.446143
_cell_length_b 13.238681
_cell_length_c 8.825739
_cell_angle_alpha 59.267309
_cell_angle_beta 104.979621
_cell_angle_gamma 127.633269
_cell_volume 748.975970
_symmetry_space_group_name_H-M "P -1"
_symmetry_group_IT_number 2
_symmetry_cell_setting 'triclinic'
loop_
_space_group_symop_operation_xyz
x,y,z
-x,-y,-z
loop_
_atom_site_type_symbol
_atom_site_label
_atom_site_fract_x
_atom_site_fract_y
_atom_site_fract_z
Si Si1 0.172207 0.346080 0.155595
Si Si2 0.559731 0.878429 0.318332
Si Si3 0.189176 0.838248 0.650678
Si Si4 0.673820 0.856197 0.049641
Si Si5 0.783640 0.135621 0.716765
Si Si6 0.152061 0.301808 0.838690
Si Si7 0.526200 0.377329 0.316473
Si Si8 0.335008 0.660915 0.920571
O O1 0.360999 0.386968 0.235890
O O2 0.017768 0.231439 0.314227
O O3 0.131151 0.275944 0.032440
O O4 0.183832 0.493172 0.039665
O O5 0.666619 0.919240 0.159691
O O6 0.378530 0.867807 0.249809
O O7 0.513032 0.725938 0.475795
O O8 0.686211 0.998172 0.385362
O O9 0.212179 0.833775 0.482489
O O10 0.243501 0.745126 0.824066
O O11 0.802903 0.803772 0.139471
O O12 0.476207 0.723862 0.048124
O O13 0.754504 0.983545 0.851151
O O14 0.967355 0.263549 0.746198
O O15 0.302817 0.465910 0.712235
O O16 0.561068 0.317298 0.222726
#
# Coordination Sequence:
#
# PCOD8030454 Si02
#       8
#     2   2   2   2   2   2   2   2
#     4  11  24  44  72  99 131 174 221 266 328 396
#     4  12  27  43  69  98 133 176 220 272 327 393
#     4  12  26  44  69  98 133 174 222 273 323 393
#     4  12  24  44  71  95 133 177 217 273 331 384
#     4  12  26  45  67  97 136 173 220 274 330 383
#     4  11  25  45  68  99 135 172 218 275 325 390
#     4  11  23  47  69  97 133 176 220 267 329 388
#     4  11  21  46  72  95 131 177 218 269 330 388
#
# _framework density 21.362503
#
# number of rings (size 3 to 8) (size 9 to 14) (size 15 to 20)
#    0.000    0.500    5.000    3.750    3.500    2.500 
#    0.000    0.000    0.000    0.000    0.000    0.000 
#    0.000    0.000    0.000    0.000    0.000    0.000 
#
# Total GULP energy -198543.588376 kJ/mol
# GULP energy per Si atom -12408.974273 kJ/mol
# Density = 2.131388 g / cm^3
# Si number density = 21.362503 Si / 1000 Ang^3
#
#
#
# Elastic Constant Matrix: (Units=GPa)
#
#
# Indices 1 2 3 4 5 6 
#
# 1 60.2726 38.3730 8.3555 -3.6661 -12.6091 9.7324
# 2 38.3730 96.1859 23.1935 -3.1011 5.5546 9.0728
# 3 8.3555 23.1935 70.1457 -14.5792 0.1714 0.3309
# 4 -3.6661 -3.1011 -14.5792 30.4592 2.6985 2.4182
# 5 -12.6091 5.5546 0.1714 2.6985 25.3125 1.4311
# 6 9.7324 9.0728 0.3309 2.4182 1.4311 36.4009
#
#
#
# Elastic Compliance Matrix: (Units=1/GPa)
#
#
# Indices 1 2 3 4 5 6 
#
# 1 0.028720 -0.012094 0.000888 0.001568 0.017095 -0.005449
# 2 -0.012094 0.016824 -0.004285 -0.000908 -0.009563 -0.000484
# 3 0.000888 -0.004285 0.017198 0.007854 0.000421 0.000136
# 4 0.001568 -0.000908 0.007854 0.037150 -0.002885 -0.002619
# 5 0.017095 -0.009563 0.000421 -0.002885 0.050651 -0.003991
# 6 -0.005449 -0.000484 0.000136 -0.002619 -0.003991 0.029379
#
#
# Mechanical properties :
#
#
# Convention : Reuss Voigt Hill
#
# Bulk Modulus (GPa) = 31.48825 40.71646 36.10235
# Shear Modulus (GPa) = 22.57435 28.88001 25.72718
#
# Velocity S-wave (km/s) = 3.25426 3.68081 3.47409
# Velocity P-wave (km/s) = 5.37515 6.09636 5.74708
#
# Compressibility (1/GPa) = 0.03175788
#
# Stress axis : x y z
#
# Youngs Moduli (GPa) = 34.81915 59.44059 58.14662
#
# Poissons Ratio (x) = 0.71890 -0.05163
# Poissons Ratio (y) = 0.42112 0.24917
# Poissons Ratio (z) = -0.03092 0.25471
#
# Static dielectric constant tensor:
#      x y z
#    x 3.915060 0.035020 0.012240 
#    y 0.035020 3.847320 -0.094250 
#    z 0.012240 -0.094250 3.816140 
# 
# 
# High freq. dielectric constant tensor:
#      x y z
#    x 1.845260 0.003150 0.002520 
#    y 0.003150 1.845570 -0.006550 
#    z 0.002520 -0.006550 1.837020 
# 
# From -- ./inp_files/185144.got.cif
#   From: 2010.06.25/outbox.cif.g09.slc.cpg/sg2_93_cif.got.tgz:185144.got - 2010.06.27 13:26:56.
