data_PCOD8030077
_publ_section_title
;
Structure prediction by ZEFSAII (Michael W. Deem and Ramdas Pophale) SiO2 
 PCOD8030077
Probable space group: P -1
;
_chemical_formula_sum "Si O2"
_cell_formula_units_Z 14
_cell_length_a 9.304209
_cell_length_b 21.913844
_cell_length_c 9.686461
_cell_angle_alpha 52.630392
_cell_angle_beta 47.454783
_cell_angle_gamma 26.472955
_cell_volume 648.619593
_symmetry_space_group_name_H-M "P -1"
_symmetry_group_IT_number 2
_symmetry_cell_setting 'triclinic'
loop_
_space_group_symop_operation_xyz
x,y,z
-x,-y,-z
loop_
_atom_site_type_symbol
_atom_site_label
_atom_site_fract_x
_atom_site_fract_y
_atom_site_fract_z
Si Si1 0.163982 0.680058 0.714562
Si Si2 0.876725 0.844348 0.933604
Si Si3 0.116235 0.289603 0.426902
Si Si4 0.291417 0.369227 0.587002
Si Si5 0.700773 0.373684 0.831221
Si Si6 0.100677 0.467225 0.135960
Si Si7 0.297347 0.855764 0.576294
O O1 0.389740 0.678228 0.520762
O O2 0.430821 0.531662 0.814276
O O3 0.879304 0.802012 0.841531
O O4 0.932117 0.722212 0.681968
O O5 0.151878 0.825065 0.780083
O O6 0.975103 0.743038 0.115226
O O7 0.500000 0.000000 0.000000
O O8 0.034747 0.406412 0.331427
O O9 0.510209 0.154320 0.417196
O O10 0.839293 0.333797 0.639405
O O11 0.425404 0.251535 0.578632
O O12 0.000000 0.500000 0.500000
O O13 0.120536 0.402508 0.800956
O O14 0.501105 0.360169 0.014705
O O15 0.000000 0.500000 0.000000
O O16 0.000000 0.000000 0.500000
#
# Coordination Sequence:
#
# PCOD8030077 Si02
#       7
#     2   2   2   2   2   2   2
#     4  11  23  41  69  98 132 174 217 276 334 381
#     4  11  25  44  65  98 131 174 229 265 322 404
#     4  12  23  44  66 100 136 168 218 276 335 382
#     4  11  21  42  67  97 132 175 224 264 326 395
#     4  12  22  39  71  97 132 172 218 269 326 388
#     4  12  22  38  65 103 135 166 214 277 325 386
#     4  11  24  45  69  92 135 180 216 273 332 392
#
# _framework density 21.584301
#
# number of rings (size 3 to 8) (size 9 to 14) (size 15 to 20)
#    0.000    0.571    5.714    3.429    0.000    2.286 
#    0.000    8.571    0.000    0.000    0.000    0.000 
#    0.000    0.000    0.000    0.000    0.000    0.000 
#
# Total GULP energy -173473.609658 kJ/mol
# GULP energy per Si atom -12390.972118 kJ/mol
# Density = 2.153517 g / cm^3
# Si number density = 21.584301 Si / 1000 Ang^3
#
#
#
# Elastic Constant Matrix: (Units=GPa)
#
#
# Indices 1 2 3 4 5 6 
#
# 1 125.5368 53.2415 44.8930 10.5852 12.9755 -6.0670
# 2 53.2415 144.3079 50.4466 9.3334 27.9337 -10.7203
# 3 44.8930 50.4466 134.6673 14.9798 19.6411 2.6117
# 4 10.5852 9.3334 14.9798 37.0332 4.4794 3.9200
# 5 12.9755 27.9337 19.6411 4.4794 32.7433 0.6485
# 6 -6.0670 -10.7203 2.6117 3.9200 0.6485 24.4621
#
#
#
# Elastic Compliance Matrix: (Units=1/GPa)
#
#
# Indices 1 2 3 4 5 6 
#
# 1 0.010133 -0.002692 -0.002206 -0.001490 -0.000228 0.001814
# 2 -0.002692 0.010238 -0.002004 -0.000675 -0.006458 0.004312
# 3 -0.002206 -0.002004 0.009609 -0.002194 -0.002840 -0.002024
# 4 -0.001490 -0.000675 -0.002194 0.029194 -0.001411 -0.005072
# 5 -0.000228 -0.006458 -0.002840 -0.001411 0.038103 -0.003367
# 6 0.001814 0.004312 -0.002024 -0.005072 -0.003367 0.044337
#
#
# Mechanical properties :
#
#
# Convention : Reuss Voigt Hill
#
# Bulk Modulus (GPa) = 61.82125 77.96382 69.89253
# Shear Modulus (GPa) = 31.09242 35.90977 33.50110
#
# Velocity S-wave (km/s) = 3.79952 4.08327 3.94395
# Velocity P-wave (km/s) = 6.92477 7.64394 7.29323
#
# Compressibility (1/GPa) = 0.01617567
#
# Stress axis : x y z
#
# Youngs Moduli (GPa) = 98.68497 97.67913 104.06641
#
# Poissons Ratio (x) = 0.26299 0.22954
# Poissons Ratio (y) = 0.26570 0.20856
# Poissons Ratio (z) = 0.21767 0.19576
#
# Static dielectric constant tensor:
#      x y z
#    x 4.089120 -0.155220 -0.016540 
#    y -0.155220 -1.469950 0.659690 
#    z -0.016540 0.659690 3.958560 
# 
# 
# High freq. dielectric constant tensor:
#      x y z
#    x 1.851430 -0.009900 -0.003740 
#    y -0.009900 1.821670 0.000920 
#    z -0.003740 0.000920 1.865750 
# 
# From -- ./inp_files/223365.got.cif
#   From: 2010.06.25/outbox.cif.g09.slc.cpg/sg2_112_cif.got.tgz:223365.got - 2010.06.27 13:26:56.
