data_PCOD8030603
_publ_section_title
;
Structure prediction by ZEFSAII (Michael W. Deem and Ramdas Pophale) SiO2 
 PCOD8030603
Probable space group: P -1
;
_chemical_formula_sum "Si O2"
_cell_formula_units_Z 16
_cell_length_a 17.637855
_cell_length_b 20.015643
_cell_length_c 11.751310
_cell_angle_alpha 21.886054
_cell_angle_beta 32.296909
_cell_angle_gamma 30.639077
_cell_volume 763.706851
_symmetry_space_group_name_H-M "P -1"
_symmetry_group_IT_number 2
_symmetry_cell_setting 'triclinic'
loop_
_space_group_symop_operation_xyz
x,y,z
-x,-y,-z
loop_
_atom_site_type_symbol
_atom_site_label
_atom_site_fract_x
_atom_site_fract_y
_atom_site_fract_z
Si Si1 0.883285 0.900599 0.279960
Si Si2 0.751444 0.769809 0.116774
Si Si3 0.466649 0.677523 0.677450
Si Si4 0.347339 0.542365 0.831574
Si Si5 0.602740 0.146380 0.856294
Si Si6 0.034357 0.481842 0.351220
Si Si7 0.705791 0.883369 0.743051
Si Si8 0.402591 0.875170 0.849264
O O1 0.956535 0.727140 0.371532
O O2 0.838401 0.816861 0.584798
O O3 0.737490 0.071137 0.143491
O O4 0.000000 0.000000 0.000000
O O5 0.628967 0.667925 0.437821
O O6 0.904702 0.645651 0.185326
O O7 0.785162 0.800872 0.893398
O O8 0.682187 0.980521 0.926605
O O9 0.356766 0.659262 0.746914
O O10 0.378131 0.883040 0.525401
O O11 0.500000 0.500000 0.000000
O O12 0.349285 0.672451 0.515211
O O13 0.194798 0.499256 0.094725
O O14 0.496472 0.348445 0.941461
O O15 0.418443 0.210050 0.982093
O O16 0.661633 0.073432 0.022811
O O17 0.000000 0.500000 0.500000
O O18 0.500000 0.000000 0.500000
#
# Coordination Sequence:
#
# PCOD8030603 Si02
#       8
#     2   2   2   2   2   2   2   2
#     4  12  29  45  69 103 140 182 230 282 349 413
#     4  11  24  43  70  98 143 183 219 292 347 405
#     4  11  22  38  71 103 129 180 233 279 336 406
#     4  12  24  42  70 101 131 179 234 276 346 406
#     4  11  22  44  71 102 136 177 234 279 343 416
#     4  12  28  46  67 104 144 180 230 287 346 412
#     4  11  22  46  68 101 143 173 233 289 336 414
#     4  12  24  45  70  98 135 181 225 292 340 401
#
# _framework density 20.950447
#
# number of rings (size 3 to 8) (size 9 to 14) (size 15 to 20)
#    0.000    0.500    5.000    3.375    7.000    2.000 
#    0.000    0.000    0.000    0.000    0.000    0.000 
#    0.000    0.000    0.000    0.000    0.000    0.000 
#
# Total GULP energy -198487.613128 kJ/mol
# GULP energy per Si atom -12405.475821 kJ/mol
# Density = 2.090276 g / cm^3
# Si number density = 20.950447 Si / 1000 Ang^3
#
#
#
# Elastic Constant Matrix: (Units=GPa)
#
#
# Indices 1 2 3 4 5 6 
#
# 1 136.9140 47.0781 64.0169 16.9533 12.1901 -5.2259
# 2 47.0781 79.3807 43.3135 6.9275 2.4534 2.8900
# 3 64.0169 43.3135 143.6799 1.1554 7.7704 4.2140
# 4 16.9533 6.9275 1.1554 29.2460 1.7449 4.2650
# 5 12.1901 2.4534 7.7704 1.7449 52.5204 2.7454
# 6 -5.2259 2.8900 4.2140 4.2650 2.7454 42.9444
#
#
#
# Elastic Compliance Matrix: (Units=1/GPa)
#
#
# Indices 1 2 3 4 5 6 
#
# 1 0.011547 -0.004324 -0.003774 -0.005812 -0.001871 0.002763
# 2 -0.004324 0.017044 -0.003206 -0.001264 0.000791 -0.001284
# 3 -0.003774 -0.003206 0.009651 0.002801 -0.000420 -0.001442
# 4 -0.005812 -0.001264 0.002801 0.038440 -0.000037 -0.004712
# 5 -0.001871 0.000791 -0.000420 -0.000037 0.019579 -0.001488
# 6 0.002763 -0.001284 -0.001442 -0.004712 -0.001488 0.024413
#
#
# Mechanical properties :
#
#
# Convention : Reuss Voigt Hill
#
# Bulk Modulus (GPa) = 63.97195 74.31019 69.14107
# Shear Modulus (GPa) = 33.67119 38.64656 36.15888
#
# Velocity S-wave (km/s) = 4.01332 4.29962 4.15893
# Velocity P-wave (km/s) = 7.21643 7.75857 7.49240
#
# Compressibility (1/GPa) = 0.01563185
#
# Stress axis : x y z
#
# Youngs Moduli (GPa) = 86.60011 58.67061 103.61992
#
# Poissons Ratio (x) = 0.25372 0.39110
# Poissons Ratio (y) = 0.37450 0.33224
# Poissons Ratio (z) = 0.32686 0.18812
#
# Static dielectric constant tensor:
#      x y z
#    x 4.118490 0.077990 0.229010 
#    y 0.077990 3.735950 0.028430 
#    z 0.229010 0.028430 4.239620 
# 
# 
# High freq. dielectric constant tensor:
#      x y z
#    x 1.835090 0.009250 0.004710 
#    y 0.009250 1.811540 -0.002300 
#    z 0.004710 -0.002300 1.834900 
# 
# From -- ./inp_files/223457.got.cif
#   From: 2010.06.25/outbox.cif.g09.slc.cpg/sg2_112_cif.got.tgz:223457.got - 2010.06.27 13:26:56.
