data_PCOD8030910
_publ_section_title
;
Structure prediction by ZEFSAII (Michael W. Deem and Ramdas Pophale) SiO2 
 PCOD8030910
Probable space group: P -1
;
_chemical_formula_sum "Si O2"
_cell_formula_units_Z 14
_cell_length_a 12.611521
_cell_length_b 12.058765
_cell_length_c 6.578522
_cell_angle_alpha 117.191320
_cell_angle_beta 62.342540
_cell_angle_gamma 131.567905
_cell_volume 646.016330
_symmetry_space_group_name_H-M "P -1"
_symmetry_group_IT_number 2
_symmetry_cell_setting 'triclinic'
loop_
_space_group_symop_operation_xyz
x,y,z
-x,-y,-z
loop_
_atom_site_type_symbol
_atom_site_label
_atom_site_fract_x
_atom_site_fract_y
_atom_site_fract_z
Si Si1 0.565418 0.821286 0.421659
Si Si2 0.053107 0.283218 0.148700
Si Si3 0.232232 0.175469 0.067408
Si Si4 0.787907 0.156840 0.557906
Si Si5 0.478877 0.356860 0.297265
Si Si6 0.063352 0.909930 0.274650
Si Si7 0.697543 0.373148 0.807660
O O1 0.549846 0.770386 0.624905
O O2 0.409416 0.720234 0.364690
O O3 0.633268 0.000707 0.505360
O O4 0.683569 0.800574 0.196306
O O5 0.099180 0.188892 0.156310
O O6 0.166288 0.461613 0.243889
O O7 0.894965 0.228914 0.328767
O O8 0.050845 0.246767 0.878250
O O9 0.340705 0.302899 0.235817
O O10 0.175387 0.013410 0.081388
O O11 0.861391 0.125293 0.648882
O O12 0.755244 0.276853 0.763432
O O13 0.500000 0.500000 0.500000
O O14 0.617000 0.400220 0.078053
O O15 0.000000 0.000000 0.500000
#
# Coordination Sequence:
#
# PCOD8030910 Si02
#       7
#     2   2   2   2   2   2   2
#     4  11  23  45  70  95 133 177 223 277 326 395
#     4  12  25  43  69  97 141 172 220 280 333 393
#     4  11  22  41  67 103 125 169 229 272 330 389
#     4  12  25  45  69  97 136 178 225 272 330 401
#     4  11  24  42  70  98 135 174 221 278 334 392
#     4  12  24  40  69 101 131 174 224 275 327 394
#     4  11  28  44  65 102 134 180 221 270 339 397
#
# _framework density 21.671278000000001
#
# number of rings (size 3 to 8) (size 9 to 14) (size 15 to 20)
#    0.000    0.571    4.286    3.857    2.000    5.714 
#    0.000    0.000    0.000    0.000    0.000    0.000 
#    0.000    0.000    0.000    0.000    0.000    0.000 
#
# Total GULP energy -173616.216593 kJ/mol
# GULP energy per Si atom -12401.158328 kJ/mol
# Density = 2.162195 g / cm^3
# Si number density = 21.671278 Si / 1000 Ang^3
#
#
#
# Elastic Constant Matrix: (Units=GPa)
#
#
# Indices 1 2 3 4 5 6 
#
# 1 84.9180 26.5784 37.6190 16.0313 -6.4589 -8.5039
# 2 26.5784 132.5493 37.4475 12.8244 2.1243 8.7162
# 3 37.6190 37.4475 86.5027 14.8729 12.0673 1.3551
# 4 16.0313 12.8244 14.8729 37.4140 -5.1790 -0.7574
# 5 -6.4589 2.1243 12.0673 -5.1790 21.3737 2.3444
# 6 -8.5039 8.7162 1.3551 -0.7574 2.3444 32.8997
#
#
#
# Elastic Compliance Matrix: (Units=1/GPa)
#
#
# Indices 1 2 3 4 5 6 
#
# 1 0.017222 -0.001469 -0.007684 -0.002543 0.008580 0.004487
# 2 -0.001469 0.008992 -0.003051 -0.001242 0.000379 -0.002692
# 3 -0.007684 -0.003051 0.019076 -0.005195 -0.013928 -0.001091
# 4 -0.002543 -0.001242 -0.005195 0.031687 0.009977 -0.000096
# 5 0.008580 0.000379 -0.013928 0.009977 0.059769 -0.001338
# 6 0.004487 -0.002692 -0.001091 -0.000096 -0.001338 0.032407
#
#
# Mechanical properties :
#
#
# Convention : Reuss Voigt Hill
#
# Bulk Modulus (GPa) = 47.88752 56.36219 52.12485
# Shear Modulus (GPa) = 24.93506 31.82582 28.38044
#
# Velocity S-wave (km/s) = 3.39574 3.83635 3.62275
# Velocity P-wave (km/s) = 6.12535 6.75927 6.45010
#
# Compressibility (1/GPa) = 0.02088227
#
# Stress axis : x y z
#
# Youngs Moduli (GPa) = 58.06613 111.21001 52.42219
#
# Poissons Ratio (x) = 0.16337 0.40279
# Poissons Ratio (y) = 0.08530 0.15994
# Poissons Ratio (z) = 0.44616 0.33931
#
# Static dielectric constant tensor:
#      x y z
#    x 3.933010 0.171660 0.143790 
#    y 0.171660 4.098450 0.064430 
#    z 0.143790 0.064430 4.067550 
# 
# 
# High freq. dielectric constant tensor:
#      x y z
#    x 1.846490 0.009080 0.006590 
#    y 0.009080 1.863220 0.004570 
#    z 0.006590 0.004570 1.857780 
# 
# From -- ./inp_files/67786.got.cif
#   From: 2010.06.25/outbox.cif.g09.slc.cpg/sg2_34_cif.got.tgz:67786.got - 2010.06.27 13:26:56.
