data_PCOD8030505
_publ_section_title
;
Structure prediction by ZEFSAII (Michael W. Deem and Ramdas Pophale) SiO2 
 PCOD8030505
Probable space group: P -1
;
_chemical_formula_sum "Si O2"
_cell_formula_units_Z 16
_cell_length_a 12.632194
_cell_length_b 12.950530
_cell_length_c 8.462916
_cell_angle_alpha 61.996776
_cell_angle_beta 131.024367
_cell_angle_gamma 133.110981
_cell_volume 761.961266
_symmetry_space_group_name_H-M "P -1"
_symmetry_group_IT_number 2
_symmetry_cell_setting 'triclinic'
loop_
_space_group_symop_operation_xyz
x,y,z
-x,-y,-z
loop_
_atom_site_type_symbol
_atom_site_label
_atom_site_fract_x
_atom_site_fract_y
_atom_site_fract_z
Si Si1 0.382529 0.720926 0.608889
Si Si2 0.152602 0.811563 0.454793
Si Si3 0.406703 0.347131 0.948929
Si Si4 0.471285 0.363164 0.653775
Si Si5 0.119868 0.218407 0.000629
Si Si6 0.302806 0.115837 0.429373
Si Si7 0.931788 0.549472 0.659189
Si Si8 0.159205 0.457904 0.073761
O O1 0.293880 0.795338 0.530068
O O2 0.472006 0.706187 0.859104
O O3 0.529154 0.818859 0.558029
O O4 0.250064 0.568430 0.508091
O O5 0.024434 0.681858 0.535954
O O6 0.242151 0.958179 0.535605
O O7 0.067273 0.833367 0.201834
O O8 0.224552 0.256008 0.915349
O O9 0.500000 0.500000 0.000000
O O10 0.374127 0.344030 0.734308
O O11 0.500000 0.500000 0.500000
O O12 0.351240 0.215165 0.555998
O O13 0.657396 0.393272 0.840416
O O14 0.143435 0.105165 0.193181
O O15 0.189600 0.348679 0.096696
O O16 0.916805 0.598290 0.784414
O O17 0.039536 0.480707 0.829633
#
# Coordination Sequence:
#
# PCOD8030505 Si02
#       8
#     2   2   2   2   2   2   2   2
#     4  11  22  43  67  93 126 176 221 259 312 383
#     4  12  25  42  65  97 134 169 215 261 330 381
#     4  11  22  36  64  99 125 156 221 275 307 367
#     4  12  22  39  66  91 128 170 214 262 320 380
#     4  11  23  40  67  95 129 167 216 269 316 377
#     4  11  25  44  64  96 134 173 208 265 326 384
#     4  11  24  39  67  98 128 168 214 271 315 380
#     4  11  22  41  64  99 126 163 221 267 318 372
#
# _framework density 20.998443999999999
#
# number of rings (size 3 to 8) (size 9 to 14) (size 15 to 20)
#    0.000    0.750    5.000    3.375    1.750    0.000 
#    0.000    7.500    0.000    0.000    0.000    0.000 
#    0.000    0.000    0.000    0.000    0.000    0.000 
#
# Total GULP energy -198382.974466 kJ/mol
# GULP energy per Si atom -12398.935904 kJ/mol
# Density = 2.095065 g / cm^3
# Si number density = 20.998444 Si / 1000 Ang^3
#
#
#
# Elastic Constant Matrix: (Units=GPa)
#
#
# Indices 1 2 3 4 5 6 
#
# 1 107.3758 29.2883 48.5296 -10.6111 1.0573 -19.2195
# 2 29.2883 111.6617 31.1512 -11.7674 -3.8806 -17.7814
# 3 48.5296 31.1512 77.1976 -6.6686 0.7883 -11.8780
# 4 -10.6111 -11.7674 -6.6686 23.0896 0.1294 -1.7134
# 5 1.0573 -3.8806 0.7883 0.1294 39.0442 4.1443
# 6 -19.2195 -17.7814 -11.8780 -1.7134 4.1443 27.4699
#
#
#
# Elastic Compliance Matrix: (Units=1/GPa)
#
#
# Indices 1 2 3 4 5 6 
#
# 1 0.014570 -0.000044 -0.007562 0.005042 -0.001045 0.007368
# 2 -0.000044 0.011428 -0.003165 0.005351 0.000519 0.006254
# 3 -0.007562 -0.003165 0.019206 0.000543 -0.000615 0.001092
# 4 0.005042 0.005351 0.000543 0.049290 -0.000887 0.010435
# 5 -0.001045 0.000519 -0.000615 -0.000887 0.026203 -0.004670
# 6 0.007368 0.006254 0.001092 0.010435 -0.004670 0.047434
#
#
# Mechanical properties :
#
#
# Convention : Reuss Voigt Hill
#
# Bulk Modulus (GPa) = 42.25984 57.13036 49.69510
# Shear Modulus (GPa) = 25.30888 30.40514 27.85701
#
# Velocity S-wave (km/s) = 3.47547 3.80935 3.64623
# Velocity P-wave (km/s) = 6.02280 6.82746 6.43771
#
# Compressibility (1/GPa) = 0.02366313
#
# Stress axis : x y z
#
# Youngs Moduli (GPa) = 68.63396 87.50567 52.06778
#
# Poissons Ratio (x) = 0.00382 0.39372
# Poissons Ratio (y) = 0.00300 0.16478
# Poissons Ratio (z) = 0.51899 0.27694
#
# Static dielectric constant tensor:
#      x y z
#    x 3.758030 -0.066400 0.271650 
#    y -0.066400 3.624360 0.079480 
#    z 0.271650 0.079480 3.894990 
# 
# 
# High freq. dielectric constant tensor:
#      x y z
#    x 1.833550 -0.007360 0.012380 
#    y -0.007360 1.802520 0.004850 
#    z 0.012380 0.004850 1.835990 
# 
# From -- ./inp_files/190894.got.cif
#   From: 2010.06.25/outbox.cif.g09.slc.cpg/sg2_96_cif.got.tgz:190894.got - 2010.06.27 13:26:56.
