data_PCOD8030971
_publ_section_title
;
Structure prediction by ZEFSAII (Michael W. Deem and Ramdas Pophale) SiO2 
 PCOD8030971
Probable space group: P -1
;
_chemical_formula_sum "Si O2"
_cell_formula_units_Z 16
_cell_length_a 9.049895
_cell_length_b 9.346676
_cell_length_c 17.080603
_cell_angle_alpha 96.709370
_cell_angle_beta 53.308398
_cell_angle_gamma 133.498003
_cell_volume 724.759518
_symmetry_space_group_name_H-M "P -1"
_symmetry_group_IT_number 2
_symmetry_cell_setting 'triclinic'
loop_
_space_group_symop_operation_xyz
x,y,z
-x,-y,-z
loop_
_atom_site_type_symbol
_atom_site_label
_atom_site_fract_x
_atom_site_fract_y
_atom_site_fract_z
Si Si1 0.726444 0.238176 0.987206
Si Si2 0.094610 0.001353 0.774717
Si Si3 0.368874 0.522634 0.607681
Si Si4 0.223714 0.328592 0.872763
Si Si5 0.208187 0.391666 0.053726
Si Si6 0.772354 0.008092 0.771855
Si Si7 0.368213 0.073506 0.535437
Si Si8 0.751547 0.757889 0.655699
O O1 0.565647 0.148373 0.117964
O O2 0.783354 0.429804 0.943392
O O3 0.033508 0.343817 0.897768
O O4 0.500000 0.000000 0.000000
O O5 0.203055 0.166740 0.822357
O O6 0.321949 0.123015 0.637893
O O7 0.814181 0.911083 0.819985
O O8 0.032963 0.806292 0.818626
O O9 0.500000 0.500000 0.500000
O O10 0.392231 0.696775 0.577276
O O11 0.577473 0.627327 0.623049
O O12 0.027575 0.283341 0.719888
O O13 0.561794 0.579945 0.776103
O O14 0.135656 0.265456 0.987286
O O15 0.500000 0.500000 0.000000
O O16 0.801199 0.958416 0.672378
O O17 0.500000 0.000000 0.500000
O O18 0.070176 0.878142 0.566006
#
# Coordination Sequence:
#
# PCOD8030971 Si02
#       8
#     2   2   2   2   2   2   2   2
#     4  12  23  41  67 105 140 178 231 284 326 421
#     4  11  22  44  65  98 138 180 224 283 343 411
#     4  12  22  44  76  98 129 186 238 280 347 411
#     4  12  23  43  70  99 142 181 232 277 343 421
#     4  12  23  40  66  97 141 188 222 273 353 401
#     4  11  22  41  69  99 137 176 234 274 338 408
#     4  11  26  47  70 103 138 173 234 299 350 405
#     4  11  22  42  74  96 134 185 224 283 353 406
#
# _framework density 22.076288999999999
#
# number of rings (size 3 to 8) (size 9 to 14) (size 15 to 20)
#    0.000    0.500    7.500    1.875    0.000    2.000 
#    0.000    5.000    0.000    0.000    0.000    0.000 
#    0.000    0.000    0.000    0.000    0.000    0.000 
#
# Total GULP energy -198226.913197 kJ/mol
# GULP energy per Si atom -12389.182075 kJ/mol
# Density = 2.202604 g / cm^3
# Si number density = 22.076289 Si / 1000 Ang^3
#
#
#
# Elastic Constant Matrix: (Units=GPa)
#
#
# Indices 1 2 3 4 5 6 
#
# 1 65.9193 48.3056 28.2457 -11.4196 6.6363 -16.6858
# 2 48.3056 125.6743 33.5506 -7.9486 6.7750 1.6255
# 3 28.2457 33.5506 85.3418 -22.5980 14.0494 -13.2642
# 4 -11.4196 -7.9486 -22.5980 45.8085 -1.8182 11.7049
# 5 6.6363 6.7750 14.0494 -1.8182 35.6814 5.9078
# 6 -16.6858 1.6255 -13.2642 11.7049 5.9078 35.1034
#
#
#
# Elastic Compliance Matrix: (Units=1/GPa)
#
#
# Indices 1 2 3 4 5 6 
#
# 1 0.027088 -0.009707 -0.002272 0.000431 -0.004442 0.013070
# 2 -0.009707 0.012484 -0.002999 0.000027 0.001714 -0.006623
# 3 -0.002272 -0.002999 0.016910 0.005856 -0.006117 0.004525
# 4 0.000431 0.000027 0.005856 0.026470 0.000020 -0.006413
# 5 -0.004442 0.001714 -0.006117 0.000020 0.032591 -0.009994
# 6 0.013070 -0.006623 0.004525 -0.006413 -0.009994 0.040537
#
#
# Mechanical properties :
#
#
# Convention : Reuss Voigt Hill
#
# Bulk Modulus (GPa) = 37.70216 55.23770 46.46993
# Shear Modulus (GPa) = 25.65707 34.44091 30.04899
#
# Velocity S-wave (km/s) = 3.41280 3.95408 3.69337
# Velocity P-wave (km/s) = 5.71357 6.77657 6.26765
#
# Compressibility (1/GPa) = 0.02652368
#
# Stress axis : x y z
#
# Youngs Moduli (GPa) = 36.91733 80.10221 59.13796
#
# Poissons Ratio (x) = 0.77759 0.13435
# Poissons Ratio (y) = 0.35837 0.17738
# Poissons Ratio (z) = 0.08387 0.24026
#
# Static dielectric constant tensor:
#      x y z
#    x 3.564210 -0.206150 0.085680 
#    y -0.206150 4.484240 -0.188140 
#    z 0.085680 -0.188140 4.824550 
# 
# 
# High freq. dielectric constant tensor:
#      x y z
#    x 1.839740 0.009510 0.007670 
#    y 0.009510 1.884760 -0.002130 
#    z 0.007670 -0.002130 1.879360 
# 
# From -- ./inp_files/529467.got.cif
#   From: 2010.06.25/outbox.cif.g09.slc.cpg/sg2_265_cif.got.tgz:529467.got - 2010.06.27 13:26:56.
