data_PCOD8030215
_publ_section_title
;
Structure prediction by ZEFSAII (Michael W. Deem and Ramdas Pophale) SiO2 
 PCOD8030215
Probable space group: P -1
;
_chemical_formula_sum "Si O2"
_cell_formula_units_Z 16
_cell_length_a 9.093893
_cell_length_b 24.611430
_cell_length_c 9.078803
_cell_angle_alpha 130.745539
_cell_angle_beta 123.625909
_cell_angle_gamma 27.445649
_cell_volume 707.651151
_symmetry_space_group_name_H-M "P -1"
_symmetry_group_IT_number 2
_symmetry_cell_setting 'triclinic'
loop_
_space_group_symop_operation_xyz
x,y,z
-x,-y,-z
loop_
_atom_site_type_symbol
_atom_site_label
_atom_site_fract_x
_atom_site_fract_y
_atom_site_fract_z
Si Si1 0.361906 0.975151 0.952629
Si Si2 0.713437 0.576692 0.371892
Si Si3 0.845406 0.583381 0.917498
Si Si4 0.439947 0.221993 0.481475
Si Si5 0.262778 0.607877 0.185554
Si Si6 0.707243 0.134693 0.785603
Si Si7 0.455081 0.089653 0.720281
Si Si8 0.243587 0.539245 0.352098
O O1 0.513756 0.852423 0.750400
O O2 0.431632 0.956741 0.131206
O O3 0.985581 0.093885 0.920691
O O4 0.500000 0.000000 0.000000
O O5 0.530934 0.709733 0.453306
O O6 0.453837 0.612417 0.365492
O O7 0.000000 0.500000 0.500000
O O8 0.886048 0.478180 0.154918
O O9 0.672233 0.569759 0.738234
O O10 0.615121 0.725099 0.077415
O O11 0.000000 0.500000 0.000000
O O12 0.700544 0.130348 0.596109
O O13 0.099292 0.320006 0.533421
O O14 0.238390 0.553200 0.197144
O O15 0.910127 0.756303 0.207218
O O16 0.500000 0.500000 0.000000
O O17 0.712833 0.054156 0.718878
O O18 0.500000 0.000000 0.500000
O O19 0.500000 0.500000 0.500000
#
# Coordination Sequence:
#
# PCOD8030215 Si02
#       8
#     2   2   2   2   2   2   2   2
#     4  12  31  47  76 107 140 193 255 298 359 441
#     4  11  25  41  68 109 144 184 234 300 361 432
#     4  11  21  43  70 101 140 188 235 285 378 427
#     4  11  25  48  70 102 148 193 239 294 366 432
#     4  12  26  43  75 108 148 184 242 303 364 425
#     4  12  25  50  75 101 149 195 243 300 364 437
#     4  12  29  51  76 108 150 195 246 302 373 436
#     4  11  24  42  70 105 146 186 235 299 364 436
#
# _framework density 22.610011
#
# number of rings (size 3 to 8) (size 9 to 14) (size 15 to 20)
#    0.000    0.500    3.750    4.500   10.500    1.000 
#    0.000    0.000    0.000    0.000    0.000    0.000 
#    0.000    0.000    0.000    0.000    0.000    0.000 
#
# Total GULP energy -198300.677697 kJ/mol
# GULP energy per Si atom -12393.792356 kJ/mol
# Density = 2.255855 g / cm^3
# Si number density = 22.610011 Si / 1000 Ang^3
#
#
#
# Elastic Constant Matrix: (Units=GPa)
#
#
# Indices 1 2 3 4 5 6 
#
# 1 134.5397 38.5989 14.4612 -5.4730 14.9803 2.6870
# 2 38.5989 97.8133 38.9431 -14.6409 4.2320 -3.0735
# 3 14.4612 38.9431 126.1538 -0.1860 -4.9628 3.1728
# 4 -5.4730 -14.6409 -0.1860 52.0026 -1.1528 1.0873
# 5 14.9803 4.2320 -4.9628 -1.1528 33.1728 -10.3723
# 6 2.6870 -3.0735 3.1728 1.0873 -10.3723 39.9237
#
#
#
# Elastic Compliance Matrix: (Units=1/GPa)
#
#
# Indices 1 2 3 4 5 6 
#
# 1 0.008916 -0.003366 -0.000100 -0.000063 -0.004223 -0.001947
# 2 -0.003366 0.013664 -0.003872 0.003444 -0.000235 0.001431
# 3 -0.000100 -0.003872 0.009213 -0.001018 0.001710 -0.000552
# 4 -0.000063 0.003444 -0.001018 0.020195 0.000083 -0.000178
# 5 -0.004223 -0.000235 0.001710 0.000083 0.035244 0.009284
# 6 -0.001947 0.001431 -0.000552 -0.000178 0.009284 0.027750
#
#
# Mechanical properties :
#
#
# Convention : Reuss Voigt Hill
#
# Bulk Modulus (GPa) = 58.42561 60.27925 59.35243
# Shear Modulus (GPa) = 36.93728 42.78673 39.86201
#
# Velocity S-wave (km/s) = 4.04625 4.35487 4.20339
# Velocity P-wave (km/s) = 6.90842 7.21144 7.06155
#
# Compressibility (1/GPa) = 0.01711578
#
# Stress axis : x y z
#
# Youngs Moduli (GPa) = 112.16058 73.18314 108.53835
#
# Poissons Ratio (x) = 0.24636 0.01087
# Poissons Ratio (y) = 0.37757 0.42031
# Poissons Ratio (z) = 0.01123 0.28340
#
# Static dielectric constant tensor:
#      x y z
#    x 4.561880 0.054620 -0.123710 
#    y 0.054620 4.142720 -0.245600 
#    z -0.123710 -0.245600 4.160290 
# 
# 
# High freq. dielectric constant tensor:
#      x y z
#    x 1.918760 -0.004430 0.011090 
#    y -0.004430 1.885970 -0.007710 
#    z 0.011090 -0.007710 1.911520 
# 
# From -- ./inp_files/226535.got.cif
#   From: 2010.06.25/outbox.cif.g09.slc.cpg/sg2_114_cif.got.tgz:226535.got - 2010.06.27 13:26:56.
