data_PCOD8030670
_publ_section_title
;
Structure prediction by ZEFSAII (Michael W. Deem and Ramdas Pophale) SiO2 
 PCOD8030670
Probable space group: P -1
;
_chemical_formula_sum "Si O2"
_cell_formula_units_Z 16
_cell_length_a 11.639116
_cell_length_b 15.399002
_cell_length_c 8.532597
_cell_angle_alpha 121.525276
_cell_angle_beta 37.515791
_cell_angle_gamma 104.677403
_cell_volume 754.534693
_symmetry_space_group_name_H-M "P -1"
_symmetry_group_IT_number 2
_symmetry_cell_setting 'triclinic'
loop_
_space_group_symop_operation_xyz
x,y,z
-x,-y,-z
loop_
_atom_site_type_symbol
_atom_site_label
_atom_site_fract_x
_atom_site_fract_y
_atom_site_fract_z
Si Si1 0.424335 0.920054 0.320360
Si Si2 0.593747 0.666101 0.388732
Si Si3 0.996444 0.044816 0.222740
Si Si4 0.398966 0.893697 0.675190
Si Si5 0.947547 0.617932 0.737026
Si Si6 0.647577 0.453246 0.652915
Si Si7 0.164743 0.233344 0.280573
Si Si8 0.822632 0.587337 0.361364
O O1 0.223282 0.938463 0.452810
O O2 0.390895 0.870014 0.476987
O O3 0.451960 0.036239 0.408998
O O4 0.617588 0.835586 0.957270
O O5 0.481972 0.790340 0.595058
O O6 0.457702 0.597926 0.410031
O O7 0.634821 0.643510 0.506405
O O8 0.812394 0.625597 0.041409
O O9 0.027951 0.160159 0.319776
O O10 0.000000 0.000000 0.000000
O O11 0.175789 0.958063 0.038520
O O12 0.156408 0.636700 0.576114
O O13 0.000000 0.500000 0.500000
O O14 0.820673 0.708465 0.843142
O O15 0.727922 0.542059 0.566758
O O16 0.500000 0.500000 0.000000
O O17 0.081673 0.323438 0.589416
O O18 0.000000 0.500000 0.000000
#
# Coordination Sequence:
#
# PCOD8030670 Si02
#       8
#     2   2   2   2   2   2   2   2
#     4   9  18  37  60  97 130 163 218 292 325 395
#     4  12  24  42  67  95 136 184 222 277 347 411
#     4   9  20  36  62 100 134 164 224 292 337 395
#     4   9  19  35  62  95 129 165 224 274 347 388
#     4  12  22  41  64  98 133 171 235 292 324 394
#     4  12  26  43  70  98 129 179 240 287 326 398
#     4  11  22  39  67  96 132 182 224 276 344 395
#     4  12  26  49  64  97 150 187 220 277 348 410
#
# _framework density 21.205120999999998
#
# number of rings (size 3 to 8) (size 9 to 14) (size 15 to 20)
#    0.000    1.250    5.000    1.125    3.500    0.000 
#    2.250    2.500    0.000    1.500    0.000    0.000 
#    0.000    0.000    0.000    0.000    0.000    0.000 
#
# Total GULP energy -198284.136868 kJ/mol
# GULP energy per Si atom -12392.758554 kJ/mol
# Density = 2.115686 g / cm^3
# Si number density = 21.205121 Si / 1000 Ang^3
#
#
#
# Elastic Constant Matrix: (Units=GPa)
#
#
# Indices 1 2 3 4 5 6 
#
# 1 115.6826 53.4474 41.6866 5.4615 -11.6833 18.6740
# 2 53.4474 88.3802 47.2735 15.1628 -5.7744 7.9722
# 3 41.6866 47.2735 98.8844 3.1804 -14.9706 14.3365
# 4 5.4615 15.1628 3.1804 32.8270 8.7127 -3.5653
# 5 -11.6833 -5.7744 -14.9706 8.7127 43.1219 0.0572
# 6 18.6740 7.9722 14.3365 -3.5653 0.0572 43.4623
#
#
#
# Elastic Compliance Matrix: (Units=1/GPa)
#
#
# Indices 1 2 3 4 5 6 
#
# 1 0.013088 -0.006656 -0.001442 0.000039 0.002152 -0.003927
# 2 -0.006656 0.020131 -0.006674 -0.007486 0.000087 0.000754
# 3 -0.001442 -0.006674 0.014907 0.000544 0.003785 -0.003034
# 4 0.000039 -0.007486 0.000544 0.036487 -0.008181 0.004181
# 5 0.002152 0.000087 0.003785 -0.008181 0.026755 -0.002895
# 6 -0.003927 0.000754 -0.003034 0.004181 -0.002895 0.025905
#
#
# Mechanical properties :
#
#
# Convention : Reuss Voigt Hill
#
# Bulk Modulus (GPa) = 53.81121 65.30691 59.55906
# Shear Modulus (GPa) = 28.90002 34.58490 31.74246
#
# Velocity S-wave (km/s) = 3.69572 4.04291 3.87321
# Velocity P-wave (km/s) = 6.60627 7.25659 6.93905
#
# Compressibility (1/GPa) = 0.01858349
#
# Stress axis : x y z
#
# Youngs Moduli (GPa) = 76.40397 49.67357 67.08465
#
# Poissons Ratio (x) = 0.33061 0.09673
# Poissons Ratio (y) = 0.50852 0.44771
# Poissons Ratio (z) = 0.11017 0.33151
#
# Static dielectric constant tensor:
#      x y z
#    x 4.215520 0.142040 -0.434510 
#    y 0.142040 3.641260 0.157370 
#    z -0.434510 0.157370 3.877710 
# 
# 
# High freq. dielectric constant tensor:
#      x y z
#    x 1.836140 0.012810 -0.024740 
#    y 0.012810 1.817800 0.015820 
#    z -0.024740 0.015820 1.825630 
# 
# From -- ./inp_files/274212.got.cif
#   From: 2010.06.25/outbox.cif.g09.slc.cpg/sg2_138_cif.got.tgz:274212.got - 2010.06.27 13:26:56.
