data_PCOD8030731
_publ_section_title
;
Structure prediction by ZEFSAII (Michael W. Deem and Ramdas Pophale) SiO2 
 PCOD8030731
Probable space group: P -1
;
_chemical_formula_sum "Si O2"
_cell_formula_units_Z 14
_cell_length_a 20.354477
_cell_length_b 15.523471
_cell_length_c 11.794074
_cell_angle_alpha 149.945423
_cell_angle_beta 38.243222
_cell_angle_gamma 160.249321
_cell_volume 621.215000
_symmetry_space_group_name_H-M "P -1"
_symmetry_group_IT_number 2
_symmetry_cell_setting 'triclinic'
loop_
_space_group_symop_operation_xyz
x,y,z
-x,-y,-z
loop_
_atom_site_type_symbol
_atom_site_label
_atom_site_fract_x
_atom_site_fract_y
_atom_site_fract_z
Si Si1 0.704717 0.380159 0.660908
Si Si2 0.935565 0.344525 0.590581
Si Si3 0.205498 0.320256 0.344345
Si Si4 0.848253 0.596422 0.946741
Si Si5 0.123537 0.577809 0.824565
Si Si6 0.488900 0.737795 0.845230
Si Si7 0.458317 0.331336 0.543965
O O1 0.691296 0.488966 0.696567
O O2 0.732611 0.512666 0.896239
O O3 0.906656 0.545778 0.570746
O O4 0.500000 0.000000 0.500000
O O5 0.865581 0.415376 0.697232
O O6 0.050068 0.571352 0.803938
O O7 0.750146 0.971267 0.453440
O O8 0.093395 0.329765 0.566552
O O9 0.365812 0.461832 0.372190
O O10 0.056005 0.967559 0.110283
O O11 0.720126 0.456272 0.073393
O O12 0.000000 0.500000 0.000000
O O13 0.353332 0.921918 0.922708
O O14 0.488299 0.556644 0.704195
O O15 0.531770 0.788582 0.710951
#
# Coordination Sequence:
#
# PCOD8030731 Si02
#       7
#     2   2   2   2   2   2   2
#     4  11  24  47  71  97 131 174 224 278 331 396
#     4  11  23  43  69  99 133 172 223 274 334 397
#     4  11  26  42  65  98 134 175 224 273 330 392
#     4  12  25  43  69 101 134 178 221 273 333 392
#     4  11  22  40  64  94 132 175 218 268 328 386
#     4  11  24  41  67  97 137 174 224 275 328 395
#     4  11  24  43  66 100 134 176 223 275 332 391
#
# _framework density 22.536480000000001
#
# number of rings (size 3 to 8) (size 9 to 14) (size 15 to 20)
#    0.000    0.857    1.429    6.857    4.000    1.714 
#    0.000    2.143    0.000    0.000    0.000    0.000 
#    0.000    0.000    0.000    0.000    0.000    0.000 
#
# Total GULP energy -173568.242464 kJ/mol
# GULP energy per Si atom -12397.731605 kJ/mol
# Density = 2.248519 g / cm^3
# Si number density = 22.536480 Si / 1000 Ang^3
#
#
#
# Elastic Constant Matrix: (Units=GPa)
#
#
# Indices 1 2 3 4 5 6 
#
# 1 110.3969 33.1542 24.7091 18.6077 18.8278 5.9877
# 2 33.1542 127.6529 22.4330 9.2176 3.3224 4.9682
# 3 24.7091 22.4330 68.2547 14.1732 11.9821 0.5954
# 4 18.6077 9.2176 14.1732 37.1612 2.6229 4.2820
# 5 18.8278 3.3224 11.9821 2.6229 38.9050 4.8275
# 6 5.9877 4.9682 0.5954 4.2820 4.8275 30.7165
#
#
#
# Elastic Compliance Matrix: (Units=1/GPa)
#
#
# Indices 1 2 3 4 5 6 
#
# 1 0.011655 -0.002267 -0.001800 -0.004201 -0.004538 -0.000572
# 2 -0.002267 0.008842 -0.002251 -0.000155 0.001183 -0.001109
# 3 -0.001800 -0.002251 0.017875 -0.005259 -0.004308 0.001779
# 4 -0.004201 -0.000155 -0.005259 0.031346 0.002017 -0.003741
# 5 -0.004538 0.001183 -0.004308 0.002017 0.029504 -0.004141
# 6 -0.000572 -0.001109 0.001779 -0.003741 -0.004141 0.033984
#
#
# Mechanical properties :
#
#
# Convention : Reuss Voigt Hill
#
# Bulk Modulus (GPa) = 38.85705 51.87747 45.36726
# Shear Modulus (GPa) = 32.37896 36.42375 34.40136
#
# Velocity S-wave (km/s) = 3.79454 4.02458 3.91125
# Velocity P-wave (km/s) = 6.03965 6.68323 6.36957
#
# Compressibility (1/GPa) = 0.02573535
#
# Stress axis : x y z
#
# Youngs Moduli (GPa) = 85.79992 113.10048 55.94313
#
# Poissons Ratio (x) = 0.25640 0.10071
# Poissons Ratio (y) = 0.19451 0.12594
# Poissons Ratio (z) = 0.15446 0.25460
#
# Static dielectric constant tensor:
#      x y z
#    x 4.239360 -0.137600 0.235780 
#    y -0.137600 4.262520 -0.068990 
#    z 0.235780 -0.068990 4.158520 
# 
# 
# High freq. dielectric constant tensor:
#      x y z
#    x 1.898660 -0.001950 0.015180 
#    y -0.001950 1.900080 0.001700 
#    z 0.015180 0.001700 1.886210 
# 
# From -- ./inp_files/293931.got.cif
#   From: 2010.06.25/outbox.cif.g09.slc.cpg/sg2_147_cif.got.tgz:293931.got - 2010.06.27 13:26:56.
