data_PCOD8030619
_publ_section_title
;
Structure prediction by ZEFSAII (Michael W. Deem and Ramdas Pophale) SiO2 
 PCOD8030619
Probable space group: P -1
;
_chemical_formula_sum "Si O2"
_cell_formula_units_Z 16
_cell_length_a 20.773397
_cell_length_b 20.935987
_cell_length_c 7.657906
_cell_angle_alpha 48.409312
_cell_angle_beta 40.229062
_cell_angle_gamma 20.155549
_cell_volume 719.915451
_symmetry_space_group_name_H-M "P -1"
_symmetry_group_IT_number 2
_symmetry_cell_setting 'triclinic'
loop_
_space_group_symop_operation_xyz
x,y,z
-x,-y,-z
loop_
_atom_site_type_symbol
_atom_site_label
_atom_site_fract_x
_atom_site_fract_y
_atom_site_fract_z
Si Si1 0.234619 0.906818 0.545588
Si Si2 0.929201 0.668519 0.491788
Si Si3 0.917141 0.626247 0.201370
Si Si4 0.930626 0.156545 0.046369
Si Si5 0.519850 0.090226 0.568739
Si Si6 0.734533 0.065929 0.939850
Si Si7 0.661483 0.616851 0.377560
Si Si8 0.678641 0.514825 0.885935
O O1 0.497846 0.705012 0.408869
O O2 0.162035 0.866782 0.727827
O O3 0.186649 0.002384 0.300963
O O4 0.099033 0.047816 0.735398
O O5 0.989942 0.541343 0.718634
O O6 0.870433 0.679645 0.402483
O O7 0.135872 0.574463 0.230463
O O8 0.711565 0.883050 0.628303
O O9 0.683715 0.813494 0.244974
O O10 0.092386 0.560272 0.887306
O O11 0.723187 0.380327 0.060262
O O12 0.056688 0.073244 0.118438
O O13 0.614124 0.071016 0.241125
O O14 0.441412 0.214465 0.655005
O O15 0.563591 0.276846 0.915521
O O16 0.682612 0.533144 0.640147
#
# Coordination Sequence:
#
# PCOD8030619 Si02
#       8
#     2   2   2   2   2   2   2   2
#     4  11  24  44  70  96 130 172 214 270 321 389
#     4  11  22  39  63  89 127 174 210 264 318 375
#     4  11  24  40  60  94 129 169 217 260 314 386
#     4  11  24  47  67  97 131 167 218 268 329 378
#     4  11  22  42  63  91 131 171 209 265 320 375
#     4  11  22  44  68  94 133 168 215 268 323 378
#     4  11  23  43  63  95 133 169 216 264 319 380
#     4  11  22  43  67  91 135 172 207 276 319 379
#
# _framework density 22.224830999999998
#
# number of rings (size 3 to 8) (size 9 to 14) (size 15 to 20)
#    0.000    1.000    6.250    1.875    1.750    2.500 
#    4.500    0.000    0.000    0.000    0.000    0.000 
#    0.000    0.000    0.000    0.000    0.000    0.000 
#
# Total GULP energy -198482.442186 kJ/mol
# GULP energy per Si atom -12405.152637 kJ/mol
# Density = 2.217425 g / cm^3
# Si number density = 22.224831 Si / 1000 Ang^3
#
#
#
# Elastic Constant Matrix: (Units=GPa)
#
#
# Indices 1 2 3 4 5 6 
#
# 1 77.6915 12.6767 22.0514 3.2409 -6.7134 -30.7665
# 2 12.6767 104.6401 -8.7672 5.5016 1.5252 -7.3741
# 3 22.0514 -8.7672 66.4570 10.4036 -1.0073 -10.7397
# 4 3.2409 5.5016 10.4036 18.3926 -4.1544 -5.0235
# 5 -6.7134 1.5252 -1.0073 -4.1544 25.9299 0.8203
# 6 -30.7665 -7.3741 -10.7397 -5.0235 0.8203 24.3038
#
#
#
# Elastic Compliance Matrix: (Units=1/GPa)
#
#
# Indices 1 2 3 4 5 6 
#
# 1 0.029241 -0.002162 -0.005707 0.010277 0.007993 0.035692
# 2 -0.002162 0.010385 0.002905 -0.004555 -0.001813 0.000818
# 3 -0.005707 0.002905 0.019021 -0.011284 -0.002712 -0.000179
# 4 0.010277 -0.004555 -0.011284 0.068788 0.012865 0.020425
# 5 0.007993 -0.001813 -0.002712 0.012865 0.042394 0.009599
# 6 0.035692 0.000818 -0.000179 0.020425 0.009599 0.090396
#
#
# Mechanical properties :
#
#
# Convention : Reuss Voigt Hill
#
# Bulk Modulus (GPa) = 20.52610 33.41227 26.96918
# Shear Modulus (GPa) = 17.45851 28.58044 23.01948
#
# Velocity S-wave (km/s) = 2.80579 3.58993 3.22181
# Velocity P-wave (km/s) = 4.44436 5.67890 5.09913
#
# Compressibility (1/GPa) = 0.04871847
#
# Stress axis : x y z
#
# Youngs Moduli (GPa) = 34.19893 96.28858 52.57421
#
# Poissons Ratio (x) = 0.20819 0.30006
# Poissons Ratio (y) = 0.07394 -0.15274
# Poissons Ratio (z) = 0.19518 -0.27974
#
# Static dielectric constant tensor:
#      x y z
#    x 3.943180 -0.063250 -0.011180 
#    y -0.063250 4.070890 0.069720 
#    z -0.011180 0.069720 3.920610 
# 
# 
# High freq. dielectric constant tensor:
#      x y z
#    x 1.878480 -0.011860 -0.003760 
#    y -0.011860 1.873030 0.005410 
#    z -0.003760 0.005410 1.866760 
# 
# From -- ./inp_files/349470.got.cif
#   From: 2010.06.25/outbox.cif.g09.slc.cpg/sg2_175_cif.got.tgz:349470.got - 2010.06.27 13:26:56.
