data_PCOD8030577
_publ_section_title
;
Structure prediction by ZEFSAII (Michael W. Deem and Ramdas Pophale) SiO2 
 PCOD8030577
Probable space group: P -1
;
_chemical_formula_sum "Si O2"
_cell_formula_units_Z 16
_cell_length_a 12.429168
_cell_length_b 14.975284
_cell_length_c 9.252955
_cell_angle_alpha 50.572502
_cell_angle_beta 37.524859
_cell_angle_gamma 72.854042
_cell_volume 726.066150
_symmetry_space_group_name_H-M "P -1"
_symmetry_group_IT_number 2
_symmetry_cell_setting 'triclinic'
loop_
_space_group_symop_operation_xyz
x,y,z
-x,-y,-z
loop_
_atom_site_type_symbol
_atom_site_label
_atom_site_fract_x
_atom_site_fract_y
_atom_site_fract_z
Si Si1 0.438059 0.500515 0.229724
Si Si2 0.877675 0.117270 0.134161
Si Si3 0.882996 0.026924 0.911238
Si Si4 0.857928 0.495812 0.033588
Si Si5 0.498719 0.063409 0.782620
Si Si6 0.988571 0.586914 0.295576
Si Si7 0.218006 0.285557 0.184061
Si Si8 0.454310 0.313008 0.632113
O O1 0.223233 0.494253 0.468979
O O2 0.415156 0.370100 0.466878
O O3 0.500000 0.500000 0.000000
O O4 0.590916 0.632920 0.005266
O O5 0.682389 0.066755 0.492557
O O6 0.810400 0.038158 0.137554
O O7 0.052792 0.090107 0.047940
O O8 0.969748 0.270128 0.845888
O O9 0.087066 0.151408 0.535577
O O10 0.711022 0.013135 0.997544
O O11 0.634864 0.432615 0.397785
O O12 0.915975 0.638887 0.766211
O O13 0.000000 0.500000 0.000000
O O14 0.852891 0.402910 0.003626
O O15 0.526237 0.206169 0.630055
O O16 0.500000 0.000000 0.000000
O O17 0.000000 0.500000 0.500000
O O18 0.272411 0.259021 0.991680
#
# Coordination Sequence:
#
# PCOD8030577 Si02
#       8
#     2   2   2   2   2   2   2   2
#     4  11  23  41  68 101 137 183 230 284 354 417
#     4  11  25  50  71 102 142 186 239 295 354 418
#     4  11  26  48  73  99 142 191 238 290 353 424
#     4  11  22  38  65  96 134 175 217 283 343 403
#     4  12  27  45  73 105 141 189 242 291 350 420
#     4  12  23  42  68 103 135 173 226 288 350 412
#     4  11  24  44  66 100 139 181 232 276 352 420
#     4  11  23  44  64  98 139 178 230 286 347 415
#
# _framework density 22.036560000000001
#
# number of rings (size 3 to 8) (size 9 to 14) (size 15 to 20)
#    0.000    0.750    1.250    7.875    1.750    4.000 
#    6.750    0.000    0.000    0.000    0.000    0.000 
#    0.000    0.000    0.000    0.000    0.000    0.000 
#
# Total GULP energy -198381.832970 kJ/mol
# GULP energy per Si atom -12398.864561 kJ/mol
# Density = 2.198640 g / cm^3
# Si number density = 22.036560 Si / 1000 Ang^3
#
#
#
# Elastic Constant Matrix: (Units=GPa)
#
#
# Indices 1 2 3 4 5 6 
#
# 1 169.1090 48.5186 59.0224 -0.3411 3.8721 -19.5659
# 2 48.5186 127.5755 48.9099 2.4150 11.7470 -14.8927
# 3 59.0224 48.9099 126.5165 4.8258 12.9228 -4.4224
# 4 -0.3411 2.4150 4.8258 42.5537 0.9255 6.8237
# 5 3.8721 11.7470 12.9228 0.9255 37.1753 4.1162
# 6 -19.5659 -14.8927 -4.4224 6.8237 4.1162 35.8775
#
#
#
# Elastic Compliance Matrix: (Units=1/GPa)
#
#
# Indices 1 2 3 4 5 6 
#
# 1 0.007730 -0.001459 -0.002962 -0.000042 0.000330 0.003215
# 2 -0.001459 0.010125 -0.002834 -0.000771 -0.002429 0.003483
# 3 -0.002962 -0.002834 0.010617 -0.000847 -0.002349 -0.001053
# 4 -0.000042 -0.000771 -0.000847 0.024455 0.000504 -0.005156
# 5 0.000330 -0.002429 -0.002349 0.000504 0.028938 -0.004533
# 6 0.003215 0.003483 -0.001053 -0.005156 -0.004533 0.032443
#
#
# Mechanical properties :
#
#
# Convention : Reuss Voigt Hill
#
# Bulk Modulus (GPa) = 71.62452 81.78918 76.70685
# Shear Modulus (GPa) = 37.46095 40.90463 39.18279
#
# Velocity S-wave (km/s) = 4.12751 4.31306 4.22130
# Velocity P-wave (km/s) = 7.43561 7.87395 7.65792
#
# Compressibility (1/GPa) = 0.01396170
#
# Stress axis : x y z
#
# Youngs Moduli (GPa) = 129.36652 98.76866 94.18680
#
# Poissons Ratio (x) = 0.14405 0.27899
# Poissons Ratio (y) = 0.18868 0.26697
# Poissons Ratio (z) = 0.38320 0.27996
#
# Static dielectric constant tensor:
#      x y z
#    x 3.962350 -0.284760 -0.161760 
#    y -0.284760 3.857640 -0.172920 
#    z -0.161760 -0.172920 3.477740 
# 
# 
# High freq. dielectric constant tensor:
#      x y z
#    x 1.874300 -0.008390 0.004990 
#    y -0.008390 1.876570 0.008840 
#    z 0.004990 0.008840 1.876550 
# 
# From -- ./inp_files/271731.got.cif
#   From: 2010.06.25/outbox.cif.g09.slc.cpg/sg2_136_cif.got.tgz:271731.got - 2010.06.27 13:26:56.
