data_PCOD8030523
_publ_section_title
;
Structure prediction by ZEFSAII (Michael W. Deem and Ramdas Pophale) SiO2 
 PCOD8030523
Probable space group: P -1
;
_chemical_formula_sum "Si O2"
_cell_formula_units_Z 16
_cell_length_a 16.179274
_cell_length_b 14.390280
_cell_length_c 15.872787
_cell_angle_alpha 28.776591
_cell_angle_beta 29.304905
_cell_angle_gamma 28.400637
_cell_volume 759.365137
_symmetry_space_group_name_H-M "P -1"
_symmetry_group_IT_number 2
_symmetry_cell_setting 'triclinic'
loop_
_space_group_symop_operation_xyz
x,y,z
-x,-y,-z
loop_
_atom_site_type_symbol
_atom_site_label
_atom_site_fract_x
_atom_site_fract_y
_atom_site_fract_z
Si Si1 0.590562 0.041905 0.199244
Si Si2 0.330332 0.517743 0.012399
Si Si3 0.200120 0.449342 0.008723
Si Si4 0.636658 0.043621 0.404949
Si Si5 0.805257 0.819093 0.022942
Si Si6 0.163451 0.058687 0.282674
Si Si7 0.939758 0.819094 0.194227
Si Si8 0.436283 0.343364 0.722976
O O1 0.423927 0.980033 0.426802
O O2 0.644420 0.983323 0.100556
O O3 0.778664 0.890938 0.207523
O O4 0.507071 0.309541 0.069903
O O5 0.377260 0.716393 0.791393
O O6 0.301658 0.407368 0.041645
O O7 0.134462 0.590813 0.183223
O O8 0.115600 0.287420 0.187925
O O9 0.013556 0.693014 0.982606
O O10 0.358784 0.431573 0.814827
O O11 0.500000 0.000000 0.500000
O O12 0.848071 0.837830 0.354591
O O13 0.737164 0.650501 0.181957
O O14 0.829054 0.947416 0.820427
O O15 0.379652 0.897918 0.249324
O O16 0.000000 0.000000 0.500000
O O17 0.000000 0.000000 0.000000
O O18 0.500000 0.500000 0.500000
#
# Coordination Sequence:
#
# PCOD8030523 Si02
#       8
#     2   2   2   2   2   2   2   2
#     4  11  22  41  64  95 126 165 210 261 317 379
#     4  11  22  41  66  93 128 166 210 266 317 374
#     4  11  22  40  61  90 126 165 210 262 316 367
#     4   9  22  41  65  92 125 163 209 260 323 389
#     4  11  22  40  61  89 128 164 209 264 314 369
#     4  11  22  41  60  92 126 168 216 252 315 387
#     4   9  20  41  63  90 125 161 204 263 318 382
#     4  11  22  37  62  88 123 172 204 255 315 372
#
# _framework density 21.070231
#
# number of rings (size 3 to 8) (size 9 to 14) (size 15 to 20)
#    0.000    1.500    1.250    6.000    1.750    5.000 
#    4.500    3.750    0.000    0.000    0.000    0.000 
#    0.000    0.000    0.000    0.000    0.000    0.000 
#
# Total GULP energy -198209.640617 kJ/mol
# GULP energy per Si atom -12388.102539 kJ/mol
# Density = 2.102227 g / cm^3
# Si number density = 21.070231 Si / 1000 Ang^3
#
#
#
# Elastic Constant Matrix: (Units=GPa)
#
#
# Indices 1 2 3 4 5 6 
#
# 1 44.6570 9.8524 20.0133 9.8882 3.9437 12.5851
# 2 9.8524 111.3421 33.2833 12.1140 9.2448 8.4472
# 3 20.0133 33.2833 153.9267 17.7819 7.3633 20.5626
# 4 9.8882 12.1140 17.7819 37.6961 2.5615 8.2313
# 5 3.9437 9.2448 7.3633 2.5615 25.1730 8.3905
# 6 12.5851 8.4472 20.5626 8.2313 8.3905 37.1543
#
#
#
# Elastic Compliance Matrix: (Units=1/GPa)
#
#
# Indices 1 2 3 4 5 6 
#
# 1 0.026253 -0.000750 -0.001842 -0.004290 -0.000661 -0.006603
# 2 -0.000750 0.010013 -0.001698 -0.002028 -0.002861 0.000013
# 3 -0.001842 -0.001698 0.007713 -0.001990 -0.000219 -0.002769
# 4 -0.004290 -0.002028 -0.001990 0.030035 0.000168 -0.003676
# 5 -0.000661 -0.002861 -0.000219 0.000168 0.043912 -0.008958
# 6 -0.006603 0.000013 -0.002769 -0.003676 -0.008958 0.033518
#
#
# Mechanical properties :
#
#
# Convention : Reuss Voigt Hill
#
# Bulk Modulus (GPa) = 28.24915 48.46931 38.35923
# Shear Modulus (GPa) = 29.09955 36.45648 32.77802
#
# Velocity S-wave (km/s) = 3.72031 4.16412 3.94846
# Velocity P-wave (km/s) = 5.64717 6.79511 6.24756
#
# Compressibility (1/GPa) = 0.03539930
#
# Stress axis : x y z
#
# Youngs Moduli (GPa) = 38.09096 99.87502 129.64295
#
# Poissons Ratio (x) = 0.07489 0.23880
# Poissons Ratio (y) = 0.02856 0.22014
# Poissons Ratio (z) = 0.07016 0.16959
#
# Static dielectric constant tensor:
#      x y z
#    x 3.470550 0.460970 0.296590 
#    y 0.460970 2.675300 0.008540 
#    z 0.296590 0.008540 4.065180 
# 
# 
# High freq. dielectric constant tensor:
#      x y z
#    x 1.814220 0.004400 0.004970 
#    y 0.004400 1.837980 0.023280 
#    z 0.004970 0.023280 1.827370 
# 
# From -- ./inp_files/534056.got.cif
#   From: 2010.06.25/outbox.cif.g09.slc.cpg/sg2_268_cif.got.tgz:534056.got - 2010.06.27 13:26:56.
