data_PCOD8030535
_publ_section_title
;
Structure prediction by ZEFSAII (Michael W. Deem and Ramdas Pophale) SiO2 
 PCOD8030535
Probable space group: P -1
;
_chemical_formula_sum "Si O2"
_cell_formula_units_Z 16
_cell_length_a 11.737055
_cell_length_b 11.578161
_cell_length_c 14.930607
_cell_angle_alpha 28.818013
_cell_angle_beta 95.023880
_cell_angle_gamma 114.345112
_cell_volume 696.992488
_symmetry_space_group_name_H-M "P -1"
_symmetry_group_IT_number 2
_symmetry_cell_setting 'triclinic'
loop_
_space_group_symop_operation_xyz
x,y,z
-x,-y,-z
loop_
_atom_site_type_symbol
_atom_site_label
_atom_site_fract_x
_atom_site_fract_y
_atom_site_fract_z
Si Si1 0.007493 0.166505 0.976167
Si Si2 0.477186 0.381610 0.823722
Si Si3 0.513151 0.273249 0.100855
Si Si4 0.232810 0.761582 0.125911
Si Si5 0.820953 0.822875 0.544954
Si Si6 0.633266 0.265077 0.401849
Si Si7 0.971394 0.689905 0.427894
Si Si8 0.135466 0.168533 0.261246
O O1 0.187414 0.531077 0.757896
O O2 0.888460 0.215178 0.933530
O O3 0.951347 0.907929 0.226131
O O4 0.000000 0.000000 0.000000
O O5 0.658204 0.724224 0.575350
O O6 0.367154 0.453039 0.773370
O O7 0.469142 0.239852 0.016440
O O8 0.409271 0.124063 0.911580
O O9 0.399187 0.913020 0.384669
O O10 0.500000 0.500000 0.000000
O O11 0.698039 0.449453 0.001177
O O12 0.231982 0.537849 0.209516
O O13 0.186741 0.591149 0.335963
O O14 0.868482 0.971795 0.547470
O O15 0.970899 0.090969 0.305245
O O16 0.500000 0.000000 0.500000
O O17 0.000000 0.500000 0.500000
O O18 0.118902 0.942252 0.336737
#
# Coordination Sequence:
#
# PCOD8030535 Si02
#       8
#     2   2   2   2   2   2   2   2
#     4  12  25  40  62 101 136 170 216 266 336 404
#     4  11  23  42  62  97 130 171 222 267 321 393
#     4  11  24  37  65  95 133 169 207 268 336 391
#     4  11  24  41  67  92 133 174 221 272 320 394
#     4   9  21  43  69  89 126 182 222 262 321 387
#     4  12  25  39  62  98 137 170 212 274 330 391
#     4  11  22  37  65  95 131 170 209 268 332 388
#     4   9  21  42  63  95 125 167 227 260 318 400
#
# _framework density 22.955770999999999
#
# number of rings (size 3 to 8) (size 9 to 14) (size 15 to 20)
#    0.000    1.250    3.750    1.125    7.000    1.000 
#    0.000    6.250    0.000    7.500    0.000    0.000 
#    0.000    0.000    0.000    0.000    0.000    0.000 
#
# Total GULP energy -198265.753802 kJ/mol
# GULP energy per Si atom -12391.609613 kJ/mol
# Density = 2.290352 g / cm^3
# Si number density = 22.955771 Si / 1000 Ang^3
#
#
#
# Elastic Constant Matrix: (Units=GPa)
#
#
# Indices 1 2 3 4 5 6 
#
# 1 76.7225 29.6313 23.8078 10.8968 -5.8497 14.5698
# 2 29.6313 110.0888 20.7328 -10.2122 9.7271 2.1452
# 3 23.8078 20.7328 95.3529 18.0142 -1.8290 18.9839
# 4 10.8968 -10.2122 18.0142 32.3106 1.4788 -4.0324
# 5 -5.8497 9.7271 -1.8290 1.4788 32.9772 -10.3962
# 6 14.5698 2.1452 18.9839 -4.0324 -10.3962 31.9448
#
#
#
# Elastic Compliance Matrix: (Units=1/GPa)
#
#
# Indices 1 2 3 4 5 6 
#
# 1 0.018405 -0.005943 0.000187 -0.009363 0.002808 -0.008375
# 2 -0.005943 0.012477 -0.003712 0.008684 -0.004121 0.003834
# 3 0.000187 -0.003712 0.015477 -0.011164 -0.000897 -0.010735
# 4 -0.009363 0.008684 -0.011164 0.045085 -0.002023 0.015354
# 5 0.002808 -0.004121 -0.000897 -0.002023 0.035491 0.010824
# 6 -0.008375 0.003834 -0.010735 0.015354 0.010824 0.046706
#
#
# Mechanical properties :
#
#
# Convention : Reuss Voigt Hill
#
# Bulk Modulus (GPa) = 36.46512 47.83424 42.14968
# Shear Modulus (GPa) = 24.78693 33.31267 29.04980
#
# Velocity S-wave (km/s) = 3.28955 3.81355 3.56120
# Velocity P-wave (km/s) = 5.50887 6.34616 5.94228
#
# Compressibility (1/GPa) = 0.02742347
#
# Stress axis : x y z
#
# Youngs Moduli (GPa) = 54.33173 80.14612 64.61243
#
# Poissons Ratio (x) = 0.47628 -0.01206
# Poissons Ratio (y) = 0.32287 0.23985
# Poissons Ratio (z) = -0.01014 0.29751
#
# Static dielectric constant tensor:
#      x y z
#    x 4.321990 -0.013220 -0.203090 
#    y -0.013220 4.566190 -0.053680 
#    z -0.203090 -0.053680 4.315120 
# 
# 
# High freq. dielectric constant tensor:
#      x y z
#    x 1.898630 0.001490 -0.021770 
#    y 0.001490 1.917430 -0.019060 
#    z -0.021770 -0.019060 1.890070 
# 
# From -- ./inp_files/464537.got.cif
#   From: 2010.06.25/outbox.cif.g09.slc.cpg/sg2_233_cif.got.tgz:464537.got - 2010.06.27 13:26:56.
