data_PCOD8030631
_publ_section_title
;
Structure prediction by ZEFSAII (Michael W. Deem and Ramdas Pophale) SiO2 
 PCOD8030631
Probable space group: P -1
;
_chemical_formula_sum "Si O2"
_cell_formula_units_Z 16
_cell_length_a 14.421888
_cell_length_b 9.060936
_cell_length_c 9.538299
_cell_angle_alpha 67.955506
_cell_angle_beta 131.782182
_cell_angle_gamma 88.618991
_cell_volume 790.805654
_symmetry_space_group_name_H-M "P -1"
_symmetry_group_IT_number 2
_symmetry_cell_setting 'triclinic'
loop_
_space_group_symop_operation_xyz
x,y,z
-x,-y,-z
loop_
_atom_site_type_symbol
_atom_site_label
_atom_site_fract_x
_atom_site_fract_y
_atom_site_fract_z
Si Si1 0.878511 0.362848 0.017403
Si Si2 0.066219 0.597102 0.437666
Si Si3 0.624761 0.044366 0.560287
Si Si4 0.631454 0.378897 0.596635
Si Si5 0.111266 0.823164 0.625596
Si Si6 0.617762 0.221060 0.208577
Si Si7 0.896573 0.714757 0.942668
Si Si8 0.637841 0.544392 0.266349
O O1 0.761451 0.314896 0.849964
O O2 0.843262 0.567440 0.898969
O O3 0.881433 0.318326 0.200016
O O4 0.019452 0.255260 0.115340
O O5 0.066095 0.768802 0.452134
O O6 0.218889 0.453135 0.631360
O O7 0.000000 0.500000 0.500000
O O8 0.996611 0.654354 0.197383
O O9 0.616805 0.210814 0.579334
O O10 0.616980 0.080530 0.372545
O O11 0.500000 0.000000 0.500000
O O12 0.768184 0.887532 0.790732
O O13 0.500000 0.500000 0.500000
O O14 0.647745 0.507826 0.453037
O O15 0.251311 0.849329 0.735874
O O16 0.000000 0.000000 0.500000
O O17 0.612799 0.391765 0.218387
O O18 0.482604 0.271802 0.959190
#
# Coordination Sequence:
#
# PCOD8030631 Si02
#       8
#     2   2   2   2   2   2   2   2
#     4  11  23  41  65  94 127 171 208 265 316 371
#     4  11  22  40  64  93 124 172 206 253 315 380
#     4  11  25  41  63  93 126 169 210 263 320 380
#     4  11  22  39  64  93 124 164 212 259 319 376
#     4  11  23  39  64  94 129 164 212 261 311 373
#     4   9  20  39  61  88 121 163 206 256 308 372
#     4  11  24  42  64  93 134 167 212 259 319 381
#     4   9  19  38  62  87 120 161 211 249 306 377
#
# _framework density 20.232531000000002
#
# number of rings (size 3 to 8) (size 9 to 14) (size 15 to 20)
#    0.000    1.500    2.500    2.250    3.500    2.500 
#    0.000    0.000    0.000    3.000    0.000    0.000 
#    0.000    0.000    0.000    0.000    0.000    0.000 
#
# Total GULP energy -198392.270709 kJ/mol
# GULP energy per Si atom -12399.516919 kJ/mol
# Density = 2.018648 g / cm^3
# Si number density = 20.232531 Si / 1000 Ang^3
#
#
#
# Elastic Constant Matrix: (Units=GPa)
#
#
# Indices 1 2 3 4 5 6 
#
# 1 166.4871 39.6416 46.1478 -8.4815 11.6195 -1.9447
# 2 39.6416 78.7509 29.9652 -1.9970 14.5180 -8.0500
# 3 46.1478 29.9652 101.4100 -0.3344 13.2230 0.7209
# 4 -8.4815 -1.9970 -0.3344 31.4347 -7.0945 4.3337
# 5 11.6195 14.5180 13.2230 -7.0945 40.7209 -3.6980
# 6 -1.9447 -8.0500 0.7209 4.3337 -3.6980 33.0623
#
#
#
# Elastic Compliance Matrix: (Units=1/GPa)
#
#
# Indices 1 2 3 4 5 6 
#
# 1 0.007471 -0.002776 -0.002567 0.001866 -0.000022 -0.000428
# 2 -0.002776 0.016325 -0.003082 -0.001119 -0.003896 0.003590
# 3 -0.002567 -0.003082 0.012267 -0.001136 -0.002468 -0.001296
# 4 0.001866 -0.001119 -0.001136 0.034090 0.005815 -0.003956
# 5 -0.000022 -0.003896 -0.002468 0.005815 0.027900 0.001462
# 6 -0.000428 0.003590 -0.001296 -0.003956 0.001462 0.031805
#
#
# Mechanical properties :
#
#
# Convention : Reuss Voigt Hill
#
# Bulk Modulus (GPa) = 52.04854 64.23969 58.14411
# Shear Modulus (GPa) = 32.65567 36.43646 34.54607
#
# Velocity S-wave (km/s) = 4.02184 4.24829 4.13661
# Velocity P-wave (km/s) = 6.88099 7.47553 7.18441
#
# Compressibility (1/GPa) = 0.01921284
#
# Stress axis : x y z
#
# Youngs Moduli (GPa) = 133.85655 61.25515 81.51900
#
# Poissons Ratio (x) = 0.17005 0.20928
# Poissons Ratio (y) = 0.37159 0.25122
# Poissons Ratio (z) = 0.34365 0.18877
#
# Static dielectric constant tensor:
#      x y z
#    x 3.796170 -0.133540 -0.000220 
#    y -0.133540 3.463360 0.114930 
#    z -0.000220 0.114930 3.857070 
# 
# 
# High freq. dielectric constant tensor:
#      x y z
#    x 1.813180 -0.007460 0.002400 
#    y -0.007460 1.769590 0.006750 
#    z 0.002400 0.006750 1.794910 
# 
# From -- ./inp_files/184805.got.cif
#   From: 2010.06.25/outbox.cif.g09.slc.cpg/sg2_93_cif.got.tgz:184805.got - 2010.06.27 13:26:56.
