data_PCOD8030921
_publ_section_title
;
Structure prediction by ZEFSAII (Michael W. Deem and Ramdas Pophale) SiO2 
 PCOD8030921
Probable space group: P -1
;
_chemical_formula_sum "Si O2"
_cell_formula_units_Z 14
_cell_length_a 10.675878
_cell_length_b 12.543462
_cell_length_c 9.484340
_cell_angle_alpha 141.897436
_cell_angle_beta 62.445821
_cell_angle_gamma 125.283206
_cell_volume 639.677809
_symmetry_space_group_name_H-M "P -1"
_symmetry_group_IT_number 2
_symmetry_cell_setting 'triclinic'
loop_
_space_group_symop_operation_xyz
x,y,z
-x,-y,-z
loop_
_atom_site_type_symbol
_atom_site_label
_atom_site_fract_x
_atom_site_fract_y
_atom_site_fract_z
Si Si1 0.979039 0.631991 0.468860
Si Si2 0.675706 0.577495 0.437315
Si Si3 0.308601 0.258076 0.896535
Si Si4 0.364622 0.577243 0.991869
Si Si5 0.006278 0.258179 0.119617
Si Si6 0.858523 0.987800 0.664465
Si Si7 0.768604 0.127222 0.598457
O O1 0.794225 0.570323 0.489576
O O2 0.054889 0.737754 0.685487
O O3 0.023660 0.452911 0.239552
O O4 0.056628 0.776397 0.451632
O O5 0.500000 0.500000 0.500000
O O6 0.681709 0.440743 0.166029
O O7 0.732618 0.783936 0.554899
O O8 0.284349 0.377773 0.902864
O O9 0.318918 0.068274 0.638519
O O10 0.454286 0.367681 0.030053
O O11 0.162201 0.227549 0.036850
O O12 0.318651 0.737534 0.251471
O O13 0.904155 0.088430 0.896520
O O14 0.771303 0.092976 0.728587
O O15 0.000000 0.000000 0.500000
#
# Coordination Sequence:
#
# PCOD8030921 Si02
#       7
#     2   2   2   2   2   2   2
#     4  11  25  41  70 102 138 183 227 291 351 401
#     4  12  25  45  67 101 143 186 224 288 357 402
#     4  11  22  41  67  96 137 181 227 285 341 411
#     4  11  24  41  66  99 139 182 228 287 340 410
#     4  11  23  44  66 103 137 177 234 291 339 414
#     4  12  23  43  73 100 133 179 240 278 333 418
#     4  12  23  43  72 103 133 183 241 279 340 415
#
# _framework density 21.886019999999998
#
# number of rings (size 3 to 8) (size 9 to 14) (size 15 to 20)
#    0.000    0.571    5.714    2.143    0.000    4.571 
#    0.000    2.857    0.000    0.000    0.000    0.000 
#    0.000    0.000    0.000    0.000    0.000    0.000 
#
# Total GULP energy -173545.408697 kJ/mol
# GULP energy per Si atom -12396.100621 kJ/mol
# Density = 2.183621 g / cm^3
# Si number density = 21.886020 Si / 1000 Ang^3
#
#
#
# Elastic Constant Matrix: (Units=GPa)
#
#
# Indices 1 2 3 4 5 6 
#
# 1 75.0993 28.5282 30.6551 1.2948 5.7091 -2.6383
# 2 28.5282 106.6889 41.8481 13.8883 -1.9294 0.8554
# 3 30.6551 41.8481 132.5396 10.3922 1.1079 -5.5041
# 4 1.2948 13.8883 10.3922 23.7396 -9.4441 -0.4642
# 5 5.7091 -1.9294 1.1079 -9.4441 36.6593 -1.3941
# 6 -2.6383 0.8554 -5.5041 -0.4642 -1.3941 31.1475
#
#
#
# Elastic Compliance Matrix: (Units=1/GPa)
#
#
# Indices 1 2 3 4 5 6 
#
# 1 0.015874 -0.003445 -0.002643 0.001464 -0.002162 0.000897
# 2 -0.003445 0.012086 -0.002604 -0.005890 -0.000311 -0.001186
# 3 -0.002643 -0.002604 0.009246 -0.002599 -0.000621 0.001415
# 4 0.001464 -0.005890 -0.002599 0.051794 0.012928 0.001177
# 5 -0.002162 -0.000311 -0.000621 0.012928 0.030997 0.001296
# 6 0.000897 -0.001186 0.001415 0.001177 0.001296 0.032539
#
#
# Mechanical properties :
#
#
# Convention : Reuss Voigt Hill
#
# Bulk Modulus (GPa) = 50.44895 57.37673 53.91284
# Shear Modulus (GPa) = 28.32409 32.52904 30.42657
#
# Velocity S-wave (km/s) = 3.60135 3.85943 3.73262
# Velocity P-wave (km/s) = 6.35561 6.79215 6.57750
#
# Compressibility (1/GPa) = 0.01982202
#
# Stress axis : x y z
#
# Youngs Moduli (GPa) = 62.99664 82.73899 108.15156
#
# Poissons Ratio (x) = 0.28501 0.28588
# Poissons Ratio (y) = 0.21700 0.28165
# Poissons Ratio (z) = 0.16652 0.21547
#
# Static dielectric constant tensor:
#      x y z
#    x 3.857550 -0.093950 0.011330 
#    y -0.093950 3.864120 0.069060 
#    z 0.011330 0.069060 3.952130 
# 
# 
# High freq. dielectric constant tensor:
#      x y z
#    x 1.860800 -0.011190 0.003780 
#    y -0.011190 1.851040 0.010000 
#    z 0.003780 0.010000 1.869210 
# 
# From -- ./inp_files/263716.got.cif
#   From: 2010.06.25/outbox.cif.g09.slc.cpg/sg2_132_cif.got.tgz:263716.got - 2010.06.27 13:26:56.
