data_PCOD8030689
_publ_section_title
;
Structure prediction by ZEFSAII (Michael W. Deem and Ramdas Pophale) SiO2 
 PCOD8030689
Probable space group: P -1
;
_chemical_formula_sum "Si O2"
_cell_formula_units_Z 16
_cell_length_a 15.489223
_cell_length_b 9.013003
_cell_length_c 11.235258
_cell_angle_alpha 73.782555
_cell_angle_beta 131.520600
_cell_angle_gamma 67.851343
_cell_volume 702.933058
_symmetry_space_group_name_H-M "P -1"
_symmetry_group_IT_number 2
_symmetry_cell_setting 'triclinic'
loop_
_space_group_symop_operation_xyz
x,y,z
-x,-y,-z
loop_
_atom_site_type_symbol
_atom_site_label
_atom_site_fract_x
_atom_site_fract_y
_atom_site_fract_z
Si Si1 0.652012 0.059391 0.409389
Si Si2 0.684973 0.390698 0.368970
Si Si3 0.320981 0.906477 0.955186
Si Si4 0.792068 0.262941 0.237423
Si Si5 0.256469 0.381125 0.981696
Si Si6 0.155518 0.257128 0.120608
Si Si7 0.006020 0.228607 0.781563
Si Si8 0.122728 0.320173 0.506431
O O1 0.624891 0.273363 0.336289
O O2 0.468788 0.155316 0.178454
O O3 0.690832 0.974077 0.600720
O O4 0.816947 0.832030 0.524911
O O5 0.715648 0.416076 0.255698
O O6 0.878210 0.209152 0.660348
O O7 0.538676 0.662244 0.239650
O O8 0.315625 0.779911 0.878521
O O9 0.196817 0.003468 0.934639
O O10 0.250029 0.138087 0.775487
O O11 0.778176 0.398590 0.084309
O O12 0.000000 0.000000 0.500000
O O13 0.247137 0.290728 0.112780
O O14 0.097320 0.489912 0.719044
O O15 0.064938 0.211956 0.972400
O O16 0.000000 0.500000 0.000000
O O17 0.872498 0.501035 0.542814
#
# Coordination Sequence:
#
# PCOD8030689 Si02
#       8
#     2   2   2   2   2   2   2   2
#     4  12  23  43  73 100 128 178 234 275 325 404
#     4  12  25  41  69 108 139 175 219 274 342 404
#     4  12  23  40  67 103 144 171 221 269 344 404
#     4  12  20  39  70 103 139 180 211 270 336 411
#     4  11  22  39  69 103 126 171 232 271 325 393
#     4  11  25  49  70  91 130 185 234 278 330 394
#     4  11  26  43  64  99 139 177 221 284 336 389
#     4  11  23  42  68 100 139 178 218 274 335 404
#
# _framework density 22.761768
#
# number of rings (size 3 to 8) (size 9 to 14) (size 15 to 20)
#    0.000    0.500    7.500    1.875    0.000    4.000 
#    2.250    0.625    0.000    0.000    0.000    0.000 
#    0.000    0.000    0.000    0.000    0.000    0.000 
#
# Total GULP energy -198236.420405 kJ/mol
# GULP energy per Si atom -12389.776275 kJ/mol
# Density = 2.270996 g / cm^3
# Si number density = 22.761768 Si / 1000 Ang^3
#
#
#
# Elastic Constant Matrix: (Units=GPa)
#
#
# Indices 1 2 3 4 5 6 
#
# 1 84.0683 19.4622 32.1001 -6.2675 8.7243 2.7774
# 2 19.4622 82.5115 22.3332 -8.8966 13.4777 -15.5054
# 3 32.1001 22.3332 87.9537 -15.6135 12.7724 -12.8455
# 4 -6.2675 -8.8966 -15.6135 31.1749 7.3805 0.8272
# 5 8.7243 13.4777 12.7724 7.3805 42.0728 -4.2959
# 6 2.7774 -15.5054 -12.8455 0.8272 -4.2959 32.3813
#
#
#
# Elastic Compliance Matrix: (Units=1/GPa)
#
#
# Indices 1 2 3 4 5 6 
#
# 1 0.014820 -0.002819 -0.005263 -0.000083 -0.001053 -0.004846
# 2 -0.002819 0.015351 -0.000485 0.004404 -0.004272 0.006721
# 3 -0.005263 -0.000485 0.016327 0.007888 -0.004491 0.005899
# 4 -0.000083 0.004404 0.007888 0.039668 -0.010456 0.002844
# 5 -0.001053 -0.004272 -0.004491 -0.010456 0.028586 0.000322
# 6 -0.004846 0.006721 0.005899 0.002844 0.000322 0.036826
#
#
# Mechanical properties :
#
#
# Convention : Reuss Voigt Hill
#
# Bulk Modulus (GPa) = 34.05406 44.70274 39.37840
# Shear Modulus (GPa) = 28.01098 33.16833 30.58966
#
# Velocity S-wave (km/s) = 3.51182 3.82146 3.66991
# Velocity P-wave (km/s) = 5.60690 6.25727 5.94100
#
# Compressibility (1/GPa) = 0.02936508
#
# Stress axis : x y z
#
# Youngs Moduli (GPa) = 67.47470 65.14033 61.24638
#
# Poissons Ratio (x) = 0.18363 0.32232
# Poissons Ratio (y) = 0.19021 0.02973
# Poissons Ratio (z) = 0.35510 0.03162
#
# Static dielectric constant tensor:
#      x y z
#    x 4.294070 -0.019040 -0.111900 
#    y -0.019040 4.200650 0.143770 
#    z -0.111900 0.143770 4.721530 
# 
# 
# High freq. dielectric constant tensor:
#      x y z
#    x 1.888690 0.008000 0.016650 
#    y 0.008000 1.890320 -0.013460 
#    z 0.016650 -0.013460 1.906140 
# 
# From -- ./inp_files/447211.got.cif
#   From: 2010.06.25/outbox.cif.g09.slc.cpg/sg2_224_cif.got.tgz:447211.got - 2010.06.27 13:26:56.
