data_PCOD8030745
_publ_section_title
;
Structure prediction by ZEFSAII (Michael W. Deem and Ramdas Pophale) SiO2 
 PCOD8030745
Probable space group: P -1
;
_chemical_formula_sum "Si O2"
_cell_formula_units_Z 16
_cell_length_a 8.859605
_cell_length_b 11.782606
_cell_length_c 11.716182
_cell_angle_alpha 132.098999
_cell_angle_beta 54.495646
_cell_angle_gamma 101.230887
_cell_volume 699.371359
_symmetry_space_group_name_H-M "P -1"
_symmetry_group_IT_number 2
_symmetry_cell_setting 'triclinic'
loop_
_space_group_symop_operation_xyz
x,y,z
-x,-y,-z
loop_
_atom_site_type_symbol
_atom_site_label
_atom_site_fract_x
_atom_site_fract_y
_atom_site_fract_z
Si Si1 0.946431 0.339287 0.913327
Si Si2 0.815236 0.205953 0.081987
Si Si3 0.551717 0.661579 0.101049
Si Si4 0.143807 0.132350 0.278830
Si Si5 0.129092 0.827610 0.374094
Si Si6 0.503658 0.873302 0.716050
Si Si7 0.633462 0.832695 0.381156
Si Si8 0.178917 0.213472 0.077036
O O1 0.139198 0.180622 0.742509
O O2 0.795281 0.337818 0.079809
O O3 0.863494 0.320165 0.812954
O O4 0.000000 0.500000 0.000000
O O5 0.866925 0.031931 0.882110
O O6 0.604596 0.246846 0.264196
O O7 0.978660 0.214576 0.106387
O O8 0.355815 0.819266 0.275460
O O9 0.611659 0.679648 0.217411
O O10 0.500000 0.500000 0.000000
O O11 0.727461 0.660778 0.937426
O O12 0.339305 0.101231 0.246983
O O13 0.140712 0.253235 0.255860
O O14 0.953407 0.208306 0.492447
O O15 0.000000 0.000000 0.500000
O O16 0.602281 0.800146 0.504910
O O17 0.337726 0.039606 0.872847
O O18 0.500000 0.000000 0.500000
#
# Coordination Sequence:
#
# PCOD8030745 Si02
#       8
#     2   2   2   2   2   2   2   2
#     4  12  25  44  66  97 139 174 213 275 342 394
#     4  11  23  39  66  96 135 174 216 274 340 387
#     4  12  27  44  67  99 140 178 216 275 344 394
#     4  11  23  40  64 102 129 169 227 280 320 390
#     4  12  24  41  71  99 127 174 232 272 319 387
#     4  11  22  40  66 100 128 172 224 282 321 387
#     4  12  23  44  71  99 131 172 235 276 317 394
#     4  11  23  40  64  96 137 172 219 273 338 390
#
# _framework density 22.877686000000001
#
# number of rings (size 3 to 8) (size 9 to 14) (size 15 to 20)
#    0.000    0.500    5.000    5.250    5.250    0.000 
#    0.000    2.500    0.000    0.000    0.000    0.000 
#    0.000    0.000    0.000    0.000    0.000    0.000 
#
# Total GULP energy -198367.373838 kJ/mol
# GULP energy per Si atom -12397.960865 kJ/mol
# Density = 2.282562 g / cm^3
# Si number density = 22.877686 Si / 1000 Ang^3
#
#
#
# Elastic Constant Matrix: (Units=GPa)
#
#
# Indices 1 2 3 4 5 6 
#
# 1 118.0019 32.9045 27.6676 -23.0661 15.1155 8.9663
# 2 32.9045 136.7889 45.4411 -36.5031 21.1655 16.1115
# 3 27.6676 45.4411 68.4822 -35.7006 22.3773 -1.5986
# 4 -23.0661 -36.5031 -35.7006 35.6471 -6.3423 1.8202
# 5 15.1155 21.1655 22.3773 -6.3423 47.0054 -7.3779
# 6 8.9663 16.1115 -1.5986 1.8202 -7.3779 35.5364
#
#
#
# Elastic Compliance Matrix: (Units=1/GPa)
#
#
# Indices 1 2 3 4 5 6 
#
# 1 0.010380 0.000150 0.000067 0.006568 -0.003127 -0.003669
# 2 0.000150 0.012104 -0.000977 0.011047 -0.004657 -0.007102
# 3 0.000067 -0.000977 0.037227 0.034121 -0.013071 -0.002361
# 4 0.006568 0.011047 0.034121 0.075736 -0.015015 -0.012127
# 5 -0.003127 -0.004657 -0.013071 -0.015015 0.030036 0.009318
# 6 -0.003669 -0.007102 -0.002361 -0.012127 0.009318 0.034736
#
#
# Mechanical properties :
#
#
# Convention : Reuss Voigt Hill
#
# Bulk Modulus (GPa) = 17.18472 59.47770 38.33121
# Shear Modulus (GPa) = 22.61051 38.12177 30.36614
#
# Velocity S-wave (km/s) = 3.14717 4.08650 3.64720
# Velocity P-wave (km/s) = 4.55347 6.95130 5.87599
#
# Compressibility (1/GPa) = 0.05819122
#
# Stress axis : x y z
#
# Youngs Moduli (GPa) = 96.33664 82.61465 26.86220
#
# Poissons Ratio (x) = -0.01235 -0.00181
# Poissons Ratio (y) = -0.01441 0.02625
# Poissons Ratio (z) = -0.00648 0.08072
#
# Static dielectric constant tensor:
#      x y z
#    x 4.838130 -0.049120 0.053600 
#    y -0.049120 4.459850 -0.780110 
#    z 0.053600 -0.780110 4.424860 
# 
# 
# High freq. dielectric constant tensor:
#      x y z
#    x 1.928560 0.006360 0.009050 
#    y 0.006360 1.895790 -0.029630 
#    z 0.009050 -0.029630 1.889300 
# 
# From -- ./inp_files/391280.got.cif
#   From: 2010.06.25/outbox.cif.g09.slc.cpg/sg2_196_cif.got.tgz:391280.got - 2010.06.27 13:26:56.
