data_PCOD8030935
_publ_section_title
;
Structure prediction by ZEFSAII (Michael W. Deem and Ramdas Pophale) SiO2 
 PCOD8030935
Probable space group: P -1
;
_chemical_formula_sum "Si O2"
_cell_formula_units_Z 16
_cell_length_a 15.389213
_cell_length_b 9.170522
_cell_length_c 10.897956
_cell_angle_alpha 92.971874
_cell_angle_beta 46.832873
_cell_angle_gamma 57.452835
_cell_volume 690.693063
_symmetry_space_group_name_H-M "P -1"
_symmetry_group_IT_number 2
_symmetry_cell_setting 'triclinic'
loop_
_space_group_symop_operation_xyz
x,y,z
-x,-y,-z
loop_
_atom_site_type_symbol
_atom_site_label
_atom_site_fract_x
_atom_site_fract_y
_atom_site_fract_z
Si Si1 0.186577 0.820884 0.396763
Si Si2 0.817989 0.593317 0.024699
Si Si3 0.665150 0.453076 0.107760
Si Si4 0.015331 0.953710 0.830941
Si Si5 0.446403 0.691614 0.960717
Si Si6 0.637563 0.238429 0.394578
Si Si7 0.561591 0.101480 0.244987
Si Si8 0.862285 0.487245 0.260167
O O1 0.113184 0.914589 0.609025
O O2 0.320971 0.542364 0.253968
O O3 0.322556 0.823010 0.212281
O O4 0.000000 0.000000 0.500000
O O5 0.014507 0.493537 0.810736
O O6 0.804296 0.459739 0.949193
O O7 0.804965 0.554815 0.176408
O O8 0.637408 0.864850 0.168838
O O9 0.610682 0.417208 0.037729
O O10 0.467700 0.704309 0.373165
O O11 0.789586 0.219513 0.063548
O O12 0.138939 0.924306 0.812561
O O13 0.024067 0.771012 0.831166
O O14 0.373472 0.883205 0.943522
O O15 0.500000 0.500000 0.500000
O O16 0.640451 0.103178 0.291183
O O17 0.332103 0.324487 0.466736
#
# Coordination Sequence:
#
# PCOD8030935 Si02
#       8
#     2   2   2   2   2   2   2   2
#     4  11  22  41  68 103 120 156 211 285 324 358
#     4  11  27  37  59  91 139 177 208 244 312 398
#     4  12  23  40  59  98 126 167 212 260 311 378
#     4  12  24  40  69  95 128 166 214 272 321 365
#     4  11  23  41  71  97 122 159 222 268 317 374
#     4  12  22  36  62  95 127 163 211 260 317 374
#     4  12  23  43  63  93 135 174 205 257 321 385
#     4  11  23  41  56  92 129 177 210 248 313 379
#
# _framework density 23.165137000000001
#
# number of rings (size 3 to 8) (size 9 to 14) (size 15 to 20)
#    0.000    0.500    7.500    1.125    3.500    1.000 
#    0.000    0.000    0.000    6.000    0.000    0.000 
#    0.000    0.000    0.000    0.000    0.000    0.000 
#
# Total GULP energy -198294.571287 kJ/mol
# GULP energy per Si atom -12393.410705 kJ/mol
# Density = 2.311241 g / cm^3
# Si number density = 23.165137 Si / 1000 Ang^3
#
#
#
# Elastic Constant Matrix: (Units=GPa)
#
#
# Indices 1 2 3 4 5 6 
#
# 1 62.4025 36.2991 6.4308 -2.0888 -20.7380 8.8550
# 2 36.2991 136.8715 24.7597 5.0537 -0.4248 3.9995
# 3 6.4308 24.7597 100.8477 -0.7444 -16.4987 -6.3969
# 4 -2.0888 5.0537 -0.7444 42.8014 -11.2073 -7.0405
# 5 -20.7380 -0.4248 -16.4987 -11.2073 35.1780 -2.8936
# 6 8.8550 3.9995 -6.3969 -7.0405 -2.8936 37.0880
#
#
#
# Elastic Compliance Matrix: (Units=1/GPa)
#
#
# Indices 1 2 3 4 5 6 
#
# 1 0.027481 -0.008036 0.003370 0.007166 0.019785 -0.002209
# 2 -0.008036 0.010181 -0.003300 -0.003775 -0.007451 -0.001046
# 3 0.003370 -0.003300 0.012220 0.003651 0.009093 0.003062
# 4 0.007166 -0.003775 0.003651 0.029354 0.015747 0.006127
# 5 0.019785 -0.007451 0.009093 0.015747 0.049653 0.004511
# 6 -0.002209 -0.001046 0.003062 0.006127 0.004511 0.029646
#
#
# Mechanical properties :
#
#
# Convention : Reuss Voigt Hill
#
# Bulk Modulus (GPa) = 29.45574 48.34455 38.90015
# Shear Modulus (GPa) = 26.91278 38.52229 32.71753
#
# Velocity S-wave (km/s) = 3.41219 4.08234 3.76222
# Velocity P-wave (km/s) = 5.31669 6.56776 5.97506
#
# Compressibility (1/GPa) = 0.03394923
#
# Stress axis : x y z
#
# Youngs Moduli (GPa) = 36.38890 98.21936 81.83187
#
# Poissons Ratio (x) = 0.78933 -0.27580
# Poissons Ratio (y) = 0.29244 0.27008
# Poissons Ratio (z) = -0.12264 0.32417
#
# Static dielectric constant tensor:
#      x y z
#    x 4.034890 -0.268530 -0.342020 
#    y -0.268530 4.217250 -0.134150 
#    z -0.342020 -0.134150 4.432340 
# 
# 
# High freq. dielectric constant tensor:
#      x y z
#    x 1.884070 -0.026540 -0.024620 
#    y -0.026540 1.918290 -0.005100 
#    z -0.024620 -0.005100 1.936760 
# 
# From -- ./inp_files/455356.got.cif
#   From: 2010.06.25/outbox.cif.g09.slc.cpg/sg2_228_cif.got.tgz:455356.got - 2010.06.27 13:26:56.
