data_PCOD8030355
_publ_section_title
;
Structure prediction by ZEFSAII (Michael W. Deem and Ramdas Pophale) SiO2 
 PCOD8030355
Probable space group: P -1
;
_chemical_formula_sum "Si O2"
_cell_formula_units_Z 16
_cell_length_a 9.190982
_cell_length_b 18.025126
_cell_length_c 17.926541
_cell_angle_alpha 30.703658
_cell_angle_beta 30.326622
_cell_angle_gamma 43.698772
_cell_volume 763.555326
_symmetry_space_group_name_H-M "P -1"
_symmetry_group_IT_number 2
_symmetry_cell_setting 'triclinic'
loop_
_space_group_symop_operation_xyz
x,y,z
-x,-y,-z
loop_
_atom_site_type_symbol
_atom_site_label
_atom_site_fract_x
_atom_site_fract_y
_atom_site_fract_z
Si Si1 0.195340 0.380409 0.489970
Si Si2 0.062912 0.726188 0.942160
Si Si3 0.834600 0.458781 0.185711
Si Si4 0.340625 0.023097 0.129762
Si Si5 0.646072 0.602070 0.755525
Si Si6 0.618530 0.266745 0.060575
Si Si7 0.170416 0.868986 0.064392
Si Si8 0.965091 0.762344 0.599596
O O1 0.508235 0.436462 0.327535
O O2 0.166602 0.361159 0.431412
O O3 0.000000 0.500000 0.500000
O O4 0.093283 0.226687 0.701268
O O5 0.381965 0.707867 0.782748
O O6 0.102962 0.738128 0.004098
O O7 0.919128 0.871213 0.854587
O O8 0.860534 0.587442 0.124288
O O9 0.910110 0.306613 0.321100
O O10 0.000000 0.500000 0.000000
O O11 0.194529 0.875800 0.359246
O O12 0.580050 0.090689 0.021800
O O13 0.500000 0.000000 0.000000
O O14 0.871991 0.632040 0.696325
O O15 0.522338 0.433329 0.957452
O O16 0.335581 0.168970 0.301264
O O17 0.691232 0.214760 0.991950
O O18 0.000000 0.000000 0.000000
#
# Coordination Sequence:
#
# PCOD8030355 Si02
#       8
#     2   2   2   2   2   2   2   2
#     4  12  24  40  68 100 139 184 228 287 354 398
#     4  11  23  42  72  98 139 181 225 300 338 412
#     4  12  23  42  71 108 137 175 241 292 339 416
#     4  12  28  48  66 102 145 184 237 288 349 421
#     4  11  21  44  72 104 138 176 236 288 349 413
#     4  11  22  44  71 103 139 176 236 290 349 412
#     4  12  27  46  66  96 144 188 227 289 351 420
#     4  11  24  44  73 100 137 187 229 286 354 415
#
# _framework density 20.954605999999998
#
# number of rings (size 3 to 8) (size 9 to 14) (size 15 to 20)
#    0.000    0.500    5.000    3.750    1.750    3.500 
#    0.000    1.875    0.000    0.000    0.000    0.000 
#    0.000    0.000    0.000    0.000    0.000    0.000 
#
# Total GULP energy -198319.508971 kJ/mol
# GULP energy per Si atom -12394.969311 kJ/mol
# Density = 2.090691 g / cm^3
# Si number density = 20.954606 Si / 1000 Ang^3
#
#
#
# Elastic Constant Matrix: (Units=GPa)
#
#
# Indices 1 2 3 4 5 6 
#
# 1 157.6107 65.5059 61.7237 14.2977 8.8320 6.9888
# 2 65.5059 110.6201 47.6715 0.1708 4.0656 -12.0382
# 3 61.7237 47.6715 164.8241 10.1529 10.2312 1.1489
# 4 14.2977 0.1708 10.1529 31.3280 -4.2804 5.5502
# 5 8.8320 4.0656 10.2312 -4.2804 35.9493 -2.8700
# 6 6.9888 -12.0382 1.1489 5.5502 -2.8700 42.8875
#
#
#
# Elastic Compliance Matrix: (Units=1/GPa)
#
#
# Indices 1 2 3 4 5 6 
#
# 1 0.009778 -0.005235 -0.001783 -0.003649 -0.001951 -0.002673
# 2 -0.005235 0.013531 -0.002194 0.002374 0.001020 0.004471
# 3 -0.001783 -0.002194 0.007590 -0.001796 -0.001721 -0.000411
# 4 -0.003649 0.002374 -0.001796 0.035372 0.005117 -0.002926
# 5 -0.001951 0.001020 -0.001721 0.005117 0.029436 0.001958
# 6 -0.002673 0.004471 -0.000411 -0.002926 0.001958 0.025528
#
#
# Mechanical properties :
#
#
# Convention : Reuss Voigt Hill
#
# Bulk Modulus (GPa) = 80.16437 86.98413 83.57425
# Shear Modulus (GPa) = 34.76645 39.24322 37.00484
#
# Velocity S-wave (km/s) = 4.07766 4.33225 4.20688
# Velocity P-wave (km/s) = 7.77876 8.16244 7.97290
#
# Compressibility (1/GPa) = 0.01247437
#
# Stress axis : x y z
#
# Youngs Moduli (GPa) = 102.27300 73.90483 131.76088
#
# Poissons Ratio (x) = 0.38692 0.23492
# Poissons Ratio (y) = 0.53544 0.28904
# Poissons Ratio (z) = 0.18234 0.16212
#
# Static dielectric constant tensor:
#      x y z
#    x 4.420610 0.082920 0.103800 
#    y 0.082920 3.663390 -0.033910 
#    z 0.103800 -0.033910 3.803580 
# 
# 
# High freq. dielectric constant tensor:
#      x y z
#    x 1.847460 0.001160 0.001440 
#    y 0.001160 1.816600 0.006940 
#    z 0.001440 0.006940 1.822600 
# 
# From -- ./inp_files/336647.got.cif
#   From: 2010.06.25/outbox.cif.g09.slc.cpg/sg2_169_cif.got.tgz:336647.got - 2010.06.27 13:26:56.
