data_PCOD8030307
_publ_section_title
;
Structure prediction by ZEFSAII (Michael W. Deem and Ramdas Pophale) SiO2 
 PCOD8030307
Probable space group: P -1
;
_chemical_formula_sum "Si O2"
_cell_formula_units_Z 14
_cell_length_a 18.146034
_cell_length_b 8.383118
_cell_length_c 16.394561
_cell_angle_alpha 43.559006
_cell_angle_beta 22.658286
_cell_angle_gamma 43.358251
_cell_volume 645.870793
_symmetry_space_group_name_H-M "P -1"
_symmetry_group_IT_number 2
_symmetry_cell_setting 'triclinic'
loop_
_space_group_symop_operation_xyz
x,y,z
-x,-y,-z
loop_
_atom_site_type_symbol
_atom_site_label
_atom_site_fract_x
_atom_site_fract_y
_atom_site_fract_z
Si Si1 0.718957 0.945730 0.227564
Si Si2 0.751944 0.440159 0.057426
Si Si3 0.890939 0.321402 0.133479
Si Si4 0.521494 0.956096 0.110493
Si Si5 0.595716 0.041107 0.588153
Si Si6 0.222291 0.871138 0.333372
Si Si7 0.807904 0.645199 0.408034
O O1 0.650035 0.225423 0.214692
O O2 0.292079 0.206380 0.623430
O O3 0.580811 0.867545 0.329231
O O4 0.943734 0.901781 0.983691
O O5 0.774383 0.450409 0.127979
O O6 0.615817 0.690179 0.081143
O O7 0.958400 0.404950 0.814222
O O8 0.733839 0.232299 0.384296
O O9 0.000000 0.500000 0.000000
O O10 0.499506 0.992173 0.215805
O O11 0.310593 0.018931 0.257914
O O12 0.660571 0.125513 0.872906
O O13 0.730561 0.793109 0.513218
O O14 0.252183 0.604576 0.433778
O O15 0.000000 0.000000 0.500000
#
# Coordination Sequence:
#
# PCOD8030307 Si02
#       7
#     2   2   2   2   2   2   2
#     4  11  23  42  68 104 140 180 222 260 346 421
#     4  11  21  44  68  98 139 182 219 266 338 417
#     4  11  24  38  60 102 145 175 214 270 335 400
#     4  11  27  43  70 104 128 175 235 280 334 394
#     4  12  25  42  68 108 138 173 219 285 342 394
#     4  11  25  49  72  91 129 185 235 277 332 398
#     4  11  22  44  71  95 138 186 220 273 333 403
#
# _framework density 21.676162000000001
#
# number of rings (size 3 to 8) (size 9 to 14) (size 15 to 20)
#    0.000    0.857    4.286    3.000    6.000    2.857 
#    0.000    0.714    0.000    0.000    0.000    0.000 
#    0.000    0.000    0.000    0.000    0.000    0.000 
#
# Total GULP energy -173629.288241 kJ/mol
# GULP energy per Si atom -12402.092017 kJ/mol
# Density = 2.162683 g / cm^3
# Si number density = 21.676162 Si / 1000 Ang^3
#
#
#
# Elastic Constant Matrix: (Units=GPa)
#
#
# Indices 1 2 3 4 5 6 
#
# 1 117.4889 30.2553 60.0044 -4.6125 4.0467 10.9532
# 2 30.2553 67.7022 32.2837 -13.2861 15.4373 -2.1149
# 3 60.0044 32.2837 146.6744 -15.2135 11.3448 1.4361
# 4 -4.6125 -13.2861 -15.2135 38.8042 1.8606 -2.4754
# 5 4.0467 15.4373 11.3448 1.8606 40.1518 0.8522
# 6 10.9532 -2.1149 1.4361 -2.4754 0.8522 25.5033
#
#
#
# Elastic Compliance Matrix: (Units=1/GPa)
#
#
# Indices 1 2 3 4 5 6 
#
# 1 0.012260 -0.004456 -0.004361 -0.002232 0.001933 -0.005671
# 2 -0.004456 0.020614 -0.001499 0.006591 -0.007456 0.004596
# 3 -0.004361 -0.001499 0.009347 0.002818 -0.001789 0.001555
# 4 -0.002232 0.006591 0.002818 0.029363 -0.004558 0.004349
# 5 0.001933 -0.007456 -0.001789 -0.004558 0.028352 -0.002738
# 6 -0.005671 0.004596 0.001555 0.004349 -0.002738 0.042453
#
#
# Mechanical properties :
#
#
# Convention : Reuss Voigt Hill
#
# Bulk Modulus (GPa) = 46.31642 64.10581 55.21112
# Shear Modulus (GPa) = 29.37437 34.84668 32.11052
#
# Velocity S-wave (km/s) = 3.68522 4.01384 3.85304
# Velocity P-wave (km/s) = 6.28663 7.14981 6.73207
#
# Compressibility (1/GPa) = 0.02159061
#
# Stress axis : x y z
#
# Youngs Moduli (GPa) = 81.56373 48.51142 106.98545
#
# Poissons Ratio (x) = 0.21616 0.46651
# Poissons Ratio (y) = 0.36343 0.16037
# Poissons Ratio (z) = 0.35566 0.07272
#
# Static dielectric constant tensor:
#      x y z
#    x 3.692150 -0.081700 -0.047280 
#    y -0.081700 3.963670 0.092360 
#    z -0.047280 0.092360 4.185010 
# 
# 
# High freq. dielectric constant tensor:
#      x y z
#    x 1.839150 -0.004780 -0.013350 
#    y -0.004780 1.845510 0.005410 
#    z -0.013350 0.005410 1.876460 
# 
# From -- ./inp_files/577181.got.cif
#   From: 2010.06.25/outbox.cif.g09.slc.cpg/sg2_289_cif.got.tgz:577181.got - 2010.06.27 13:26:56.
