data_PCOD8030734
_publ_section_title
;
Structure prediction by ZEFSAII (Michael W. Deem and Ramdas Pophale) SiO2 
 PCOD8030734
Probable space group: P -1
;
_chemical_formula_sum "Si O2"
_cell_formula_units_Z 16
_cell_length_a 15.286260
_cell_length_b 14.687146
_cell_length_c 11.691322
_cell_angle_alpha 138.259865
_cell_angle_beta 153.009911
_cell_angle_gamma 41.908376
_cell_volume 765.265418
_symmetry_space_group_name_H-M "P -1"
_symmetry_group_IT_number 2
_symmetry_cell_setting 'triclinic'
loop_
_space_group_symop_operation_xyz
x,y,z
-x,-y,-z
loop_
_atom_site_type_symbol
_atom_site_label
_atom_site_fract_x
_atom_site_fract_y
_atom_site_fract_z
Si Si1 0.616201 0.905264 0.147107
Si Si2 0.908972 0.607892 0.171704
Si Si3 0.514138 0.239175 0.946168
Si Si4 0.199321 0.865239 0.022528
Si Si5 0.680115 0.420182 0.475177
Si Si6 0.315923 0.636546 0.327713
Si Si7 0.952656 0.641103 0.505365
Si Si8 0.168544 0.914902 0.281243
O O1 0.755176 0.761947 0.119481
O O2 0.457179 0.878230 0.029759
O O3 0.755772 0.984764 0.450735
O O4 0.500000 0.000000 0.000000
O O5 0.015978 0.600249 0.411397
O O6 0.089313 0.576880 0.262008
O O7 0.788144 0.491201 0.913932
O O8 0.282078 0.289702 0.694990
O O9 0.618259 0.185752 0.898549
O O10 0.603651 0.362308 0.216527
O O11 0.073877 0.750183 0.791615
O O12 0.284164 0.892631 0.272299
O O13 0.062409 0.010805 0.946693
O O14 0.538709 0.579446 0.480380
O O15 0.664444 0.323358 0.478170
O O16 0.186647 0.766328 0.226072
O O17 0.000000 0.500000 0.500000
#
# Coordination Sequence:
#
# PCOD8030734 Si02
#       8
#     2   2   2   2   2   2   2   2
#     4  11  23  43  70  95 131 172 217 263 319 388
#     4  11  22  44  63  94 127 167 220 260 320 382
#     4  11  22  43  68  95 126 174 214 264 321 382
#     4  11  24  44  66  92 135 167 216 268 317 385
#     4  11  22  40  68  93 130 166 215 268 318 382
#     4  11  24  41  64  95 132 167 210 269 324 373
#     4  11  22  40  65  92 126 167 214 264 312 381
#     4  11  24  45  64  97 133 168 212 269 324 374
#
# _framework density 20.907779000000001
#
# number of rings (size 3 to 8) (size 9 to 14) (size 15 to 20)
#    0.000    1.000    6.250    1.875    1.750    3.000 
#    2.250    2.500    0.000    0.000    0.000    0.000 
#    0.000    0.000    0.000    0.000    0.000    0.000 
#
# Total GULP energy -198357.874850 kJ/mol
# GULP energy per Si atom -12397.367178 kJ/mol
# Density = 2.086019 g / cm^3
# Si number density = 20.907779 Si / 1000 Ang^3
#
#
#
# Elastic Constant Matrix: (Units=GPa)
#
#
# Indices 1 2 3 4 5 6 
#
# 1 112.5872 60.3682 22.7977 -8.2955 11.7314 -14.8859
# 2 60.3682 132.9846 29.5524 0.1564 11.7507 20.9314
# 3 22.7977 29.5524 61.9671 2.4445 9.8734 -5.1450
# 4 -8.2955 0.1564 2.4445 23.5732 0.3238 -6.1394
# 5 11.7314 11.7507 9.8734 0.3238 33.0487 -6.0520
# 6 -14.8859 20.9314 -5.1450 -6.1394 -6.0520 40.5286
#
#
#
# Elastic Compliance Matrix: (Units=1/GPa)
#
#
# Indices 1 2 3 4 5 6 
#
# 1 0.016086 -0.008912 -0.001018 0.008875 -0.000182 0.011699
# 2 -0.008912 0.014778 -0.004090 -0.006106 -0.003157 -0.012821
# 3 -0.001018 -0.004090 0.019334 -0.001382 -0.003308 0.003489
# 4 0.008875 -0.006106 -0.001382 0.049337 0.001502 0.013936
# 5 -0.000182 -0.003157 -0.003308 0.001502 0.033589 0.006387
# 6 0.011699 -0.012821 0.003489 0.013936 0.006387 0.039100
#
#
# Mechanical properties :
#
#
# Convention : Reuss Voigt Hill
#
# Bulk Modulus (GPa) = 45.12742 59.21950 52.17346
# Shear Modulus (GPa) = 24.07905 32.41814 28.24859
#
# Velocity S-wave (km/s) = 3.39732 3.94195 3.67973
# Velocity P-wave (km/s) = 6.08440 7.00744 6.56217
#
# Compressibility (1/GPa) = 0.02215948
#
# Stress axis : x y z
#
# Youngs Moduli (GPa) = 62.16481 67.66706 51.72304
#
# Poissons Ratio (x) = 0.60304 0.05264
# Poissons Ratio (y) = 0.55401 0.21153
# Poissons Ratio (z) = 0.06327 0.27674
#
# Static dielectric constant tensor:
#      x y z
#    x 3.459380 -0.322460 0.015140 
#    y -0.322460 3.782100 0.150260 
#    z 0.015140 0.150260 3.808010 
# 
# 
# High freq. dielectric constant tensor:
#      x y z
#    x 1.824220 -0.002930 -0.016150 
#    y -0.002930 1.812100 0.002810 
#    z -0.016150 0.002810 1.825880 
# 
# From -- ./inp_files/455128.got.cif
#   From: 2010.06.25/outbox.cif.g09.slc.cpg/sg2_228_cif.got.tgz:455128.got - 2010.06.27 13:26:56.
