data_PCOD8030840
_publ_section_title
;
Structure prediction by ZEFSAII (Michael W. Deem and Ramdas Pophale) SiO2 
 PCOD8030840
Probable space group: P -1
;
_chemical_formula_sum "Si O2"
_cell_formula_units_Z 14
_cell_length_a 14.267184
_cell_length_b 10.047029
_cell_length_c 15.909164
_cell_angle_alpha 50.669374
_cell_angle_beta 28.796800
_cell_angle_gamma 71.414159
_cell_volume 656.235066
_symmetry_space_group_name_H-M "P -1"
_symmetry_group_IT_number 2
_symmetry_cell_setting 'triclinic'
loop_
_space_group_symop_operation_xyz
x,y,z
-x,-y,-z
loop_
_atom_site_type_symbol
_atom_site_label
_atom_site_fract_x
_atom_site_fract_y
_atom_site_fract_z
Si Si1 0.353520 0.115628 0.427878
Si Si2 0.085960 0.618962 0.140183
Si Si3 0.113939 0.350927 0.541240
Si Si4 0.683496 0.141750 0.581638
Si Si5 0.626631 0.175053 0.904241
Si Si6 0.808224 0.035232 0.211510
Si Si7 0.645427 0.760494 0.290726
O O1 0.227519 0.226828 0.495249
O O2 0.203879 0.907516 0.564146
O O3 0.361243 0.021568 0.550031
O O4 0.633570 0.292682 0.099131
O O5 0.989032 0.670805 0.275562
O O6 0.910313 0.358140 0.365665
O O7 0.089879 0.740077 0.006277
O O8 0.338380 0.608862 0.239006
O O9 0.897878 0.245047 0.683511
O O10 0.481769 0.168531 0.696884
O O11 0.550594 0.933337 0.831932
O O12 0.500000 0.000000 0.000000
O O13 0.643739 0.820458 0.365488
O O14 0.062200 0.086732 0.027319
O O15 0.500000 0.500000 0.500000
#
# Coordination Sequence:
#
# PCOD8030840 Si02
#       7
#     2   2   2   2   2   2   2
#     4  12  27  44  67 103 142 174 228 279 336 409
#     4  12  24  46  68  99 139 182 226 271 337 410
#     4  11  25  47  74  98 133 182 222 284 348 392
#     4  12  25  43  66 104 139 174 230 285 333 406
#     4  11  23  46  78  98 129 178 232 282 341 406
#     4  11  23  41  67  98 138 185 219 275 335 397
#     4  11  22  40  71  99 137 183 232 270 335 405
#
# _framework density 21.333815999999999
#
# number of rings (size 3 to 8) (size 9 to 14) (size 15 to 20)
#    0.000    0.571    5.714    3.000    0.000    3.429 
#    0.000    1.429    0.000    0.000    0.000    0.000 
#    0.000    0.000    0.000    0.000    0.000    0.000 
#
# Total GULP energy -173620.210562 kJ/mol
# GULP energy per Si atom -12401.443612 kJ/mol
# Density = 2.128526 g / cm^3
# Si number density = 21.333816 Si / 1000 Ang^3
#
#
#
# Elastic Constant Matrix: (Units=GPa)
#
#
# Indices 1 2 3 4 5 6 
#
# 1 76.0622 37.8616 26.8296 -2.8330 10.5853 7.1035
# 2 37.8616 122.9969 48.8587 -2.3739 4.0310 9.4093
# 3 26.8296 48.8587 90.8572 -9.4663 13.8789 3.6573
# 4 -2.8330 -2.3739 -9.4663 35.9031 4.7718 -2.7436
# 5 10.5853 4.0310 13.8789 4.7718 40.5416 -7.2999
# 6 7.1035 9.4093 3.6573 -2.7436 -7.2999 37.8479
#
#
#
# Elastic Compliance Matrix: (Units=1/GPa)
#
#
# Indices 1 2 3 4 5 6 
#
# 1 0.016646 -0.003991 -0.001991 0.000835 -0.003838 -0.002619
# 2 -0.003991 0.011505 -0.005335 -0.001282 0.001628 -0.001375
# 3 -0.001991 -0.005335 0.015671 0.004238 -0.004894 -0.000451
# 4 0.000835 -0.001282 0.004238 0.029671 -0.004860 0.000966
# 5 -0.003838 0.001628 -0.004894 -0.004860 0.028834 0.005998
# 6 -0.002619 -0.001375 -0.000451 0.000966 0.005998 0.028525
#
#
# Mechanical properties :
#
#
# Convention : Reuss Voigt Hill
#
# Bulk Modulus (GPa) = 47.19759 57.44627 52.32193
# Shear Modulus (GPa) = 31.14334 34.61628 32.87981
#
# Velocity S-wave (km/s) = 3.82489 4.03252 3.93008
# Velocity P-wave (km/s) = 6.45583 6.97620 6.72106
#
# Compressibility (1/GPa) = 0.02118752
#
# Stress axis : x y z
#
# Youngs Moduli (GPa) = 60.07570 86.91649 63.81375
#
# Poissons Ratio (x) = 0.34688 0.12703
# Poissons Ratio (y) = 0.23976 0.34048
# Poissons Ratio (z) = 0.11959 0.46374
#
# Static dielectric constant tensor:
#      x y z
#    x 4.086910 0.137260 0.127760 
#    y 0.137260 3.899920 -0.101790 
#    z 0.127760 -0.101790 4.104530 
# 
# 
# High freq. dielectric constant tensor:
#      x y z
#    x 1.843570 0.009270 0.004790 
#    y 0.009270 1.837020 -0.009700 
#    z 0.004790 -0.009700 1.841820 
# 
# From -- ./inp_files/528222.got.cif
#   From: 2010.06.25/outbox.cif.g09.slc.cpg/sg2_265_cif.got.tgz:528222.got - 2010.06.27 13:26:56.
