data_PCOD8030526
_publ_section_title
;
Structure prediction by ZEFSAII (Michael W. Deem and Ramdas Pophale) SiO2 
 PCOD8030526
Probable space group: P -1
;
_chemical_formula_sum "Si O2"
_cell_formula_units_Z 14
_cell_length_a 7.477940
_cell_length_b 13.779828
_cell_length_c 9.465122
_cell_angle_alpha 114.620209
_cell_angle_beta 72.916433
_cell_angle_gamma 143.711213
_cell_volume 523.172440
_symmetry_space_group_name_H-M "P -1"
_symmetry_group_IT_number 2
_symmetry_cell_setting 'triclinic'
loop_
_space_group_symop_operation_xyz
x,y,z
-x,-y,-z
loop_
_atom_site_type_symbol
_atom_site_label
_atom_site_fract_x
_atom_site_fract_y
_atom_site_fract_z
Si Si1 0.160210 0.776964 0.157004
Si Si2 0.414928 0.106837 0.421729
Si Si3 0.599809 0.775458 0.053327
Si Si4 0.983709 0.924117 0.674387
Si Si5 0.170962 0.456986 0.150396
Si Si6 0.735773 0.461350 0.255286
Si Si7 0.104835 0.359391 0.409953
O O1 0.407970 0.796754 0.119828
O O2 0.888452 0.625207 0.232056
O O3 0.306043 0.953092 0.273007
O O4 0.016952 0.718476 0.997203
O O5 0.269129 0.051881 0.577238
O O6 0.776929 0.268779 0.449905
O O7 0.317778 0.164199 0.383108
O O8 0.932330 0.959620 0.141735
O O9 0.470845 0.626461 0.098792
O O10 0.573006 0.716509 0.862614
O O11 0.921450 0.777883 0.650548
O O12 0.957936 0.462813 0.221520
O O13 0.257350 0.449118 0.277543
O O14 0.664060 0.483177 0.435870
#
# Coordination Sequence:
#
# PCOD8030526 Si02
#       7
#     2   2   2   2   2   2   2
#     4   9  16  36  60  87 118 158 205 245 291 368
#     4  11  22  37  63  93 122 160 210 246 307 358
#     4   9  18  39  64  90 119 161 209 248 297 371
#     4  11  23  38  65  92 122 157 215 254 288 371
#     4   9  20  33  63  94 121 157 204 247 313 366
#     4   9  18  34  64  89 117 162 208 240 301 368
#     4  12  21  38  68  91 123 161 196 261 311 353
#
# _framework density 26.759819
#
# number of rings (size 3 to 8) (size 9 to 14) (size 15 to 20)
#    0.000    2.000    2.857    4.286    0.000    0.571 
#    0.000    3.571   12.571    3.429    0.000    0.000 
#    0.000    0.000    0.000    0.000    0.000    0.000 
#
# Total GULP energy -173590.184739 kJ/mol
# GULP energy per Si atom -12399.298910 kJ/mol
# Density = 2.669891 g / cm^3
# Si number density = 26.759819 Si / 1000 Ang^3
#
#
#
# Elastic Constant Matrix: (Units=GPa)
#
#
# Indices 1 2 3 4 5 6 
#
# 1 85.1631 42.1610 39.3768 -16.8209 -0.6469 -11.3072
# 2 42.1610 72.6269 37.3766 35.2030 30.7492 -4.6104
# 3 39.3768 37.3766 201.2866 35.2888 42.5362 -15.9577
# 4 -16.8209 35.2030 35.2888 21.1366 -18.2069 4.4699
# 5 -0.6469 30.7492 42.5362 -18.2069 22.8113 -15.3953
# 6 -11.3072 -4.6104 -15.9577 4.4699 -15.3953 33.0035
#
#
#
# Elastic Compliance Matrix: (Units=1/GPa)
#
#
# Indices 1 2 3 4 5 6 
#
# 1 0.008808 0.001850 0.001285 -0.006918 -0.010067 0.000138
# 2 0.001850 0.006104 -0.005387 0.009619 0.011547 0.002966
# 3 0.001285 -0.005387 0.005001 0.002835 0.002038 0.002673
# 4 -0.006918 0.009619 0.002835 0.003812 -0.022653 -0.010739
# 5 -0.010067 0.011547 0.002038 -0.022653 0.011095 0.007393
# 6 0.000138 0.002966 0.002673 -0.010739 0.007393 0.036957
#
#
# Mechanical properties :
#
#
# Convention : Reuss Voigt Hill
#
# Bulk Modulus (GPa) = 64.89718 66.32284 65.61001
# Shear Modulus (GPa) = 61.41149 31.40108 46.40629
#
# Velocity S-wave (km/s) = 4.79572 3.42927 4.16886
# Velocity P-wave (km/s) = 7.41415 6.36539 6.90970
#
# Compressibility (1/GPa) = 0.01540899
#
# Stress axis : x y z
#
# Youngs Moduli (GPa) = 113.53449 163.81710 199.95129
#
# Poissons Ratio (x) = -0.30305 -0.25686
# Poissons Ratio (y) = -0.21003 1.07710
# Poissons Ratio (z) = -0.14585 0.88245
#
# Static dielectric constant tensor:
#      x y z
#    x 4.869710 0.033090 0.055890 
#    y 0.033090 4.813550 0.024970 
#    z 0.055890 0.024970 5.546500 
# 
# 
# High freq. dielectric constant tensor:
#      x y z
#    x 2.075820 -0.005990 0.002160 
#    y -0.005990 2.072260 0.010840 
#    z 0.002160 0.010840 2.097110 
# 
# From -- ./inp_files/203067.got.cif
#   From: 2010.06.25/outbox.cif.g09.slc.cpg/sg2_102_cif.got.tgz:203067.got - 2010.06.27 13:26:56.
