data_PCOD8030986
_publ_section_title
;
Structure prediction by ZEFSAII (Michael W. Deem and Ramdas Pophale) SiO2 
 PCOD8030986
Probable space group: P -1
;
_chemical_formula_sum "Si O2"
_cell_formula_units_Z 16
_cell_length_a 14.871076
_cell_length_b 9.471354
_cell_length_c 14.399129
_cell_angle_alpha 69.798973
_cell_angle_beta 150.398510
_cell_angle_gamma 90.321836
_cell_volume 725.880378
_symmetry_space_group_name_H-M "P -1"
_symmetry_group_IT_number 2
_symmetry_cell_setting 'triclinic'
loop_
_space_group_symop_operation_xyz
x,y,z
-x,-y,-z
loop_
_atom_site_type_symbol
_atom_site_label
_atom_site_fract_x
_atom_site_fract_y
_atom_site_fract_z
Si Si1 0.647428 0.187366 0.046395
Si Si2 0.233626 0.547503 0.948895
Si Si3 0.046575 0.237261 0.644537
Si Si4 0.735670 0.661990 0.480500
Si Si5 0.469651 0.936937 0.352331
Si Si6 0.455867 0.788921 0.561324
Si Si7 0.934184 0.238298 0.749742
Si Si8 0.341336 0.371466 0.897359
O O1 0.409358 0.261749 0.762959
O O2 0.581212 0.250216 0.080425
O O3 0.752014 0.280605 0.070849
O O4 0.843796 0.955882 0.272127
O O5 0.395943 0.400290 0.043596
O O6 0.964557 0.641512 0.670268
O O7 0.335561 0.425333 0.162992
O O8 0.937084 0.232912 0.642198
O O9 0.248782 0.250336 0.848854
O O10 0.847195 0.416217 0.363207
O O11 0.576404 0.817644 0.381197
O O12 0.808316 0.456253 0.622459
O O13 0.532711 0.791037 0.525670
O O14 0.579393 0.042702 0.447107
O O15 0.189803 0.097462 0.056343
O O16 0.209835 0.829818 0.329121
#
# Coordination Sequence:
#
# PCOD8030986 Si02
#       8
#     2   2   2   2   2   2   2   2
#     4  12  25  43  68 100 133 181 227 270 333 402
#     4  12  25  45  67 100 140 178 223 278 335 392
#     4  11  22  41  70  99 133 176 225 270 335 398
#     4  12  24  43  70  98 135 177 221 276 336 396
#     4  11  26  45  71 101 133 178 226 274 343 396
#     4  11  25  47  69 101 136 176 225 281 332 401
#     4  12  22  47  70  98 138 175 221 282 334 397
#     4  11  22  44  67  97 139 177 218 280 330 391
#
# _framework density 22.042200999999999
#
# number of rings (size 3 to 8) (size 9 to 14) (size 15 to 20)
#    0.000    0.500    6.250    1.875    1.750    1.500 
#    0.000    0.000    0.000    0.000    0.000    0.000 
#    0.000    0.000    0.000    0.000    0.000    0.000 
#
# Total GULP energy -198536.588536 kJ/mol
# GULP energy per Si atom -12408.536783 kJ/mol
# Density = 2.199203 g / cm^3
# Si number density = 22.042201 Si / 1000 Ang^3
#
#
#
# Elastic Constant Matrix: (Units=GPa)
#
#
# Indices 1 2 3 4 5 6 
#
# 1 61.4863 26.5507 13.6290 -3.0514 1.7230 6.9562
# 2 26.5507 104.3174 37.8517 -16.2064 15.4428 10.9862
# 3 13.6290 37.8517 41.9150 -2.0700 5.6185 -0.2316
# 4 -3.0514 -16.2064 -2.0700 37.3214 1.1866 3.0275
# 5 1.7230 15.4428 5.6185 1.1866 32.1076 1.5562
# 6 6.9562 10.9862 -0.2316 3.0275 1.5562 35.0062
#
#
#
# Elastic Compliance Matrix: (Units=1/GPa)
#
#
# Indices 1 2 3 4 5 6 
#
# 1 0.018755 -0.003590 -0.003058 -0.000022 0.001386 -0.002680
# 2 -0.003590 0.018309 -0.014203 0.007511 -0.006139 -0.005503
# 3 -0.003058 -0.014203 0.037425 -0.004816 0.000347 0.005714
# 4 -0.000022 0.007511 -0.004816 0.030296 -0.003653 -0.004842
# 5 0.001386 -0.006139 0.000347 -0.003653 0.034076 0.000455
# 6 -0.002680 -0.005503 0.005714 -0.004842 0.000455 0.031262
#
#
# Mechanical properties :
#
#
# Convention : Reuss Voigt Hill
#
# Bulk Modulus (GPa) = 30.49997 40.42018 35.46007
# Shear Modulus (GPa) = 22.44627 29.53286 25.98957
#
# Velocity S-wave (km/s) = 3.19459 3.66434 3.43750
# Velocity P-wave (km/s) = 5.24160 6.02334 5.64602
#
# Compressibility (1/GPa) = 0.03278692
#
# Stress axis : x y z
#
# Youngs Moduli (GPa) = 53.31845 54.61900 26.71989
#
# Poissons Ratio (x) = 0.19610 0.08170
# Poissons Ratio (y) = 0.19143 0.37950
# Poissons Ratio (z) = 0.16304 0.77575
#
# Static dielectric constant tensor:
#      x y z
#    x 4.074970 0.088780 -0.038050 
#    y 0.088780 4.147610 0.020400 
#    z -0.038050 0.020400 3.877830 
# 
# 
# High freq. dielectric constant tensor:
#      x y z
#    x 1.867810 0.009720 -0.003820 
#    y 0.009720 1.880390 0.002240 
#    z -0.003820 0.002240 1.865010 
# 
# From -- ./inp_files/505077.got.cif
#   From: 2010.06.25/outbox.cif.g09.slc.cpg/sg2_253_cif.got.tgz:505077.got - 2010.06.27 13:26:56.
