data_PCOD8030121
_publ_section_title
;
Structure prediction by ZEFSAII (Michael W. Deem and Ramdas Pophale) SiO2 
 PCOD8030121
Probable space group: P -1
;
_chemical_formula_sum "Si O2"
_cell_formula_units_Z 14
_cell_length_a 9.823747
_cell_length_b 6.674657
_cell_length_c 18.031563
_cell_angle_alpha 101.172426
_cell_angle_beta 50.684115
_cell_angle_gamma 129.703272
_cell_volume 658.063642
_symmetry_space_group_name_H-M "P -1"
_symmetry_group_IT_number 2
_symmetry_cell_setting 'triclinic'
loop_
_space_group_symop_operation_xyz
x,y,z
-x,-y,-z
loop_
_atom_site_type_symbol
_atom_site_label
_atom_site_fract_x
_atom_site_fract_y
_atom_site_fract_z
Si Si1 0.699623 0.520708 0.298232
Si Si2 0.985074 0.072210 0.313774
Si Si3 0.804059 0.743869 0.498625
Si Si4 0.097981 0.379569 0.913618
Si Si5 0.255780 0.709089 0.590973
Si Si6 0.593766 0.870966 0.998275
Si Si7 0.500007 0.488630 0.875196
O O1 0.445712 0.433213 0.385623
O O2 0.728855 0.429317 0.202330
O O3 0.709899 0.358824 0.345504
O O4 0.904753 0.857511 0.260049
O O5 0.941723 0.274460 0.326921
O O6 0.273497 0.286719 0.240979
O O7 0.818121 0.877740 0.426594
O O8 0.842905 0.534550 0.452145
O O9 0.000000 0.000000 0.500000
O O10 0.249287 0.342433 0.910149
O O11 0.876892 0.093675 0.930710
O O12 0.000000 0.500000 0.000000
O O13 0.500000 0.000000 0.500000
O O14 0.514978 0.639127 0.952248
O O15 0.490869 0.733941 0.107329
O O16 0.500000 0.000000 0.000000
#
# Coordination Sequence:
#
# PCOD8030121 Si02
#       7
#     2   2   2   2   2   2   2
#     4  11  23  42  68  96 138 180 226 290 345 408
#     4  11  22  42  68  98 134 179 226 278 352 421
#     4  11  23  41  65  98 141 171 224 290 344 416
#     4  12  25  46  70  99 139 184 238 288 348 412
#     4  11  21  42  70  96 132 185 232 272 350 426
#     4  11  24  45  69  96 135 177 234 289 345 409
#     4  11  25  43  71  97 135 184 225 288 356 404
#
# _framework density 21.274538
#
# number of rings (size 3 to 8) (size 9 to 14) (size 15 to 20)
#    0.000    0.857    5.714    2.143    2.000    0.571 
#    5.143    0.000    0.000    0.000    0.000    0.000 
#    0.000    0.000    0.000    0.000    0.000    0.000 
#
# Total GULP energy -173441.198937 kJ/mol
# GULP energy per Si atom -12388.657067 kJ/mol
# Density = 2.122612 g / cm^3
# Si number density = 21.274538 Si / 1000 Ang^3
#
#
#
# Elastic Constant Matrix: (Units=GPa)
#
#
# Indices 1 2 3 4 5 6 
#
# 1 139.2609 64.4414 45.1693 -1.3649 -6.9079 2.2613
# 2 64.4414 99.0867 31.5733 0.3314 9.1522 -9.0898
# 3 45.1693 31.5733 126.4521 -0.1154 9.2401 -8.0345
# 4 -1.3649 0.3314 -0.1154 35.5951 7.2663 -3.9794
# 5 -6.9079 9.1522 9.2401 7.2663 32.3762 0.0971
# 6 2.2613 -9.0898 -8.0345 -3.9794 0.0971 41.3981
#
#
#
# Elastic Compliance Matrix: (Units=1/GPa)
#
#
# Indices 1 2 3 4 5 6 
#
# 1 0.012041 -0.007689 -0.003002 -0.001007 0.005835 -0.003039
# 2 -0.007689 0.016231 -0.000585 0.001300 -0.006365 0.004010
# 3 -0.003002 -0.000585 0.009499 0.000831 -0.003378 0.001967
# 4 -0.001007 0.001300 0.000831 0.029968 -0.007556 0.003400
# 5 0.005835 -0.006365 -0.003378 -0.007556 0.036601 -0.003184
# 6 -0.003039 0.004010 0.001967 0.003400 -0.003184 0.025918
#
#
# Mechanical properties :
#
#
# Convention : Reuss Voigt Hill
#
# Bulk Modulus (GPa) = 65.70437 71.90752 68.80594
# Shear Modulus (GPa) = 31.66918 36.78159 34.22538
#
# Velocity S-wave (km/s) = 3.86242 4.16252 4.01527
# Velocity P-wave (km/s) = 7.13037 7.54819 7.34225
#
# Compressibility (1/GPa) = 0.01521969
#
# Stress axis : x y z
#
# Youngs Moduli (GPa) = 83.04797 61.61227 105.27419
#
# Poissons Ratio (x) = 0.47373 0.31601
# Poissons Ratio (y) = 0.63855 0.06157
# Poissons Ratio (z) = 0.24929 0.03604
#
# Static dielectric constant tensor:
#      x y z
#    x 2.939820 0.185680 -0.371910 
#    y 0.185680 3.782860 0.027630 
#    z -0.371910 0.027630 4.345270 
# 
# 
# High freq. dielectric constant tensor:
#      x y z
#    x 1.831620 0.002360 0.001670 
#    y 0.002360 1.836010 -0.008170 
#    z 0.001670 -0.008170 1.843270 
# 
# From -- ./inp_files/39607.got.cif
#   From: 2010.06.25/outbox.cif.g09.slc.cpg/sg2_20_cif.got.tgz:39607.got - 2010.06.27 13:26:56.
