data_PCOD8030052
_publ_section_title
;
Structure prediction by ZEFSAII (Michael W. Deem and Ramdas Pophale) SiO2 
 PCOD8030052
Probable space group: P -1
;
_chemical_formula_sum "Si O2"
_cell_formula_units_Z 16
_cell_length_a 9.613983
_cell_length_b 17.098054
_cell_length_c 5.299704
_cell_angle_alpha 126.087562
_cell_angle_beta 92.433020
_cell_angle_gamma 95.277009
_cell_volume 695.950003
_symmetry_space_group_name_H-M "P -1"
_symmetry_group_IT_number 2
_symmetry_cell_setting 'triclinic'
loop_
_space_group_symop_operation_xyz
x,y,z
-x,-y,-z
loop_
_atom_site_type_symbol
_atom_site_label
_atom_site_fract_x
_atom_site_fract_y
_atom_site_fract_z
Si Si1 0.971129 0.147326 0.916971
Si Si2 0.358128 0.652380 0.322676
Si Si3 0.149990 0.002073 0.781385
Si Si4 0.445600 0.091896 0.788356
Si Si5 0.479512 0.301097 0.060641
Si Si6 0.824744 0.657110 0.757764
Si Si7 0.284106 0.844823 0.784881
Si Si8 0.142497 0.459239 0.962796
O O1 0.943696 0.076997 0.544892
O O2 0.823679 0.183919 0.046690
O O3 0.046365 0.081736 0.009052
O O4 0.077980 0.239832 0.012978
O O5 0.414461 0.669869 0.644659
O O6 0.274296 0.745263 0.426882
O O7 0.472414 0.645919 0.098290
O O8 0.265777 0.548377 0.114097
O O9 0.222899 0.941282 0.874947
O O10 0.281088 0.068971 0.786572
O O11 0.500000 0.000000 0.500000
O O12 0.464285 0.185032 0.780486
O O13 0.550052 0.123006 0.090428
O O14 0.335889 0.332697 0.197405
O O15 0.842843 0.618046 0.403227
O O16 0.863761 0.586641 0.846728
O O17 0.000000 0.500000 0.000000
#
# Coordination Sequence:
#
# PCOD8030052 Si02
#       8
#     2   2   2   2   2   2   2   2
#     4  11  25  43  66 103 143 186 237 291 358 428
#     4  11  26  46  75 104 142 181 242 295 354 431
#     4  11  23  43  65 101 139 189 239 285 357 428
#     4  11  21  42  65 103 143 187 244 285 348 419
#     4  11  25  47  71 109 143 187 237 293 361 417
#     4  12  27  48  75 104 148 186 234 306 351 428
#     4  11  24  41  71  99 139 191 231 303 349 422
#     4  12  28  49  76 108 138 189 238 296 368 429
#
# _framework density 22.990155999999999
#
# number of rings (size 3 to 8) (size 9 to 14) (size 15 to 20)
#    0.000    0.750    2.500    4.125    5.250    4.000 
#    2.250    0.000    0.000    0.000    0.000    0.000 
#    0.000    0.000    0.000    0.000    0.000    0.000 
#
# Total GULP energy -198235.015673 kJ/mol
# GULP energy per Si atom -12389.688480 kJ/mol
# Density = 2.293783 g / cm^3
# Si number density = 22.990156 Si / 1000 Ang^3
#
#
#
# Elastic Constant Matrix: (Units=GPa)
#
#
# Indices 1 2 3 4 5 6 
#
# 1 66.5179 15.2651 44.6445 41.2722 11.4713 10.7392
# 2 15.2651 97.0216 21.7430 15.2645 19.0295 4.4752
# 3 44.6445 21.7430 88.1181 2.9780 -2.0814 11.3555
# 4 41.2722 15.2645 2.9780 27.7247 0.2756 -2.6164
# 5 11.4713 19.0295 -2.0814 0.2756 30.2750 2.7078
# 6 10.7392 4.4752 11.3555 -2.6164 2.7078 31.4061
#
#
#
# Elastic Compliance Matrix: (Units=1/GPa)
#
#
# Indices 1 2 3 4 5 6 
#
# 1 -0.034581 -0.011955 0.017728 0.056906 0.020414 0.010099
# 2 -0.011955 0.009843 0.002798 0.012365 -0.001833 0.002862
# 3 0.017728 0.002798 0.003736 -0.029170 -0.007092 -0.009630
# 4 0.056906 0.012365 -0.029170 -0.053207 -0.029733 -0.012543
# 5 0.020414 -0.001833 -0.007092 -0.029733 0.027033 -0.008963
# 6 0.010099 0.002862 -0.009630 -0.012543 -0.008963 0.031189
#
#
# Mechanical properties :
#
#
# Convention : Reuss Voigt Hill
#
# Bulk Modulus (GPa) = -259.03740 46.10698 -106.46521
# Shear Modulus (GPa) = -145.28488 29.21483 -58.03502
#
# Velocity S-wave (km/s) = -7.95811 3.56863 -5.02973
# Velocity P-wave (km/s) = 14.04848 6.08924 8.95213
#
# Compressibility (1/GPa) = -0.00386045
#
# Stress axis : x y z
#
# Youngs Moduli (GPa) = -28.91794 101.59495 267.68808
#
# Poissons Ratio (x) = 1.21456 -4.74544
# Poissons Ratio (y) = -0.34571 -0.74904
# Poissons Ratio (z) = 0.51264 -0.28428
#
# Static dielectric constant tensor:
#      x y z
#    x 5.083530 -0.181310 -0.070450 
#    y -0.181310 4.759650 0.211040 
#    z -0.070450 0.211040 4.262750 
# 
# 
# High freq. dielectric constant tensor:
#      x y z
#    x 1.930930 0.002110 -0.004410 
#    y 0.002110 1.918490 0.019590 
#    z -0.004410 0.019590 1.900380 
# 
# From -- ./inp_files/49339.got.cif
#   From: 2010.06.25/outbox.cif.g09.slc.cpg/sg2_25_cif.got.tgz:49339.got - 2010.06.27 13:26:56.
