data_PCOD8030897
_publ_section_title
;
Structure prediction by ZEFSAII (Michael W. Deem and Ramdas Pophale) SiO2 
 PCOD8030897
Probable space group: P -1
;
_chemical_formula_sum "Si O2"
_cell_formula_units_Z 16
_cell_length_a 5.188891
_cell_length_b 18.911895
_cell_length_c 9.012852
_cell_angle_alpha 131.276602
_cell_angle_beta 97.989708
_cell_angle_gamma 75.292219
_cell_volume 642.417773
_symmetry_space_group_name_H-M "P -1"
_symmetry_group_IT_number 2
_symmetry_cell_setting 'triclinic'
loop_
_space_group_symop_operation_xyz
x,y,z
-x,-y,-z
loop_
_atom_site_type_symbol
_atom_site_label
_atom_site_fract_x
_atom_site_fract_y
_atom_site_fract_z
Si Si1 0.317138 0.255776 0.256817
Si Si2 0.292864 0.450701 0.000519
Si Si3 0.455183 0.248240 0.591160
Si Si4 0.034620 0.965670 0.284092
Si Si5 0.949616 0.830009 0.379883
Si Si6 0.554521 0.585644 0.721356
Si Si7 0.475786 0.950776 0.085129
Si Si8 0.107999 0.757909 0.001681
O O1 0.348847 0.281709 0.465138
O O2 0.309233 0.348948 0.282981
O O3 0.537735 0.161668 0.098562
O O4 0.035670 0.229768 0.153936
O O5 0.277201 0.465657 0.197849
O O6 0.500000 0.500000 0.000000
O O7 0.368413 0.338340 0.815728
O O8 0.000000 0.500000 0.000000
O O9 0.772365 0.207511 0.560990
O O10 0.297672 0.168782 0.527756
O O11 0.192406 0.000115 0.204429
O O12 0.216314 0.856602 0.180030
O O13 0.729368 0.962097 0.220404
O O14 0.054195 0.058372 0.524287
O O15 0.923169 0.761302 0.140676
O O16 0.500000 0.500000 0.500000
O O17 0.305164 0.655284 0.876714
O O18 0.500000 0.000000 0.000000
#
# Coordination Sequence:
#
# PCOD8030897 Si02
#       8
#     2   2   2   2   2   2   2   2
#     4  11  26  45  72 108 149 195 243 305 371 436
#     4  12  28  51  77 109 143 191 247 307 374 443
#     4  12  27  47  75 107 152 190 251 302 363 443
#     4  11  23  41  68 103 143 195 245 295 358 433
#     4  12  25  46  73 108 148 202 243 301 364 433
#     4  12  27  49  78 107 148 193 244 312 378 441
#     4  11  22  41  66 105 150 192 243 298 355 434
#     4  11  26  46  71 107 150 190 248 304 367 441
#
# _framework density 24.905913999999999
#
# number of rings (size 3 to 8) (size 9 to 14) (size 15 to 20)
#    0.000    0.500    2.500    5.250    5.250    1.500 
#    0.000    3.125    0.000    0.000    0.000    0.000 
#    0.000    0.000    0.000    0.000    0.000    0.000 
#
# Total GULP energy -198261.494488 kJ/mol
# GULP energy per Si atom -12391.343406 kJ/mol
# Density = 2.484923 g / cm^3
# Si number density = 24.905914 Si / 1000 Ang^3
#
#
#
# Elastic Constant Matrix: (Units=GPa)
#
#
# Indices 1 2 3 4 5 6 
#
# 1 110.7893 30.2004 28.4813 -6.1238 0.7177 2.6698
# 2 30.2004 134.0342 54.1124 -5.3150 15.3642 2.4649
# 3 28.4813 54.1124 157.6189 -1.7183 15.3710 -0.1467
# 4 -6.1238 -5.3150 -1.7183 61.2410 -4.5759 6.5823
# 5 0.7177 15.3642 15.3710 -4.5759 32.3794 -4.1433
# 6 2.6698 2.4649 -0.1467 6.5823 -4.1433 41.1631
#
#
#
# Elastic Compliance Matrix: (Units=1/GPa)
#
#
# Indices 1 2 3 4 5 6 
#
# 1 0.009910 -0.001817 -0.001285 0.000956 0.001316 -0.000559
# 2 -0.001817 0.009298 -0.002547 0.000404 -0.003213 -0.000836
# 3 -0.001285 -0.002547 0.007686 -0.000324 -0.002449 0.000069
# 4 0.000956 0.000404 -0.000324 0.016877 0.001996 -0.002585
# 5 0.001316 -0.003213 -0.002449 0.001996 0.034236 0.003225
# 6 -0.000559 -0.000836 0.000069 -0.002585 0.003225 0.025118
#
#
# Mechanical properties :
#
#
# Convention : Reuss Voigt Hill
#
# Bulk Modulus (GPa) = 64.11860 69.78117 66.94988
# Shear Modulus (GPa) = 41.79823 46.26659 44.03241
#
# Velocity S-wave (km/s) = 4.10108 4.31473 4.20926
# Velocity P-wave (km/s) = 6.94445 7.27332 7.11079
#
# Compressibility (1/GPa) = 0.01559610
#
# Stress axis : x y z
#
# Youngs Moduli (GPa) = 100.91292 107.55037 130.09933
#
# Poissons Ratio (x) = 0.19537 0.16723
# Poissons Ratio (y) = 0.18331 0.33136
# Poissons Ratio (z) = 0.12972 0.27393
#
# Static dielectric constant tensor:
#      x y z
#    x 4.412050 0.063350 -0.165920 
#    y 0.063350 4.687920 -0.016150 
#    z -0.165920 -0.016150 4.702060 
# 
# 
# High freq. dielectric constant tensor:
#      x y z
#    x 1.977570 0.010700 -0.001880 
#    y 0.010700 2.011980 -0.001780 
#    z -0.001880 -0.001780 2.017510 
# 
# From -- ./inp_files/139560.got.cif
#   From: 2010.06.25/outbox.cif.g09.slc.cpg/sg2_70_cif.got.tgz:139560.got - 2010.06.27 13:26:56.
