data_PCOD8030694
_publ_section_title
;
Structure prediction by ZEFSAII (Michael W. Deem and Ramdas Pophale) SiO2 
 PCOD8030694
Probable space group: P -1
;
_chemical_formula_sum "Si O2"
_cell_formula_units_Z 14
_cell_length_a 15.057620
_cell_length_b 9.803334
_cell_length_c 9.860975
_cell_angle_alpha 139.636193
_cell_angle_beta 67.754305
_cell_angle_gamma 135.431352
_cell_volume 616.858656
_symmetry_space_group_name_H-M "P -1"
_symmetry_group_IT_number 2
_symmetry_cell_setting 'triclinic'
loop_
_space_group_symop_operation_xyz
x,y,z
-x,-y,-z
loop_
_atom_site_type_symbol
_atom_site_label
_atom_site_fract_x
_atom_site_fract_y
_atom_site_fract_z
Si Si1 0.237479 0.288793 0.256821
Si Si2 0.494782 0.503268 0.843785
Si Si3 0.127130 0.996122 0.828677
Si Si4 0.257663 0.884893 0.365092
Si Si5 0.304814 0.548966 0.937727
Si Si6 0.832464 0.398248 0.529455
Si Si7 0.856187 0.884101 0.520358
O O1 0.364323 0.339495 0.188060
O O2 0.274679 0.597129 0.466006
O O3 0.172249 0.124682 0.311931
O O4 0.123807 0.092093 0.053501
O O5 0.455352 0.682538 0.964022
O O6 0.383548 0.176232 0.594875
O O7 0.500000 0.500000 0.000000
O O8 0.205211 0.891933 0.723869
O O9 0.981277 0.710987 0.634381
O O10 0.205911 0.263466 0.878860
O O11 0.170240 0.609645 0.311266
O O12 0.157532 0.905175 0.377196
O O13 0.310586 0.806255 0.159879
O O14 0.253852 0.441513 0.731428
O O15 0.000000 0.000000 0.500000
#
# Coordination Sequence:
#
# PCOD8030694 Si02
#       7
#     2   2   2   2   2   2   2
#     4  12  25  41  69 101 133 177 224 280 334 390
#     4  11  22  44  69 102 137 169 232 281 324 398
#     4  11  22  40  66  99 130 172 228 283 327 392
#     4  11  24  43  71  97 133 189 216 272 348 391
#     4  11  23  45  66  97 140 180 218 280 335 398
#     4  11  22  39  69  97 131 173 232 276 336 394
#     4  11  27  46  64 100 141 176 222 278 338 403
#
# _framework density 22.695637999999999
#
# number of rings (size 3 to 8) (size 9 to 14) (size 15 to 20)
#    0.000    0.857    5.714    1.286    4.000    7.429 
#    0.000    1.429    0.000    0.000    0.000    0.000 
#    0.000    0.000    0.000    0.000    0.000    0.000 
#
# Total GULP energy -173522.747734 kJ/mol
# GULP energy per Si atom -12394.481981 kJ/mol
# Density = 2.264398 g / cm^3
# Si number density = 22.695638 Si / 1000 Ang^3
#
#
#
# Elastic Constant Matrix: (Units=GPa)
#
#
# Indices 1 2 3 4 5 6 
#
# 1 158.9334 33.3984 35.8437 -5.7525 -19.4103 6.7238
# 2 33.3984 93.1670 13.4805 -22.0325 4.0123 7.8517
# 3 35.8437 13.4805 95.9790 -14.9212 -9.9147 2.4731
# 4 -5.7525 -22.0325 -14.9212 34.5740 -4.3640 -5.5086
# 5 -19.4103 4.0123 -9.9147 -4.3640 45.7214 -5.5958
# 6 6.7238 7.8517 2.4731 -5.5086 -5.5958 30.5297
#
#
#
# Elastic Compliance Matrix: (Units=1/GPa)
#
#
# Indices 1 2 3 4 5 6 
#
# 1 0.007742 -0.002806 -0.002386 -0.001251 0.002835 -0.000496
# 2 -0.002806 0.013814 0.000193 0.007890 -0.001837 -0.001863
# 3 -0.002386 0.000193 0.012348 0.005483 0.002279 0.000883
# 4 -0.001251 0.007890 0.005483 0.037490 0.004197 0.005336
# 5 0.002835 -0.001837 0.002279 0.004197 0.024738 0.004955
# 6 -0.000496 -0.001863 0.000883 0.005336 0.004955 0.035143
#
#
# Mechanical properties :
#
#
# Convention : Reuss Voigt Hill
#
# Bulk Modulus (GPa) = 41.83255 57.05828 49.44541
# Shear Modulus (GPa) = 33.50302 39.85549 36.67925
#
# Velocity S-wave (km/s) = 3.84629 4.19511 4.02448
# Velocity P-wave (km/s) = 6.18039 6.97571 6.59006
#
# Compressibility (1/GPa) = 0.02390483
#
# Stress axis : x y z
#
# Youngs Moduli (GPa) = 129.17082 72.39275 80.98468
#
# Poissons Ratio (x) = 0.20315 0.19322
# Poissons Ratio (y) = 0.36247 -0.01561
# Poissons Ratio (z) = 0.30818 -0.01396
#
# Static dielectric constant tensor:
#      x y z
#    x 4.543620 0.118400 -0.275120 
#    y 0.118400 3.794750 -0.256240 
#    z -0.275120 -0.256240 4.292790 
# 
# 
# High freq. dielectric constant tensor:
#      x y z
#    x 1.914880 0.006060 -0.021370 
#    y 0.006060 1.865360 -0.016010 
#    z -0.021370 -0.016010 1.901690 
# 
# From -- ./inp_files/293438.got.cif
#   From: 2010.06.25/outbox.cif.g09.slc.cpg/sg2_147_cif.got.tgz:293438.got - 2010.06.27 13:26:56.
