data_PCOD8030985
_publ_section_title
;
Structure prediction by ZEFSAII (Michael W. Deem and Ramdas Pophale) SiO2 
 PCOD8030985
Probable space group: P -1
;
_chemical_formula_sum "Si O2"
_cell_formula_units_Z 14
_cell_length_a 11.944387
_cell_length_b 10.076405
_cell_length_c 7.713514
_cell_angle_alpha 42.944408
_cell_angle_beta 102.884284
_cell_angle_gamma 94.780590
_cell_volume 612.087413
_symmetry_space_group_name_H-M "P -1"
_symmetry_group_IT_number 2
_symmetry_cell_setting 'triclinic'
loop_
_space_group_symop_operation_xyz
x,y,z
-x,-y,-z
loop_
_atom_site_type_symbol
_atom_site_label
_atom_site_fract_x
_atom_site_fract_y
_atom_site_fract_z
Si Si1 0.277960 0.918529 0.468477
Si Si2 0.359523 0.902460 0.885916
Si Si3 0.990359 0.582279 0.727655
Si Si4 0.825081 0.320034 0.828376
Si Si5 0.373156 0.144987 0.989366
Si Si6 0.978243 0.999094 0.788532
Si Si7 0.222163 0.539197 0.678987
O O1 0.321844 0.989091 0.601773
O O2 0.279175 0.679287 0.702887
O O3 0.151754 0.034692 0.273707
O O4 0.364418 0.984061 0.289635
O O5 0.326140 0.068927 0.862833
O O6 0.291670 0.714066 0.079985
O O7 0.493859 0.822651 0.017000
O O8 0.101821 0.471451 0.768883
O O9 0.865804 0.536013 0.655942
O O10 0.990053 0.812635 0.484782
O O11 0.000000 0.500000 0.000000
O O12 0.806372 0.296683 0.638993
O O13 0.931341 0.176604 0.084701
O O14 0.306642 0.354144 0.820796
O O15 0.000000 0.000000 0.000000
#
# Coordination Sequence:
#
# PCOD8030985 Si02
#       7
#     2   2   2   2   2   2   2
#     4  11  23  47  70 103 137 183 242 293 355 434
#     4  11  26  47  71 101 141 188 243 297 356 425
#     4  11  25  41  66 108 142 182 243 291 355 442
#     4  12  23  41  66 101 138 188 233 282 356 432
#     4  11  25  49  69 100 142 188 238 304 360 408
#     4  11  22  41  70  98 143 185 224 288 362 422
#     4  11  24  43  72  99 141 188 235 290 359 423
#
# _framework density 22.872551999999999
#
# number of rings (size 3 to 8) (size 9 to 14) (size 15 to 20)
#    0.000    0.857    4.286    3.429    4.000    4.571 
#    2.571    0.000    0.000    0.000    0.000    0.000 
#    0.000    0.000    0.000    0.000    0.000    0.000 
#
# Total GULP energy -173554.624606 kJ/mol
# GULP energy per Si atom -12396.758900 kJ/mol
# Density = 2.282049 g / cm^3
# Si number density = 22.872552 Si / 1000 Ang^3
#
#
#
# Elastic Constant Matrix: (Units=GPa)
#
#
# Indices 1 2 3 4 5 6 
#
# 1 138.3434 40.4079 38.7469 -5.4806 -19.8285 4.0965
# 2 40.4079 99.0413 41.3270 17.7398 -0.0700 3.6101
# 3 38.7469 41.3270 110.4668 16.8185 -12.1986 -5.9788
# 4 -5.4806 17.7398 16.8185 44.5952 -1.8337 1.2436
# 5 -19.8285 -0.0700 -12.1986 -1.8337 40.3718 -1.5240
# 6 4.0965 3.6101 -5.9788 1.2436 -1.5240 24.8609
#
#
#
# Elastic Compliance Matrix: (Units=1/GPa)
#
#
# Indices 1 2 3 4 5 6 
#
# 1 0.009707 -0.003634 -0.002227 0.003694 0.004198 -0.001535
# 2 -0.003634 0.014067 -0.003751 -0.004695 -0.003194 -0.002307
# 3 -0.002227 -0.003751 0.012273 -0.003420 0.002611 0.004194
# 4 0.003694 -0.004695 -0.003420 0.026167 0.001888 -0.001943
# 5 0.004198 -0.003194 0.002611 0.001888 0.027777 0.002008
# 6 -0.001535 -0.002307 0.004194 -0.001943 0.002008 0.042041
#
#
# Mechanical properties :
#
#
# Convention : Reuss Voigt Hill
#
# Bulk Modulus (GPa) = 59.44101 65.42392 62.43247
# Shear Modulus (GPa) = 31.87491 37.12357 34.49924
#
# Velocity S-wave (km/s) = 3.73713 4.03309 3.88793
# Velocity P-wave (km/s) = 6.68325 7.09603 6.89273
#
# Compressibility (1/GPa) = 0.01682340
#
# Stress axis : x y z
#
# Youngs Moduli (GPa) = 103.01795 71.08717 81.47972
#
# Poissons Ratio (x) = 0.25831 0.18148
# Poissons Ratio (y) = 0.37434 0.30563
# Poissons Ratio (z) = 0.22945 0.26664
#
# Static dielectric constant tensor:
#      x y z
#    x 4.512010 0.235500 -0.125350 
#    y 0.235500 4.388880 0.038620 
#    z -0.125350 0.038620 4.084230 
# 
# 
# High freq. dielectric constant tensor:
#      x y z
#    x 1.903250 0.008770 -0.018860 
#    y 0.008770 1.904150 0.009620 
#    z -0.018860 0.009620 1.902520 
# 
# From -- ./inp_files/246522.got.cif
#   From: 2010.06.25/outbox.cif.g09.slc.cpg/sg2_124_cif.got.tgz:246522.got - 2010.06.27 13:26:56.
