data_PCOD8030185
_publ_section_title
;
Structure prediction by ZEFSAII (Michael W. Deem and Ramdas Pophale) SiO2 
 PCOD8030185
Probable space group: P -1
;
_chemical_formula_sum "Si O2"
_cell_formula_units_Z 14
_cell_length_a 7.796388
_cell_length_b 8.742115
_cell_length_c 17.225526
_cell_angle_alpha 100.754274
_cell_angle_beta 103.077290
_cell_angle_gamma 34.448083
_cell_volume 646.882801
_symmetry_space_group_name_H-M "P -1"
_symmetry_group_IT_number 2
_symmetry_cell_setting 'triclinic'
loop_
_space_group_symop_operation_xyz
x,y,z
-x,-y,-z
loop_
_atom_site_type_symbol
_atom_site_label
_atom_site_fract_x
_atom_site_fract_y
_atom_site_fract_z
Si Si1 0.434080 0.289442 0.822488
Si Si2 0.888325 0.210631 0.822496
Si Si3 0.221592 0.249994 0.943195
Si Si4 0.204790 0.229934 0.264178
Si Si5 0.440512 0.730026 0.735825
Si Si6 0.864418 0.532965 0.567221
Si Si7 0.797224 0.032945 0.432780
O O1 0.679141 0.250078 0.858454
O O2 0.373105 0.243253 0.890921
O O3 0.113933 0.590331 0.789373
O O4 0.567452 0.081296 0.748116
O O5 0.680676 0.418766 0.748131
O O6 0.017803 0.256722 0.890943
O O7 0.175303 0.909742 0.789364
O O8 0.000000 0.500000 0.000000
O O9 0.500000 0.000000 0.000000
O O10 0.367223 0.249866 0.234172
O O11 0.141449 0.328460 0.354974
O O12 0.286450 0.828462 0.645022
O O13 0.000000 0.500000 0.500000
O O14 0.044819 0.250015 0.589690
O O15 0.515190 0.750019 0.530400
O O16 0.000000 0.000000 0.500000
#
# Coordination Sequence:
#
# PCOD8030185 Si02
#       7
#     2   2   2   2   2   2   2
#     4  12  25  43  71 104 131 175 234 274 334 411
#     4  12  25  43  71 104 131 175 234 274 334 411
#     4  12  26  46  72 100 142 178 212 284 354 404
#     4  11  21  43  67  93 134 184 226 280 338 404
#     4  11  21  43  67  93 134 184 226 280 338 404
#     4  11  24  41  64  96 137 183 227 283 343 397
#     4  11  24  41  64  96 137 183 227 283 343 397
#
# _framework density 21.642251999999999
#
# number of rings (size 3 to 8) (size 9 to 14) (size 15 to 20)
#    0.000    0.571    2.857    6.857    0.000    4.571 
#    0.000    0.000    0.000    0.000    0.000    0.000 
#    0.000    0.000    0.000    0.000    0.000    0.000 
#
# Total GULP energy -173590.674430 kJ/mol
# GULP energy per Si atom -12399.333888 kJ/mol
# Density = 2.159299 g / cm^3
# Si number density = 21.642252 Si / 1000 Ang^3
#
#
#
# Elastic Constant Matrix: (Units=GPa)
#
#
# Indices 1 2 3 4 5 6 
#
# 1 168.3296 26.4865 67.5287 -0.8683 -2.5304 -24.4179
# 2 26.4865 122.9729 45.2831 0.9613 0.8012 -16.4488
# 3 67.5287 45.2831 130.2086 0.5320 -0.1304 -9.1539
# 4 -0.8683 0.9613 0.5320 31.3532 -10.1867 -0.2853
# 5 -2.5304 0.8012 -0.1304 -10.1867 23.5736 0.6158
# 6 -24.4179 -16.4488 -9.1539 -0.2853 0.6158 41.2259
#
#
#
# Elastic Compliance Matrix: (Units=1/GPa)
#
#
# Indices 1 2 3 4 5 6 
#
# 1 0.008111 0.000256 -0.004015 0.000652 0.001017 0.004004
# 2 0.000256 0.009736 -0.003285 -0.000393 -0.000578 0.003313
# 3 -0.004015 -0.003285 0.010815 -0.000325 -0.000366 -0.001284
# 4 0.000652 -0.000393 -0.000325 0.037176 0.016142 0.000173
# 5 0.001017 -0.000578 -0.000366 0.016142 0.049531 -0.000338
# 6 0.004004 0.003313 -0.001284 0.000173 -0.000338 0.027671
#
#
# Mechanical properties :
#
#
# Convention : Reuss Voigt Hill
#
# Bulk Modulus (GPa) = 68.61813 77.78976 73.20395
# Shear Modulus (GPa) = 30.86654 38.04474 34.45564
#
# Velocity S-wave (km/s) = 3.78063 4.19727 3.99438
# Velocity P-wave (km/s) = 7.12965 7.71433 7.42775
#
# Compressibility (1/GPa) = 0.01457341
#
# Stress axis : x y z
#
# Youngs Moduli (GPa) = 123.29202 102.70845 92.46017
#
# Poissons Ratio (x) = -0.02624 0.37127
# Poissons Ratio (y) = -0.03150 0.30370
# Poissons Ratio (z) = 0.49508 0.33736
#
# Static dielectric constant tensor:
#      x y z
#    x 4.013980 -0.013360 -0.009870 
#    y -0.013360 3.070770 -0.016210 
#    z -0.009870 -0.016210 3.750610 
# 
# 
# High freq. dielectric constant tensor:
#      x y z
#    x 1.856540 -0.019950 -0.001140 
#    y -0.019950 1.873750 0.001590 
#    z -0.001140 0.001590 1.838630 
# 
# From -- ./inp_files/556286.got.cif
#   From: 2010.06.25/outbox.cif.g09.slc.cpg/sg2_279_cif.got.tgz:556286.got - 2010.06.27 13:26:56.
