data_PCOD8030850
_publ_section_title
;
Structure prediction by ZEFSAII (Michael W. Deem and Ramdas Pophale) SiO2 
 PCOD8030850
Probable space group: P -1
;
_chemical_formula_sum "Si O2"
_cell_formula_units_Z 16
_cell_length_a 8.387851
_cell_length_b 17.687285
_cell_length_c 20.785652
_cell_angle_alpha 19.303202
_cell_angle_beta 43.737792
_cell_angle_gamma 43.125879
_cell_volume 689.063258
_symmetry_space_group_name_H-M "P -1"
_symmetry_group_IT_number 2
_symmetry_cell_setting 'triclinic'
loop_
_space_group_symop_operation_xyz
x,y,z
-x,-y,-z
loop_
_atom_site_type_symbol
_atom_site_label
_atom_site_fract_x
_atom_site_fract_y
_atom_site_fract_z
Si Si1 0.661724 0.135525 0.384078
Si Si2 0.759366 0.355494 0.054591
Si Si3 0.910856 0.251188 0.857061
Si Si4 0.775636 0.423957 0.435799
Si Si5 0.457450 0.340358 0.406501
Si Si6 0.849681 0.010066 0.190730
Si Si7 0.037981 0.713388 0.638145
Si Si8 0.365891 0.805441 0.221275
O O1 0.778918 0.288902 0.177425
O O2 0.497542 0.293090 0.357064
O O3 0.500000 0.000000 0.500000
O O4 0.868082 0.962586 0.502367
O O5 0.828395 0.126942 0.173380
O O6 0.500000 0.500000 0.000000
O O7 0.948540 0.511489 0.863357
O O8 0.709519 0.400719 0.749294
O O9 0.118067 0.396846 0.692736
O O10 0.790825 0.210120 0.993186
O O11 0.000000 0.000000 0.000000
O O12 0.971238 0.315658 0.413369
O O13 0.545762 0.559007 0.353698
O O14 0.696752 0.215861 0.666718
O O15 0.329213 0.160055 0.624389
O O16 0.698550 0.309120 0.398438
O O17 0.111156 0.857120 0.220548
O O18 0.500000 0.000000 0.000000
#
# Coordination Sequence:
#
# PCOD8030850 Si02
#       8
#     2   2   2   2   2   2   2   2
#     4  12  23  44  79 105 141 190 236 283 362 429
#     4  12  23  41  76 107 137 187 236 290 352 428
#     4  12  27  45  71 101 140 192 243 290 355 426
#     4  11  24  44  70 101 139 185 242 289 355 421
#     4  12  28  47  68 109 150 183 237 300 353 425
#     4  12  24  44  72 100 144 187 238 289 365 419
#     4  12  26  45  73 107 146 183 234 297 356 419
#     4  11  22  40  73  99 132 182 242 294 341 417
#
# _framework density 23.219926999999998
#
# number of rings (size 3 to 8) (size 9 to 14) (size 15 to 20)
#    0.000    0.250    6.250    2.625    1.750    5.000 
#    0.000    0.000    0.000    0.000    0.000    0.000 
#    0.000    0.000    0.000    0.000    0.000    0.000 
#
# Total GULP energy -198333.747288 kJ/mol
# GULP energy per Si atom -12395.859206 kJ/mol
# Density = 2.316708 g / cm^3
# Si number density = 23.219927 Si / 1000 Ang^3
#
#
#
# Elastic Constant Matrix: (Units=GPa)
#
#
# Indices 1 2 3 4 5 6 
#
# 1 101.1644 25.0992 46.1135 -2.8552 -6.2405 -36.1121
# 2 25.0992 90.5718 39.7343 4.0055 -11.1512 -9.9842
# 3 46.1135 39.7343 177.6796 34.6746 2.2031 -13.6147
# 4 -2.8552 4.0055 34.6746 52.6944 -5.9616 7.5209
# 5 -6.2405 -11.1512 2.2031 -5.9616 36.4133 3.2457
# 6 -36.1121 -9.9842 -13.6147 7.5209 3.2457 47.8465
#
#
#
# Elastic Compliance Matrix: (Units=1/GPa)
#
#
# Indices 1 2 3 4 5 6 
#
# 1 0.015531 -0.001618 -0.003294 0.001903 0.001783 0.010027
# 2 -0.001618 0.013196 -0.002789 0.001169 0.004099 0.000277
# 3 -0.003294 -0.002789 0.008310 -0.005823 -0.002911 0.000409
# 4 0.001903 0.001169 -0.005823 0.024014 0.005334 -0.004114
# 5 0.001783 0.004099 -0.002911 0.005334 0.030208 -0.001515
# 6 0.010027 0.000277 0.000409 -0.004114 -0.001515 0.029392
#
#
# Mechanical properties :
#
#
# Convention : Reuss Voigt Hill
#
# Bulk Modulus (GPa) = 46.21943 65.70110 55.96027
# Shear Modulus (GPa) = 34.90039 44.62208 39.76123
#
# Velocity S-wave (km/s) = 3.88111 4.38849 4.14258
# Velocity P-wave (km/s) = 6.32711 7.35085 6.85811
#
# Compressibility (1/GPa) = 0.02163592
#
# Stress axis : x y z
#
# Youngs Moduli (GPa) = 64.38822 75.77823 120.33016
#
# Poissons Ratio (x) = 0.12261 0.39637
# Poissons Ratio (y) = 0.10418 0.33558
# Poissons Ratio (z) = 0.21209 0.21133
#
# Static dielectric constant tensor:
#      x y z
#    x 3.993890 -0.148120 0.265430 
#    y -0.148120 8.763460 4.478650 
#    z 0.265430 4.478650 8.615290 
# 
# 
# High freq. dielectric constant tensor:
#      x y z
#    x 1.902380 -0.016690 0.020700 
#    y -0.016690 1.933550 0.014340 
#    z 0.020700 0.014340 1.931730 
# 
# From -- ./inp_files/591165.got.cif
#   From: 2010.06.25/outbox.cif.g09.slc.cpg/sg2_296_cif.got.tgz:591165.got - 2010.06.27 13:26:56.
