data_PCOD8030582
_publ_section_title
;
Structure prediction by ZEFSAII (Michael W. Deem and Ramdas Pophale) SiO2 
 PCOD8030582
Probable space group: P -1
;
_chemical_formula_sum "Si O2"
_cell_formula_units_Z 14
_cell_length_a 9.373562
_cell_length_b 11.964664
_cell_length_c 9.854914
_cell_angle_alpha 118.508353
_cell_angle_beta 135.912303
_cell_angle_gamma 82.864186
_cell_volume 631.072285
_symmetry_space_group_name_H-M "P -1"
_symmetry_group_IT_number 2
_symmetry_cell_setting 'triclinic'
loop_
_space_group_symop_operation_xyz
x,y,z
-x,-y,-z
loop_
_atom_site_type_symbol
_atom_site_label
_atom_site_fract_x
_atom_site_fract_y
_atom_site_fract_z
Si Si1 0.809110 0.443572 0.648790
Si Si2 0.721429 0.531472 0.924472
Si Si3 0.362889 0.265039 0.603265
Si Si4 0.010864 0.371518 0.354738
Si Si5 0.423880 0.229931 0.114241
Si Si6 0.247493 0.080149 0.165704
Si Si7 0.553125 0.143762 0.885845
O O1 0.696854 0.476407 0.723003
O O2 0.850079 0.574298 0.655811
O O3 0.653757 0.305625 0.391721
O O4 0.034254 0.421884 0.824093
O O5 0.560419 0.410474 0.835799
O O6 0.651939 0.662533 0.957315
O O7 0.133018 0.289488 0.477421
O O8 0.371986 0.196265 0.425165
O O9 0.376458 0.163860 0.672743
O O10 0.000000 0.500000 0.500000
O O11 0.770358 0.275234 0.096455
O O12 0.242374 0.145803 0.051791
O O13 0.459406 0.128482 0.966342
O O14 0.394789 0.987359 0.198655
O O15 0.000000 0.000000 0.000000
#
# Coordination Sequence:
#
# PCOD8030582 Si02
#       7
#     2   2   2   2   2   2   2
#     4  11  22  38  66 106 136 173 222 276 342 411
#     4  11  23  39  71 106 133 175 225 284 344 408
#     4  12  24  44  72  99 138 181 230 279 340 408
#     4  12  23  39  69 101 141 173 218 281 351 404
#     4  12  25  45  71 100 142 174 227 288 347 391
#     4  12  27  50  72  92 135 195 237 275 331 410
#     4  12  27  44  69 103 141 181 228 281 340 406
#
# _framework density 22.184463000000001
#
# number of rings (size 3 to 8) (size 9 to 14) (size 15 to 20)
#    0.000    0.286    7.143    2.143    2.000    1.143 
#    2.571    0.714    0.000    0.000    0.000    0.000 
#    0.000    0.000    0.000    0.000    0.000    0.000 
#
# Total GULP energy -173672.727453 kJ/mol
# GULP energy per Si atom -12405.194818 kJ/mol
# Density = 2.213397 g / cm^3
# Si number density = 22.184463 Si / 1000 Ang^3
#
#
#
# Elastic Constant Matrix: (Units=GPa)
#
#
# Indices 1 2 3 4 5 6 
#
# 1 100.2141 32.9738 29.0937 -1.2173 -10.4226 -1.2122
# 2 32.9738 114.7165 30.1965 -3.9365 -6.3789 -18.6642
# 3 29.0937 30.1965 52.3563 -5.8091 0.2518 -14.7461
# 4 -1.2173 -3.9365 -5.8091 34.3814 -2.4122 0.5884
# 5 -10.4226 -6.3789 0.2518 -2.4122 31.7458 6.4383
# 6 -1.2122 -18.6642 -14.7461 0.5884 6.4383 52.6220
#
#
#
# Elastic Compliance Matrix: (Units=1/GPa)
#
#
# Indices 1 2 3 4 5 6 
#
# 1 0.013147 -0.002201 -0.006961 -0.000597 0.004486 -0.002971
# 2 -0.002201 0.010977 -0.004360 0.000473 0.001049 0.002487
# 3 -0.006961 -0.004360 0.027745 0.003518 -0.004447 0.006573
# 4 -0.000597 0.000473 0.003518 0.029845 0.002026 0.000558
# 5 0.004486 0.001049 -0.004447 0.002026 0.034387 -0.005001
# 6 -0.002971 0.002487 0.006573 0.000558 -0.005001 0.022265
#
#
# Mechanical properties :
#
#
# Convention : Reuss Voigt Hill
#
# Bulk Modulus (GPa) = 40.28010 50.20164 45.24087
# Shear Modulus (GPa) = 28.78776 35.41804 32.10290
#
# Velocity S-wave (km/s) = 3.60620 3.99999 3.80819
# Velocity P-wave (km/s) = 5.96120 6.63412 6.30664
#
# Compressibility (1/GPa) = 0.02482616
#
# Stress axis : x y z
#
# Youngs Moduli (GPa) = 76.06253 91.10264 36.04209
#
# Poissons Ratio (x) = 0.20052 0.25088
# Poissons Ratio (y) = 0.16742 0.15713
# Poissons Ratio (z) = 0.52945 0.39718
#
# Static dielectric constant tensor:
#      x y z
#    x 4.101860 -0.065980 -0.152480 
#    y -0.065980 3.538130 -0.215490 
#    z -0.152480 -0.215490 3.914720 
# 
# 
# High freq. dielectric constant tensor:
#      x y z
#    x 1.879190 -0.006280 -0.006960 
#    y -0.006280 1.876220 -0.007330 
#    z -0.006960 -0.007330 1.871410 
# 
# From -- ./inp_files/190520.got.cif
#   From: 2010.06.25/outbox.cif.g09.slc.cpg/sg2_96_cif.got.tgz:190520.got - 2010.06.27 13:26:56.
