data_PCOD8030498
_publ_section_title
;
Structure prediction by ZEFSAII (Michael W. Deem and Ramdas Pophale) SiO2 
 PCOD8030498
Probable space group: P -1
;
_chemical_formula_sum "Si O2"
_cell_formula_units_Z 14
_cell_length_a 19.059189
_cell_length_b 9.590421
_cell_length_c 7.623610
_cell_angle_alpha 117.146541
_cell_angle_beta 94.550845
_cell_angle_gamma 41.973133
_cell_volume 746.033430
_symmetry_space_group_name_H-M "P -1"
_symmetry_group_IT_number 2
_symmetry_cell_setting 'triclinic'
loop_
_space_group_symop_operation_xyz
x,y,z
-x,-y,-z
loop_
_atom_site_type_symbol
_atom_site_label
_atom_site_fract_x
_atom_site_fract_y
_atom_site_fract_z
Si Si1 0.258306 0.176710 0.546695
Si Si2 0.124068 0.404336 0.323361
Si Si3 0.321754 0.527537 0.128201
Si Si4 0.525817 0.632731 0.622308
Si Si5 0.134222 0.107003 0.388008
Si Si6 0.482193 0.213865 0.646340
Si Si7 0.285616 0.235024 0.960090
O O1 0.189499 0.376778 0.483063
O O2 0.208002 0.090946 0.522461
O O3 0.240941 0.311238 0.794177
O O4 0.394132 0.920475 0.376427
O O5 0.121489 0.221122 0.262771
O O6 0.993216 0.701850 0.448151
O O7 0.191321 0.314729 0.105830
O O8 0.379995 0.518599 0.293257
O O9 0.200338 0.825032 0.221447
O O10 0.403754 0.389864 0.897335
O O11 0.298464 0.392330 0.109607
O O12 0.500000 0.500000 0.500000
O O13 0.577696 0.615376 0.444503
O O14 0.408499 0.929878 0.829054
O O15 0.500000 0.000000 0.500000
#
# Coordination Sequence:
#
# PCOD8030498 Si02
#       7
#     2   2   2   2   2   2   2
#     4   9  19  39  60  84 117 150 195 241 285 351
#     4   9  21  42  62  79 116 157 201 244 289 334
#     4  12  23  38  60  90 122 155 193 241 299 348
#     4  11  25  38  57  94 121 156 197 234 293 363
#     4   9  22  42  60  83 115 156 203 242 289 343
#     4  11  22  38  61  89 125 152 187 240 301 353
#     4  11  22  36  62  86 117 155 194 237 300 346
#
# _framework density 18.765913999999999
#
# number of rings (size 3 to 8) (size 9 to 14) (size 15 to 20)
#    0.857    0.857    2.857    3.000    4.000    2.286 
#    0.000    0.714    0.000    0.000    0.000    0.000 
#    0.000    0.000    0.000    0.000    0.000    0.000 
#
# Total GULP energy -173544.779235 kJ/mol
# GULP energy per Si atom -12396.055660 kJ/mol
# Density = 1.872320 g / cm^3
# Si number density = 18.765914 Si / 1000 Ang^3
#
#
#
# Elastic Constant Matrix: (Units=GPa)
#
#
# Indices 1 2 3 4 5 6 
#
# 1 56.2046 26.9660 37.0160 11.3913 -3.5649 10.5637
# 2 26.9660 92.4838 49.8413 14.9758 -2.4360 2.7684
# 3 37.0160 49.8413 65.1312 2.7115 -4.2120 3.1832
# 4 11.3913 14.9758 2.7115 32.8622 6.1063 -1.1014
# 5 -3.5649 -2.4360 -4.2120 6.1063 38.5517 3.0691
# 6 10.5637 2.7684 3.1832 -1.1014 3.0691 33.8418
#
#
#
# Elastic Compliance Matrix: (Units=1/GPa)
#
#
# Indices 1 2 3 4 5 6 
#
# 1 0.034917 0.004018 -0.021621 -0.013231 0.004011 -0.009989
# 2 0.004018 0.020806 -0.017621 -0.009747 0.001444 -0.001747
# 3 -0.021621 -0.017621 0.040292 0.012568 -0.001092 0.004909
# 4 -0.013231 -0.009747 0.012568 0.039960 -0.007250 0.005703
# 5 0.004011 0.001444 -0.001092 -0.007250 0.027750 -0.004020
# 6 -0.009989 -0.001747 0.004909 0.005703 -0.004020 0.032899
#
#
# Mechanical properties :
#
#
# Convention : Reuss Voigt Hill
#
# Bulk Modulus (GPa) = 39.11141 49.05180 44.08160
# Shear Modulus (GPa) = 18.14270 27.71756 22.93013
#
# Velocity S-wave (km/s) = 3.11270 3.84737 3.49937
# Velocity P-wave (km/s) = 5.81425 6.77730 6.31416
#
# Compressibility (1/GPa) = 0.02556799
#
# Stress axis : x y z
#
# Youngs Moduli (GPa) = 28.63930 48.06316 24.81900
#
# Poissons Ratio (x) = -0.19312 0.53661
# Poissons Ratio (y) = -0.11507 0.43733
# Poissons Ratio (z) = 0.61920 0.84690
#
# Static dielectric constant tensor:
#      x y z
#    x 3.453560 -0.018290 -0.078640 
#    y -0.018290 3.434340 -0.070450 
#    z -0.078640 -0.070450 3.397970 
# 
# 
# High freq. dielectric constant tensor:
#      x y z
#    x 1.727630 -0.001210 -0.006350 
#    y -0.001210 1.725870 -0.005300 
#    z -0.006350 -0.005300 1.716640 
# 
# From -- ./inp_files/194257.got.cif
#   From: 2010.06.25/outbox.cif.g09.slc.cpg/sg2_98_cif.got.tgz:194257.got - 2010.06.27 13:26:56.
