data_PCOD8030385
_publ_section_title
;
Structure prediction by ZEFSAII (Michael W. Deem and Ramdas Pophale) SiO2 
 PCOD8030385
Probable space group: P -1
;
_chemical_formula_sum "Si O2"
_cell_formula_units_Z 16
_cell_length_a 27.516479
_cell_length_b 10.110072
_cell_length_c 22.703322
_cell_angle_alpha 26.026776
_cell_angle_beta 16.901068
_cell_angle_gamma 27.228406
_cell_volume 783.984410
_symmetry_space_group_name_H-M "P -1"
_symmetry_group_IT_number 2
_symmetry_cell_setting 'triclinic'
loop_
_space_group_symop_operation_xyz
x,y,z
-x,-y,-z
loop_
_atom_site_type_symbol
_atom_site_label
_atom_site_fract_x
_atom_site_fract_y
_atom_site_fract_z
Si Si1 0.759460 0.438421 0.437236
Si Si2 0.655404 0.368638 0.328655
Si Si3 0.262081 0.350609 0.494809
Si Si4 0.130908 0.278638 0.393542
Si Si5 0.492439 0.815512 0.021009
Si Si6 0.938667 0.396370 0.776848
Si Si7 0.999518 0.697847 0.978321
Si Si8 0.616498 0.591766 0.151839
O O1 0.798210 0.577398 0.398202
O O2 0.557109 0.483513 0.642507
O O3 0.864950 0.080462 0.454465
O O4 0.829344 0.657443 0.224246
O O5 0.500000 0.500000 0.500000
O O6 0.831242 0.424678 0.129413
O O7 0.629132 0.537134 0.228663
O O8 0.659171 0.010554 0.459519
O O9 0.096665 0.472956 0.597779
O O10 0.407902 0.528773 0.239630
O O11 0.320134 0.331469 0.163699
O O12 0.092233 0.354839 0.339207
O O13 0.000000 0.500000 0.500000
O O14 0.388802 0.048742 0.999051
O O15 0.500000 0.000000 0.000000
O O16 0.779330 0.398642 0.004462
O O17 0.986899 0.051154 0.832493
O O18 0.000000 0.500000 0.000000
#
# Coordination Sequence:
#
# PCOD8030385 Si02
#       8
#     2   2   2   2   2   2   2   2
#     4  11  22  39  63  93 124 169 212 261 323 380
#     4  11  26  43  61  96 131 168 217 272 324 382
#     4  11  23  41  66  92 130 165 214 273 315 384
#     4  11  23  40  64  95 130 165 217 267 320 382
#     4  11  21  45  64  95 129 165 216 264 315 389
#     4  11  23  40  63  95 124 165 219 262 323 381
#     4  11  24  41  60  88 128 167 211 266 321 384
#     4  11  22  41  68  93 127 168 218 263 320 387
#
# _framework density 20.408569
#
# number of rings (size 3 to 8) (size 9 to 14) (size 15 to 20)
#    0.000    1.000    3.750    3.000    0.000   14.000 
#    0.000    1.250    0.000    0.000    0.000    0.000 
#    0.000    0.000    0.000    0.000    0.000    0.000 
#
# Total GULP energy -198392.317008 kJ/mol
# GULP energy per Si atom -12399.519813 kJ/mol
# Density = 2.036212 g / cm^3
# Si number density = 20.408569 Si / 1000 Ang^3
#
#
#
# Elastic Constant Matrix: (Units=GPa)
#
#
# Indices 1 2 3 4 5 6 
#
# 1 116.9834 49.6346 28.7450 -9.8973 2.5889 -1.0130
# 2 49.6346 101.1312 42.1139 9.6704 -9.3540 7.1183
# 3 28.7450 42.1139 102.2180 -8.4389 3.8484 12.0675
# 4 -9.8973 9.6704 -8.4389 35.9530 7.2923 6.7384
# 5 2.5889 -9.3540 3.8484 7.2923 31.6371 -2.1221
# 6 -1.0130 7.1183 12.0675 6.7384 -2.1221 39.9527
#
#
#
# Elastic Compliance Matrix: (Units=1/GPa)
#
#
# Indices 1 2 3 4 5 6 
#
# 1 0.012110 -0.007011 0.000126 0.006109 -0.004471 0.000250
# 2 -0.007011 0.017887 -0.006698 -0.010329 0.009117 0.000885
# 3 0.000126 -0.006698 0.013828 0.007055 -0.005599 -0.004467
# 4 0.006109 -0.010329 0.007055 0.038069 -0.013675 -0.007283
# 5 -0.004471 0.009117 -0.005599 -0.013675 0.038793 0.004320
# 6 0.000250 0.000885 -0.004467 -0.007283 0.004320 0.027685
#
#
# Mechanical properties :
#
#
# Convention : Reuss Voigt Hill
#
# Bulk Modulus (GPa) = 60.02990 62.36885 61.19938
# Shear Modulus (GPa) = 27.61033 34.83119 31.22076
#
# Velocity S-wave (km/s) = 3.68214 4.13570 3.91549
# Velocity P-wave (km/s) = 6.89605 7.30971 7.10589
#
# Compressibility (1/GPa) = 0.01665836
#
# Stress axis : x y z
#
# Youngs Moduli (GPa) = 82.57630 55.90537 72.31811
#
# Poissons Ratio (x) = 0.39198 -0.00914
# Poissons Ratio (y) = 0.57898 0.48441
# Poissons Ratio (z) = -0.01044 0.37447
#
# Static dielectric constant tensor:
#      x y z
#    x 3.915750 -0.145990 0.054340 
#    y -0.145990 4.067270 0.019590 
#    z 0.054340 0.019590 3.860890 
# 
# 
# High freq. dielectric constant tensor:
#      x y z
#    x 1.801840 -0.010080 0.004840 
#    y -0.010080 1.804420 0.002530 
#    z 0.004840 0.002530 1.811210 
# 
# From -- ./inp_files/209184.got.cif
#   From: 2010.06.25/outbox.cif.g09.slc.cpg/sg2_105_cif.got.tgz:209184.got - 2010.06.27 13:26:56.
