data_PCOD8030147
_publ_section_title
;
Structure prediction by ZEFSAII (Michael W. Deem and Ramdas Pophale) SiO2 
 PCOD8030147
Probable space group: P -1
;
_chemical_formula_sum "Si O2"
_cell_formula_units_Z 14
_cell_length_a 12.272908
_cell_length_b 5.463848
_cell_length_c 11.484435
_cell_angle_alpha 96.705922
_cell_angle_beta 98.812326
_cell_angle_gamma 127.864625
_cell_volume 578.451032
_symmetry_space_group_name_H-M "P -1"
_symmetry_group_IT_number 2
_symmetry_cell_setting 'triclinic'
loop_
_space_group_symop_operation_xyz
x,y,z
-x,-y,-z
loop_
_atom_site_type_symbol
_atom_site_label
_atom_site_fract_x
_atom_site_fract_y
_atom_site_fract_z
Si Si1 0.728094 0.319433 0.102889
Si Si2 0.494163 0.541818 0.364215
Si Si3 0.766822 0.522748 0.693529
Si Si4 0.709441 0.091378 0.855008
Si Si5 0.271515 0.150134 0.762058
Si Si6 0.984882 0.743228 0.566660
Si Si7 0.039581 0.874418 0.102357
O O1 0.678603 0.517516 0.153710
O O2 0.898359 0.555619 0.118399
O O3 0.690323 0.036165 0.165955
O O4 0.642774 0.150387 0.956411
O O5 0.500000 0.500000 0.500000
O O6 0.403451 0.663745 0.348025
O O7 0.652072 0.787555 0.347630
O O8 0.413837 0.226759 0.253044
O O9 0.795763 0.380264 0.794533
O O10 0.822387 0.502573 0.577826
O O11 0.868968 0.900347 0.758870
O O12 0.842796 0.136426 0.938635
O O13 0.101591 0.931512 0.699586
O O14 0.000000 0.500000 0.500000
O O15 0.000000 0.000000 0.500000
O O16 0.000000 0.000000 0.000000
#
# Coordination Sequence:
#
# PCOD8030147 Si02
#       7
#     2   2   2   2   2   2   2
#     4  12  25  46  75 112 156 186 248 309 380 451
#     4  11  29  52  72 103 149 204 259 305 368 453
#     4  11  25  45  75 106 145 194 252 301 376 443
#     4  11  26  43  76 109 146 202 246 305 376 451
#     4  12  28  48  76 110 151 200 242 316 381 434
#     4  12  27  47  74 108 148 192 254 315 369 434
#     4  11  21  42  72 113 150 187 238 304 372 447
#
# _framework density 24.202563999999999
#
# number of rings (size 3 to 8) (size 9 to 14) (size 15 to 20)
#    0.000    0.571    2.857    3.857   10.000    1.714 
#    0.000    0.000    0.000    0.000    0.000    0.000 
#    0.000    0.000    0.000    0.000    0.000    0.000 
#
# Total GULP energy -173474.697097 kJ/mol
# GULP energy per Si atom -12391.049793 kJ/mol
# Density = 2.414748 g / cm^3
# Si number density = 24.202564 Si / 1000 Ang^3
#
#
#
# Elastic Constant Matrix: (Units=GPa)
#
#
# Indices 1 2 3 4 5 6 
#
# 1 120.6728 43.4532 40.4599 -5.8176 -17.9406 -17.4755
# 2 43.4532 85.1087 35.2660 -25.4275 -5.7231 -21.3052
# 3 40.4599 35.2660 100.0722 -23.4521 -4.1141 -12.6427
# 4 -5.8176 -25.4275 -23.4521 41.3409 4.5036 3.9081
# 5 -17.9406 -5.7231 -4.1141 4.5036 42.8533 -4.3897
# 6 -17.4755 -21.3052 -12.6427 3.9081 -4.3897 48.3398
#
#
#
# Elastic Compliance Matrix: (Units=1/GPa)
#
#
# Indices 1 2 3 4 5 6 
#
# 1 0.012135 -0.005147 -0.003644 -0.004219 0.004684 0.001932
# 2 -0.005147 0.019348 -0.001798 0.009669 -0.000207 0.005396
# 3 -0.003644 -0.001798 0.013603 0.006127 -0.001016 0.000860
# 4 -0.004219 0.009669 0.006127 0.033243 -0.003241 0.001357
# 5 0.004684 -0.000207 -0.001016 -0.003241 0.025917 0.003952
# 6 0.001932 0.005396 0.000860 0.001357 0.003952 0.024237
#
#
# Mechanical properties :
#
#
# Convention : Reuss Voigt Hill
#
# Bulk Modulus (GPa) = 41.83057 60.46800 51.14928
# Shear Modulus (GPa) = 31.71941 38.95176 35.33558
#
# Velocity S-wave (km/s) = 3.62412 4.01609 3.82513
# Velocity P-wave (km/s) = 5.90198 6.82229 6.37876
#
# Compressibility (1/GPa) = 0.02390596
#
# Stress axis : x y z
#
# Youngs Moduli (GPa) = 82.40566 51.68401 73.51469
#
# Poissons Ratio (x) = 0.26604 0.26791
# Poissons Ratio (y) = 0.42418 0.13220
# Poissons Ratio (z) = 0.30031 0.09294
#
# Static dielectric constant tensor:
#      x y z
#    x -9.352930 -13.956030 7.853880 
#    y -13.956030 -9.376690 8.174870 
#    z 7.853880 8.174870 -0.318630 
# 
# 
# High freq. dielectric constant tensor:
#      x y z
#    x 1.974030 -0.002380 -0.011900 
#    y -0.002380 1.958770 0.002260 
#    z -0.011900 0.002260 1.968180 
# 
# From -- ./inp_files/101308.got.cif
#   From: 2010.06.25/outbox.cif.g09.slc.cpg/sg2_51_cif.got.tgz:101308.got - 2010.06.27 13:26:56.
