data_PCOD8030261
_publ_section_title
;
Structure prediction by ZEFSAII (Michael W. Deem and Ramdas Pophale) SiO2 
 PCOD8030261
Probable space group: P -1
;
_chemical_formula_sum "Si O2"
_cell_formula_units_Z 16
_cell_length_a 10.838101
_cell_length_b 9.922711
_cell_length_c 20.939472
_cell_angle_alpha 40.722811
_cell_angle_beta 138.978085
_cell_angle_gamma 106.903501
_cell_volume 727.547555
_symmetry_space_group_name_H-M "P -1"
_symmetry_group_IT_number 2
_symmetry_cell_setting 'triclinic'
loop_
_space_group_symop_operation_xyz
x,y,z
-x,-y,-z
loop_
_atom_site_type_symbol
_atom_site_label
_atom_site_fract_x
_atom_site_fract_y
_atom_site_fract_z
Si Si1 0.756489 0.306943 0.297518
Si Si2 0.378572 0.972904 0.131830
Si Si3 0.353261 0.809274 0.817451
Si Si4 0.026136 0.451145 0.276934
Si Si5 0.476738 0.533182 0.235642
Si Si6 0.981639 0.754936 0.894575
Si Si7 0.487102 0.750434 0.394978
Si Si8 0.111388 0.049577 0.354554
O O1 0.595514 0.246031 0.219410
O O2 0.806098 0.484508 0.214904
O O3 0.645265 0.450366 0.269408
O O4 0.000000 0.000000 0.500000
O O5 0.475958 0.741011 0.201590
O O6 0.398025 0.859449 0.249501
O O7 0.554782 0.045110 0.169787
O O8 0.096145 0.249412 0.906403
O O9 0.069327 0.983525 0.668280
O O10 0.500000 0.500000 0.000000
O O11 0.243227 0.346303 0.449681
O O12 0.133300 0.245420 0.332797
O O13 0.610408 0.253652 0.429164
O O14 0.196813 0.690664 0.047093
O O15 0.000924 0.821313 0.805441
O O16 0.711470 0.015552 0.718286
O O17 0.000000 0.500000 0.000000
O O18 0.500000 0.500000 0.500000
#
# Coordination Sequence:
#
# PCOD8030261 Si02
#       8
#     2   2   2   2   2   2   2   2
#     4  11  21  43  73 102 141 181 234 290 357 430
#     4  12  27  45  74 109 144 190 237 301 359 422
#     4  11  21  43  73 102 140 182 235 289 356 431
#     4  11  24  45  75 103 137 197 238 291 359 426
#     4  12  27  45  70 112 144 182 240 301 359 416
#     4  12  28  45  73 104 143 192 245 298 337 432
#     4  12  28  49  69 100 151 195 238 287 361 430
#     4  11  24  45  71 106 140 185 240 295 355 424
#
# _framework density 21.991692
#
# number of rings (size 3 to 8) (size 9 to 14) (size 15 to 20)
#    0.000    0.500    5.000    4.500    1.750    7.000 
#    2.250    0.000    0.000    0.000    0.000    0.000 
#    0.000    0.000    0.000    0.000    0.000    0.000 
#
# Total GULP energy -198211.795722 kJ/mol
# GULP energy per Si atom -12388.237233 kJ/mol
# Density = 2.194164 g / cm^3
# Si number density = 21.991692 Si / 1000 Ang^3
#
#
#
# Elastic Constant Matrix: (Units=GPa)
#
#
# Indices 1 2 3 4 5 6 
#
# 1 83.5862 49.6871 32.8480 -2.3610 -8.8329 -8.7390
# 2 49.6871 156.2684 52.7645 -17.4648 -2.5915 -16.7907
# 3 32.8480 52.7645 142.2389 -10.4034 -10.7474 -6.6132
# 4 -2.3610 -17.4648 -10.4034 44.7068 -1.0750 2.7833
# 5 -8.8329 -2.5915 -10.7474 -1.0750 36.7801 0.4651
# 6 -8.7390 -16.7907 -6.6132 2.7833 0.4651 31.7854
#
#
#
# Elastic Compliance Matrix: (Units=1/GPa)
#
#
# Indices 1 2 3 4 5 6 
#
# 1 0.015674 -0.004277 -0.001831 -0.001309 0.002867 0.001742
# 2 -0.004277 0.009070 -0.002121 0.002616 -0.000969 0.002959
# 3 -0.001831 -0.002121 0.008465 0.001090 0.001916 0.000014
# 4 -0.001309 0.002616 0.001090 0.023648 0.000890 -0.000835
# 5 0.002867 -0.000969 0.001916 0.000890 0.028393 0.000182
# 6 0.001742 0.002959 0.000014 -0.000835 0.000182 0.033576
#
#
# Mechanical properties :
#
#
# Convention : Reuss Voigt Hill
#
# Bulk Modulus (GPa) = 59.69990 72.52139 66.11065
# Shear Modulus (GPa) = 35.49449 39.10739 37.30094
#
# Velocity S-wave (km/s) = 4.02181 4.22154 4.12289
# Velocity P-wave (km/s) = 6.98371 7.53725 7.26575
#
# Compressibility (1/GPa) = 0.01675045
#
# Stress axis : x y z
#
# Youngs Moduli (GPa) = 63.80058 110.25930 118.13017
#
# Poissons Ratio (x) = 0.47157 0.21632
# Poissons Ratio (y) = 0.27287 0.25055
# Poissons Ratio (z) = 0.11683 0.23386
#
# Static dielectric constant tensor:
#      x y z
#    x 3.567880 -0.138180 -0.149560 
#    y -0.138180 3.865910 0.031410 
#    z -0.149560 0.031410 4.414710 
# 
# 
# High freq. dielectric constant tensor:
#      x y z
#    x 1.850290 -0.007450 -0.009180 
#    y -0.007450 1.872200 0.008950 
#    z -0.009180 0.008950 1.897970 
# 
# From -- ./inp_files/593972.got.cif
#   From: 2010.06.25/outbox.cif.g09.slc.cpg/sg2_297_cif.got.tgz:593972.got - 2010.06.27 13:26:56.
