data_PCOD8030930
_publ_section_title
;
Structure prediction by ZEFSAII (Michael W. Deem and Ramdas Pophale) SiO2 
 PCOD8030930
Probable space group: P -1
;
_chemical_formula_sum "Si O2"
_cell_formula_units_Z 16
_cell_length_a 11.644245
_cell_length_b 8.757396
_cell_length_c 14.695624
_cell_angle_alpha 107.198349
_cell_angle_beta 29.090015
_cell_angle_gamma 114.990487
_cell_volume 651.114834
_symmetry_space_group_name_H-M "P -1"
_symmetry_group_IT_number 2
_symmetry_cell_setting 'triclinic'
loop_
_space_group_symop_operation_xyz
x,y,z
-x,-y,-z
loop_
_atom_site_type_symbol
_atom_site_label
_atom_site_fract_x
_atom_site_fract_y
_atom_site_fract_z
Si Si1 0.854856 0.324350 0.398726
Si Si2 0.368041 0.596927 0.871414
Si Si3 0.161211 0.851200 0.168214
Si Si4 0.332826 0.502564 0.202296
Si Si5 0.355755 0.405155 0.494799
Si Si6 0.027320 0.236243 0.083399
Si Si7 0.451354 0.879405 0.150518
Si Si8 0.592639 0.960254 0.251027
O O1 0.772757 0.474629 0.442539
O O2 0.021225 0.269590 0.200612
O O3 0.617302 0.158270 0.557319
O O4 0.035557 0.400067 0.373493
O O5 0.590735 0.572389 0.773224
O O6 0.467966 0.646247 0.708148
O O7 0.288001 0.738493 0.003045
O O8 0.133707 0.419249 0.992154
O O9 0.227502 0.862808 0.231963
O O10 0.859668 0.772115 0.354103
O O11 0.281174 0.042600 0.076883
O O12 0.396667 0.702100 0.209264
O O13 0.500000 0.500000 0.000000
O O14 0.500000 0.500000 0.500000
O O15 0.742303 0.140575 0.227372
O O16 0.203092 0.126950 0.927966
O O17 0.471588 0.999257 0.246831
#
# Coordination Sequence:
#
# PCOD8030930 Si02
#       8
#     2   2   2   2   2   2   2   2
#     4  12  23  44  70 104 134 175 233 291 335 403
#     4  12  24  46  74 102 131 184 231 279 344 403
#     4  11  26  46  67  96 146 173 228 279 338 413
#     4  12  20  42  78 103 130 178 232 284 341 398
#     4  12  27  43  68  99 135 184 231 273 336 417
#     4  11  22  41  67  99 139 169 228 278 342 405
#     4  11  22  43  68  97 136 184 216 279 346 394
#     4  11  25  39  68 103 135 179 224 288 339 398
#
# _framework density 24.573236999999999
#
# number of rings (size 3 to 8) (size 9 to 14) (size 15 to 20)
#    0.000    0.500    7.500    0.375    3.500    2.500 
#    0.000    5.000    0.000    0.000    0.000    0.000 
#    0.000    0.000    0.000    0.000    0.000    0.000 
#
# Total GULP energy -198358.117563 kJ/mol
# GULP energy per Si atom -12397.382348 kJ/mol
# Density = 2.451731 g / cm^3
# Si number density = 24.573237 Si / 1000 Ang^3
#
#
#
# Elastic Constant Matrix: (Units=GPa)
#
#
# Indices 1 2 3 4 5 6 
#
# 1 109.5387 26.1196 33.8461 -7.0366 2.1006 39.2958
# 2 26.1196 64.7283 32.1294 -19.4609 -10.8105 23.9926
# 3 33.8461 32.1294 117.0306 -28.3905 -0.4824 16.6813
# 4 -7.0366 -19.4609 -28.3905 35.6704 16.6366 -11.8939
# 5 2.1006 -10.8105 -0.4824 16.6366 38.8006 -9.5704
# 6 39.2958 23.9926 16.6813 -11.8939 -9.5704 35.8103
#
#
#
# Elastic Compliance Matrix: (Units=1/GPa)
#
#
# Indices 1 2 3 4 5 6 
#
# 1 0.016881 0.000157 -0.003017 -0.003532 -0.004208 -0.019522
# 2 0.000157 0.023426 -0.003395 0.005544 0.001102 -0.012149
# 3 -0.003017 -0.003395 0.012560 0.010332 -0.004577 0.001943
# 4 -0.003532 0.005544 0.010332 0.049048 -0.017445 0.006977
# 5 -0.004208 0.001102 -0.004577 -0.017445 0.036169 0.009884
# 6 -0.019522 -0.012149 0.001943 0.006977 0.009884 0.061540
#
#
# Mechanical properties :
#
#
# Convention : Reuss Voigt Hill
#
# Bulk Modulus (GPa) = 24.77965 52.83197 38.80581
# Shear Modulus (GPa) = 22.16445 35.33643 28.75044
#
# Velocity S-wave (km/s) = 3.00655 3.79622 3.42422
# Velocity P-wave (km/s) = 4.70726 6.38447 5.60891
#
# Compressibility (1/GPa) = 0.04035569
#
# Stress axis : x y z
#
# Youngs Moduli (GPa) = 59.23850 42.68843 79.61788
#
# Poissons Ratio (x) = -0.00669 0.24018
# Poissons Ratio (y) = -0.00928 0.27033
# Poissons Ratio (z) = 0.17871 0.14494
#
# Static dielectric constant tensor:
#      x y z
#    x 4.607890 0.491010 0.052120 
#    y 0.491010 4.510940 -0.292510 
#    z 0.052120 -0.292510 4.446960 
# 
# 
# High freq. dielectric constant tensor:
#      x y z
#    x 1.985210 0.026560 0.007360 
#    y 0.026560 1.976090 -0.020610 
#    z 0.007360 -0.020610 1.975740 
# 
# From -- ./inp_files/515743.got.cif
#   From: 2010.06.25/outbox.cif.g09.slc.cpg/sg2_258_cif.got.tgz:515743.got - 2010.06.27 13:26:56.
