data_PCOD8030851
_publ_section_title
;
Structure prediction by ZEFSAII (Michael W. Deem and Ramdas Pophale) SiO2 
 PCOD8030851
Probable space group: P -1
;
_chemical_formula_sum "Si O2"
_cell_formula_units_Z 16
_cell_length_a 13.999551
_cell_length_b 13.658213
_cell_length_c 9.677126
_cell_angle_alpha 68.159065
_cell_angle_beta 87.070939
_cell_angle_gamma 145.594064
_cell_volume 709.185764
_symmetry_space_group_name_H-M "P -1"
_symmetry_group_IT_number 2
_symmetry_cell_setting 'triclinic'
loop_
_space_group_symop_operation_xyz
x,y,z
-x,-y,-z
loop_
_atom_site_type_symbol
_atom_site_label
_atom_site_fract_x
_atom_site_fract_y
_atom_site_fract_z
Si Si1 0.996409 0.194844 0.710399
Si Si2 0.929296 0.339028 0.484160
Si Si3 0.491193 0.835355 0.624371
Si Si4 0.272920 0.998436 0.764911
Si Si5 0.152307 0.323322 0.938534
Si Si6 0.621175 0.661398 0.041020
Si Si7 0.008234 0.465347 0.866286
Si Si8 0.592602 0.499619 0.585276
O O1 0.079261 0.294428 0.808644
O O2 0.138945 0.246064 0.597217
O O3 0.026662 0.330226 0.546941
O O4 0.736641 0.890805 0.888268
O O5 0.059107 0.506746 0.246151
O O6 0.000000 0.500000 0.500000
O O7 0.656733 0.050516 0.618047
O O8 0.392325 0.624224 0.798970
O O9 0.270650 0.690553 0.690412
O O10 0.641194 0.965530 0.405008
O O11 0.472462 0.267272 0.679646
O O12 0.046200 0.847150 0.844255
O O13 0.186778 0.822110 0.972703
O O14 0.191359 0.237270 0.975843
O O15 0.429704 0.488065 0.261970
O O16 0.500000 0.500000 0.000000
O O17 0.000000 0.500000 0.000000
O O18 0.500000 0.500000 0.500000
#
# Coordination Sequence:
#
# PCOD8030851 Si02
#       8
#     2   2   2   2   2   2   2   2
#     4  12  25  45  71 103 141 183 239 286 343 420
#     4  12  27  45  68 104 144 182 231 293 344 407
#     4  11  23  44  74 100 139 179 232 289 347 413
#     4  11  22  40  74 102 131 180 238 277 346 419
#     4  11  22  44  74 100 137 182 230 285 348 421
#     4  12  26  45  70 106 143 180 231 289 349 419
#     4  11  25  47  73 101 133 189 237 282 348 415
#     4  12  24  43  75 104 137 187 229 285 356 415
#
# _framework density 22.561084999999999
#
# number of rings (size 3 to 8) (size 9 to 14) (size 15 to 20)
#    0.000    0.500    5.000    3.750    0.000    1.500 
#    2.250    1.250    0.000    0.000    0.000    0.000 
#    0.000    0.000    0.000    0.000    0.000    0.000 
#
# Total GULP energy -198295.515328 kJ/mol
# GULP energy per Si atom -12393.469708 kJ/mol
# Density = 2.250973 g / cm^3
# Si number density = 22.561085 Si / 1000 Ang^3
#
#
#
# Elastic Constant Matrix: (Units=GPa)
#
#
# Indices 1 2 3 4 5 6 
#
# 1 109.7123 17.6602 44.3347 22.4036 2.9952 -0.1810
# 2 17.6602 125.0916 39.3193 15.8864 6.1692 -18.0218
# 3 44.3347 39.3193 124.5259 18.6555 -18.8642 -0.5929
# 4 22.4036 15.8864 18.6555 38.1434 -6.7721 0.7746
# 5 2.9952 6.1692 -18.8642 -6.7721 52.6904 1.2999
# 6 -0.1810 -18.0218 -0.5929 0.7746 1.2999 30.4984
#
#
#
# Elastic Compliance Matrix: (Units=1/GPa)
#
#
# Indices 1 2 3 4 5 6 
#
# 1 0.011901 0.000534 -0.003977 -0.005798 -0.002922 0.000581
# 2 0.000534 0.010535 -0.003401 -0.003721 -0.003117 0.006389
# 3 -0.003977 -0.003401 0.011351 -0.000939 0.004616 -0.001985
# 4 -0.005798 -0.003721 -0.000939 0.032531 0.004691 -0.003278
# 5 -0.002922 -0.003117 0.004616 0.004691 0.021835 -0.002819
# 6 0.000581 0.006389 -0.001985 -0.003278 -0.002819 0.036732
#
#
# Mechanical properties :
#
#
# Convention : Reuss Voigt Hill
#
# Bulk Modulus (GPa) = 49.75490 62.43978 56.09734
# Shear Modulus (GPa) = 34.41849 41.46747 37.94298
#
# Velocity S-wave (km/s) = 3.91009 4.29185 4.10541
# Velocity P-wave (km/s) = 6.51816 7.23159 6.88412
#
# Compressibility (1/GPa) = 0.02009852
#
# Stress axis : x y z
#
# Youngs Moduli (GPa) = 84.03001 94.92619 88.10019
#
# Poissons Ratio (x) = -0.05069 0.35036
# Poissons Ratio (y) = -0.04487 0.29961
# Poissons Ratio (z) = 0.33418 0.32282
#
# Static dielectric constant tensor:
#      x y z
#    x 4.043730 -0.397360 -0.148270 
#    y -0.397360 4.058140 -0.323880 
#    z -0.148270 -0.323880 4.303370 
# 
# 
# High freq. dielectric constant tensor:
#      x y z
#    x 1.894080 -0.026970 0.007290 
#    y -0.026970 1.879050 -0.009520 
#    z 0.007290 -0.009520 1.903200 
# 
# From -- ./inp_files/314967.got.cif
#   From: 2010.06.25/outbox.cif.g09.slc.cpg/sg2_158_cif.got.tgz:314967.got - 2010.06.27 13:26:56.
