data_PCOD8030706
_publ_section_title
;
Structure prediction by ZEFSAII (Michael W. Deem and Ramdas Pophale) SiO2 
 PCOD8030706
Probable space group: P -1
;
_chemical_formula_sum "Si O2"
_cell_formula_units_Z 12
_cell_length_a 9.637165
_cell_length_b 13.896879
_cell_length_c 9.261321
_cell_angle_alpha 60.516411
_cell_angle_beta 30.774526
_cell_angle_gamma 70.386972
_cell_volume 541.752818
_symmetry_space_group_name_H-M "P -1"
_symmetry_group_IT_number 2
_symmetry_cell_setting 'triclinic'
loop_
_space_group_symop_operation_xyz
x,y,z
-x,-y,-z
loop_
_atom_site_type_symbol
_atom_site_label
_atom_site_fract_x
_atom_site_fract_y
_atom_site_fract_z
Si Si1 0.044763 0.959265 0.651499
Si Si2 0.478936 0.169854 0.625015
Si Si3 0.563402 0.432596 0.355167
Si Si4 0.963919 0.504785 0.319985
Si Si5 0.724376 0.829503 0.512657
Si Si6 0.818124 0.313908 0.790331
O O1 0.258435 0.877049 0.523531
O O2 0.143163 0.060642 0.598889
O O3 0.000000 0.000000 0.500000
O O4 0.761348 0.887245 0.013661
O O5 0.550205 0.302262 0.494454
O O6 0.411238 0.141297 0.538127
O O7 0.500000 0.500000 0.500000
O O8 0.316210 0.445538 0.458632
O O9 0.870816 0.488192 0.983529
O O10 0.175499 0.583436 0.179711
O O11 0.891973 0.372597 0.525418
O O12 0.966342 0.763998 0.304621
O O13 0.491199 0.758113 0.876965
#
# Coordination Sequence:
#
# PCOD8030706 Si02
#       6
#     2   2   2   2   2   2
#     4  12  28  46  69  99 135 176 227 285 348 399
#     4  12  24  47  70  96 137 176 229 281 332 405
#     4  12  25  42  68  98 137 181 220 268 339 407
#     4  11  22  42  62 102 138 173 220 270 333 391
#     4  12  23  44  72 103 131 182 231 275 336 400
#     4  11  22  39  72  98 136 173 220 282 324 394
#
# _framework density 22.150323
#
# number of rings (size 3 to 8) (size 9 to 14) (size 15 to 20)
#    0.000    0.333    3.333    6.000    0.000    6.667 
#    0.000    0.000    0.000    0.000    0.000    0.000 
#    0.000    0.000    0.000    0.000    0.000    0.000 
#
# Total GULP energy -148827.775905 kJ/mol
# GULP energy per Si atom -12402.314659 kJ/mol
# Density = 2.209991 g / cm^3
# Si number density = 22.150323 Si / 1000 Ang^3
#
#
#
# Elastic Constant Matrix: (Units=GPa)
#
#
# Indices 1 2 3 4 5 6 
#
# 1 96.3487 63.9390 27.4244 -0.4717 19.7125 -5.4677
# 2 63.9390 100.5751 30.8166 14.4686 18.4371 -17.2542
# 3 27.4244 30.8166 160.4819 9.6850 24.9891 -18.0946
# 4 -0.4717 14.4686 9.6850 33.1332 -16.1101 -2.7268
# 5 19.7125 18.4371 24.9891 -16.1101 31.1797 7.2938
# 6 -5.4677 -17.2542 -18.0946 -2.7268 7.2938 38.0731
#
#
#
# Elastic Compliance Matrix: (Units=1/GPa)
#
#
# Indices 1 2 3 4 5 6 
#
# 1 0.019728 -0.014564 -0.002169 0.008541 0.003424 -0.004842
# 2 -0.014564 0.031572 0.005911 -0.031035 -0.034788 0.019468
# 3 -0.002169 0.005911 0.010856 -0.015196 -0.021130 0.010486
# 4 0.008541 -0.031035 -0.015196 0.082012 0.074146 -0.028391
# 5 0.003424 -0.034788 -0.021130 0.074146 0.115583 -0.042148
# 6 -0.004842 0.019468 0.010486 -0.028391 -0.042148 0.045417
#
#
# Mechanical properties :
#
#
# Convention : Reuss Voigt Hill
#
# Bulk Modulus (GPa) = 24.68392 66.86285 45.77338
# Shear Modulus (GPa) = 14.69217 36.15892 25.42554
#
# Velocity S-wave (km/s) = 2.57824 4.04472 3.39169
# Velocity P-wave (km/s) = 4.47561 7.21557 6.00398
#
# Compressibility (1/GPa) = 0.04051221
#
# Stress axis : x y z
#
# Youngs Moduli (GPa) = 50.68938 31.67343 92.11112
#
# Poissons Ratio (x) = 0.46130 0.19980
# Poissons Ratio (y) = 0.73825 -0.54448
# Poissons Ratio (z) = 0.10995 -0.18722
#
# Static dielectric constant tensor:
#      x y z
#    x 5.290980 -0.731640 -1.632710 
#    y -0.731640 4.280620 0.669040 
#    z -1.632710 0.669040 6.429960 
# 
# 
# High freq. dielectric constant tensor:
#      x y z
#    x 1.867270 -0.009090 -0.002990 
#    y -0.009090 1.880770 0.000060 
#    z -0.002990 0.000060 1.895920 
# 
# From -- ./inp_files/23423.got.cif
#   From: 2010.06.25/outbox.cif.g09.slc.cpg/sg2_12_cif.got.tgz:23423.got - 2010.06.27 13:26:56.
