data_PCOD8030998
_publ_section_title
;
Structure prediction by ZEFSAII (Michael W. Deem and Ramdas Pophale) SiO2 
 PCOD8030998
Probable space group: P -1
;
_chemical_formula_sum "Si O2"
_cell_formula_units_Z 16
_cell_length_a 13.819776
_cell_length_b 13.907813
_cell_length_c 12.505911
_cell_angle_alpha 42.843856
_cell_angle_beta 65.110883
_cell_angle_gamma 31.804924
_cell_volume 711.140854
_symmetry_space_group_name_H-M "P -1"
_symmetry_group_IT_number 2
_symmetry_cell_setting 'triclinic'
loop_
_space_group_symop_operation_xyz
x,y,z
-x,-y,-z
loop_
_atom_site_type_symbol
_atom_site_label
_atom_site_fract_x
_atom_site_fract_y
_atom_site_fract_z
Si Si1 0.670662 0.844908 0.138842
Si Si2 0.326541 0.301790 0.274433
Si Si3 0.702422 0.795804 0.847083
Si Si4 0.628431 0.209508 0.150449
Si Si5 0.748103 0.229607 0.649223
Si Si6 0.922859 0.820088 0.734819
Si Si7 0.153515 0.064724 0.959942
Si Si8 0.003849 0.778199 0.501625
O O1 0.734091 0.934970 0.031076
O O2 0.891907 0.497446 0.313627
O O3 0.553287 0.948827 0.222568
O O4 0.500000 0.000000 0.000000
O O5 0.222856 0.329480 0.204795
O O6 0.453178 0.286980 0.176488
O O7 0.114843 0.600604 0.199739
O O8 0.500000 0.000000 0.500000
O O9 0.721886 0.941415 0.738374
O O10 0.850970 0.534317 0.075453
O O11 0.743466 0.079755 0.086741
O O12 0.500000 0.500000 0.000000
O O13 0.812080 0.981425 0.340636
O O14 0.500000 0.500000 0.500000
O O15 0.818616 0.310509 0.542932
O O16 0.914164 0.942276 0.734995
O O17 0.781209 0.145881 0.825601
O O18 0.908308 0.923527 0.545901
#
# Coordination Sequence:
#
# PCOD8030998 Si02
#       8
#     2   2   2   2   2   2   2   2
#     4  12  23  43  75 108 142 180 234 302 368 426
#     4  12  26  47  75 106 142 192 247 299 360 424
#     4  11  22  41  71 105 141 183 234 299 364 425
#     4  12  30  51  71 103 148 203 245 295 356 428
#     4  12  27  45  72 105 143 190 234 299 374 428
#     4  11  23  43  70 105 143 182 241 303 362 428
#     4  12  27  50  74 105 150 191 248 300 356 440
#     4  12  27  45  71 106 144 188 243 297 360 438
#
# _framework density 22.499058999999999
#
# number of rings (size 3 to 8) (size 9 to 14) (size 15 to 20)
#    0.000    0.250    3.750    5.625    3.500    3.000 
#    0.000    0.000    0.000    0.000    0.000    0.000 
#    0.000    0.000    0.000    0.000    0.000    0.000 
#
# Total GULP energy -198442.844828 kJ/mol
# GULP energy per Si atom -12402.677802 kJ/mol
# Density = 2.244785 g / cm^3
# Si number density = 22.499059 Si / 1000 Ang^3
#
#
#
# Elastic Constant Matrix: (Units=GPa)
#
#
# Indices 1 2 3 4 5 6 
#
# 1 82.3978 24.6037 27.3531 7.9266 4.0582 4.2586
# 2 24.6037 135.6360 44.3855 11.6652 6.1221 4.7068
# 3 27.3531 44.3855 133.4508 7.4170 13.2015 7.8018
# 4 7.9266 11.6652 7.4170 40.5528 -3.3330 2.7975
# 5 4.0582 6.1221 13.2015 -3.3330 38.9800 0.6311
# 6 4.2586 4.7068 7.8018 2.7975 0.6311 38.3767
#
#
#
# Elastic Compliance Matrix: (Units=1/GPa)
#
#
# Indices 1 2 3 4 5 6 
#
# 1 0.013529 -0.001575 -0.002044 -0.001816 -0.000612 -0.000750
# 2 -0.001575 0.008622 -0.002379 -0.001763 -0.000531 -0.000262
# 3 -0.002044 -0.002379 0.009064 -0.000696 -0.002523 -0.001232
# 4 -0.001816 -0.001763 -0.000696 0.025986 0.002946 -0.001383
# 5 -0.000612 -0.000531 -0.002523 0.002946 0.026908 -0.000011
# 6 -0.000750 -0.000262 -0.001232 -0.001383 -0.000011 0.026524
#
#
# Mechanical properties :
#
#
# Convention : Reuss Voigt Hill
#
# Bulk Modulus (GPa) = 52.03397 60.46326 56.24861
# Shear Modulus (GPa) = 38.74948 40.59139 39.67044
#
# Velocity S-wave (km/s) = 4.15453 4.25212 4.20361
# Velocity P-wave (km/s) = 6.79639 7.14419 6.97246
#
# Compressibility (1/GPa) = 0.01921822
#
# Stress axis : x y z
#
# Youngs Moduli (GPa) = 73.91696 115.98873 110.32959
#
# Poissons Ratio (x) = 0.18273 0.22547
# Poissons Ratio (y) = 0.11645 0.26245
# Poissons Ratio (z) = 0.15106 0.27591
#
# Static dielectric constant tensor:
#      x y z
#    x 4.090890 -0.041400 -0.131370 
#    y -0.041400 4.295110 0.103620 
#    z -0.131370 0.103620 4.150960 
# 
# 
# High freq. dielectric constant tensor:
#      x y z
#    x 1.892250 -0.004490 -0.003910 
#    y -0.004490 1.901260 0.006470 
#    z -0.003910 0.006470 1.889660 
# 
# From -- ./inp_files/455463.got.cif
#   From: 2010.06.25/outbox.cif.g09.slc.cpg/sg2_228_cif.got.tgz:455463.got - 2010.06.27 13:26:56.
