data_PCOD8030241
_publ_section_title
;
Structure prediction by ZEFSAII (Michael W. Deem and Ramdas Pophale) SiO2 
 PCOD8030241
Probable space group: P -1
;
_chemical_formula_sum "Si O2"
_cell_formula_units_Z 14
_cell_length_a 8.996037
_cell_length_b 14.235506
_cell_length_c 11.665715
_cell_angle_alpha 148.440216
_cell_angle_beta 115.645194
_cell_angle_gamma 55.874700
_cell_volume 643.741733
_symmetry_space_group_name_H-M "P -1"
_symmetry_group_IT_number 2
_symmetry_cell_setting 'triclinic'
loop_
_space_group_symop_operation_xyz
x,y,z
-x,-y,-z
loop_
_atom_site_type_symbol
_atom_site_label
_atom_site_fract_x
_atom_site_fract_y
_atom_site_fract_z
Si Si1 0.673934 0.886101 0.101349
Si Si2 0.630086 0.254022 0.613689
Si Si3 0.201689 0.461336 0.055872
Si Si4 0.130370 0.244602 0.192813
Si Si5 0.693096 0.100500 0.963681
Si Si6 0.537229 0.178379 0.743885
Si Si7 0.264699 0.519853 0.646494
O O1 0.753630 0.665839 0.946927
O O2 0.464594 0.936945 0.060533
O O3 0.691618 0.037787 0.356866
O O4 0.783274 0.889418 0.028136
O O5 0.633889 0.246072 0.745179
O O6 0.427854 0.398915 0.659668
O O7 0.775832 0.335620 0.703878
O O8 0.344269 0.350126 0.888147
O O9 0.000000 0.500000 0.000000
O O10 0.242836 0.375865 0.393837
O O11 0.921811 0.385430 0.245029
O O12 0.134504 0.095719 0.143743
O O13 0.667661 0.111311 0.828678
O O14 0.700353 0.303530 0.219129
O O15 0.500000 0.000000 0.500000
#
# Coordination Sequence:
#
# PCOD8030241 Si02
#       7
#     2   2   2   2   2   2   2
#     4  11  24  44  65  97 133 170 215 269 327 382
#     4  12  23  45  69  96 131 179 208 268 334 384
#     4  11  26  44  64 101 133 169 222 266 323 392
#     4  11  25  43  65  97 132 169 217 275 310 384
#     4  11  22  42  66  95 129 169 219 261 323 387
#     4  11  21  43  71  94 131 172 212 267 326 391
#     4  11  24  42  67  96 127 172 223 258 327 381
#
# _framework density 21.747852000000002
#
# number of rings (size 3 to 8) (size 9 to 14) (size 15 to 20)
#    0.000    0.857    7.143    1.286    2.000    2.286 
#    2.571    0.000    0.000    0.000    0.000    0.000 
#    0.000    0.000    0.000    0.000    0.000    0.000 
#
# Total GULP energy -173573.329232 kJ/mol
# GULP energy per Si atom -12398.094945 kJ/mol
# Density = 2.169835 g / cm^3
# Si number density = 21.747852 Si / 1000 Ang^3
#
#
#
# Elastic Constant Matrix: (Units=GPa)
#
#
# Indices 1 2 3 4 5 6 
#
# 1 98.3860 49.2101 45.0315 -9.5500 8.3324 5.7090
# 2 49.2101 97.5745 25.5221 0.6311 -3.7592 10.7399
# 3 45.0315 25.5221 99.8284 3.2174 11.0343 19.3713
# 4 -9.5500 0.6311 3.2174 23.2204 8.6890 7.0462
# 5 8.3324 -3.7592 11.0343 8.6890 45.8379 0.4617
# 6 5.7090 10.7399 19.3713 7.0462 0.4617 24.4480
#
#
#
# Elastic Compliance Matrix: (Units=1/GPa)
#
#
# Indices 1 2 3 4 5 6 
#
# 1 0.018267 -0.007951 -0.006340 0.009760 -0.004312 0.001519
# 2 -0.007951 0.014752 0.000314 -0.003798 0.003338 -0.003841
# 3 -0.006340 0.000314 0.015072 -0.000740 -0.002205 -0.010344
# 4 0.009760 -0.003798 -0.000740 0.056884 -0.012527 -0.016182
# 5 -0.004312 0.003338 -0.002205 -0.012527 0.025735 0.004412
# 6 0.001519 -0.003841 -0.010344 -0.016182 0.004412 0.055013
#
#
# Mechanical properties :
#
#
# Convention : Reuss Voigt Hill
#
# Bulk Modulus (GPa) = 49.66038 59.47961 54.56999
# Shear Modulus (GPa) = 22.68714 30.43626 26.56170
#
# Velocity S-wave (km/s) = 3.23335 3.74506 3.49857
# Velocity P-wave (km/s) = 6.06824 6.79041 6.43946
#
# Compressibility (1/GPa) = 0.02013678
#
# Stress axis : x y z
#
# Youngs Moduli (GPa) = 54.74311 67.78583 66.34860
#
# Poissons Ratio (x) = 0.53895 0.42066
# Poissons Ratio (y) = 0.43525 -0.02081
# Poissons Ratio (z) = 0.34708 -0.02126
#
# Static dielectric constant tensor:
#      x y z
#    x 3.958440 -0.105970 0.097910 
#    y -0.105970 4.390580 0.409000 
#    z 0.097910 0.409000 4.413510 
# 
# 
# High freq. dielectric constant tensor:
#      x y z
#    x 1.845190 0.000500 0.019350 
#    y 0.000500 1.856250 0.015400 
#    z 0.019350 0.015400 1.860110 
# 
# From -- ./inp_files/176951.got.cif
#   From: 2010.06.25/outbox.cif.g09.slc.cpg/sg2_89_cif.got.tgz:176951.got - 2010.06.27 13:26:56.
