data_PCOD8030057
_publ_section_title
;
Structure prediction by ZEFSAII (Michael W. Deem and Ramdas Pophale) SiO2 
 PCOD8030057
Probable space group: P -1
;
_chemical_formula_sum "Si O2"
_cell_formula_units_Z 16
_cell_length_a 9.635213
_cell_length_b 14.524746
_cell_length_c 9.074422
_cell_angle_alpha 76.316171
_cell_angle_beta 108.072677
_cell_angle_gamma 50.725170
_cell_volume 755.750761
_symmetry_space_group_name_H-M "P -1"
_symmetry_group_IT_number 2
_symmetry_cell_setting 'triclinic'
loop_
_space_group_symop_operation_xyz
x,y,z
-x,-y,-z
loop_
_atom_site_type_symbol
_atom_site_label
_atom_site_fract_x
_atom_site_fract_y
_atom_site_fract_z
Si Si1 0.623040 0.237232 0.820184
Si Si2 0.004201 0.977559 0.201864
Si Si3 0.057071 0.762959 0.420047
Si Si4 0.113256 0.638139 0.180704
Si Si5 0.274731 0.168687 0.523002
Si Si6 0.842164 0.573229 0.561218
Si Si7 0.793846 0.913370 0.759864
Si Si8 0.490355 0.494883 0.825375
O O1 0.841824 0.149972 0.823660
O O2 0.414941 0.310421 0.623753
O O3 0.556131 0.357103 0.854549
O O4 0.736224 0.104041 0.019437
O O5 0.028175 0.891575 0.376466
O O6 0.082217 0.046608 0.233113
O O7 0.146817 0.683999 0.320667
O O8 0.234158 0.644468 0.645954
O O9 0.821651 0.828001 0.358435
O O10 0.069669 0.551523 0.251225
O O11 0.341576 0.519259 0.203235
O O12 0.914211 0.781596 0.962324
O O13 0.152695 0.329759 0.387700
O O14 0.214038 0.128489 0.387063
O O15 0.540273 0.054071 0.680898
O O16 0.000000 0.500000 0.500000
O O17 0.500000 0.500000 0.000000
#
# Coordination Sequence:
#
# PCOD8030057 Si02
#       8
#     2   2   2   2   2   2   2   2
#     4  11  21  42  66 100 129 176 225 277 334 393
#     4  11  22  41  73  96 129 177 232 282 322 403
#     4  12  24  41  70 103 132 178 232 275 336 405
#     4  12  23  41  72  99 129 182 228 274 339 403
#     4  11  26  46  65  98 142 180 221 283 340 403
#     4  12  24  42  69  98 137 180 227 277 330 412
#     4  11  25  46  68  96 140 181 221 285 345 394
#     4  12  24  42  66 102 143 169 217 291 344 393
#
# _framework density 21.171001
#
# number of rings (size 3 to 8) (size 9 to 14) (size 15 to 20)
#    0.000    0.500    6.250    2.625    0.000    2.500 
#    0.000    0.000    0.000    0.000    0.000    0.000 
#    0.000    0.000    0.000    0.000    0.000    0.000 
#
# Total GULP energy -198280.944247 kJ/mol
# GULP energy per Si atom -12392.559015 kJ/mol
# Density = 2.112282 g / cm^3
# Si number density = 21.171001 Si / 1000 Ang^3
#
#
#
# Elastic Constant Matrix: (Units=GPa)
#
#
# Indices 1 2 3 4 5 6 
#
# 1 106.6618 44.8411 36.6133 -14.5097 -26.9695 9.5483
# 2 44.8411 88.4465 35.1780 -12.8450 -20.3578 14.8976
# 3 36.6133 35.1780 96.1650 -19.4587 -1.7918 1.2766
# 4 -14.5097 -12.8450 -19.4587 40.7722 2.8731 -2.1260
# 5 -26.9695 -20.3578 -1.7918 2.8731 23.4489 0.0415
# 6 9.5483 14.8976 1.2766 -2.1260 0.0415 34.8192
#
#
#
# Elastic Compliance Matrix: (Units=1/GPa)
#
#
# Indices 1 2 3 4 5 6 
#
# 1 0.016695 -0.001656 -0.005057 0.001607 0.017187 -0.003607
# 2 -0.001656 0.019121 -0.005737 0.001314 0.014110 -0.007453
# 3 -0.005057 -0.005737 0.015096 0.004503 -0.010202 0.003575
# 4 0.001607 0.001314 0.004503 0.027693 -0.000061 0.000523
# 5 0.017187 0.014110 -0.010202 -0.000061 0.073910 -0.010468
# 6 -0.003607 -0.007453 0.003575 0.000523 -0.010468 0.032811
#
#
# Mechanical properties :
#
#
# Convention : Reuss Voigt Hill
#
# Bulk Modulus (GPa) = 38.44219 58.28200 48.36210
# Shear Modulus (GPa) = 22.84181 31.45079 27.14630
#
# Velocity S-wave (km/s) = 3.28825 3.85848 3.58472
# Velocity P-wave (km/s) = 5.71088 6.88763 6.32667
#
# Compressibility (1/GPa) = 0.02601308
#
# Stress axis : x y z
#
# Youngs Moduli (GPa) = 59.89951 52.29747 66.24075
#
# Poissons Ratio (x) = 0.08659 0.33500
# Poissons Ratio (y) = 0.09918 0.38000
# Poissons Ratio (z) = 0.30293 0.30001
#
# Static dielectric constant tensor:
#      x y z
#    x 4.189600 0.135650 -0.510730 
#    y 0.135650 4.045220 -0.343840 
#    z -0.510730 -0.343840 3.779020 
# 
# 
# High freq. dielectric constant tensor:
#      x y z
#    x 1.825950 0.002320 -0.002820 
#    y 0.002320 1.844610 -0.018310 
#    z -0.002820 -0.018310 1.828360 
# 
# From -- ./inp_files/205608.got.cif
#   From: 2010.06.25/outbox.cif.g09.slc.cpg/sg2_103_cif.got.tgz:205608.got - 2010.06.27 13:26:56.
