data_PCOD8030760
_publ_section_title
;
Structure prediction by ZEFSAII (Michael W. Deem and Ramdas Pophale) SiO2 
 PCOD8030760
Probable space group: P -1
;
_chemical_formula_sum "Si O2"
_cell_formula_units_Z 14
_cell_length_a 13.694335
_cell_length_b 20.785206
_cell_length_c 9.725529
_cell_angle_alpha 151.537369
_cell_angle_beta 52.311725
_cell_angle_gamma 146.626080
_cell_volume 641.229096
_symmetry_space_group_name_H-M "P -1"
_symmetry_group_IT_number 2
_symmetry_cell_setting 'triclinic'
loop_
_space_group_symop_operation_xyz
x,y,z
-x,-y,-z
loop_
_atom_site_type_symbol
_atom_site_label
_atom_site_fract_x
_atom_site_fract_y
_atom_site_fract_z
Si Si1 0.408387 0.722760 0.833387
Si Si2 0.895014 0.774551 0.798037
Si Si3 0.714135 0.097128 0.719514
Si Si4 0.881843 0.991330 0.688852
Si Si5 0.957590 0.606033 0.806434
Si Si6 0.742597 0.916406 0.113606
Si Si7 0.495381 0.776438 0.555809
O O1 0.221758 0.457790 0.483983
O O2 0.475472 0.826107 0.817123
O O3 0.346921 0.811673 0.123633
O O4 0.584729 0.804781 0.918989
O O5 0.735142 0.751678 0.850019
O O6 0.033561 0.851218 0.693842
O O7 0.045773 0.975860 0.157208
O O8 0.683255 0.953728 0.365982
O O9 0.584200 0.953007 0.696889
O O10 0.947330 0.309441 0.963621
O O11 0.642118 0.772235 0.449483
O O12 0.000000 0.000000 0.500000
O O13 0.929575 0.189660 0.001423
O O14 0.727178 0.454087 0.736662
O O15 0.000000 0.500000 0.500000
#
# Coordination Sequence:
#
# PCOD8030760 Si02
#       7
#     2   2   2   2   2   2   2
#     4  12  23  43  70  97 127 178 222 263 333 395
#     4  11  23  44  67  90 134 179 217 268 328 392
#     4  11  25  42  67 102 134 169 219 277 327 389
#     4  11  23  41  64  99 132 166 220 271 324 384
#     4  11  22  40  66  98 132 170 215 264 332 392
#     4  11  26  45  64  94 136 175 221 271 325 389
#     4  11  23  41  70  98 134 170 216 274 332 388
#
# _framework density 21.833069999999999
#
# number of rings (size 3 to 8) (size 9 to 14) (size 15 to 20)
#    0.000    0.857    4.286    3.000    2.000    3.429 
#    2.571    0.000    0.000    0.000    0.000    0.000 
#    0.000    0.000    0.000    0.000    0.000    0.000 
#
# Total GULP energy -173521.937277 kJ/mol
# GULP energy per Si atom -12394.424091 kJ/mol
# Density = 2.178338 g / cm^3
# Si number density = 21.833070 Si / 1000 Ang^3
#
#
#
# Elastic Constant Matrix: (Units=GPa)
#
#
# Indices 1 2 3 4 5 6 
#
# 1 109.7091 41.9642 15.7290 5.6611 5.8134 5.1097
# 2 41.9642 104.2050 43.6732 -1.0268 -5.3240 5.6156
# 3 15.7290 43.6732 61.3549 -3.1095 -0.2838 -7.5494
# 4 5.6611 -1.0268 -3.1095 20.8738 8.8078 8.7110
# 5 5.8134 -5.3240 -0.2838 8.8078 34.6830 5.0188
# 6 5.1097 5.6156 -7.5494 8.7110 5.0188 36.8725
#
#
#
# Elastic Compliance Matrix: (Units=1/GPa)
#
#
# Indices 1 2 3 4 5 6 
#
# 1 0.011108 -0.004794 0.000449 -0.002385 -0.002006 0.000119
# 2 -0.004794 0.016677 -0.011180 0.000915 0.003747 -0.004891
# 3 0.000449 -0.011180 0.025041 0.001452 -0.002943 0.006825
# 4 -0.002385 0.000915 0.001452 0.059096 -0.012757 -0.011736
# 5 -0.002006 0.003747 -0.002943 -0.012757 0.033309 -0.002415
# 6 0.000119 -0.004891 0.006825 -0.011736 -0.002415 0.032348
#
#
# Mechanical properties :
#
#
# Convention : Reuss Voigt Hill
#
# Bulk Modulus (GPa) = 45.92021 53.11133 49.51577
# Shear Modulus (GPa) = 23.16036 30.07936 26.61986
#
# Velocity S-wave (km/s) = 3.26051 3.71576 3.49556
# Velocity P-wave (km/s) = 5.93740 6.54126 6.24663
#
# Compressibility (1/GPa) = 0.02177691
#
# Stress axis : x y z
#
# Youngs Moduli (GPa) = 90.02413 59.96420 39.93440
#
# Poissons Ratio (x) = 0.28747 -0.01794
# Poissons Ratio (y) = 0.43158 0.44646
# Poissons Ratio (z) = -0.04045 0.67038
#
# Static dielectric constant tensor:
#      x y z
#    x 4.507130 0.107640 0.274350 
#    y 0.107640 4.022700 0.115100 
#    z 0.274350 0.115100 3.727410 
# 
# 
# High freq. dielectric constant tensor:
#      x y z
#    x 1.885670 0.012070 0.008530 
#    y 0.012070 1.848860 -0.001830 
#    z 0.008530 -0.001830 1.838520 
# 
# From -- ./inp_files/319542.got.cif
#   From: 2010.06.25/outbox.cif.g09.slc.cpg/sg2_160_cif.got.tgz:319542.got - 2010.06.27 13:26:56.
