data_PCOD8030646
_publ_section_title
;
Structure prediction by ZEFSAII (Michael W. Deem and Ramdas Pophale) SiO2 
 PCOD8030646
Probable space group: P -1
;
_chemical_formula_sum "Si O2"
_cell_formula_units_Z 16
_cell_length_a 15.647487
_cell_length_b 10.264129
_cell_length_c 9.503961
_cell_angle_alpha 43.434171
_cell_angle_beta 124.563114
_cell_angle_gamma 146.474808
_cell_volume 576.691754
_symmetry_space_group_name_H-M "P -1"
_symmetry_group_IT_number 2
_symmetry_cell_setting 'triclinic'
loop_
_space_group_symop_operation_xyz
x,y,z
-x,-y,-z
loop_
_atom_site_type_symbol
_atom_site_label
_atom_site_fract_x
_atom_site_fract_y
_atom_site_fract_z
Si Si1 0.338904 0.105540 0.272919
Si Si2 0.355187 0.562960 0.145760
Si Si3 0.153505 0.331973 0.879734
Si Si4 0.209726 0.636581 0.341698
Si Si5 0.182575 0.213007 0.517961
Si Si6 0.294335 0.903908 0.922822
Si Si7 0.689359 0.669147 0.184225
Si Si8 0.869941 0.265452 0.377987
O O1 0.507968 0.396160 0.252689
O O2 0.334611 0.887729 0.373963
O O3 0.234327 0.981709 0.410770
O O4 0.268726 0.136984 0.057501
O O5 0.265967 0.301807 0.377211
O O6 0.538601 0.766911 0.154523
O O7 0.284745 0.421839 0.037190
O O8 0.323987 0.737875 0.014769
O O9 0.226697 0.414552 0.724579
O O10 0.117338 0.495706 0.763337
O O11 0.000000 0.000000 0.000000
O O12 0.264405 0.504157 0.444993
O O13 0.039878 0.406007 0.435563
O O14 0.204435 0.760891 0.098377
O O15 0.230933 0.129863 0.754400
O O16 0.000000 0.000000 0.500000
O O17 0.192917 0.873464 0.729664
#
# Coordination Sequence:
#
# PCOD8030646 Si02
#       8
#     2   2   2   2   2   2   2   2
#     4  11  25  43  65  96 131 170 215 267 324 383
#     4   9  19  36  60  92 121 158 212 260 314 377
#     4  11  22  39  65  94 128 169 212 266 324 384
#     4  11  23  41  64  94 128 166 214 265 323 387
#     4  11  24  42  66  95 129 170 215 266 322 384
#     4   9  19  37  62  89 122 160 206 264 314 373
#     4  11  25  44  65  93 132 171 215 270 323 378
#     4  11  23  40  65  95 128 170 217 262 318 387
#
# _framework density 27.744457000000001
#
# number of rings (size 3 to 8) (size 9 to 14) (size 15 to 20)
#    0.000    1.500    0.000    4.500    0.000    9.000 
#    0.000    0.000    0.000    6.000    0.000    0.000 
#    0.000    0.000    0.000    0.000    0.000    0.000 
#
# Total GULP energy -198462.390094 kJ/mol
# GULP energy per Si atom -12403.899381 kJ/mol
# Density = 2.768131 g / cm^3
# Si number density = 27.744457 Si / 1000 Ang^3
#
#
#
# Elastic Constant Matrix: (Units=GPa)
#
#
# Indices 1 2 3 4 5 6 
#
# 1 56.4542 28.3304 7.1781 -3.9208 -23.6595 -8.1287
# 2 28.3304 151.9268 39.0902 17.1064 -22.4432 -4.8845
# 3 7.1781 39.0902 109.4842 -5.9644 -35.8063 8.5505
# 4 -3.9208 17.1064 -5.9644 46.7613 6.0357 -12.5887
# 5 -23.6595 -22.4432 -35.8063 6.0357 50.3934 7.8610
# 6 -8.1287 -4.8845 8.5505 -12.5887 7.8610 59.0294
#
#
#
# Elastic Compliance Matrix: (Units=1/GPa)
#
#
# Indices 1 2 3 4 5 6 
#
# 1 0.024684 -0.004102 0.003754 0.002944 0.011832 0.001568
# 2 -0.004102 0.008578 -0.002854 -0.003991 0.000399 -0.000346
# 3 0.003754 -0.002854 0.013619 0.000963 0.010503 -0.002885
# 4 0.002944 -0.003991 0.000963 0.025247 -0.003640 0.005805
# 5 0.011832 0.000399 0.010503 -0.003640 0.034287 -0.005201
# 6 0.001568 -0.000346 -0.002885 0.005805 -0.005201 0.019477
#
#
# Mechanical properties :
#
#
# Convention : Reuss Voigt Hill
#
# Bulk Modulus (GPa) = 24.70518 51.89584 38.30051
# Shear Modulus (GPa) = 34.29628 47.45459 40.87544
#
# Velocity S-wave (km/s) = 3.51970 4.14021 3.84250
# Velocity P-wave (km/s) = 5.04397 6.44985 5.78974
#
# Compressibility (1/GPa) = 0.04047733
#
# Stress axis : x y z
#
# Youngs Moduli (GPa) = 40.51284 116.57143 73.42466
#
# Poissons Ratio (x) = 0.47816 -0.27561
# Poissons Ratio (y) = 0.16618 0.20954
# Poissons Ratio (z) = -0.15207 0.33268
#
# Static dielectric constant tensor:
#      x y z
#    x 5.336720 -0.628550 0.055360 
#    y -0.628550 5.200700 0.196900 
#    z 0.055360 0.196900 5.557940 
# 
# 
# High freq. dielectric constant tensor:
#      x y z
#    x 2.153140 -0.036910 0.001130 
#    y -0.036910 2.127330 0.006320 
#    z 0.001130 0.006320 2.144660 
# 
# From -- ./inp_files/332938.got.cif
#   From: 2010.06.25/outbox.cif.g09.slc.cpg/sg2_167_cif.got.tgz:332938.got - 2010.06.27 13:26:56.
