data_PCOD8030145
_publ_section_title
;
Structure prediction by ZEFSAII (Michael W. Deem and Ramdas Pophale) SiO2 
 PCOD8030145
Probable space group: P -1
;
_chemical_formula_sum "Si O2"
_cell_formula_units_Z 16
_cell_length_a 11.762127
_cell_length_b 15.538893
_cell_length_c 7.976146
_cell_angle_alpha 62.850834
_cell_angle_beta 103.520702
_cell_angle_gamma 50.284156
_cell_volume 639.588975
_symmetry_space_group_name_H-M "P -1"
_symmetry_group_IT_number 2
_symmetry_cell_setting 'triclinic'
loop_
_space_group_symop_operation_xyz
x,y,z
-x,-y,-z
loop_
_atom_site_type_symbol
_atom_site_label
_atom_site_fract_x
_atom_site_fract_y
_atom_site_fract_z
Si Si1 0.411812 0.602579 0.639168
Si Si2 0.628426 0.789117 0.567525
Si Si3 0.663661 0.578715 0.573142
Si Si4 0.662907 0.868709 0.020110
Si Si5 0.543268 0.146336 0.204110
Si Si6 0.013180 0.307513 0.235532
Si Si7 0.270108 0.784872 0.770765
Si Si8 0.135298 0.617700 0.515636
O O1 0.464933 0.638367 0.473867
O O2 0.337620 0.725042 0.654915
O O3 0.193138 0.689911 0.444280
O O4 0.641514 0.373945 0.961070
O O5 0.594606 0.737648 0.449810
O O6 0.581193 0.763275 0.740432
O O7 0.878856 0.661695 0.757526
O O8 0.435534 0.010015 0.289182
O O9 0.709747 0.550357 0.415967
O O10 0.868617 0.399684 0.932074
O O11 0.653441 0.761270 0.067151
O O12 0.889031 0.762233 0.239874
O O13 0.500000 0.000000 0.000000
O O14 0.586389 0.226531 0.094436
O O15 0.789179 0.915464 0.488207
O O16 0.846317 0.419050 0.245410
O O17 0.000000 0.000000 0.500000
#
# Coordination Sequence:
#
# PCOD8030145 Si02
#       8
#     2   2   2   2   2   2   2   2
#     4  11  25  47  67 109 150 190 246 306 358 435
#     4  11  23  42  68 104 139 186 238 295 366 435
#     4  12  25  46  69 103 151 189 242 297 369 438
#     4  11  23  44  67 102 146 180 241 304 359 434
#     4  11  21  42  72 103 136 186 243 297 363 436
#     4  11  23  44  72 103 140 188 236 303 368 430
#     4  11  23  43  78 106 142 196 250 300 366 437
#     4  12  25  46  73 100 149 192 236 304 369 424
#
# _framework density 25.016065000000001
#
# number of rings (size 3 to 8) (size 9 to 14) (size 15 to 20)
#    0.000    0.750    3.750    6.750    0.000    1.500 
#    0.000    0.625    0.000    0.000    0.000    0.000 
#    0.000    0.000    0.000    0.000    0.000    0.000 
#
# Total GULP energy -198213.937073 kJ/mol
# GULP energy per Si atom -12388.371067 kJ/mol
# Density = 2.495913 g / cm^3
# Si number density = 25.016065 Si / 1000 Ang^3
#
#
#
# Elastic Constant Matrix: (Units=GPa)
#
#
# Indices 1 2 3 4 5 6 
#
# 1 167.8251 53.8652 27.9666 -10.4188 26.9374 9.6084
# 2 53.8652 136.5014 19.0485 4.1883 4.3203 -6.4630
# 3 27.9666 19.0485 65.5106 1.0031 19.4454 1.1029
# 4 -10.4188 4.1883 1.0031 28.0974 5.5589 2.9176
# 5 26.9374 4.3203 19.4454 5.5589 47.0327 6.6904
# 6 9.6084 -6.4630 1.1029 2.9176 6.6904 48.6829
#
#
#
# Elastic Compliance Matrix: (Units=1/GPa)
#
#
# Indices 1 2 3 4 5 6 
#
# 1 0.008255 -0.003150 -0.001418 0.004581 -0.004149 -0.001720
# 2 -0.003150 0.008935 -0.001777 -0.002981 0.001818 0.001777
# 3 -0.001418 -0.001777 0.018373 0.000361 -0.006739 0.000532
# 4 0.004581 -0.002981 0.000361 0.039342 -0.006760 -0.002737
# 5 -0.004149 0.001818 -0.006739 -0.006760 0.027361 -0.002142
# 6 -0.001720 0.001777 0.000532 -0.002737 -0.002142 0.021563
#
#
# Mechanical properties :
#
#
# Convention : Reuss Voigt Hill
#
# Bulk Modulus (GPa) = 43.72043 63.51087 53.61565
# Shear Modulus (GPa) = 34.68795 42.69301 38.69048
#
# Velocity S-wave (km/s) = 3.72778 4.13561 3.93698
# Velocity P-wave (km/s) = 6.00361 6.94604 6.49195
#
# Compressibility (1/GPa) = 0.02287260
#
# Stress axis : x y z
#
# Youngs Moduli (GPa) = 121.14311 111.91802 54.42910
#
# Poissons Ratio (x) = 0.35257 0.07716
# Poissons Ratio (y) = 0.38163 0.09672
# Poissons Ratio (z) = 0.17173 0.19888
#
# Static dielectric constant tensor:
#      x y z
#    x 5.788750 0.141350 -0.051040 
#    y 0.141350 4.685680 0.184890 
#    z -0.051040 0.184890 4.401580 
# 
# 
# High freq. dielectric constant tensor:
#      x y z
#    x 2.023660 0.006660 0.009710 
#    y 0.006660 2.010000 0.006820 
#    z 0.009710 0.006820 1.975420 
# 
# From -- ./inp_files/277600.got.cif
#   From: 2010.06.25/outbox.cif.g09.slc.cpg/sg2_139_cif.got.tgz:277600.got - 2010.06.27 13:26:56.
