data_PCOD8030087
_publ_section_title
;
Structure prediction by ZEFSAII (Michael W. Deem and Ramdas Pophale) SiO2 
 PCOD8030087
Probable space group: P -1
;
_chemical_formula_sum "Si O2"
_cell_formula_units_Z 12
_cell_length_a 7.423424
_cell_length_b 14.748365
_cell_length_c 5.152751
_cell_angle_alpha 68.832438
_cell_angle_beta 116.597612
_cell_angle_gamma 73.032106
_cell_volume 394.746645
_symmetry_space_group_name_H-M "P -1"
_symmetry_group_IT_number 2
_symmetry_cell_setting 'triclinic'
loop_
_space_group_symop_operation_xyz
x,y,z
-x,-y,-z
loop_
_atom_site_type_symbol
_atom_site_label
_atom_site_fract_x
_atom_site_fract_y
_atom_site_fract_z
Si Si1 0.991017 0.388136 0.165919
Si Si2 0.646368 0.041411 0.399354
Si Si3 0.517098 0.279472 0.982887
Si Si4 0.025132 0.277130 0.805470
Si Si5 0.475632 0.406442 0.317701
Si Si6 0.991010 0.904407 0.310115
O O1 0.118824 0.287277 0.135132
O O2 0.696071 0.452119 0.914406
O O3 0.117318 0.324744 0.584389
O O4 0.000000 0.500000 0.000000
O O5 0.754425 0.980962 0.253348
O O6 0.500000 0.000000 0.500000
O O7 0.454499 0.179068 0.082366
O O8 0.866727 0.029540 0.733505
O O9 0.396263 0.371538 0.040439
O O10 0.812128 0.208377 0.274186
O O11 0.429593 0.338576 0.584981
O O12 0.742808 0.373332 0.525435
O O13 0.077140 0.147729 0.924580
#
# Coordination Sequence:
#
# PCOD8030087 Si02
#       6
#     2   2   2   2   2   2
#     4  12  26  42  66 101 136 172 231 285 340 402
#     4   9  18  40  69 101 141 178 227 286 346 404
#     4   9  20  38  65  98 132 172 230 276 330 405
#     4  11  22  43  68  94 133 185 222 276 344 408
#     4  11  21  42  68  93 129 183 226 268 336 413
#     4   8  19  39  66 102 137 178 236 271 346 416
#
# _framework density 30.399243999999999
#
# number of rings (size 3 to 8) (size 9 to 14) (size 15 to 20)
#    1.000    1.000    0.000    4.500    0.000    1.333 
#    0.000   11.667    0.000    0.000    0.000    0.000 
#    0.000    0.000    0.000    0.000    0.000    0.000 
#
# Total GULP energy -148809.575111 kJ/mol
# GULP energy per Si atom -12400.797926 kJ/mol
# Density = 3.033005 g / cm^3
# Si number density = 30.399244 Si / 1000 Ang^3
#
#
#
# Elastic Constant Matrix: (Units=GPa)
#
#
# Indices 1 2 3 4 5 6 
#
# 1 164.8230 53.8509 47.5646 -1.2995 -40.5104 2.0219
# 2 53.8509 233.7264 76.2939 35.4951 -34.1315 -14.3438
# 3 47.5646 76.2939 142.6200 17.3312 -22.3187 6.0191
# 4 -1.2995 35.4951 17.3312 55.6878 -14.6364 -7.0533
# 5 -40.5104 -34.1315 -22.3187 -14.6364 45.0303 -11.5587
# 6 2.0219 -14.3438 6.0191 -7.0533 -11.5587 33.5294
#
#
#
# Elastic Compliance Matrix: (Units=1/GPa)
#
#
# Indices 1 2 3 4 5 6 
#
# 1 0.008967 -0.000516 -0.001948 0.003917 0.008875 0.003472
# 2 -0.000516 0.006261 -0.002590 -0.001788 0.003439 0.003984
# 3 -0.001948 -0.002590 0.009326 -0.001844 -0.000523 -0.003233
# 4 0.003917 -0.001788 -0.001844 0.023692 0.011039 0.008119
# 5 0.008875 0.003439 -0.000523 0.011039 0.040578 0.017341
# 6 0.003472 0.003984 -0.003233 0.008119 0.017341 0.039586
#
#
# Mechanical properties :
#
#
# Convention : Reuss Voigt Hill
#
# Bulk Modulus (GPa) = 69.22413 99.62090 84.42252
# Shear Modulus (GPa) = 34.88350 51.08018 42.98184
#
# Velocity S-wave (km/s) = 3.39117 4.10361 3.76428
# Velocity P-wave (km/s) = 6.17693 7.43605 6.83554
#
# Compressibility (1/GPa) = 0.01444583
#
# Stress axis : x y z
#
# Youngs Moduli (GPa) = 111.51387 159.71639 107.23202
#
# Poissons Ratio (x) = 0.08239 0.20893
# Poissons Ratio (y) = 0.05753 0.27772
# Poissons Ratio (z) = 0.21727 0.41365
#
# Static dielectric constant tensor:
#      x y z
#    x 6.636740 -0.594390 0.583000 
#    y -0.594390 6.037040 -0.282450 
#    z 0.583000 -0.282450 5.841770 
# 
# 
# High freq. dielectric constant tensor:
#      x y z
#    x 2.282420 -0.001360 0.019900 
#    y -0.001360 2.252190 -0.018110 
#    z 0.019900 -0.018110 2.269250 
# 
# From -- ./inp_files/32204.got.cif
#   From: 2010.06.25/outbox.cif.g09.slc.cpg/sg2_17_cif.got.tgz:32204.got - 2010.06.27 13:26:56.
