data_PCOD8030343
_publ_section_title
;
Structure prediction by ZEFSAII (Michael W. Deem and Ramdas Pophale) SiO2 
 PCOD8030343
Probable space group: P -1
;
_chemical_formula_sum "Si O2"
_cell_formula_units_Z 16
_cell_length_a 9.829161
_cell_length_b 19.797224
_cell_length_c 11.878419
_cell_angle_alpha 149.697929
_cell_angle_beta 130.397695
_cell_angle_gamma 40.088595
_cell_volume 750.480405
_symmetry_space_group_name_H-M "P -1"
_symmetry_group_IT_number 2
_symmetry_cell_setting 'triclinic'
loop_
_space_group_symop_operation_xyz
x,y,z
-x,-y,-z
loop_
_atom_site_type_symbol
_atom_site_label
_atom_site_fract_x
_atom_site_fract_y
_atom_site_fract_z
Si Si1 0.446512 0.428641 0.969304
Si Si2 0.757924 0.710260 0.705532
Si Si3 0.983548 0.633810 0.104138
Si Si4 0.255573 0.081811 0.453829
Si Si5 0.394389 0.175025 0.978978
Si Si6 0.801023 0.386535 0.259765
Si Si7 0.796733 0.135045 0.025120
Si Si8 0.604879 0.828587 0.541437
O O1 0.474454 0.266141 0.708298
O O2 0.500000 0.500000 0.000000
O O3 0.212920 0.564664 0.077070
O O4 0.607285 0.393684 0.104376
O O5 0.610292 0.833397 0.899358
O O6 0.754644 0.555844 0.516440
O O7 0.685022 0.756177 0.603772
O O8 0.986679 0.689166 0.810916
O O9 0.906625 0.793897 0.363585
O O10 0.000000 0.500000 0.000000
O O11 0.818195 0.676518 0.974840
O O12 0.215709 0.173850 0.444329
O O13 0.500000 0.000000 0.500000
O O14 0.216368 0.939534 0.208784
O O15 0.589991 0.189644 0.068291
O O16 0.417030 0.012495 0.715859
O O17 0.830072 0.279889 0.230520
O O18 0.000000 0.000000 0.000000
#
# Coordination Sequence:
#
# PCOD8030343 Si02
#       8
#     2   2   2   2   2   2   2   2
#     4  12  24  43  67 104 138 171 232 280 338 398
#     4  11  25  45  70  95 139 189 224 267 357 416
#     4  12  24  40  71 103 130 182 227 279 338 405
#     4  11  21  44  71  98 136 178 225 282 341 397
#     4  11  25  44  70 101 136 181 231 275 344 413
#     4  11  24  43  67  99 137 180 219 292 338 396
#     4  11  24  42  69 101 135 175 225 286 340 394
#     4  11  22  44  73  95 137 181 219 282 341 408
#
# _framework density 21.319678
#
# number of rings (size 3 to 8) (size 9 to 14) (size 15 to 20)
#    0.000    0.750    5.000    4.125    1.750    2.500 
#    2.250    1.250    0.000    0.000    0.000    0.000 
#    0.000    0.000    0.000    0.000    0.000    0.000 
#
# Total GULP energy -198306.387451 kJ/mol
# GULP energy per Si atom -12394.149216 kJ/mol
# Density = 2.127115 g / cm^3
# Si number density = 21.319678 Si / 1000 Ang^3
#
#
#
# Elastic Constant Matrix: (Units=GPa)
#
#
# Indices 1 2 3 4 5 6 
#
# 1 136.8624 56.4810 63.7274 10.6174 -6.7587 -6.2888
# 2 56.4810 135.2411 34.5629 -4.1963 4.8380 -6.3917
# 3 63.7274 34.5629 96.8839 6.4639 -4.9612 -16.2689
# 4 10.6174 -4.1963 6.4639 31.6451 5.1425 4.1903
# 5 -6.7587 4.8380 -4.9612 5.1425 41.1337 1.3101
# 6 -6.2888 -6.3917 -16.2689 4.1903 1.3101 37.7966
#
#
#
# Elastic Compliance Matrix: (Units=1/GPa)
#
#
# Indices 1 2 3 4 5 6 
#
# 1 0.012187 -0.003646 -0.006565 -0.003426 0.002103 -0.001108
# 2 -0.003646 0.009421 -0.001252 0.003069 -0.002248 0.000186
# 3 -0.006565 -0.001252 0.016289 -0.002257 0.001127 0.005918
# 4 -0.003426 0.003069 -0.002257 0.035128 -0.005437 -0.004729
# 5 0.002103 -0.002248 0.001127 -0.005437 0.025731 0.000166
# 6 -0.001108 0.000186 0.005918 -0.004729 0.000166 0.029370
#
#
# Mechanical properties :
#
#
# Convention : Reuss Voigt Hill
#
# Bulk Modulus (GPa) = 66.79367 75.39223 71.09295
# Shear Modulus (GPa) = 32.04270 36.39614 34.21942
#
# Velocity S-wave (km/s) = 3.88101 4.13626 4.01067
# Velocity P-wave (km/s) = 7.17500 7.63224 7.40715
#
# Compressibility (1/GPa) = 0.01497148
#
# Stress axis : x y z
#
# Youngs Moduli (GPa) = 82.05529 106.14596 61.39213
#
# Poissons Ratio (x) = 0.38697 0.40306
# Poissons Ratio (y) = 0.29915 0.07684
# Poissons Ratio (z) = 0.53872 0.13285
#
# Static dielectric constant tensor:
#      x y z
#    x 4.058130 0.170240 0.072970 
#    y 0.170240 3.886500 0.011250 
#    z 0.072970 0.011250 3.809540 
# 
# 
# High freq. dielectric constant tensor:
#      x y z
#    x 1.838620 0.013250 0.001680 
#    y 0.013250 1.845310 0.002520 
#    z 0.001680 0.002520 1.839430 
# 
# From -- ./inp_files/405726.got.cif
#   From: 2010.06.25/outbox.cif.g09.slc.cpg/sg2_203_cif.got.tgz:405726.got - 2010.06.27 13:26:56.
