data_PCOD8030880
_publ_section_title
;
Structure prediction by ZEFSAII (Michael W. Deem and Ramdas Pophale) SiO2 
 PCOD8030880
Probable space group: P -1
;
_chemical_formula_sum "Si O2"
_cell_formula_units_Z 14
_cell_length_a 15.674005
_cell_length_b 5.273610
_cell_length_c 12.175850
_cell_angle_alpha 63.513342
_cell_angle_beta 47.269381
_cell_angle_gamma 81.735767
_cell_volume 642.071364
_symmetry_space_group_name_H-M "P -1"
_symmetry_group_IT_number 2
_symmetry_cell_setting 'triclinic'
loop_
_space_group_symop_operation_xyz
x,y,z
-x,-y,-z
loop_
_atom_site_type_symbol
_atom_site_label
_atom_site_fract_x
_atom_site_fract_y
_atom_site_fract_z
Si Si1 0.012641 0.469199 0.278219
Si Si2 0.259503 0.174660 0.461855
Si Si3 0.684002 0.642616 0.239039
Si Si4 0.790684 0.192419 0.632870
Si Si5 0.442333 0.251827 0.466519
Si Si6 0.837505 0.959380 0.857129
Si Si7 0.884590 0.373285 0.199706
O O1 0.109100 0.317744 0.166114
O O2 0.933056 0.239584 0.477251
O O3 0.922108 0.543703 0.249628
O O4 0.063990 0.757371 0.247261
O O5 0.239087 0.492916 0.397889
O O6 0.387871 0.213091 0.400590
O O7 0.279365 0.017935 0.360469
O O8 0.150012 0.971477 0.668687
O O9 0.552982 0.533488 0.320900
O O10 0.667118 0.754006 0.353983
O O11 0.766615 0.416397 0.232366
O O12 0.751532 0.892485 0.050282
O O13 0.762080 0.032806 0.805702
O O14 0.500000 0.000000 0.500000
O O15 0.000000 0.500000 0.000000
#
# Coordination Sequence:
#
# PCOD8030880 Si02
#       7
#     2   2   2   2   2   2   2
#     4  11  23  39  66  97 143 181 220 267 336 411
#     4  11  24  45  69  98 131 182 225 277 339 395
#     4  11  26  42  69 102 138 175 226 285 344 402
#     4  11  24  44  68  96 138 184 228 267 331 409
#     4  11  24  46  71  95 132 178 231 283 345 401
#     4  12  25  43  65 101 138 181 227 273 331 406
#     4  11  22  41  65 106 140 169 219 281 346 405
#
# _framework density 21.804427
#
# number of rings (size 3 to 8) (size 9 to 14) (size 15 to 20)
#    0.000    0.857    2.857    5.143    6.000    0.571 
#    0.000    1.429    0.000    0.000    0.000    0.000 
#    0.000    0.000    0.000    0.000    0.000    0.000 
#
# Total GULP energy -173468.089777 kJ/mol
# GULP energy per Si atom -12390.577841 kJ/mol
# Density = 2.175480 g / cm^3
# Si number density = 21.804427 Si / 1000 Ang^3
#
#
#
# Elastic Constant Matrix: (Units=GPa)
#
#
# Indices 1 2 3 4 5 6 
#
# 1 147.2117 47.0563 55.5422 -2.9306 18.7823 13.0579
# 2 47.0563 108.5580 20.3106 -1.2265 8.1590 7.3360
# 3 55.5422 20.3106 63.5577 1.2712 12.9350 -9.7297
# 4 -2.9306 -1.2265 1.2712 18.6788 -9.8379 2.4419
# 5 18.7823 8.1590 12.9350 -9.8379 26.5514 3.6567
# 6 13.0579 7.3360 -9.7297 2.4419 3.6567 39.6585
#
#
#
# Elastic Compliance Matrix: (Units=1/GPa)
#
#
# Indices 1 2 3 4 5 6 
#
# 1 0.012566 -0.002877 -0.010972 0.003024 -0.000654 -0.006423
# 2 -0.002877 0.010777 -0.001020 0.000213 -0.000527 -0.001261
# 3 -0.010972 -0.001020 0.030672 -0.012679 -0.013403 0.013343
# 4 0.003024 0.000213 -0.012679 0.073756 0.032915 -0.011722
# 5 -0.000654 -0.000527 -0.013403 0.032915 0.058444 -0.010391
# 6 -0.006423 -0.001261 0.013343 -0.011722 -0.010391 0.032517
#
#
# Mechanical properties :
#
#
# Convention : Reuss Voigt Hill
#
# Bulk Modulus (GPa) = 41.19181 62.79394 51.99287
# Shear Modulus (GPa) = 19.48853 30.07231 24.78042
#
# Velocity S-wave (km/s) = 2.99287 3.71776 3.37484
# Velocity P-wave (km/s) = 5.55658 6.87679 6.25163
#
# Compressibility (1/GPa) = 0.02427667
#
# Stress axis : x y z
#
# Youngs Moduli (GPa) = 79.58219 92.79334 32.60297
#
# Poissons Ratio (x) = 0.26692 0.35773
# Poissons Ratio (y) = 0.22892 0.03326
# Poissons Ratio (z) = 0.87320 0.09465
#
# Static dielectric constant tensor:
#      x y z
#    x 3.434250 0.034040 0.626380 
#    y 0.034040 3.769220 0.104910 
#    z 0.626380 0.104910 3.614630 
# 
# 
# High freq. dielectric constant tensor:
#      x y z
#    x 1.868930 0.010960 0.011110 
#    y 0.010960 1.854300 -0.002580 
#    z 0.011110 -0.002580 1.841950 
# 
# From -- ./inp_files/64546.got.cif
#   From: 2010.06.25/outbox.cif.g09.slc.cpg/sg2_33_cif.got.tgz:64546.got - 2010.06.27 13:26:56.
