data_PCOD8030589
_publ_section_title
;
Structure prediction by ZEFSAII (Michael W. Deem and Ramdas Pophale) SiO2 
 PCOD8030589
Probable space group: P -1
;
_chemical_formula_sum "Si O2"
_cell_formula_units_Z 16
_cell_length_a 17.420943
_cell_length_b 20.960757
_cell_length_c 11.371830
_cell_angle_alpha 39.783612
_cell_angle_beta 33.022948
_cell_angle_gamma 18.339796
_cell_volume 702.910689
_symmetry_space_group_name_H-M "P -1"
_symmetry_group_IT_number 2
_symmetry_cell_setting 'triclinic'
loop_
_space_group_symop_operation_xyz
x,y,z
-x,-y,-z
loop_
_atom_site_type_symbol
_atom_site_label
_atom_site_fract_x
_atom_site_fract_y
_atom_site_fract_z
Si Si1 0.332359 0.051762 0.916821
Si Si2 0.243098 0.496798 0.057339
Si Si3 0.366886 0.476352 0.180706
Si Si4 0.379966 0.683560 0.380163
Si Si5 0.700865 0.098702 0.657883
Si Si6 0.839788 0.862140 0.435062
Si Si7 0.834953 0.062255 0.282306
Si Si8 0.332271 0.920285 0.876611
O O1 0.051010 0.300185 0.925614
O O2 0.614671 0.943760 0.690279
O O3 0.281990 0.000818 0.953486
O O4 0.381189 0.961750 0.104284
O O5 0.241488 0.558387 0.093484
O O6 0.330895 0.327727 0.213527
O O7 0.526392 0.346170 0.828679
O O8 0.602945 0.244189 0.225767
O O9 0.103606 0.624948 0.400768
O O10 0.500000 0.500000 0.000000
O O11 0.500000 0.500000 0.500000
O O12 0.483948 0.701625 0.317416
O O13 0.040401 0.894871 0.532143
O O14 0.650853 0.147812 0.514303
O O15 0.966249 0.880009 0.316615
O O16 0.687494 0.986306 0.332577
O O17 0.084063 0.989313 0.083699
#
# Coordination Sequence:
#
# PCOD8030589 Si02
#       8
#     2   2   2   2   2   2   2   2
#     4  12  26  45  66 102 139 180 222 272 342 407
#     4  12  23  39  72 101 132 172 225 282 340 392
#     4  12  25  41  69 102 132 175 227 278 339 401
#     4  11  22  38  68 105 129 172 229 286 328 382
#     4  11  24  42  66  97 140 176 222 278 330 397
#     4  12  27  44  67  99 144 179 216 278 344 405
#     4  12  25  44  69  99 135 178 228 278 330 396
#     4  12  22  43  70 100 136 169 225 289 331 385
#
# _framework density 22.762492999999999
#
# number of rings (size 3 to 8) (size 9 to 14) (size 15 to 20)
#    0.000    0.250    7.500    2.250    1.750    2.000 
#    0.000    0.625    0.000    0.000    0.000    0.000 
#    0.000    0.000    0.000    0.000    0.000    0.000 
#
# Total GULP energy -198305.092624 kJ/mol
# GULP energy per Si atom -12394.068289 kJ/mol
# Density = 2.271068 g / cm^3
# Si number density = 22.762493 Si / 1000 Ang^3
#
#
#
# Elastic Constant Matrix: (Units=GPa)
#
#
# Indices 1 2 3 4 5 6 
#
# 1 56.6197 7.1578 11.9337 -4.7252 13.8213 12.7792
# 2 7.1578 106.1339 8.5949 10.8872 -3.4444 14.6824
# 3 11.9337 8.5949 104.2765 3.5043 11.1294 2.2585
# 4 -4.7252 10.8872 3.5043 20.3117 -2.3048 9.8619
# 5 13.8213 -3.4444 11.1294 -2.3048 36.1646 0.1765
# 6 12.7792 14.6824 2.2585 9.8619 0.1765 30.2357
#
#
#
# Elastic Compliance Matrix: (Units=1/GPa)
#
#
# Indices 1 2 3 4 5 6 
#
# 1 0.024208 -0.001120 -0.001952 0.012216 -0.007914 -0.013480
# 2 -0.001120 0.010459 -0.000677 -0.004012 0.001393 -0.003255
# 3 -0.001952 -0.000677 0.010217 -0.002794 -0.002647 0.001318
# 4 0.012216 -0.004012 -0.002794 0.066760 0.000185 -0.024782
# 5 -0.007914 0.001393 -0.002647 0.000185 0.031622 0.002621
# 6 -0.013480 -0.003255 0.001318 -0.024782 0.002621 0.048321
#
#
# Mechanical properties :
#
#
# Convention : Reuss Voigt Hill
#
# Bulk Modulus (GPa) = 26.74745 35.82254 31.28499
# Shear Modulus (GPa) = 23.63524 33.29865 28.46695
#
# Velocity S-wave (km/s) = 3.22583 3.82890 3.54023
# Velocity P-wave (km/s) = 5.06466 5.94298 5.52131
#
# Compressibility (1/GPa) = 0.03738674
#
# Stress axis : x y z
#
# Youngs Moduli (GPa) = 41.30782 95.60772 97.87602
#
# Poissons Ratio (x) = 0.10705 0.19107
# Poissons Ratio (y) = 0.04625 0.06629
# Poissons Ratio (z) = 0.08064 0.06476
#
# Static dielectric constant tensor:
#      x y z
#    x 3.902060 0.090030 0.379760 
#    y 0.090030 5.678230 -0.692700 
#    z 0.379760 -0.692700 4.431520 
# 
# 
# High freq. dielectric constant tensor:
#      x y z
#    x 1.880710 0.016590 0.026220 
#    y 0.016590 1.912970 -0.005840 
#    z 0.026220 -0.005840 1.890950 
# 
# From -- ./inp_files/455397.got.cif
#   From: 2010.06.25/outbox.cif.g09.slc.cpg/sg2_228_cif.got.tgz:455397.got - 2010.06.27 13:26:56.
