data_PCOD8030481
_publ_section_title
;
Structure prediction by ZEFSAII (Michael W. Deem and Ramdas Pophale) SiO2 
 PCOD8030481
Probable space group: P -1
;
_chemical_formula_sum "Si O2"
_cell_formula_units_Z 16
_cell_length_a 15.654615
_cell_length_b 12.187184
_cell_length_c 15.900480
_cell_angle_alpha 125.648284
_cell_angle_beta 143.521766
_cell_angle_gamma 27.989967
_cell_volume 753.314837
_symmetry_space_group_name_H-M "P -1"
_symmetry_group_IT_number 2
_symmetry_cell_setting 'triclinic'
loop_
_space_group_symop_operation_xyz
x,y,z
-x,-y,-z
loop_
_atom_site_type_symbol
_atom_site_label
_atom_site_fract_x
_atom_site_fract_y
_atom_site_fract_z
Si Si1 0.920588 0.455751 0.987907
Si Si2 0.173383 0.689916 0.380027
Si Si3 0.887219 0.986983 0.023730
Si Si4 0.003417 0.711136 0.421961
Si Si5 0.445936 0.738682 0.636903
Si Si6 0.300382 0.255054 0.899572
Si Si7 0.334020 0.789660 0.883450
Si Si8 0.424606 0.662360 0.222330
O O1 0.109633 0.169366 0.008444
O O2 0.600805 0.671935 0.811636
O O3 0.937805 0.502687 0.115950
O O4 0.000000 0.500000 0.000000
O O5 0.980846 0.788921 0.345012
O O6 0.374047 0.641552 0.557407
O O7 0.353194 0.425130 0.359675
O O8 0.979071 0.919988 0.261744
O O9 0.198157 0.799508 0.174471
O O10 0.707273 0.214284 0.052261
O O11 0.726774 0.119751 0.867490
O O12 0.326741 0.447817 0.589196
O O13 0.853356 0.687919 0.278342
O O14 0.826498 0.947073 0.452203
O O15 0.461055 0.250276 0.984366
O O16 0.500000 0.000000 0.000000
O O17 0.451691 0.569106 0.827228
#
# Coordination Sequence:
#
# PCOD8030481 Si02
#       8
#     2   2   2   2   2   2   2   2
#     4  12  22  40  67  96 135 175 212 272 333 393
#     4  11  22  34  61 101 129 164 216 278 327 382
#     4  11  25  46  70  94 127 175 232 264 321 390
#     4  12  24  39  62  97 136 170 211 272 331 385
#     4  11  22  35  60  96 132 162 211 273 334 375
#     4  12  23  38  61 102 136 168 214 264 338 394
#     4  12  22  42  68  95 131 173 221 272 322 392
#     4  11  26  46  69  92 130 181 222 269 317 395
#
# _framework density 21.239459
#
# number of rings (size 3 to 8) (size 9 to 14) (size 15 to 20)
#    0.000    0.500    6.250    3.000    1.750    0.000 
#    0.000    1.250    0.000    0.000    0.000    0.000 
#    0.000    0.000    0.000    0.000    0.000    0.000 
#
# Total GULP energy -198350.862076 kJ/mol
# GULP energy per Si atom -12396.928880 kJ/mol
# Density = 2.119112 g / cm^3
# Si number density = 21.239459 Si / 1000 Ang^3
#
#
#
# Elastic Constant Matrix: (Units=GPa)
#
#
# Indices 1 2 3 4 5 6 
#
# 1 100.2227 40.3624 25.2605 3.1313 6.4553 -11.1079
# 2 40.3624 87.1277 40.9119 5.0367 10.6961 -20.0081
# 3 25.2605 40.9119 120.5548 5.4003 13.3374 4.4927
# 4 3.1313 5.0367 5.4003 31.5700 1.0858 -3.8607
# 5 6.4553 10.6961 13.3374 1.0858 23.6535 -0.4511
# 6 -11.1079 -20.0081 4.4927 -3.8607 -0.4511 36.2437
#
#
#
# Elastic Compliance Matrix: (Units=1/GPa)
#
#
# Indices 1 2 3 4 5 6 
#
# 1 0.012371 -0.004981 -0.000871 -0.000124 -0.000605 0.001129
# 2 -0.004981 0.018967 -0.005286 -0.000325 -0.004040 0.009514
# 3 -0.000871 -0.005286 0.010902 -0.001392 -0.003546 -0.004729
# 4 -0.000124 -0.000325 -0.001392 0.032410 -0.000457 0.003401
# 5 -0.000605 -0.004040 -0.003546 -0.000457 0.046262 -0.001449
# 6 0.001129 0.009514 -0.004729 0.003401 -0.001449 0.034120
#
#
# Mechanical properties :
#
#
# Convention : Reuss Voigt Hill
#
# Bulk Modulus (GPa) = 50.09145 57.88609 53.98877
# Shear Modulus (GPa) = 27.17938 31.71812 29.44875
#
# Velocity S-wave (km/s) = 3.58112 3.86859 3.72763
# Velocity P-wave (km/s) = 6.38236 6.87516 6.63334
#
# Compressibility (1/GPa) = 0.01996349
#
# Stress axis : x y z
#
# Youngs Moduli (GPa) = 80.83111 52.72407 91.72449
#
# Poissons Ratio (x) = 0.26263 0.07992
# Poissons Ratio (y) = 0.40264 0.48484
# Poissons Ratio (z) = 0.07043 0.27869
#
# Static dielectric constant tensor:
#      x y z
#    x 3.731960 -0.184080 0.137410 
#    y -0.184080 3.914400 0.169080 
#    z 0.137410 0.169080 3.947640 
# 
# 
# High freq. dielectric constant tensor:
#      x y z
#    x 1.819430 -0.025540 0.015490 
#    y -0.025540 1.832230 0.010940 
#    z 0.015490 0.010940 1.831800 
# 
# From -- ./inp_files/425242.got.cif
#   From: 2010.06.25/outbox.cif.g09.slc.cpg/sg2_213_cif.got.tgz:425242.got - 2010.06.27 13:26:56.
