data_PCOD8030818
_publ_section_title
;
Structure prediction by ZEFSAII (Michael W. Deem and Ramdas Pophale) SiO2 
 PCOD8030818
Probable space group: P -1
;
_chemical_formula_sum "Si O2"
_cell_formula_units_Z 14
_cell_length_a 11.370860
_cell_length_b 9.275058
_cell_length_c 11.276813
_cell_angle_alpha 125.925459
_cell_angle_beta 139.471963
_cell_angle_gamma 65.423712
_cell_volume 624.808719
_symmetry_space_group_name_H-M "P -1"
_symmetry_group_IT_number 2
_symmetry_cell_setting 'triclinic'
loop_
_space_group_symop_operation_xyz
x,y,z
-x,-y,-z
loop_
_atom_site_type_symbol
_atom_site_label
_atom_site_fract_x
_atom_site_fract_y
_atom_site_fract_z
Si Si1 0.699600 0.160871 0.649349
Si Si2 0.367481 0.954233 0.196688
Si Si3 0.092591 0.122056 0.917708
Si Si4 0.742043 0.531076 0.750077
Si Si5 0.602508 0.321780 0.339543
Si Si6 0.493356 0.327728 0.995494
Si Si7 0.792608 0.958927 0.286108
O O1 0.645705 0.141974 0.734348
O O2 0.726014 0.371066 0.752813
O O3 0.881738 0.055429 0.710816
O O4 0.547825 0.085401 0.404758
O O5 0.377380 0.808325 0.031761
O O6 0.185146 0.053906 0.076054
O O7 0.212803 0.067814 0.872198
O O8 0.081984 0.338108 0.026187
O O9 0.747643 0.459065 0.583408
O O10 0.578533 0.664206 0.713073
O O11 0.669032 0.121724 0.300939
O O12 0.576312 0.383322 0.213910
O O13 0.293788 0.224341 0.808693
O O14 0.500000 0.500000 0.000000
O O15 0.000000 0.000000 0.500000
#
# Coordination Sequence:
#
# PCOD8030818 Si02
#       7
#     2   2   2   2   2   2   2
#     4  11  25  43  69 103 136 179 230 282 342 412
#     4  11  24  44  67  97 141 183 223 279 348 412
#     4  12  23  43  72 100 136 178 233 281 342 409
#     4  11  22  40  70 101 131 173 229 286 326 403
#     4  11  22  43  69  99 136 181 231 274 348 417
#     4  12  24  43  69  99 139 183 227 286 350 412
#     4  12  25  44  71 103 138 181 231 289 344 419
#
# _framework density 22.406858
#
# number of rings (size 3 to 8) (size 9 to 14) (size 15 to 20)
#    0.000    0.571    2.857    7.286    0.000    1.143 
#    0.000    2.143    0.000    0.000    0.000    0.000 
#    0.000    0.000    0.000    0.000    0.000    0.000 
#
# Total GULP energy -173548.189858 kJ/mol
# GULP energy per Si atom -12396.299276 kJ/mol
# Density = 2.235586 g / cm^3
# Si number density = 22.406858 Si / 1000 Ang^3
#
#
#
# Elastic Constant Matrix: (Units=GPa)
#
#
# Indices 1 2 3 4 5 6 
#
# 1 91.3030 31.7391 51.4401 -2.6847 -9.0757 -1.9996
# 2 31.7391 110.9502 66.9002 -12.4354 9.4701 3.7712
# 3 51.4401 66.9002 118.9392 1.4359 -8.5386 5.0499
# 4 -2.6847 -12.4354 1.4359 29.6072 -8.3025 -8.1700
# 5 -9.0757 9.4701 -8.5386 -8.3025 45.7675 -2.6486
# 6 -1.9996 3.7712 5.0499 -8.1700 -2.6486 36.9345
#
#
#
# Elastic Compliance Matrix: (Units=1/GPa)
#
#
# Indices 1 2 3 4 5 6 
#
# 1 0.014998 -0.000604 -0.006100 0.002833 0.002621 0.002522
# 2 -0.000604 0.015482 -0.008822 0.005972 -0.003849 0.000638
# 3 -0.006100 -0.008822 0.016366 -0.005038 0.002605 -0.002595
# 4 0.002833 0.005972 -0.005038 0.041307 0.006448 0.009832
# 5 0.002621 -0.003849 0.002605 0.006448 0.025018 0.003399
# 6 0.002522 0.000638 -0.002595 0.009832 0.003399 0.029920
#
#
# Mechanical properties :
#
#
# Convention : Reuss Voigt Hill
#
# Bulk Modulus (GPa) = 63.31788 69.03902 66.17845
# Shear Modulus (GPa) = 27.86946 33.86937 30.86942
#
# Velocity S-wave (km/s) = 3.53057 3.89210 3.71573
# Velocity P-wave (km/s) = 6.70369 7.14677 6.92878
#
# Compressibility (1/GPa) = 0.01579333
#
# Stress axis : x y z
#
# Youngs Moduli (GPa) = 66.67382 64.59237 61.10223
#
# Poissons Ratio (x) = 0.03904 0.37271
# Poissons Ratio (y) = 0.04030 0.53905
# Poissons Ratio (z) = 0.40670 0.56984
#
# Static dielectric constant tensor:
#      x y z
#    x 4.020910 -0.034650 -0.089250 
#    y -0.034650 3.945750 0.043340 
#    z -0.089250 0.043340 4.468420 
# 
# 
# High freq. dielectric constant tensor:
#      x y z
#    x 1.878910 -0.002210 -0.015950 
#    y -0.002210 1.883870 -0.004100 
#    z -0.015950 -0.004100 1.895290 
# 
# From -- ./inp_files/174052.got.cif
#   From: 2010.06.25/outbox.cif.g09.slc.cpg/sg2_88_cif.got.tgz:174052.got - 2010.06.27 13:26:56.
