data_PCOD8030302
_publ_section_title
;
Structure prediction by ZEFSAII (Michael W. Deem and Ramdas Pophale) SiO2 
 PCOD8030302
Probable space group: P -1
;
_chemical_formula_sum "Si O2"
_cell_formula_units_Z 12
_cell_length_a 7.706263
_cell_length_b 12.348929
_cell_length_c 9.161211
_cell_angle_alpha 141.826601
_cell_angle_beta 119.057037
_cell_angle_gamma 59.415112
_cell_volume 457.804996
_symmetry_space_group_name_H-M "P -1"
_symmetry_group_IT_number 2
_symmetry_cell_setting 'triclinic'
loop_
_space_group_symop_operation_xyz
x,y,z
-x,-y,-z
loop_
_atom_site_type_symbol
_atom_site_label
_atom_site_fract_x
_atom_site_fract_y
_atom_site_fract_z
Si Si1 0.572814 0.926770 0.172758
Si Si2 0.861131 0.862300 0.487397
Si Si3 0.236252 0.288996 0.429379
Si Si4 0.543607 0.435672 0.284878
Si Si5 0.849434 0.376553 0.841697
Si Si6 0.976662 0.821010 0.031328
O O1 0.662333 0.919836 0.365505
O O2 0.754570 0.880607 0.080647
O O3 0.436643 0.127824 0.306323
O O4 0.431627 0.780081 0.943448
O O5 0.826308 0.709514 0.424217
O O6 0.065463 0.803122 0.410025
O O7 0.903684 0.021756 0.773866
O O8 0.265264 0.487609 0.609434
O O9 0.049770 0.258957 0.222194
O O10 0.500000 0.500000 0.500000
O O11 0.373376 0.526802 0.195346
O O12 0.865080 0.327691 0.966597
O O13 0.000000 0.500000 0.000000
#
# Coordination Sequence:
#
# PCOD8030302 Si02
#       6
#     2   2   2   2   2   2
#     4  11  23  44  70  95 128 179 221 260 327 393
#     4  11  24  42  66  98 131 174 213 274 332 374
#     4  12  25  43  65 103 137 163 218 277 330 381
#     4  12  24  44  71  97 128 174 224 269 320 393
#     4  11  21  44  68  92 129 169 228 260 313 402
#     4  11  22  43  68  95 125 181 219 260 323 392
#
# _framework density 26.212031
#
# number of rings (size 3 to 8) (size 9 to 14) (size 15 to 20)
#    0.000    0.667    5.000    5.500    2.333    0.667 
#    3.000    1.667    0.000    0.000    0.000    0.000 
#    0.000    0.000    0.000    0.000    0.000    0.000 
#
# Total GULP energy -148779.984923 kJ/mol
# GULP energy per Si atom -12398.332077 kJ/mol
# Density = 2.615237 g / cm^3
# Si number density = 26.212031 Si / 1000 Ang^3
#
#
#
# Elastic Constant Matrix: (Units=GPa)
#
#
# Indices 1 2 3 4 5 6 
#
# 1 22.6140 18.7748 28.5627 0.4174 5.5779 16.4441
# 2 18.7748 93.4248 10.4751 -19.3787 -6.2977 13.3205
# 3 28.5627 10.4751 105.7766 -7.2122 41.7464 3.8265
# 4 0.4174 -19.3787 -7.2122 59.8645 11.1299 1.6986
# 5 5.5779 -6.2977 41.7464 11.1299 43.1584 15.8373
# 6 16.4441 13.3205 3.8265 1.6986 15.8373 42.7774
#
#
#
# Elastic Compliance Matrix: (Units=1/GPa)
#
#
# Indices 1 2 3 4 5 6 
#
# 1 0.458998 -0.033514 -0.218138 -0.080973 0.254875 -0.237641
# 2 -0.033514 0.015534 0.012186 0.008536 -0.011363 0.010824
# 3 -0.218138 0.012186 0.122707 0.043649 -0.144296 0.120773
# 4 -0.080973 0.008536 0.043649 0.034352 -0.055411 0.043715
# 5 0.254875 -0.011363 -0.144296 -0.055411 0.198518 -0.152827
# 6 -0.237641 0.010824 0.120773 0.043715 -0.152827 0.155400
#
#
# Mechanical properties :
#
#
# Convention : Reuss Voigt Hill
#
# Bulk Modulus (GPa) = 8.45269 37.49342 22.97306
# Shear Modulus (GPa) = 3.32474 40.09357 21.70916
#
# Velocity S-wave (km/s) = 1.12746 3.91524 2.88099
# Velocity P-wave (km/s) = 2.21960 5.89692 4.45535
#
# Compressibility (1/GPa) = 0.11830557
#
# Stress axis : x y z
#
# Youngs Moduli (GPa) = 2.17866 64.37577 8.14952
#
# Poissons Ratio (x) = 2.15752 1.77772
# Poissons Ratio (y) = 0.07302 -0.09931
# Poissons Ratio (z) = 0.47525 -0.78451
#
# Static dielectric constant tensor:
#      x y z
#    x 4.626820 0.137340 -0.201490 
#    y 0.137340 4.865760 0.102160 
#    z -0.201490 0.102160 5.583880 
# 
# 
# High freq. dielectric constant tensor:
#      x y z
#    x 2.033120 0.008740 0.011580 
#    y 0.008740 2.060740 -0.004920 
#    z 0.011580 -0.004920 2.067750 
# 
# From -- ./inp_files/144854.got.cif
#   From: 2010.06.25/outbox.cif.g09.slc.cpg/sg2_73_cif.got.tgz:144854.got - 2010.06.27 13:26:56.
