data_PCOD8030130
_publ_section_title
;
Structure prediction by ZEFSAII (Michael W. Deem and Ramdas Pophale) SiO2 
 PCOD8030130
Probable space group: P -1
;
_chemical_formula_sum "Si O2"
_cell_formula_units_Z 16
_cell_length_a 9.026044
_cell_length_b 10.089470
_cell_length_c 20.735325
_cell_angle_alpha 32.093790
_cell_angle_beta 58.716856
_cell_angle_gamma 44.923507
_cell_volume 691.946063
_symmetry_space_group_name_H-M "P -1"
_symmetry_group_IT_number 2
_symmetry_cell_setting 'triclinic'
loop_
_space_group_symop_operation_xyz
x,y,z
-x,-y,-z
loop_
_atom_site_type_symbol
_atom_site_label
_atom_site_fract_x
_atom_site_fract_y
_atom_site_fract_z
Si Si1 0.950250 0.781635 0.633241
Si Si2 0.447900 0.775092 0.631855
Si Si3 0.249278 0.776324 0.017450
Si Si4 0.939362 0.178089 0.270841
Si Si5 0.717670 0.828477 0.246995
Si Si6 0.444548 0.162386 0.281686
Si Si7 0.368190 0.831283 0.245559
Si Si8 0.389556 0.247123 0.977452
O O1 0.035666 0.674618 0.731260
O O2 0.044967 0.479769 0.691750
O O3 0.692715 0.965430 0.615457
O O4 0.000000 0.000000 0.500000
O O5 0.190144 0.955465 0.619245
O O6 0.524031 0.693628 0.722236
O O7 0.557377 0.460515 0.696171
O O8 0.500000 0.000000 0.500000
O O9 0.415632 0.757989 0.036682
O O10 0.288005 0.881408 0.897234
O O11 0.313468 0.429061 0.145949
O O12 0.000000 0.000000 0.000000
O O13 0.803799 0.427857 0.142518
O O14 0.170543 0.902601 0.304413
O O15 0.561865 0.760324 0.275925
O O16 0.665420 0.885334 0.311805
O O17 0.288851 0.138007 0.096313
O O18 0.500000 0.000000 0.000000
#
# Coordination Sequence:
#
# PCOD8030130 Si02
#       8
#     2   2   2   2   2   2   2   2
#     4  12  26  44  71  99 134 186 236 279 331 404
#     4  12  27  47  69  99 142 177 229 292 334 393
#     4  11  22  42  70 103 139 175 217 284 353 403
#     4  12  23  46  71 101 136 180 232 276 341 411
#     4  11  24  44  72 101 137 178 227 278 343 416
#     4  12  25  45  68 106 138 175 226 287 347 394
#     4  11  24  44  74 100 134 185 225 275 345 413
#     4  11  21  42  71 101 136 178 223 278 342 413
#
# _framework density 23.123189
#
# number of rings (size 3 to 8) (size 9 to 14) (size 15 to 20)
#    0.000    0.500    6.250    2.250    0.000    3.000 
#    2.250    0.000    0.000    0.000    0.000    0.000 
#    0.000    0.000    0.000    0.000    0.000    0.000 
#
# Total GULP energy -198299.073723 kJ/mol
# GULP energy per Si atom -12393.692108 kJ/mol
# Density = 2.307056 g / cm^3
# Si number density = 23.123189 Si / 1000 Ang^3
#
#
#
# Elastic Constant Matrix: (Units=GPa)
#
#
# Indices 1 2 3 4 5 6 
#
# 1 79.1963 41.8308 21.2258 12.6277 -11.3373 -1.9469
# 2 41.8308 138.7386 40.7458 36.2337 -5.3029 0.3379
# 3 21.2258 40.7458 79.8654 11.2481 -17.9636 7.4305
# 4 12.6277 36.2337 11.2481 30.1509 -8.3647 -5.6780
# 5 -11.3373 -5.3029 -17.9636 -8.3647 37.1742 5.1627
# 6 -1.9469 0.3379 7.4305 -5.6780 5.1627 37.6054
#
#
#
# Elastic Compliance Matrix: (Units=1/GPa)
#
#
# Indices 1 2 3 4 5 6 
#
# 1 0.015721 -0.004254 -0.001296 0.000103 0.003495 0.000644
# 2 -0.004254 0.013332 -0.004674 -0.013959 -0.004673 -0.000883
# 3 -0.001296 -0.004674 0.017341 0.001132 0.008184 -0.004404
# 4 0.000103 -0.013959 0.001132 0.053414 0.009683 0.006643
# 5 0.003495 -0.004673 0.008184 0.009683 0.034074 -0.004610
# 6 0.000644 -0.000883 -0.004404 0.006643 -0.004610 0.029139
#
#
# Mechanical properties :
#
#
# Convention : Reuss Voigt Hill
#
# Bulk Modulus (GPa) = 38.54146 56.15612 47.34879
# Shear Modulus (GPa) = 26.02548 33.91929 29.97239
#
# Velocity S-wave (km/s) = 3.35851 3.83416 3.60419
# Velocity P-wave (km/s) = 5.63414 6.62868 6.15154
#
# Compressibility (1/GPa) = 0.02594608
#
# Stress axis : x y z
#
# Youngs Moduli (GPa) = 63.60906 75.00497 57.66553
#
# Poissons Ratio (x) = 0.31908 0.07473
# Poissons Ratio (y) = 0.27060 0.26954
# Poissons Ratio (z) = 0.08244 0.35059
#
# Static dielectric constant tensor:
#      x y z
#    x 4.306340 -0.086950 -0.076620 
#    y -0.086950 4.166460 0.305850 
#    z -0.076620 0.305850 4.195010 
# 
# 
# High freq. dielectric constant tensor:
#      x y z
#    x 1.914630 -0.006570 -0.011460 
#    y -0.006570 1.914840 0.022350 
#    z -0.011460 0.022350 1.915670 
# 
# From -- ./inp_files/589352.got.cif
#   From: 2010.06.25/outbox.cif.g09.slc.cpg/sg2_295_cif.got.tgz:589352.got - 2010.06.27 13:26:56.
