data_PCOD8030160
_publ_section_title
;
Structure prediction by ZEFSAII (Michael W. Deem and Ramdas Pophale) SiO2 
 PCOD8030160
Probable space group: P -1
;
_chemical_formula_sum "Si O2"
_cell_formula_units_Z 16
_cell_length_a 17.417538
_cell_length_b 8.446014
_cell_length_c 11.477806
_cell_angle_alpha 126.149581
_cell_angle_beta 32.494449
_cell_angle_gamma 127.739532
_cell_volume 706.463379
_symmetry_space_group_name_H-M "P -1"
_symmetry_group_IT_number 2
_symmetry_cell_setting 'triclinic'
loop_
_space_group_symop_operation_xyz
x,y,z
-x,-y,-z
loop_
_atom_site_type_symbol
_atom_site_label
_atom_site_fract_x
_atom_site_fract_y
_atom_site_fract_z
Si Si1 0.549116 0.819278 0.802186
Si Si2 0.605267 0.352909 0.289592
Si Si3 0.337858 0.855406 0.643834
Si Si4 0.612555 0.516711 0.963750
Si Si5 0.192883 0.677647 0.520520
Si Si6 0.874294 0.463351 0.827202
Si Si7 0.856517 0.082523 0.517374
Si Si8 0.167345 0.142719 0.079883
O O1 0.496639 0.825209 0.737475
O O2 0.728063 0.873127 0.612688
O O3 0.467200 0.601166 0.869601
O O4 0.500000 0.000000 0.000000
O O5 0.500000 0.500000 0.500000
O O6 0.658350 0.295565 0.321290
O O7 0.761807 0.446555 0.069162
O O8 0.303324 0.736232 0.514151
O O9 0.500000 0.000000 0.500000
O O10 0.208019 0.972302 0.873148
O O11 0.739609 0.420348 0.714341
O O12 0.682145 0.759789 0.997798
O O13 0.500000 0.500000 0.000000
O O14 0.158225 0.867984 0.580091
O O15 0.041436 0.517011 0.686562
O O16 0.840827 0.258596 0.703571
O O17 0.857290 0.655041 0.859002
O O18 0.020412 0.042062 0.301485
#
# Coordination Sequence:
#
# PCOD8030160 Si02
#       8
#     2   2   2   2   2   2   2   2
#     4  12  23  43  71 101 129 176 233 281 329 393
#     4  12  27  46  67  96 140 184 224 274 344 410
#     4  12  28  43  66  99 143 177 225 284 333 404
#     4  12  24  40  70 100 132 178 228 278 334 397
#     4  11  22  42  69  98 134 182 223 274 346 399
#     4  11  21  44  73  96 136 179 228 281 338 404
#     4  11  21  42  75 103 134 174 233 285 331 401
#     4  11  22  44  68 103 133 179 223 278 344 391
#
# _framework density 22.648022999999998
#
# number of rings (size 3 to 8) (size 9 to 14) (size 15 to 20)
#    0.000    0.500    6.250    3.000    3.500    3.500 
#    2.250    1.250    0.000    0.000    0.000    0.000 
#    0.000    0.000    0.000    0.000    0.000    0.000 
#
# Total GULP energy -198230.353736 kJ/mol
# GULP energy per Si atom -12389.397109 kJ/mol
# Density = 2.259647 g / cm^3
# Si number density = 22.648023 Si / 1000 Ang^3
#
#
#
# Elastic Constant Matrix: (Units=GPa)
#
#
# Indices 1 2 3 4 5 6 
#
# 1 112.6012 27.0900 17.1594 -11.7693 11.1394 18.1863
# 2 27.0900 73.7129 48.9060 -25.3009 -1.4449 21.1862
# 3 17.1594 48.9060 135.1295 -29.6991 -0.3697 2.1933
# 4 -11.7693 -25.3009 -29.6991 49.9253 9.7558 -9.7827
# 5 11.1394 -1.4449 -0.3697 9.7558 33.9685 -2.1089
# 6 18.1863 21.1862 2.1933 -9.7827 -2.1089 30.8350
#
#
#
# Elastic Compliance Matrix: (Units=1/GPa)
#
#
# Indices 1 2 3 4 5 6 
#
# 1 0.010742 -0.002032 -0.000295 0.001214 -0.004261 -0.004825
# 2 -0.002032 0.024981 -0.007419 0.005193 -0.000702 -0.013838
# 3 -0.000295 -0.007419 0.010893 0.003936 -0.000878 0.005686
# 4 0.001214 0.005193 0.003936 0.027529 -0.007815 0.003635
# 5 -0.004261 -0.000702 -0.000878 -0.007815 0.033218 0.002850
# 6 -0.004825 -0.013838 0.005686 0.003635 0.002850 0.045728
#
#
# Mechanical properties :
#
#
# Convention : Reuss Voigt Hill
#
# Bulk Modulus (GPa) = 36.86732 56.41715 46.64223
# Shear Modulus (GPa) = 27.52894 38.16497 32.84695
#
# Velocity S-wave (km/s) = 3.49020 4.10949 3.81244
# Velocity P-wave (km/s) = 5.70576 6.89070 6.32604
#
# Compressibility (1/GPa) = 0.02712429
#
# Stress axis : x y z
#
# Youngs Moduli (GPa) = 93.08863 40.02977 91.79890
#
# Poissons Ratio (x) = 0.08135 0.02709
# Poissons Ratio (y) = 0.18917 0.68107
# Poissons Ratio (z) = 0.02747 0.29699
#
# Static dielectric constant tensor:
#      x y z
#    x 4.082850 0.454650 -0.218200 
#    y 0.454650 4.109210 0.071260 
#    z -0.218200 0.071260 4.375530 
# 
# 
# High freq. dielectric constant tensor:
#      x y z
#    x 1.889120 0.023770 -0.008280 
#    y 0.023770 1.877590 -0.015740 
#    z -0.008280 -0.015740 1.912190 
# 
# From -- ./inp_files/462408.got.cif
#   From: 2010.06.25/outbox.cif.g09.slc.cpg/sg2_232_cif.got.tgz:462408.got - 2010.06.27 13:26:56.
