data_PCOD8030107
_publ_section_title
;
Structure prediction by ZEFSAII (Michael W. Deem and Ramdas Pophale) SiO2 
 PCOD8030107
Probable space group: P -1
;
_chemical_formula_sum "Si O2"
_cell_formula_units_Z 16
_cell_length_a 9.838619
_cell_length_b 19.018589
_cell_length_c 11.789001
_cell_angle_alpha 133.023702
_cell_angle_beta 138.883883
_cell_angle_gamma 78.603700
_cell_volume 798.353196
_symmetry_space_group_name_H-M "P -1"
_symmetry_group_IT_number 2
_symmetry_cell_setting 'triclinic'
loop_
_space_group_symop_operation_xyz
x,y,z
-x,-y,-z
loop_
_atom_site_type_symbol
_atom_site_label
_atom_site_fract_x
_atom_site_fract_y
_atom_site_fract_z
Si Si1 0.034739 0.562491 0.712032
Si Si2 0.412416 0.364273 0.789157
Si Si3 0.692644 0.983824 0.159049
Si Si4 0.015065 0.240861 0.193838
Si Si5 0.889199 0.856224 0.062159
Si Si6 0.501138 0.400866 0.323722
Si Si7 0.247347 0.245794 0.783890
Si Si8 0.443285 0.101075 0.776877
O O1 0.000000 0.500000 0.500000
O O2 0.983462 0.659658 0.765906
O O3 0.812020 0.462090 0.557191
O O4 0.325347 0.625984 0.022490
O O5 0.253569 0.302303 0.503973
O O6 0.208380 0.280250 0.673477
O O7 0.500000 0.500000 0.000000
O O8 0.764391 0.924644 0.046534
O O9 0.552341 0.891313 0.076382
O O10 0.965416 0.121933 0.523208
O O11 0.500000 0.000000 0.000000
O O12 0.071210 0.171442 0.068072
O O13 0.718826 0.133699 0.945199
O O14 0.669173 0.727644 0.852672
O O15 0.187110 0.957125 0.418998
O O16 0.500000 0.500000 0.500000
O O17 0.361872 0.363400 0.069709
O O18 0.446552 0.213054 0.860005
#
# Coordination Sequence:
#
# PCOD8030107 Si02
#       8
#     2   2   2   2   2   2   2   2
#     4  12  23  42  68  95 134 187 228 269 336 402
#     4  12  25  41  68 103 136 181 237 274 328 418
#     4  11  23  42  68 101 134 178 228 284 336 411
#     4  12  24  44  67 101 140 173 224 289 339 397
#     4  11  24  44  67 103 134 174 230 280 354 402
#     4  12  22  40  69  98 135 177 225 281 340 405
#     4  11  21  42  69  96 132 178 233 274 333 410
#     4  11  21  44  74  95 131 184 230 278 338 413
#
# _framework density 20.041253999999999
#
# number of rings (size 3 to 8) (size 9 to 14) (size 15 to 20)
#    0.000    0.500    7.500    1.875    0.000    1.000 
#    4.500    3.750    0.000    0.000    0.000    0.000 
#    0.000    0.000    0.000    0.000    0.000    0.000 
#
# Total GULP energy -198351.575288 kJ/mol
# GULP energy per Si atom -12396.973455 kJ/mol
# Density = 1.999564 g / cm^3
# Si number density = 20.041254 Si / 1000 Ang^3
#
#
#
# Elastic Constant Matrix: (Units=GPa)
#
#
# Indices 1 2 3 4 5 6 
#
# 1 153.7713 47.7131 71.6806 -1.2654 -3.9402 -9.8005
# 2 47.7131 105.6710 59.3992 -10.1455 -5.6970 -2.3410
# 3 71.6806 59.3992 122.8830 -5.2288 -4.1230 -14.0805
# 4 -1.2654 -10.1455 -5.2288 38.2096 -0.2198 3.4726
# 5 -3.9402 -5.6970 -4.1230 -0.2198 42.3255 5.3349
# 6 -9.8005 -2.3410 -14.0805 3.4726 5.3349 27.4923
#
#
#
# Elastic Compliance Matrix: (Units=1/GPa)
#
#
# Indices 1 2 3 4 5 6 
#
# 1 0.009156 -0.001688 -0.004452 -0.000839 0.000070 0.000933
# 2 -0.001688 0.013844 -0.005881 0.003108 0.001544 -0.003127
# 3 -0.004452 -0.005881 0.014156 -0.000256 -0.000495 0.005291
# 4 -0.000839 0.003108 -0.000256 0.027284 0.000935 -0.003793
# 5 0.000070 0.001544 -0.000495 0.000935 0.024422 -0.004955
# 6 0.000933 -0.003127 0.005291 -0.003793 -0.004955 0.040590
#
#
# Mechanical properties :
#
#
# Convention : Reuss Voigt Hill
#
# Bulk Modulus (GPa) = 76.25269 82.21233 79.23251
# Shear Modulus (GPa) = 31.67226 35.17431 33.42328
#
# Velocity S-wave (km/s) = 3.97968 4.19393 4.08821
# Velocity P-wave (km/s) = 7.69725 8.03509 7.86798
#
# Compressibility (1/GPa) = 0.01311429
#
# Stress axis : x y z
#
# Youngs Moduli (GPa) = 109.21298 72.23345 70.63979
#
# Poissons Ratio (x) = 0.12194 0.31446
# Poissons Ratio (y) = 0.18437 0.41547
# Poissons Ratio (z) = 0.48617 0.42484
#
# Static dielectric constant tensor:
#      x y z
#    x 3.661160 -0.413450 0.295080 
#    y -0.413450 2.380140 0.542980 
#    z 0.295080 0.542980 3.654000 
# 
# 
# High freq. dielectric constant tensor:
#      x y z
#    x 1.793700 0.008210 0.011450 
#    y 0.008210 1.772710 0.014600 
#    z 0.011450 0.014600 1.788270 
# 
# From -- ./inp_files/261092.got.cif
#   From: 2010.06.25/outbox.cif.g09.slc.cpg/sg2_131_cif.got.tgz:261092.got - 2010.06.27 13:26:56.
