data_PCOD8030290
_publ_section_title
;
Structure prediction by ZEFSAII (Michael W. Deem and Ramdas Pophale) SiO2 
 PCOD8030290
Probable space group: P -1
;
_chemical_formula_sum "Si O2"
_cell_formula_units_Z 16
_cell_length_a 5.629311
_cell_length_b 12.680108
_cell_length_c 11.203411
_cell_angle_alpha 85.814818
_cell_angle_beta 62.979377
_cell_angle_gamma 93.604225
_cell_volume 706.348187
_symmetry_space_group_name_H-M "P -1"
_symmetry_group_IT_number 2
_symmetry_cell_setting 'triclinic'
loop_
_space_group_symop_operation_xyz
x,y,z
-x,-y,-z
loop_
_atom_site_type_symbol
_atom_site_label
_atom_site_fract_x
_atom_site_fract_y
_atom_site_fract_z
Si Si1 0.346353 0.076520 0.108351
Si Si2 0.645460 0.824460 0.337959
Si Si3 0.777840 0.612236 0.387590
Si Si4 0.520428 0.557911 0.684662
Si Si5 0.167632 0.203736 0.940979
Si Si6 0.660947 0.298524 0.088252
Si Si7 0.107097 0.929268 0.382008
Si Si8 0.648022 0.370049 0.834400
O O1 0.533414 0.177312 0.110185
O O2 0.204580 0.010955 0.250857
O O3 0.131986 0.121880 0.065366
O O4 0.500000 0.000000 0.000000
O O5 0.574843 0.696405 0.383719
O O6 0.853677 0.856369 0.176789
O O7 0.358691 0.871857 0.383328
O O8 0.836413 0.857738 0.405969
O O9 0.766872 0.596887 0.535898
O O10 0.707600 0.499366 0.345491
O O11 0.066356 0.660904 0.271589
O O12 0.415987 0.657770 0.768812
O O13 0.600678 0.480402 0.775667
O O14 0.462326 0.265153 0.847511
O O15 0.978308 0.294494 0.004849
O O16 0.602628 0.378563 0.987473
O O17 0.000000 0.000000 0.500000
#
# Coordination Sequence:
#
# PCOD8030290 Si02
#       8
#     2   2   2   2   2   2   2   2
#     4  11  25  44  69 102 136 187 239 298 357 429
#     4  12  24  48  75 103 145 192 240 299 360 439
#     4  11  25  42  70  99 140 187 237 289 366 440
#     4  11  25  43  65 102 139 183 237 295 367 431
#     4  11  23  42  73 102 137 187 242 293 362 429
#     4  11  25  41  68 101 140 180 238 306 355 423
#     4  12  29  47  76 108 145 192 243 301 368 430
#     4  11  21  44  66  99 137 186 237 290 358 433
#
# _framework density 22.651717999999999
#
# number of rings (size 3 to 8) (size 9 to 14) (size 15 to 20)
#    0.000    0.750    3.750    2.625    3.500    6.000 
#    0.000    0.000    0.000    0.000    0.000    0.000 
#    0.000    0.000    0.000    0.000    0.000    0.000 
#
# Total GULP energy -198232.197278 kJ/mol
# GULP energy per Si atom -12389.512330 kJ/mol
# Density = 2.260016 g / cm^3
# Si number density = 22.651718 Si / 1000 Ang^3
#
#
#
# Elastic Constant Matrix: (Units=GPa)
#
#
# Indices 1 2 3 4 5 6 
#
# 1 87.6245 22.6375 9.4856 19.4325 2.9752 -1.3981
# 2 22.6375 97.8654 32.8504 21.2580 5.3977 -2.3879
# 3 9.4856 32.8504 113.6348 31.6816 7.6727 12.0871
# 4 19.4325 21.2580 31.6816 50.1582 0.7977 0.7202
# 5 2.9752 5.3977 7.6727 0.7977 28.8562 -1.1094
# 6 -1.3981 -2.3879 12.0871 0.7202 -1.1094 29.1445
#
#
#
# Elastic Compliance Matrix: (Units=1/GPa)
#
#
# Indices 1 2 3 4 5 6 
#
# 1 0.012956 -0.002237 0.000912 -0.004633 -0.001027 0.000136
# 2 -0.002237 0.012359 -0.002799 -0.002615 -0.001184 0.002086
# 3 0.000912 -0.002799 0.012146 -0.006720 -0.002813 -0.005164
# 4 -0.004633 -0.002615 -0.006720 0.027026 0.002074 0.001761
# 5 -0.001027 -0.001184 -0.002813 0.002074 0.035762 0.002330
# 6 0.000136 0.002086 -0.005164 0.001761 0.002330 0.036676
#
#
# Mechanical properties :
#
#
# Convention : Reuss Voigt Hill
#
# Bulk Modulus (GPa) = 34.23140 47.67464 40.95302
# Shear Modulus (GPa) = 32.27660 37.24187 34.75923
#
# Velocity S-wave (km/s) = 3.77889 4.05916 3.92153
# Velocity P-wave (km/s) = 5.84678 6.56213 6.21476
#
# Compressibility (1/GPa) = 0.02921294
#
# Stress axis : x y z
#
# Youngs Moduli (GPa) = 77.18468 80.91133 82.33252
#
# Poissons Ratio (x) = 0.18097 -0.07506
# Poissons Ratio (y) = 0.17263 0.23046
# Poissons Ratio (z) = -0.07037 0.22648
#
# Static dielectric constant tensor:
#      x y z
#    x 4.229030 -0.051240 0.231580 
#    y -0.051240 4.083860 -0.091630 
#    z 0.231580 -0.091630 4.215100 
# 
# 
# High freq. dielectric constant tensor:
#      x y z
#    x 1.889890 -0.004400 0.013260 
#    y -0.004400 1.896550 -0.004670 
#    z 0.013260 -0.004670 1.903260 
# 
# From -- ./inp_files/364444.got.cif
#   From: 2010.06.25/outbox.cif.g09.slc.cpg/sg2_183_cif.got.tgz:364444.got - 2010.06.27 13:26:56.
