data_PCOD8030832
_publ_section_title
;
Structure prediction by ZEFSAII (Michael W. Deem and Ramdas Pophale) SiO2 
 PCOD8030832
Probable space group: P -1
;
_chemical_formula_sum "Si O2"
_cell_formula_units_Z 16
_cell_length_a 9.346257
_cell_length_b 12.221225
_cell_length_c 18.241453
_cell_angle_alpha 29.263550
_cell_angle_beta 48.687093
_cell_angle_gamma 61.041833
_cell_volume 740.752659
_symmetry_space_group_name_H-M "P -1"
_symmetry_group_IT_number 2
_symmetry_cell_setting 'triclinic'
loop_
_space_group_symop_operation_xyz
x,y,z
-x,-y,-z
loop_
_atom_site_type_symbol
_atom_site_label
_atom_site_fract_x
_atom_site_fract_y
_atom_site_fract_z
Si Si1 0.152434 0.091192 0.331582
Si Si2 0.802661 0.586146 0.235200
Si Si3 0.146293 0.050082 0.742741
Si Si4 0.435326 0.066297 0.864114
Si Si5 0.948131 0.274160 0.793721
Si Si6 0.957198 0.471615 0.944516
Si Si7 0.471278 0.866456 0.368384
Si Si8 0.891512 0.215386 0.613271
O O1 0.163732 0.348183 0.148109
O O2 0.370146 0.080180 0.291703
O O3 0.082878 0.907831 0.398169
O O4 0.000000 0.000000 0.500000
O O5 0.654460 0.744862 0.175381
O O6 0.698917 0.365495 0.447464
O O7 0.988247 0.708217 0.152575
O O8 0.851960 0.494199 0.192587
O O9 0.378540 0.173872 0.596437
O O10 0.031988 0.074776 0.842271
O O11 0.046206 0.150757 0.652610
O O12 0.160077 0.788780 0.878411
O O13 0.409786 0.095430 0.769495
O O14 0.666962 0.113662 0.779455
O O15 0.292804 0.810675 0.080863
O O16 0.039679 0.508216 0.580455
O O17 0.000000 0.500000 0.000000
#
# Coordination Sequence:
#
# PCOD8030832 Si02
#       8
#     2   2   2   2   2   2   2   2
#     4  11  22  46  71  95 138 199 241 283 352 421
#     4  12  21  43  72 102 144 183 234 301 352 428
#     4  12  25  44  67 106 147 181 238 301 359 424
#     4  11  22  40  71 106 139 183 238 286 369 425
#     4  12  22  42  72 108 141 185 236 294 366 431
#     4  12  25  45  70  95 144 195 236 292 354 412
#     4  11  23  41  74 105 135 187 239 296 357 425
#     4  11  25  45  67 105 152 179 232 312 354 421
#
# _framework density 21.599651000000001
#
# number of rings (size 3 to 8) (size 9 to 14) (size 15 to 20)
#    0.000    0.500    7.500    2.625    0.000    1.000 
#    2.250    3.750    0.000    0.000    0.000    0.000 
#    0.000    0.000    0.000    0.000    0.000    0.000 
#
# Total GULP energy -198244.748076 kJ/mol
# GULP energy per Si atom -12390.296755 kJ/mol
# Density = 2.155049 g / cm^3
# Si number density = 21.599651 Si / 1000 Ang^3
#
#
#
# Elastic Constant Matrix: (Units=GPa)
#
#
# Indices 1 2 3 4 5 6 
#
# 1 155.4715 50.1230 50.0999 4.4575 2.5295 -24.3410
# 2 50.1230 115.6915 42.2570 -3.2313 -6.6991 -7.2724
# 3 50.0999 42.2570 103.3132 0.8325 -5.8903 0.2727
# 4 4.4575 -3.2313 0.8325 33.5723 -7.5405 -0.0240
# 5 2.5295 -6.6991 -5.8903 -7.5405 26.6790 -4.1044
# 6 -24.3410 -7.2724 0.2727 -0.0240 -4.1044 23.3588
#
#
#
# Elastic Compliance Matrix: (Units=1/GPa)
#
#
# Indices 1 2 3 4 5 6 
#
# 1 0.010068 -0.002448 -0.003977 -0.001802 -0.001494 0.009511
# 2 -0.002448 0.011235 -0.003247 0.002206 0.003198 0.001549
# 3 -0.003977 -0.003247 0.013047 0.000282 0.001753 -0.004999
# 4 -0.001802 0.002206 0.000282 0.032492 0.010064 0.000607
# 5 -0.001494 0.003198 0.001753 0.010064 0.042726 0.006937
# 6 0.009511 0.001549 -0.004999 0.000607 0.006937 0.054481
#
#
# Mechanical properties :
#
#
# Convention : Reuss Voigt Hill
#
# Bulk Modulus (GPa) = 66.64603 73.27069 69.95836
# Shear Modulus (GPa) = 26.54001 32.18846 29.36423
#
# Velocity S-wave (km/s) = 3.50912 3.86454 3.69111
# Velocity P-wave (km/s) = 6.88046 7.34225 7.11510
#
# Compressibility (1/GPa) = 0.01500464
#
# Stress axis : x y z
#
# Youngs Moduli (GPa) = 99.32593 89.00974 76.64730
#
# Poissons Ratio (x) = 0.21793 0.30479
# Poissons Ratio (y) = 0.24319 0.24891
# Poissons Ratio (z) = 0.39497 0.28905
#
# Static dielectric constant tensor:
#      x y z
#    x 3.853490 -0.054000 -0.044250 
#    y -0.054000 4.120160 -0.133790 
#    z -0.044250 -0.133790 4.045040 
# 
# 
# High freq. dielectric constant tensor:
#      x y z
#    x 1.840290 -0.003010 0.003690 
#    y -0.003010 1.851870 -0.004660 
#    z 0.003690 -0.004660 1.855310 
# 
# From -- ./inp_files/559511.got.cif
#   From: 2010.06.25/outbox.cif.g09.slc.cpg/sg2_280_cif.got.tgz:559511.got - 2010.06.27 13:26:56.
