data_PCOD8030439
_publ_section_title
;
Structure prediction by ZEFSAII (Michael W. Deem and Ramdas Pophale) SiO2 
 PCOD8030439
Probable space group: P -1
;
_chemical_formula_sum "Si O2"
_cell_formula_units_Z 12
_cell_length_a 12.286221
_cell_length_b 9.550245
_cell_length_c 8.746999
_cell_angle_alpha 79.620533
_cell_angle_beta 60.307458
_cell_angle_gamma 36.941538
_cell_volume 487.950769
_symmetry_space_group_name_H-M "P -1"
_symmetry_group_IT_number 2
_symmetry_cell_setting 'triclinic'
loop_
_space_group_symop_operation_xyz
x,y,z
-x,-y,-z
loop_
_atom_site_type_symbol
_atom_site_label
_atom_site_fract_x
_atom_site_fract_y
_atom_site_fract_z
Si Si1 0.199982 0.320801 0.518900
Si Si2 0.213936 0.999343 0.667870
Si Si3 0.508749 0.116276 0.092983
Si Si4 0.873170 0.981025 0.935701
Si Si5 0.768495 0.351944 0.778015
Si Si6 0.285742 0.531570 0.547361
O O1 0.217448 0.166974 0.643764
O O2 0.435758 0.118176 0.304973
O O3 0.173799 0.481911 0.614183
O O4 0.000000 0.500000 0.500000
O O5 0.040481 0.116504 0.633852
O O6 0.463049 0.708150 0.510258
O O7 0.117201 0.023254 0.887218
O O8 0.341681 0.405671 0.111513
O O9 0.500000 0.000000 0.000000
O O10 0.760936 0.938778 0.967980
O O11 0.124105 0.764347 0.734449
O O12 0.712158 0.260728 0.929269
O O13 0.695525 0.406979 0.641398
#
# Coordination Sequence:
#
# PCOD8030439 Si02
#       6
#     2   2   2   2   2   2
#     4  11  21  46  67 100 145 180 231 297 349 408
#     4  12  25  45  73 102 148 183 236 297 349 418
#     4  11  24  43  76 104 135 189 237 288 349 420
#     4  12  26  46  73 107 144 187 236 290 357 421
#     4  11  25  50  71 101 151 187 230 296 352 419
#     4  11  25  45  71 104 143 188 236 288 354 422
#
# _framework density 24.592645999999998
#
# number of rings (size 3 to 8) (size 9 to 14) (size 15 to 20)
#    0.000    0.667    6.667    3.000    0.000    2.667 
#    0.000    0.000    0.000    0.000    0.000    0.000 
#    0.000    0.000    0.000    0.000    0.000    0.000 
#
# Total GULP energy -148807.410506 kJ/mol
# GULP energy per Si atom -12400.617542 kJ/mol
# Density = 2.453667 g / cm^3
# Si number density = 24.592646 Si / 1000 Ang^3
#
#
#
# Elastic Constant Matrix: (Units=GPa)
#
#
# Indices 1 2 3 4 5 6 
#
# 1 32.8805 -2.4743 -10.5285 11.3550 -5.1141 -9.9507
# 2 -2.4743 106.1748 47.4263 -4.9665 2.8103 -2.6699
# 3 -10.5285 47.4263 98.9491 2.1197 -4.7538 16.2459
# 4 11.3550 -4.9665 2.1197 52.0755 10.5870 -13.8954
# 5 -5.1141 2.8103 -4.7538 10.5870 33.4436 4.8956
# 6 -9.9507 -2.6699 16.2459 -13.8954 4.8956 49.1800
#
#
#
# Elastic Compliance Matrix: (Units=1/GPa)
#
#
# Indices 1 2 3 4 5 6 
#
# 1 0.037524 -0.002230 0.005431 -0.010069 0.009610 0.001876
# 2 -0.002230 0.013170 -0.007571 0.004127 -0.004471 0.004376
# 3 0.005431 -0.007571 0.015867 -0.005696 0.006522 -0.006812
# 4 -0.010069 0.004127 -0.005696 0.026956 -0.012537 0.008932
# 5 0.009610 -0.004471 0.006522 -0.012537 0.037777 -0.007756
# 6 0.001876 0.004376 -0.006812 0.008932 -0.007756 0.026497
#
#
# Mechanical properties :
#
#
# Convention : Reuss Voigt Hill
#
# Bulk Modulus (GPa) = 17.29489 34.09459 25.69474
# Shear Modulus (GPa) = 26.91004 40.51187 33.71095
#
# Velocity S-wave (km/s) = 3.31151 4.06312 3.70641
# Velocity P-wave (km/s) = 4.65502 5.99214 5.36540
#
# Compressibility (1/GPa) = 0.05782056
#
# Stress axis : x y z
#
# Youngs Moduli (GPa) = 26.64961 75.93136 63.02501
#
# Poissons Ratio (x) = 0.16929 -0.34227
# Poissons Ratio (y) = 0.05942 0.47717
# Poissons Ratio (z) = -0.14473 0.57489
#
# Static dielectric constant tensor:
#      x y z
#    x 4.739030 0.214660 -0.381750 
#    y 0.214660 4.718300 -0.058990 
#    z -0.381750 -0.058990 4.257840 
# 
# 
# High freq. dielectric constant tensor:
#      x y z
#    x 1.987870 0.002550 -0.029000 
#    y 0.002550 1.986780 -0.003700 
#    z -0.029000 -0.003700 1.964810 
# 
# From -- ./inp_files/243367.got.cif
#   From: 2010.06.25/outbox.cif.g09.slc.cpg/sg2_122_cif.got.tgz:243367.got - 2010.06.27 13:26:56.
