data_PCOD8030060
_publ_section_title
;
Structure prediction by ZEFSAII (Michael W. Deem and Ramdas Pophale) SiO2 
 PCOD8030060
Probable space group: P -1
;
_chemical_formula_sum "Si O2"
_cell_formula_units_Z 12
_cell_length_a 16.810990
_cell_length_b 16.851764
_cell_length_c 10.031480
_cell_angle_alpha 150.585906
_cell_angle_beta 41.810899
_cell_angle_gamma 154.223745
_cell_volume 596.685574
_symmetry_space_group_name_H-M "P -1"
_symmetry_group_IT_number 2
_symmetry_cell_setting 'triclinic'
loop_
_space_group_symop_operation_xyz
x,y,z
-x,-y,-z
loop_
_atom_site_type_symbol
_atom_site_label
_atom_site_fract_x
_atom_site_fract_y
_atom_site_fract_z
Si Si1 0.467666 0.843777 0.079461
Si Si2 0.484509 0.330596 0.990625
Si Si3 0.929475 0.104844 0.215081
Si Si4 0.831034 0.229023 0.753135
Si Si5 0.305294 0.619350 0.432663
Si Si6 0.474517 0.258903 0.418719
O O1 0.290799 0.777571 0.194767
O O2 0.442432 0.714423 0.054296
O O3 0.651829 0.147285 0.303971
O O4 0.475741 0.732671 0.781973
O O5 0.559779 0.586223 0.303054
O O6 0.085605 0.361842 0.309321
O O7 0.569392 0.364740 0.793982
O O8 0.260928 0.095892 0.923891
O O9 0.904237 0.161002 0.471339
O O10 0.000000 0.000000 0.000000
O O11 0.711329 0.029840 0.731236
O O12 0.000000 0.500000 0.000000
O O13 0.356307 0.622330 0.524695
#
# Coordination Sequence:
#
# PCOD8030060 Si02
#       6
#     2   2   2   2   2   2
#     4  11  24  42  64  94 133 165 204 269 321 359
#     4  12  24  43  64  97 133 160 207 271 316 365
#     4  12  23  39  69  96 122 168 216 255 308 381
#     4  11  23  42  67  93 125 167 220 255 303 387
#     4  11  22  42  68  90 125 169 219 250 311 381
#     4  11  21  42  66  90 128 171 208 255 312 380
#
# _framework density 20.111094000000001
#
# number of rings (size 3 to 8) (size 9 to 14) (size 15 to 20)
#    0.000    0.667    5.000    6.500    0.000    0.667 
#    3.000    0.833    0.000    0.000    0.000    0.000 
#    0.000    0.000    0.000    0.000    0.000    0.000 
#
# Total GULP energy -148870.944707 kJ/mol
# GULP energy per Si atom -12405.912059 kJ/mol
# Density = 2.006532 g / cm^3
# Si number density = 20.111094 Si / 1000 Ang^3
#
#
#
# Elastic Constant Matrix: (Units=GPa)
#
#
# Indices 1 2 3 4 5 6 
#
# 1 72.9109 29.7435 21.9232 7.7759 -2.8184 0.6025
# 2 29.7435 102.7222 15.7572 12.9339 11.8196 20.3163
# 3 21.9232 15.7572 113.9508 -3.8559 1.1839 7.6102
# 4 7.7759 12.9339 -3.8559 40.1163 -1.5646 -1.1905
# 5 -2.8184 11.8196 1.1839 -1.5646 23.6362 2.9961
# 6 0.6025 20.3163 7.6102 -1.1905 2.9961 23.8709
#
#
#
# Elastic Compliance Matrix: (Units=1/GPa)
#
#
# Indices 1 2 3 4 5 6 
#
# 1 0.017259 -0.005832 -0.002931 -0.001431 0.004413 0.004837
# 2 -0.005832 0.015218 -0.000254 -0.004433 -0.007058 -0.012059
# 3 -0.002931 -0.000254 0.009606 0.001484 -0.000268 -0.002665
# 4 -0.001431 -0.004433 0.001484 0.027029 0.003219 0.004280
# 5 0.004413 -0.007058 -0.000268 0.003219 0.046552 0.000298
# 6 0.004837 -0.012059 -0.002665 0.004280 0.000298 0.053059
#
#
# Mechanical properties :
#
#
# Convention : Reuss Voigt Hill
#
# Bulk Modulus (GPa) = 41.58248 47.15908 44.37078
# Shear Modulus (GPa) = 25.67081 32.33536 29.00309
#
# Velocity S-wave (km/s) = 3.57662 4.01413 3.80168
# Velocity P-wave (km/s) = 6.14635 6.70705 6.43281
#
# Compressibility (1/GPa) = 0.02404859
#
# Stress axis : x y z
#
# Youngs Moduli (GPa) = 57.94001 65.71207 104.10447
#
# Poissons Ratio (x) = 0.38324 0.30517
# Poissons Ratio (y) = 0.33791 0.02640
# Poissons Ratio (z) = 0.16985 0.01667
#
# Static dielectric constant tensor:
#      x y z
#    x 3.465310 0.058720 -0.052800 
#    y 0.058720 3.849130 0.162880 
#    z -0.052800 0.162880 3.937160 
# 
# 
# High freq. dielectric constant tensor:
#      x y z
#    x 1.764630 -0.000230 -0.007520 
#    y -0.000230 1.790240 0.003470 
#    z -0.007520 0.003470 1.810500 
# 
# From -- ./inp_files/312066.got.cif
#   From: 2010.06.25/outbox.cif.g09.slc.cpg/sg2_157_cif.got.tgz:312066.got - 2010.06.27 13:26:56.
