data_PCOD8030148
_publ_section_title
;
Structure prediction by ZEFSAII (Michael W. Deem and Ramdas Pophale) SiO2 
 PCOD8030148
Probable space group: P -1
;
_chemical_formula_sum "Si O2"
_cell_formula_units_Z 16
_cell_length_a 11.594492
_cell_length_b 9.413725
_cell_length_c 11.770985
_cell_angle_alpha 51.128740
_cell_angle_beta 50.015603
_cell_angle_gamma 66.509269
_cell_volume 766.402542
_symmetry_space_group_name_H-M "P -1"
_symmetry_group_IT_number 2
_symmetry_cell_setting 'triclinic'
loop_
_space_group_symop_operation_xyz
x,y,z
-x,-y,-z
loop_
_atom_site_type_symbol
_atom_site_label
_atom_site_fract_x
_atom_site_fract_y
_atom_site_fract_z
Si Si1 0.150579 0.300096 0.599042
Si Si2 0.337242 0.341627 0.922066
Si Si3 0.883153 0.013257 0.394975
Si Si4 0.328674 0.654405 0.254947
Si Si5 0.813189 0.769917 0.141603
Si Si6 0.216265 0.989513 0.286071
Si Si7 0.134694 0.680797 0.924654
Si Si8 0.172015 0.810603 0.075519
O O1 0.205787 0.495152 0.423106
O O2 0.239546 0.254974 0.682441
O O3 0.974079 0.307261 0.736802
O O4 0.182021 0.152848 0.555305
O O5 0.503249 0.422914 0.798714
O O6 0.323426 0.286783 0.825578
O O7 0.211205 0.486463 0.961159
O O8 0.315830 0.164391 0.102749
O O9 0.800487 0.011132 0.568262
O O10 0.844406 0.201559 0.261773
O O11 0.061204 0.994284 0.311472
O O12 0.302398 0.805621 0.292002
O O13 0.311921 0.745055 0.095536
O O14 0.957964 0.647337 0.079434
O O15 0.865095 0.978542 0.983163
O O16 0.210989 0.783861 0.931988
#
# Coordination Sequence:
#
# PCOD8030148 Si02
#       8
#     2   2   2   2   2   2   2   2
#     4  11  22  41  68  98 123 162 216 269 313 372
#     4  12  26  43  62  93 134 175 211 256 323 386
#     4  11  22  42  69  99 126 153 220 273 322 361
#     4  12  26  43  62  93 134 175 211 256 323 386
#     4  11  21  42  72  93 123 167 219 265 314 374
#     4  11  25  41  67  97 130 165 209 271 320 379
#     4  11  22  41  68  98 123 162 216 269 313 372
#     4  11  21  42  72  93 123 167 219 265 314 374
#
# _framework density 20.876757999999999
#
# number of rings (size 3 to 8) (size 9 to 14) (size 15 to 20)
#    0.000    0.750    6.250    1.875    3.500    3.000 
#    0.000    0.625    0.000    0.000    0.000    0.000 
#    0.000    0.000    0.000    0.000    0.000    0.000 
#
# Total GULP energy -198455.568758 kJ/mol
# GULP energy per Si atom -12403.473047 kJ/mol
# Density = 2.082924 g / cm^3
# Si number density = 20.876758 Si / 1000 Ang^3
#
#
#
# Elastic Constant Matrix: (Units=GPa)
#
#
# Indices 1 2 3 4 5 6 
#
# 1 95.4302 15.2206 18.1383 17.8110 9.7771 6.8867
# 2 15.2206 71.3517 19.1641 -4.5956 -1.2724 2.0144
# 3 18.1383 19.1641 51.8173 3.4446 10.5917 -1.1094
# 4 17.8110 -4.5956 3.4446 27.3844 12.9244 12.0353
# 5 9.7771 -1.2724 10.5917 12.9244 31.4837 6.5703
# 6 6.8867 2.0144 -1.1094 12.0353 6.5703 27.3186
#
#
#
# Elastic Compliance Matrix: (Units=1/GPa)
#
#
# Indices 1 2 3 4 5 6 
#
# 1 0.013069 -0.002543 -0.003115 -0.009032 0.000462 0.000634
# 2 -0.002543 0.016758 -0.006181 0.006115 0.001869 -0.003989
# 3 -0.003115 -0.006181 0.024485 0.000008 -0.008411 0.004255
# 4 -0.009032 0.006115 0.000008 0.060838 -0.017597 -0.020744
# 5 0.000462 0.001869 -0.008411 -0.017597 0.042381 -0.003037
# 6 0.000634 -0.003989 0.004255 -0.020744 -0.003037 0.046781
#
#
# Mechanical properties :
#
#
# Convention : Reuss Voigt Hill
#
# Bulk Modulus (GPa) = 32.64385 35.96058 34.30222
# Shear Modulus (GPa) = 20.99064 28.30910 24.64987
#
# Velocity S-wave (km/s) = 3.17433 3.68640 3.43991
# Velocity P-wave (km/s) = 5.39496 5.94827 5.67836
#
# Compressibility (1/GPa) = 0.03063364
#
# Stress axis : x y z
#
# Youngs Moduli (GPa) = 76.51682 59.67477 40.84162
#
# Poissons Ratio (x) = 0.15173 0.12721
# Poissons Ratio (y) = 0.19456 0.25246
# Poissons Ratio (z) = 0.23833 0.36888
#
# Static dielectric constant tensor:
#      x y z
#    x 3.916790 0.264490 0.326920 
#    y 0.264490 3.700120 -0.001290 
#    z 0.326920 -0.001290 3.612120 
# 
# 
# High freq. dielectric constant tensor:
#      x y z
#    x 1.821880 0.018480 0.026130 
#    y 0.018480 1.816010 -0.007480 
#    z 0.026130 -0.007480 1.802820 
# 
# From -- ./inp_files/218942.got.cif
#   From: 2010.06.25/outbox.cif.g09.slc.cpg/sg2_110_cif.got.tgz:218942.got - 2010.06.27 13:26:56.
