data_PCOD8030755
_publ_section_title
;
Structure prediction by ZEFSAII (Michael W. Deem and Ramdas Pophale) SiO2 
 PCOD8030755
Probable space group: P -1
;
_chemical_formula_sum "Si O2"
_cell_formula_units_Z 14
_cell_length_a 20.815259
_cell_length_b 8.304824
_cell_length_c 6.885436
_cell_angle_alpha 54.917167
_cell_angle_beta 40.549254
_cell_angle_gamma 63.686803
_cell_volume 633.163934
_symmetry_space_group_name_H-M "P -1"
_symmetry_group_IT_number 2
_symmetry_cell_setting 'triclinic'
loop_
_space_group_symop_operation_xyz
x,y,z
-x,-y,-z
loop_
_atom_site_type_symbol
_atom_site_label
_atom_site_fract_x
_atom_site_fract_y
_atom_site_fract_z
Si Si1 0.790461 0.281150 0.108435
Si Si2 0.587043 0.460426 0.478510
Si Si3 0.053735 0.793603 0.539792
Si Si4 0.162995 0.983396 0.468268
Si Si5 0.498920 0.882363 0.883856
Si Si6 0.916119 0.609557 0.729264
Si Si7 0.640308 0.874827 0.238947
O O1 0.677043 0.326961 0.272686
O O2 0.796325 0.087780 0.367509
O O3 0.859131 0.244764 0.790652
O O4 0.820384 0.472727 0.036919
O O5 0.500000 0.500000 0.500000
O O6 0.631045 0.660149 0.318062
O O7 0.537340 0.339326 0.850035
O O8 0.962931 0.641688 0.817535
O O9 0.103550 0.799654 0.634929
O O10 0.000000 0.000000 0.500000
O O11 0.097103 0.181932 0.499948
O O12 0.248315 0.050535 0.076450
O O13 0.607412 0.875961 0.539971
O O14 0.424506 0.975091 0.838707
O O15 0.500000 0.000000 0.000000
O O16 0.000000 0.500000 0.500000
#
# Coordination Sequence:
#
# PCOD8030755 Si02
#       7
#     2   2   2   2   2   2   2
#     4  11  23  41  68  93 132 175 215 267 332 384
#     4  12  24  43  67  97 135 176 225 273 328 389
#     4   9  22  41  65  97 128 164 218 269 320 398
#     4  11  22  40  66  94 130 168 213 265 329 386
#     4  11  24  43  66  92 127 175 220 268 330 380
#     4   9  20  41  64  94 128 164 211 267 324 388
#     4  11  24  41  65  94 130 171 220 270 321 397
#
# _framework density 22.111177000000001
#
# number of rings (size 3 to 8) (size 9 to 14) (size 15 to 20)
#    0.000    1.429    4.286    0.429    2.000    5.714 
#    2.571    4.286    0.000    0.000    0.000    0.000 
#    0.000    0.000    0.000    0.000    0.000    0.000 
#
# Total GULP energy -173443.299423 kJ/mol
# GULP energy per Si atom -12388.807102 kJ/mol
# Density = 2.206085 g / cm^3
# Si number density = 22.111177 Si / 1000 Ang^3
#
#
#
# Elastic Constant Matrix: (Units=GPa)
#
#
# Indices 1 2 3 4 5 6 
#
# 1 90.3847 39.8178 16.5655 12.0327 -10.9763 -15.4590
# 2 39.8178 98.1022 22.6585 3.7175 -2.2330 -14.5049
# 3 16.5655 22.6585 64.3063 4.8191 -2.7380 -13.7104
# 4 12.0327 3.7175 4.8191 40.1247 0.1984 -3.4761
# 5 -10.9763 -2.2330 -2.7380 0.1984 29.2527 -3.1840
# 6 -15.4590 -14.5049 -13.7104 -3.4761 -3.1840 38.5623
#
#
#
# Elastic Compliance Matrix: (Units=1/GPa)
#
#
# Indices 1 2 3 4 5 6 
#
# 1 0.015385 -0.005197 -0.000735 -0.003718 0.005778 0.004093
# 2 -0.005197 0.013215 -0.003043 0.000860 -0.001036 0.001797
# 3 -0.000735 -0.003043 0.018047 -0.001240 0.001735 0.005009
# 4 -0.003718 0.000860 -0.001240 0.026168 -0.001555 0.000623
# 5 0.005778 -0.001036 0.001735 -0.001555 0.037041 0.005462
# 6 0.004093 0.001797 0.005009 0.000623 0.005462 0.030537
#
#
# Mechanical properties :
#
#
# Convention : Reuss Voigt Hill
#
# Bulk Modulus (GPa) = 34.84649 45.65296 40.24973
# Shear Modulus (GPa) = 29.77820 33.17135 31.47478
#
# Velocity S-wave (km/s) = 3.67379 3.87745 3.77699
# Velocity P-wave (km/s) = 5.81288 6.38263 6.10441
#
# Compressibility (1/GPa) = 0.02869729
#
# Stress axis : x y z
#
# Youngs Moduli (GPa) = 64.99974 75.67017 55.41181
#
# Poissons Ratio (x) = 0.39326 0.04071
# Poissons Ratio (y) = 0.33781 0.16862
# Poissons Ratio (z) = 0.04775 0.23027
#
# Static dielectric constant tensor:
#      x y z
#    x 5.702260 0.772160 -0.770310 
#    y 0.772160 4.618120 -0.265560 
#    z -0.770310 -0.265560 4.278780 
# 
# 
# High freq. dielectric constant tensor:
#      x y z
#    x 1.872170 -0.004760 -0.020840 
#    y -0.004760 1.886000 -0.002430 
#    z -0.020840 -0.002430 1.854980 
# 
# From -- ./inp_files/88426.got.cif
#   From: 2010.06.25/outbox.cif.g09.slc.cpg/sg2_45_cif.got.tgz:88426.got - 2010.06.27 13:26:56.
