data_PCOD8030039
_publ_section_title
;
Structure prediction by ZEFSAII (Michael W. Deem and Ramdas Pophale) SiO2 
 PCOD8030039
Probable space group: P -1
;
_chemical_formula_sum "Si O2"
_cell_formula_units_Z 16
_cell_length_a 11.777541
_cell_length_b 18.003035
_cell_length_c 8.952869
_cell_angle_alpha 83.111767
_cell_angle_beta 127.470874
_cell_angle_gamma 140.123759
_cell_volume 706.594956
_symmetry_space_group_name_H-M "P -1"
_symmetry_group_IT_number 2
_symmetry_cell_setting 'triclinic'
loop_
_space_group_symop_operation_xyz
x,y,z
-x,-y,-z
loop_
_atom_site_type_symbol
_atom_site_label
_atom_site_fract_x
_atom_site_fract_y
_atom_site_fract_z
Si Si1 0.299520 0.631573 0.106965
Si Si2 0.848314 0.640627 0.716609
Si Si3 0.647141 0.135130 0.677819
Si Si4 0.192316 0.015177 0.515609
Si Si5 0.067054 0.464795 0.392310
Si Si6 0.088084 0.008385 0.911400
Si Si7 0.280023 0.715714 0.557571
Si Si8 0.826363 0.781737 0.545063
O O1 0.548180 0.803542 0.319802
O O2 0.467997 0.627458 0.249325
O O3 0.000000 0.500000 0.000000
O O4 0.215330 0.614863 0.874416
O O5 0.500000 0.500000 0.500000
O O6 0.865122 0.568251 0.666356
O O7 0.936399 0.746620 0.644187
O O8 0.066349 0.748051 0.010689
O O9 0.351354 0.018187 0.566005
O O10 0.769186 0.256658 0.635614
O O11 0.500000 0.000000 0.500000
O O12 0.918677 0.923657 0.222443
O O13 0.056987 0.932151 0.586457
O O14 0.325051 0.648015 0.565923
O O15 0.991431 0.397208 0.512162
O O16 0.415542 0.120492 0.153976
O O17 0.866543 0.838559 0.725948
O O18 0.000000 0.000000 0.000000
#
# Coordination Sequence:
#
# PCOD8030039 Si02
#       8
#     2   2   2   2   2   2   2   2
#     4  11  21  41  74 100 137 184 241 289 348 431
#     4  12  29  47  71 107 145 195 244 304 374 440
#     4  12  27  45  72 102 146 190 239 303 375 437
#     4  11  23  43  69 103 134 189 239 297 354 433
#     4  11  25  44  74 101 139 190 241 293 360 439
#     4  11  22  40  69 103 139 178 233 291 355 425
#     4  11  25  45  70 105 140 188 240 298 359 438
#     4  11  26  43  70 104 142 184 242 303 356 434
#
# _framework density 22.643809999999998
#
# number of rings (size 3 to 8) (size 9 to 14) (size 15 to 20)
#    0.000    0.750    2.500    5.250    7.000    0.500 
#    0.000    0.625    0.000    0.000    0.000    0.000 
#    0.000    0.000    0.000    0.000    0.000    0.000 
#
# Total GULP energy -198213.312731 kJ/mol
# GULP energy per Si atom -12388.332046 kJ/mol
# Density = 2.259227 g / cm^3
# Si number density = 22.643810 Si / 1000 Ang^3
#
#
#
# Elastic Constant Matrix: (Units=GPa)
#
#
# Indices 1 2 3 4 5 6 
#
# 1 102.2510 30.7478 39.2021 -0.5209 -6.9258 0.4808
# 2 30.7478 118.4172 41.5133 -15.3846 2.6157 9.1497
# 3 39.2021 41.5133 131.9810 -12.4501 11.3235 -1.0912
# 4 -0.5209 -15.3846 -12.4501 35.8292 -2.5034 1.4732
# 5 -6.9258 2.6157 11.3235 -2.5034 37.9109 -0.0307
# 6 0.4808 9.1497 -1.0912 1.4732 -0.0307 32.9314
#
#
#
# Elastic Compliance Matrix: (Units=1/GPa)
#
#
# Indices 1 2 3 4 5 6 
#
# 1 0.011920 -0.002283 -0.003257 -0.001733 0.003194 0.000433
# 2 -0.002283 0.010590 -0.002300 0.003830 -0.000210 -0.003157
# 3 -0.003257 -0.002300 0.009748 0.002091 -0.003209 0.000913
# 4 -0.001733 0.003830 0.002091 0.030408 0.000801 -0.002329
# 5 0.003194 -0.000210 -0.003209 0.000801 0.027987 -0.000104
# 6 0.000433 -0.003157 0.000913 -0.002329 -0.000104 0.031371
#
#
# Mechanical properties :
#
#
# Convention : Reuss Voigt Hill
#
# Bulk Modulus (GPa) = 60.31447 63.95284 62.13365
# Shear Modulus (GPa) = 34.90941 37.41336 36.16139
#
# Velocity S-wave (km/s) = 3.93068 4.06920 4.00054
# Velocity P-wave (km/s) = 6.87709 7.09804 6.98844
#
# Compressibility (1/GPa) = 0.01657977
#
# Stress axis : x y z
#
# Youngs Moduli (GPa) = 83.89054 94.43103 102.58980
#
# Poissons Ratio (x) = 0.21556 0.33409
# Poissons Ratio (y) = 0.19149 0.23592
# Poissons Ratio (z) = 0.27320 0.21716
#
# Static dielectric constant tensor:
#      x y z
#    x 4.416780 -0.434480 0.222950 
#    y -0.434480 4.422050 -0.431990 
#    z 0.222950 -0.431990 4.107510 
# 
# 
# High freq. dielectric constant tensor:
#      x y z
#    x 1.883030 0.001240 -0.004820 
#    y 0.001240 1.897020 -0.005500 
#    z -0.004820 -0.005500 1.908640 
# 
# From -- ./inp_files/279443.got.cif
#   From: 2010.06.25/outbox.cif.g09.slc.cpg/sg2_140_cif.got.tgz:279443.got - 2010.06.27 13:26:56.
