data_PCOD8030335
_publ_section_title
;
Structure prediction by ZEFSAII (Michael W. Deem and Ramdas Pophale) SiO2 
 PCOD8030335
Probable space group: P -1
;
_chemical_formula_sum "Si O2"
_cell_formula_units_Z 14
_cell_length_a 9.340188
_cell_length_b 11.495510
_cell_length_c 13.008485
_cell_angle_alpha 145.599686
_cell_angle_beta 123.270114
_cell_angle_gamma 47.107925
_cell_volume 577.845497
_symmetry_space_group_name_H-M "P -1"
_symmetry_group_IT_number 2
_symmetry_cell_setting 'triclinic'
loop_
_space_group_symop_operation_xyz
x,y,z
-x,-y,-z
loop_
_atom_site_type_symbol
_atom_site_label
_atom_site_fract_x
_atom_site_fract_y
_atom_site_fract_z
Si Si1 0.214690 0.978814 0.744565
Si Si2 0.552650 0.432875 0.596237
Si Si3 0.208683 0.768416 0.261392
Si Si4 0.205428 0.351694 0.415427
Si Si5 0.211873 0.317836 0.154854
Si Si6 0.814005 0.642487 0.139733
Si Si7 0.552690 0.106475 0.694245
O O1 0.253647 0.115866 0.768930
O O2 0.002182 0.996729 0.657988
O O3 0.375096 0.703868 0.586971
O O4 0.238025 0.078848 0.936747
O O5 0.681817 0.245576 0.599501
O O6 0.327969 0.497071 0.577041
O O7 0.597366 0.651956 0.774539
O O8 0.328671 0.766356 0.207241
O O9 0.163793 0.550817 0.076853
O O10 0.181251 0.298457 0.249189
O O11 0.000000 0.500000 0.500000
O O12 0.320251 0.095425 0.322713
O O13 0.019332 0.550989 0.211564
O O14 0.644682 0.687414 0.186010
O O15 0.500000 0.000000 0.500000
#
# Coordination Sequence:
#
# PCOD8030335 Si02
#       7
#     2   2   2   2   2   2   2
#     4  11  22  42  73 106 134 173 230 283 338 400
#     4  12  23  43  75  99 132 184 227 279 340 402
#     4  11  22  40  72 106 131 172 233 282 336 398
#     4  12  28  46  66  99 141 185 224 279 342 401
#     4  11  25  45  70 104 141 171 225 288 339 404
#     4  11  21  44  71 102 137 174 226 288 333 402
#     4  12  24  42  68  98 135 185 230 273 333 412
#
# _framework density 24.227930000000001
#
# number of rings (size 3 to 8) (size 9 to 14) (size 15 to 20)
#    0.000    0.571    5.714    3.000    4.000    0.571 
#    0.000    2.857    0.000    0.000    0.000    0.000 
#    0.000    0.000    0.000    0.000    0.000    0.000 
#
# Total GULP energy -173626.302693 kJ/mol
# GULP energy per Si atom -12401.878764 kJ/mol
# Density = 2.417279 g / cm^3
# Si number density = 24.227930 Si / 1000 Ang^3
#
#
#
# Elastic Constant Matrix: (Units=GPa)
#
#
# Indices 1 2 3 4 5 6 
#
# 1 152.2964 30.0855 29.2632 -15.6914 -7.9084 -21.7566
# 2 30.0855 82.8949 43.5433 -19.6466 -7.3901 -11.5839
# 3 29.2632 43.5433 109.9856 -21.0772 -11.5559 -10.0301
# 4 -15.6914 -19.6466 -21.0772 42.9267 -0.5687 -6.5626
# 5 -7.9084 -7.3901 -11.5559 -0.5687 37.6032 -0.6560
# 6 -21.7566 -11.5839 -10.0301 -6.5626 -0.6560 49.1951
#
#
#
# Elastic Compliance Matrix: (Units=1/GPa)
#
#
# Indices 1 2 3 4 5 6 
#
# 1 0.007741 -0.001321 -0.000632 0.002440 0.001269 0.003326
# 2 -0.001321 0.016973 -0.004866 0.005402 0.001699 0.003164
# 3 -0.000632 -0.004866 0.012382 0.003912 0.002804 0.001658
# 4 0.002440 0.005402 0.003912 0.029719 0.003351 0.007158
# 5 0.001269 0.001699 0.002804 0.003351 0.028148 0.002355
# 6 0.003326 0.003164 0.001658 0.007158 0.002355 0.023867
#
#
# Mechanical properties :
#
#
# Convention : Reuss Voigt Hill
#
# Bulk Modulus (GPa) = 42.63025 61.21789 51.92407
# Shear Modulus (GPa) = 35.64083 42.09733 38.86908
#
# Velocity S-wave (km/s) = 3.83961 4.17292 4.00973
# Velocity P-wave (km/s) = 6.10659 6.96707 6.55097
#
# Compressibility (1/GPa) = 0.02345752
#
# Stress axis : x y z
#
# Youngs Moduli (GPa) = 129.18177 58.91783 80.76048
#
# Poissons Ratio (x) = 0.07784 0.05107
# Poissons Ratio (y) = 0.17068 0.39296
# Poissons Ratio (z) = 0.08169 0.28668
#
# Static dielectric constant tensor:
#      x y z
#    x 7.213980 -1.375950 -0.842570 
#    y -1.375950 5.389410 0.179140 
#    z -0.842570 0.179140 4.473800 
# 
# 
# High freq. dielectric constant tensor:
#      x y z
#    x 1.975130 -0.003180 -0.001790 
#    y -0.003180 1.978180 -0.015690 
#    z -0.001790 -0.015690 1.959170 
# 
# From -- ./inp_files/154892.got.cif
#   From: 2010.06.25/outbox.cif.g09.slc.cpg/sg2_78_cif.got.tgz:154892.got - 2010.06.27 13:26:56.
