data_PCOD8030871
_publ_section_title
;
Structure prediction by ZEFSAII (Michael W. Deem and Ramdas Pophale) SiO2 
 PCOD8030871
Probable space group: P -1
;
_chemical_formula_sum "Si O2"
_cell_formula_units_Z 16
_cell_length_a 14.224133
_cell_length_b 9.391791
_cell_length_c 25.428512
_cell_angle_alpha 141.366211
_cell_angle_beta 157.619383
_cell_angle_gamma 51.535058
_cell_volume 732.181380
_symmetry_space_group_name_H-M "P -1"
_symmetry_group_IT_number 2
_symmetry_cell_setting 'triclinic'
loop_
_space_group_symop_operation_xyz
x,y,z
-x,-y,-z
loop_
_atom_site_type_symbol
_atom_site_label
_atom_site_fract_x
_atom_site_fract_y
_atom_site_fract_z
Si Si1 0.362192 0.606426 0.762757
Si Si2 0.650495 0.228382 0.936721
Si Si3 0.123149 0.235110 0.439060
Si Si4 0.833650 0.246154 0.646645
Si Si5 0.217490 0.918288 0.932756
Si Si6 0.365599 0.325753 0.476818
Si Si7 0.758894 0.572011 0.239890
Si Si8 0.641325 0.177698 0.410187
O O1 0.298898 0.405248 0.626110
O O2 0.372117 0.463469 0.779875
O O3 0.148354 0.725264 0.695670
O O4 0.646442 0.835872 0.961994
O O5 0.403997 0.307937 0.845011
O O6 0.588462 0.080276 0.806384
O O7 0.669438 0.038484 0.936471
O O8 0.933830 0.473257 0.153299
O O9 0.298938 0.318250 0.501424
O O10 0.039883 0.941938 0.322496
O O11 0.599579 0.231339 0.561780
O O12 0.698411 0.152186 0.493068
O O13 0.287477 0.695350 0.883884
O O14 0.897424 0.845846 0.743376
O O15 0.470928 0.610501 0.592969
O O16 0.080249 0.754052 0.459428
#
# Coordination Sequence:
#
# PCOD8030871 Si02
#       8
#     2   2   2   2   2   2   2   2
#     4  11  23  41  69  98 130 169 215 273 333 391
#     4  12  25  40  69 100 129 178 213 270 331 392
#     4  11  24  43  67  97 127 174 219 270 330 384
#     4  12  26  46  67  94 136 176 221 267 321 386
#     4  11  23  39  65  97 129 176 220 260 330 390
#     4  11  24  48  65  91 136 176 219 275 313 382
#     4  11  22  41  64 101 140 163 213 276 330 387
#     4  11  24  44  66  99 132 169 221 270 326 384
#
# _framework density 21.852508
#
# number of rings (size 3 to 8) (size 9 to 14) (size 15 to 20)
#    0.000    0.750    5.000    4.125    5.250    0.500 
#    2.250    0.625    0.000    0.000    0.000    0.000 
#    0.000    0.000    0.000    0.000    0.000    0.000 
#
# Total GULP energy -198450.544316 kJ/mol
# GULP energy per Si atom -12403.159020 kJ/mol
# Density = 2.180277 g / cm^3
# Si number density = 21.852508 Si / 1000 Ang^3
#
#
#
# Elastic Constant Matrix: (Units=GPa)
#
#
# Indices 1 2 3 4 5 6 
#
# 1 81.2068 30.6695 44.0570 -10.2097 -12.1160 4.9292
# 2 30.6695 64.4837 7.0329 -6.4112 9.5011 0.0929
# 3 44.0570 7.0329 70.4555 -3.1334 -10.4242 -15.9794
# 4 -10.2097 -6.4112 -3.1334 17.7425 0.6162 -3.3612
# 5 -12.1160 9.5011 -10.4242 0.6162 25.7103 -0.1592
# 6 4.9292 0.0929 -15.9794 -3.3612 -0.1592 28.6239
#
#
#
# Elastic Compliance Matrix: (Units=1/GPa)
#
#
# Indices 1 2 3 4 5 6 
#
# 1 0.032321 -0.014258 -0.020377 0.006386 0.011986 -0.016079
# 2 -0.014258 0.023850 0.006116 0.003101 -0.013090 0.006083
# 3 -0.020377 0.006116 0.031198 -0.000078 0.000917 0.020901
# 4 0.006386 0.003101 -0.000078 0.062298 0.000377 0.006164
# 5 0.011986 -0.013090 0.000917 0.000377 0.049736 -0.001188
# 6 -0.016079 0.006083 0.020901 0.006164 -0.001188 0.050070
#
#
# Mechanical properties :
#
#
# Convention : Reuss Voigt Hill
#
# Bulk Modulus (GPa) = 32.96957 42.18498 37.57727
# Shear Modulus (GPa) = 15.79166 23.37445 19.58306
#
# Velocity S-wave (km/s) = 2.69113 3.27409 2.99682
# Velocity P-wave (km/s) = 4.97758 5.79993 5.40442
#
# Compressibility (1/GPa) = 0.03033100
#
# Stress axis : x y z
#
# Youngs Moduli (GPa) = 30.93921 41.92814 32.05360
#
# Poissons Ratio (x) = 0.59782 0.65316
# Poissons Ratio (y) = 0.44113 -0.19604
# Poissons Ratio (z) = 0.63045 -0.25643
#
# Static dielectric constant tensor:
#      x y z
#    x 3.979470 0.166230 -0.138970 
#    y 0.166230 4.089580 -0.038320 
#    z -0.138970 -0.038320 3.861480 
# 
# 
# High freq. dielectric constant tensor:
#      x y z
#    x 1.857370 0.010180 -0.012140 
#    y 0.010180 1.862090 0.003090 
#    z -0.012140 0.003090 1.853780 
# 
# From -- ./inp_files/464927.got.cif
#   From: 2010.06.25/outbox.cif.g09.slc.cpg/sg2_233_cif.got.tgz:464927.got - 2010.06.27 13:26:56.
