data_PCOD8030544
_publ_section_title
;
Structure prediction by ZEFSAII (Michael W. Deem and Ramdas Pophale) SiO2 
 PCOD8030544
Probable space group: P -1
;
_chemical_formula_sum "Si O2"
_cell_formula_units_Z 16
_cell_length_a 12.330522
_cell_length_b 8.926364
_cell_length_c 14.961374
_cell_angle_alpha 102.768256
_cell_angle_beta 64.865482
_cell_angle_gamma 48.839211
_cell_volume 761.762161
_symmetry_space_group_name_H-M "P -1"
_symmetry_group_IT_number 2
_symmetry_cell_setting 'triclinic'
loop_
_space_group_symop_operation_xyz
x,y,z
-x,-y,-z
loop_
_atom_site_type_symbol
_atom_site_label
_atom_site_fract_x
_atom_site_fract_y
_atom_site_fract_z
Si Si1 0.814545 0.336966 0.481276
Si Si2 0.487432 0.398428 0.214071
Si Si3 0.506389 0.822466 0.515478
Si Si4 0.961694 0.692275 0.160083
Si Si5 0.044699 0.258228 0.031345
Si Si6 0.895001 0.764865 0.528723
Si Si7 0.437015 0.350743 0.710415
Si Si8 0.930544 0.249406 0.701205
O O1 0.612475 0.565628 0.655488
O O2 0.737272 0.525768 0.449165
O O3 0.045341 0.157101 0.417944
O O4 0.874588 0.095413 0.404500
O O5 0.545105 0.511607 0.225460
O O6 0.306983 0.569750 0.220260
O O7 0.724215 0.066691 0.054290
O O8 0.483869 0.723169 0.430384
O O9 0.500000 0.000000 0.500000
O O10 0.299184 0.030871 0.682690
O O11 0.068864 0.408521 0.069675
O O12 0.106806 0.630345 0.173413
O O13 0.970630 0.765781 0.071330
O O14 0.817134 0.437879 0.177806
O O15 0.000000 0.500000 0.500000
O O16 0.992753 0.699682 0.387461
O O17 0.620761 0.038280 0.654655
#
# Coordination Sequence:
#
# PCOD8030544 Si02
#       8
#     2   2   2   2   2   2   2   2
#     4  11  22  41  70 101 132 174 220 283 335 380
#     4  11  22  44  65  96 132 182 218 265 338 404
#     4  12  23  40  71 102 129 167 230 280 320 385
#     4  11  24  44  64  97 133 176 222 268 335 400
#     4  11  26  41  66  94 139 179 211 273 340 397
#     4  11  22  37  69 104 135 167 217 284 334 380
#     4  12  23  43  68 101 134 167 226 279 329 391
#     4  11  23  44  70  95 132 176 228 273 328 394
#
# _framework density 21.003931999999999
#
# number of rings (size 3 to 8) (size 9 to 14) (size 15 to 20)
#    0.000    0.750    6.250    1.875    1.750    2.500 
#    0.000    1.875    0.000    0.000    0.000    0.000 
#    0.000    0.000    0.000    0.000    0.000    0.000 
#
# Total GULP energy -198350.646591 kJ/mol
# GULP energy per Si atom -12396.915412 kJ/mol
# Density = 2.095613 g / cm^3
# Si number density = 21.003932 Si / 1000 Ang^3
#
#
#
# Elastic Constant Matrix: (Units=GPa)
#
#
# Indices 1 2 3 4 5 6 
#
# 1 84.6082 18.8336 25.3544 5.6265 12.1646 -15.1202
# 2 18.8336 106.1989 36.9237 13.1880 3.4615 -9.3814
# 3 25.3544 36.9237 91.3833 20.1311 7.0290 -9.3155
# 4 5.6265 13.1880 20.1311 31.8141 -11.2979 -4.7049
# 5 12.1646 3.4615 7.0290 -11.2979 39.1669 -2.8673
# 6 -15.1202 -9.3814 -9.3155 -4.7049 -2.8673 32.9033
#
#
#
# Elastic Compliance Matrix: (Units=1/GPa)
#
#
# Indices 1 2 3 4 5 6 
#
# 1 0.014331 -0.000943 -0.002518 -0.001175 -0.003881 0.005097
# 2 -0.000943 0.011256 -0.003610 -0.002221 -0.000593 0.001385
# 3 -0.002518 -0.003610 0.015551 -0.009372 -0.004357 0.000496
# 4 -0.001175 -0.002221 -0.009372 0.044523 0.015370 0.003879
# 5 -0.003881 -0.000593 -0.004357 0.015370 0.032138 0.001812
# 6 0.005097 0.001385 0.000496 0.003879 0.001812 0.033982
#
#
# Mechanical properties :
#
#
# Convention : Reuss Voigt Hill
#
# Bulk Modulus (GPa) = 37.04521 49.37931 43.21226
# Shear Modulus (GPa) = 28.58414 34.18213 31.38313
#
# Velocity S-wave (km/s) = 3.69303 4.03850 3.86962
# Velocity P-wave (km/s) = 5.98834 6.73102 6.37051
#
# Compressibility (1/GPa) = 0.02699404
#
# Stress axis : x y z
#
# Youngs Moduli (GPa) = 69.77948 88.83936 64.30623
#
# Poissons Ratio (x) = 0.08380 0.16193
# Poissons Ratio (y) = 0.06582 0.23218
# Poissons Ratio (z) = 0.17571 0.32075
#
# Static dielectric constant tensor:
#      x y z
#    x 3.987900 -0.170070 0.081080 
#    y -0.170070 3.818380 0.118750 
#    z 0.081080 0.118750 3.778250 
# 
# 
# High freq. dielectric constant tensor:
#      x y z
#    x 1.835870 -0.010060 0.007170 
#    y -0.010060 1.820100 0.014290 
#    z 0.007170 0.014290 1.808600 
# 
# From -- ./inp_files/177786.got.cif
#   From: 2010.06.25/outbox.cif.g09.slc.cpg/sg2_89_cif.got.tgz:177786.got - 2010.06.27 13:26:56.
