data_PCOD8030951
_publ_section_title
;
Structure prediction by ZEFSAII (Michael W. Deem and Ramdas Pophale) SiO2 
 PCOD8030951
Probable space group: P -1
;
_chemical_formula_sum "Si O2"
_cell_formula_units_Z 16
_cell_length_a 17.942939
_cell_length_b 12.421055
_cell_length_c 8.322794
_cell_angle_alpha 68.926070
_cell_angle_beta 91.526953
_cell_angle_gamma 33.158164
_cell_volume 725.813789
_symmetry_space_group_name_H-M "P -1"
_symmetry_group_IT_number 2
_symmetry_cell_setting 'triclinic'
loop_
_space_group_symop_operation_xyz
x,y,z
-x,-y,-z
loop_
_atom_site_type_symbol
_atom_site_label
_atom_site_fract_x
_atom_site_fract_y
_atom_site_fract_z
Si Si1 0.949709 0.404586 0.723664
Si Si2 0.100307 0.511208 0.693928
Si Si3 0.229958 0.142966 0.379097
Si Si4 0.982394 0.900652 0.630207
Si Si5 0.417730 0.528765 0.756658
Si Si6 0.700006 0.973836 0.922661
Si Si7 0.445006 0.428891 0.171348
Si Si8 0.874466 0.269775 0.920784
O O1 0.954017 0.433486 0.522082
O O2 0.796437 0.688138 0.658771
O O3 0.890103 0.356401 0.757893
O O4 0.143362 0.160676 0.937598
O O5 0.960023 0.651551 0.733233
O O6 0.098522 0.649230 0.662087
O O7 0.279509 0.185147 0.916468
O O8 0.308295 0.023754 0.270353
O O9 0.358768 0.900387 0.644580
O O10 0.772393 0.166527 0.492008
O O11 0.000000 0.000000 0.500000
O O12 0.068389 0.772360 0.877373
O O13 0.547530 0.457886 0.798348
O O14 0.511200 0.293404 0.792516
O O15 0.375528 0.546621 0.924865
O O16 0.320866 0.511570 0.210414
O O17 0.000000 0.000000 0.000000
#
# Coordination Sequence:
#
# PCOD8030951 Si02
#       8
#     2   2   2   2   2   2   2   2
#     4  11  23  41  68  95 135 177 222 269 333 391
#     4  11  22  44  69  96 130 179 221 269 330 396
#     4  11  22  41  68  99 131 170 223 277 327 391
#     4  12  24  44  69  99 134 176 217 275 331 392
#     4  11  24  43  70 100 132 172 225 269 327 395
#     4  11  23  40  70 101 130 172 226 274 325 392
#     4  11  24  42  67  96 136 173 219 272 329 391
#     4  12  26  42  64  97 139 175 218 269 338 389
#
# _framework density 22.044221
#
# number of rings (size 3 to 8) (size 9 to 14) (size 15 to 20)
#    0.000    0.750    2.500    7.500    3.500    1.000 
#    0.000    0.625    0.000    0.000    0.000    0.000 
#    0.000    0.000    0.000    0.000    0.000    0.000 
#
# Total GULP energy -198421.632448 kJ/mol
# GULP energy per Si atom -12401.352028 kJ/mol
# Density = 2.199405 g / cm^3
# Si number density = 22.044221 Si / 1000 Ang^3
#
#
#
# Elastic Constant Matrix: (Units=GPa)
#
#
# Indices 1 2 3 4 5 6 
#
# 1 108.2586 31.7234 10.4567 -2.6068 -16.7575 15.6685
# 2 31.7234 123.8744 22.0353 -6.8929 1.0768 26.8220
# 3 10.4567 22.0353 72.1789 -1.8885 -2.8113 7.1326
# 4 -2.6068 -6.8929 -1.8885 37.1195 7.0145 -7.2496
# 5 -16.7575 1.0768 -2.8113 7.0145 30.8894 -4.8859
# 6 15.6685 26.8220 7.1326 -7.2496 -4.8859 33.9346
#
#
#
# Elastic Compliance Matrix: (Units=1/GPa)
#
#
# Indices 1 2 3 4 5 6 
#
# 1 0.011256 -0.002353 -0.000449 -0.001328 0.006029 -0.002658
# 2 -0.002353 0.010718 -0.002324 0.000913 -0.003202 -0.007163
# 3 -0.000449 -0.002324 0.014759 -0.000092 0.001055 -0.000925
# 4 -0.001328 0.000913 -0.000092 0.029275 -0.006583 0.005217
# 5 0.006029 -0.003202 0.001055 -0.006583 0.037913 0.003578
# 6 -0.002658 -0.007163 -0.000925 0.005217 0.003578 0.038181
#
#
# Mechanical properties :
#
#
# Convention : Reuss Voigt Hill
#
# Bulk Modulus (GPa) = 37.76499 48.08251 42.92375
# Shear Modulus (GPa) = 31.02062 36.39513 33.70788
#
# Velocity S-wave (km/s) = 3.75534 4.06767 3.91462
# Velocity P-wave (km/s) = 5.99767 6.62725 6.32030
#
# Compressibility (1/GPa) = 0.02647955
#
# Stress axis : x y z
#
# Youngs Moduli (GPa) = 88.84062 93.29779 67.75399
#
# Poissons Ratio (x) = 0.21956 0.03045
# Poissons Ratio (y) = 0.20907 0.15748
# Poissons Ratio (z) = 0.03993 0.21685
#
# Static dielectric constant tensor:
#      x y z
#    x 3.894330 0.268760 -0.211310 
#    y 0.268760 4.072300 -0.118610 
#    z -0.211310 -0.118610 3.938980 
# 
# 
# High freq. dielectric constant tensor:
#      x y z
#    x 1.858620 0.019070 -0.016150 
#    y 0.019070 1.874080 -0.000010 
#    z -0.016150 -0.000010 1.871030 
# 
# From -- ./inp_files/331846.got.cif
#   From: 2010.06.25/outbox.cif.g09.slc.cpg/sg2_166_cif.got.tgz:331846.got - 2010.06.27 13:26:56.
