data_PCOD8030847
_publ_section_title
;
Structure prediction by ZEFSAII (Michael W. Deem and Ramdas Pophale) SiO2 
 PCOD8030847
Probable space group: P -1
;
_chemical_formula_sum "Si O2"
_cell_formula_units_Z 14
_cell_length_a 12.307398
_cell_length_b 12.024146
_cell_length_c 5.150337
_cell_angle_alpha 72.720182
_cell_angle_beta 69.069426
_cell_angle_gamma 103.666487
_cell_volume 627.667960
_symmetry_space_group_name_H-M "P -1"
_symmetry_group_IT_number 2
_symmetry_cell_setting 'triclinic'
loop_
_space_group_symop_operation_xyz
x,y,z
-x,-y,-z
loop_
_atom_site_type_symbol
_atom_site_label
_atom_site_fract_x
_atom_site_fract_y
_atom_site_fract_z
Si Si1 0.413258 0.467773 0.348461
Si Si2 0.285727 0.178309 0.686640
Si Si3 0.537932 0.142641 0.434960
Si Si4 0.147084 0.035474 0.390840
Si Si5 0.926498 0.430436 0.863790
Si Si6 0.706323 0.349023 0.807865
Si Si7 0.795868 0.209333 0.440160
O O1 0.500000 0.500000 0.500000
O O2 0.313787 0.324664 0.516182
O O3 0.334165 0.555450 0.388081
O O4 0.500000 0.500000 0.000000
O O5 0.416561 0.161869 0.633251
O O6 0.199860 0.095037 0.584617
O O7 0.212505 0.137783 0.045503
O O8 0.649109 0.174059 0.525014
O O9 0.500000 0.000000 0.500000
O O10 0.583376 0.229617 0.080758
O O11 0.177381 0.911019 0.408859
O O12 0.000000 0.000000 0.500000
O O13 0.784564 0.426303 0.941613
O O14 0.000000 0.500000 0.500000
O O15 0.892610 0.280724 0.071603
O O16 0.000000 0.500000 0.000000
O O17 0.808763 0.305562 0.601915
#
# Coordination Sequence:
#
# PCOD8030847 Si02
#       7
#     2   2   2   2   2   2   2
#     4  12  26  45  72 106 154 185 232 294 363 448
#     4  12  26  48  74 105 141 199 239 290 374 430
#     4  11  22  40  72 108 141 178 234 296 364 424
#     4  12  29  50  72 103 147 194 248 297 352 435
#     4  11  24  44  68 101 141 189 240 288 352 419
#     4  11  25  43  72 110 143 186 236 304 360 427
#     4  11  25  44  76 108 146 181 243 306 358 424
#
# _framework density 22.304787999999999
#
# number of rings (size 3 to 8) (size 9 to 14) (size 15 to 20)
#    0.000    0.571    4.286    3.000    6.000    3.429 
#    0.000    0.000    0.000    0.000    0.000    0.000 
#    0.000    0.000    0.000    0.000    0.000    0.000 
#
# Total GULP energy -173440.297150 kJ/mol
# GULP energy per Si atom -12388.592654 kJ/mol
# Density = 2.225402 g / cm^3
# Si number density = 22.304788 Si / 1000 Ang^3
#
#
#
# Elastic Constant Matrix: (Units=GPa)
#
#
# Indices 1 2 3 4 5 6 
#
# 1 144.4546 58.4725 41.3692 -13.5062 8.1641 8.0400
# 2 58.4725 109.7464 35.0881 -19.0864 9.5700 -4.1715
# 3 41.3692 35.0881 154.1982 -14.7311 -5.1938 1.7161
# 4 -13.5062 -19.0864 -14.7311 43.1915 3.5227 8.2488
# 5 8.1641 9.5700 -5.1938 3.5227 39.4701 -1.5710
# 6 8.0400 -4.1715 1.7161 8.2488 -1.5710 47.1741
#
#
#
# Elastic Compliance Matrix: (Units=1/GPa)
#
#
# Indices 1 2 3 4 5 6 
#
# 1 0.009376 -0.004322 -0.001451 0.001041 -0.001261 -0.002151
# 2 -0.004322 0.012838 -0.001502 0.003806 -0.002709 0.001171
# 3 -0.001451 -0.001502 0.007400 0.001348 0.001504 -0.000340
# 4 0.001041 0.003806 0.001348 0.026806 -0.003540 -0.004695
# 5 -0.001261 -0.002709 0.001504 -0.003540 0.026824 0.001433
# 6 -0.002151 0.001171 -0.000340 -0.004695 0.001433 0.022549
#
#
# Mechanical properties :
#
#
# Convention : Reuss Voigt Hill
#
# Bulk Modulus (GPa) = 66.39171 75.36211 70.87691
# Shear Modulus (GPa) = 39.88354 44.19843 42.04099
#
# Velocity S-wave (km/s) = 4.23320 4.45631 4.34619
# Velocity P-wave (km/s) = 7.32964 7.76782 7.55191
#
# Compressibility (1/GPa) = 0.01506212
#
# Stress axis : x y z
#
# Youngs Moduli (GPa) = 106.65435 77.89373 135.14299
#
# Poissons Ratio (x) = 0.33669 0.19609
# Poissons Ratio (y) = 0.46101 0.20303
# Poissons Ratio (z) = 0.15475 0.11702
#
# Static dielectric constant tensor:
#      x y z
#    x 4.515290 0.744260 0.081120 
#    y 0.744260 4.464180 -0.276540 
#    z 0.081120 -0.276540 4.462050 
# 
# 
# High freq. dielectric constant tensor:
#      x y z
#    x 1.889350 0.023720 0.006500 
#    y 0.023720 1.872310 -0.018370 
#    z 0.006500 -0.018370 1.901870 
# 
# From -- ./inp_files/68379.got.cif
#   From: 2010.06.25/outbox.cif.g09.slc.cpg/sg2_35_cif.got.tgz:68379.got - 2010.06.27 13:26:56.
