data_PCOD8030461
_publ_section_title
;
Structure prediction by ZEFSAII (Michael W. Deem and Ramdas Pophale) SiO2 
 PCOD8030461
Probable space group: P -1
;
_chemical_formula_sum "Si O2"
_cell_formula_units_Z 16
_cell_length_a 16.416065
_cell_length_b 19.331692
_cell_length_c 11.610913
_cell_angle_alpha 31.948682
_cell_angle_beta 20.713671
_cell_angle_gamma 29.925072
_cell_volume 635.015896
_symmetry_space_group_name_H-M "P -1"
_symmetry_group_IT_number 2
_symmetry_cell_setting 'triclinic'
loop_
_space_group_symop_operation_xyz
x,y,z
-x,-y,-z
loop_
_atom_site_type_symbol
_atom_site_label
_atom_site_fract_x
_atom_site_fract_y
_atom_site_fract_z
Si Si1 0.207462 0.541505 0.322177
Si Si2 0.714083 0.768142 0.333328
Si Si3 0.579373 0.129560 0.212128
Si Si4 0.812266 0.276489 0.113980
Si Si5 0.162599 0.010311 0.576942
Si Si6 0.744248 0.767889 0.719657
Si Si7 0.902674 0.889014 0.727534
Si Si8 0.407944 0.655211 0.451325
O O1 0.155500 0.401661 0.618722
O O2 0.034508 0.661743 0.469623
O O3 0.500000 0.500000 0.000000
O O4 0.147178 0.602502 0.186412
O O5 0.476970 0.799659 0.685738
O O6 0.918490 0.816465 0.057020
O O7 0.675297 0.861725 0.134714
O O8 0.410155 0.233572 0.189470
O O9 0.500000 0.000000 0.500000
O O10 0.865718 0.085793 0.870902
O O11 0.613367 0.346945 0.378513
O O12 0.738121 0.162885 0.297133
O O13 0.272531 0.074726 0.444599
O O14 0.223073 0.054753 0.308326
O O15 0.617370 0.717842 0.062205
O O16 0.144014 0.741582 0.615142
O O17 0.000000 0.000000 0.500000
O O18 0.500000 0.500000 0.500000
#
# Coordination Sequence:
#
# PCOD8030461 Si02
#       8
#     2   2   2   2   2   2   2   2
#     4  12  27  47  66 103 148 190 242 295 363 440
#     4  11  23  42  75  97 140 192 239 291 362 430
#     4  12  23  43  72 105 141 187 233 295 365 422
#     4  11  24  46  69 103 140 191 240 290 366 433
#     4  12  25  46  74 109 149 182 243 307 356 439
#     4  12  27  44  71 111 141 186 242 300 359 425
#     4  11  21  46  74 106 141 190 244 290 370 431
#     4  11  25  44  74 104 144 189 243 298 360 434
#
# _framework density 25.19622
#
# number of rings (size 3 to 8) (size 9 to 14) (size 15 to 20)
#    0.000    0.500    6.250    2.625    1.750    5.500 
#    0.000    1.875    0.000    0.000    0.000    0.000 
#    0.000    0.000    0.000    0.000    0.000    0.000 
#
# Total GULP energy -198350.280812 kJ/mol
# GULP energy per Si atom -12396.892551 kJ/mol
# Density = 2.513887 g / cm^3
# Si number density = 25.196220 Si / 1000 Ang^3
#
#
#
# Elastic Constant Matrix: (Units=GPa)
#
#
# Indices 1 2 3 4 5 6 
#
# 1 75.2373 19.5666 31.3417 -2.6359 26.4876 11.2695
# 2 19.5666 126.5956 25.9150 -11.8120 18.0543 25.4339
# 3 31.3417 25.9150 129.3604 -6.1467 30.4418 10.5483
# 4 -2.6359 -11.8120 -6.1467 50.3512 -2.0920 3.8113
# 5 26.4876 18.0543 30.4418 -2.0920 48.3761 -2.6947
# 6 11.2695 25.4339 10.5483 3.8113 -2.6947 38.0043
#
#
#
# Elastic Compliance Matrix: (Units=1/GPa)
#
#
# Indices 1 2 3 4 5 6 
#
# 1 0.018083 0.000072 -0.001755 0.000799 -0.009104 -0.005649
# 2 0.000072 0.010257 -0.000431 0.002750 -0.003885 -0.007317
# 3 -0.001755 -0.000431 0.009665 0.000953 -0.005049 -0.002328
# 4 0.000799 0.002750 0.000953 0.020949 -0.001411 -0.004543
# 5 -0.009104 -0.003885 -0.005049 -0.001411 0.030725 0.009021
# 6 -0.005649 -0.007317 -0.002328 -0.004543 0.009021 0.034626
#
#
# Mechanical properties :
#
#
# Convention : Reuss Voigt Hill
#
# Bulk Modulus (GPa) = 29.60491 53.87111 41.73801
# Shear Modulus (GPa) = 35.76790 44.30430 40.03610
#
# Velocity S-wave (km/s) = 3.77181 4.19784 3.99052
# Velocity P-wave (km/s) = 5.54473 6.70245 6.15089
#
# Compressibility (1/GPa) = 0.03377818
#
# Stress axis : x y z
#
# Youngs Moduli (GPa) = 55.30187 97.49472 103.46646
#
# Poissons Ratio (x) = -0.00703 0.18154
# Poissons Ratio (y) = -0.00399 0.04456
# Poissons Ratio (z) = 0.09703 0.04199
#
# Static dielectric constant tensor:
#      x y z
#    x 5.680040 -0.754420 0.539040 
#    y -0.754420 5.986210 -0.134970 
#    z 0.539040 -0.134970 4.826390 
# 
# 
# High freq. dielectric constant tensor:
#      x y z
#    x 1.991850 -0.000040 0.009140 
#    y -0.000040 2.009790 0.004670 
#    z 0.009140 0.004670 2.028820 
# 
# From -- ./inp_files/467011.got.cif
#   From: 2010.06.25/outbox.cif.g09.slc.cpg/sg2_234_cif.got.tgz:467011.got - 2010.06.27 13:26:56.
