data_PCOD8030373
_publ_section_title
;
Structure prediction by ZEFSAII (Michael W. Deem and Ramdas Pophale) SiO2 
 PCOD8030373
Probable space group: P -1
;
_chemical_formula_sum "Si O2"
_cell_formula_units_Z 16
_cell_length_a 14.622593
_cell_length_b 9.184585
_cell_length_c 14.070315
_cell_angle_alpha 39.594913
_cell_angle_beta 43.355429
_cell_angle_gamma 40.388008
_cell_volume 734.064757
_symmetry_space_group_name_H-M "P -1"
_symmetry_group_IT_number 2
_symmetry_cell_setting 'triclinic'
loop_
_space_group_symop_operation_xyz
x,y,z
-x,-y,-z
loop_
_atom_site_type_symbol
_atom_site_label
_atom_site_fract_x
_atom_site_fract_y
_atom_site_fract_z
Si Si1 0.966925 0.152694 0.740643
Si Si2 0.732973 0.844684 0.253891
Si Si3 0.635606 0.258807 0.968726
Si Si4 0.489707 0.739205 0.140501
Si Si5 0.627687 0.435068 0.512153
Si Si6 0.780845 0.248543 0.130975
Si Si7 0.946897 0.452360 0.772314
Si Si8 0.089174 0.032982 0.502226
O O1 0.793534 0.261946 0.843900
O O2 0.007644 0.348478 0.671693
O O3 0.081371 0.873320 0.837620
O O4 0.986990 0.148499 0.614743
O O5 0.639454 0.683362 0.421251
O O6 0.909296 0.640113 0.219591
O O7 0.713639 0.055861 0.243936
O O8 0.667655 0.992236 0.130046
O O9 0.587184 0.268661 0.893735
O O10 0.500000 0.500000 0.000000
O O11 0.386557 0.730964 0.307510
O O12 0.651708 0.494956 0.155138
O O13 0.500000 0.000000 0.000000
O O14 0.500000 0.500000 0.500000
O O15 0.774650 0.242969 0.438984
O O16 0.838156 0.337297 0.949484
O O17 0.856591 0.760297 0.678991
O O18 0.000000 0.000000 0.500000
#
# Coordination Sequence:
#
# PCOD8030373 Si02
#       8
#     2   2   2   2   2   2   2   2
#     4  11  23  41  71 102 132 181 233 282 344 416
#     4  11  22  44  70 101 142 176 230 291 352 410
#     4  12  23  44  70 105 138 173 233 290 351 413
#     4  12  26  46  70 101 143 186 233 284 353 419
#     4  12  27  47  68 101 147 186 230 293 351 409
#     4  11  22  46  72 103 135 184 233 288 349 419
#     4  11  21  44  74 100 141 172 237 289 339 417
#     4  12  25  45  66 101 141 185 232 285 348 408
#
# _framework density 21.796443
#
# number of rings (size 3 to 8) (size 9 to 14) (size 15 to 20)
#    0.000    0.500    5.000    4.125    0.000    1.500 
#    0.000    1.875    0.000    0.000    0.000    0.000 
#    0.000    0.000    0.000    0.000    0.000    0.000 
#
# Total GULP energy -198283.287439 kJ/mol
# GULP energy per Si atom -12392.705465 kJ/mol
# Density = 2.174683 g / cm^3
# Si number density = 21.796443 Si / 1000 Ang^3
#
#
#
# Elastic Constant Matrix: (Units=GPa)
#
#
# Indices 1 2 3 4 5 6 
#
# 1 129.7890 49.1852 46.8886 -1.0606 4.3599 -6.7321
# 2 49.1852 127.3797 45.8259 -9.8996 -9.1467 -10.8905
# 3 46.8886 45.8259 122.5749 -14.6419 -5.1625 14.7009
# 4 -1.0606 -9.8996 -14.6419 37.3270 5.0902 -2.6638
# 5 4.3599 -9.1467 -5.1625 5.0902 37.6923 1.1197
# 6 -6.7321 -10.8905 14.7009 -2.6638 1.1197 38.9178
#
#
#
# Elastic Compliance Matrix: (Units=1/GPa)
#
#
# Indices 1 2 3 4 5 6 
#
# 1 0.010150 -0.002781 -0.003358 -0.001308 -0.002198 0.002220
# 2 -0.002781 0.010620 -0.003080 0.001498 0.002165 0.003694
# 3 -0.003358 -0.003080 0.011691 0.003134 0.000988 -0.005673
# 4 -0.001308 0.001498 0.003134 0.028863 -0.002986 0.001070
# 5 -0.002198 0.002165 0.000988 -0.002986 0.027883 -0.001154
# 6 0.002220 0.003694 -0.005673 0.001070 -0.001154 0.029362
#
#
# Mechanical properties :
#
#
# Convention : Reuss Voigt Hill
#
# Bulk Modulus (GPa) = 71.30941 73.72699 72.51820
# Shear Modulus (GPa) = 35.29058 38.64366 36.96712
#
# Velocity S-wave (km/s) = 4.02817 4.21519 4.12274
# Velocity P-wave (km/s) = 7.37712 7.58875 7.48368
#
# Compressibility (1/GPa) = 0.01402339
#
# Stress axis : x y z
#
# Youngs Moduli (GPa) = 98.52060 94.16232 85.53948
#
# Poissons Ratio (x) = 0.26185 0.28726
# Poissons Ratio (y) = 0.27397 0.26342
# Poissons Ratio (z) = 0.33085 0.28998
#
# Static dielectric constant tensor:
#      x y z
#    x 6.588330 -1.540190 -0.280920 
#    y -1.540190 4.288690 -0.026010 
#    z -0.280920 -0.026010 3.956790 
# 
# 
# High freq. dielectric constant tensor:
#      x y z
#    x 1.872110 -0.008290 0.006580 
#    y -0.008290 1.862280 -0.012110 
#    z 0.006580 -0.012110 1.845000 
# 
# From -- ./inp_files/298792.got.cif
#   From: 2010.06.25/outbox.cif.g09.slc.cpg/sg2_150_cif.got.tgz:298792.got - 2010.06.27 13:26:56.
