data_PCOD8030579
_publ_section_title
;
Structure prediction by ZEFSAII (Michael W. Deem and Ramdas Pophale) SiO2 
 PCOD8030579
Probable space group: P -1
;
_chemical_formula_sum "Si O2"
_cell_formula_units_Z 16
_cell_length_a 16.781736
_cell_length_b 7.782872
_cell_length_c 14.018909
_cell_angle_alpha 85.938099
_cell_angle_beta 154.702499
_cell_angle_gamma 101.489093
_cell_volume 740.195154
_symmetry_space_group_name_H-M "P -1"
_symmetry_group_IT_number 2
_symmetry_cell_setting 'triclinic'
loop_
_space_group_symop_operation_xyz
x,y,z
-x,-y,-z
loop_
_atom_site_type_symbol
_atom_site_label
_atom_site_fract_x
_atom_site_fract_y
_atom_site_fract_z
Si Si1 0.266479 0.589333 0.500241
Si Si2 0.691328 0.488669 0.656515
Si Si3 0.582172 0.542601 0.981801
Si Si4 0.852727 0.323584 0.009854
Si Si5 0.226761 0.957687 0.506554
Si Si6 0.642216 0.217791 0.969296
Si Si7 0.068288 0.113002 0.162292
Si Si8 0.116093 0.054427 0.720111
O O1 0.349972 0.634252 0.479905
O O2 0.406315 0.504243 0.715701
O O3 0.266672 0.767872 0.549668
O O4 0.046115 0.450832 0.267859
O O5 0.500000 0.500000 0.500000
O O6 0.808007 0.686029 0.739331
O O7 0.817827 0.419684 0.871936
O O8 0.697119 0.398343 0.087315
O O9 0.500000 0.500000 0.000000
O O10 0.723902 0.747876 0.119958
O O11 0.883129 0.131475 0.021789
O O12 0.669381 0.280652 0.885175
O O13 0.035800 0.943139 0.361781
O O14 0.417944 0.101492 0.753933
O O15 0.196566 0.018134 0.364986
O O16 0.784821 0.100459 0.148415
O O17 0.000000 0.000000 0.000000
O O18 0.000000 0.000000 0.500000
#
# Coordination Sequence:
#
# PCOD8030579 Si02
#       8
#     2   2   2   2   2   2   2   2
#     4  11  24  44  71 101 144 189 236 295 356 423
#     4  11  23  40  65  99 141 187 240 286 351 422
#     4  12  28  48  76 108 141 188 237 292 363 422
#     4  11  22  43  66 101 140 188 236 287 354 415
#     4  12  24  46  71 104 145 181 237 296 349 423
#     4  12  26  48  76 103 146 186 236 294 354 425
#     4  11  22  38  65  99 136 184 232 283 347 413
#     4  12  29  49  75 107 140 187 238 295 359 422
#
# _framework density 21.615922000000001
#
# number of rings (size 3 to 8) (size 9 to 14) (size 15 to 20)
#    0.000    0.500    2.500    7.500    3.500    3.500 
#    0.000    2.500    0.000    0.000    0.000    0.000 
#    0.000    0.000    0.000    0.000    0.000    0.000 
#
# Total GULP energy -198426.023512 kJ/mol
# GULP energy per Si atom -12401.626470 kJ/mol
# Density = 2.156672 g / cm^3
# Si number density = 21.615922 Si / 1000 Ang^3
#
#
#
# Elastic Constant Matrix: (Units=GPa)
#
#
# Indices 1 2 3 4 5 6 
#
# 1 144.5676 56.9616 42.5578 -6.8105 -0.9941 -7.9480
# 2 56.9616 115.7378 26.9370 -1.0728 -2.2229 -16.5538
# 3 42.5578 26.9370 107.1633 -3.4457 -10.2403 5.0762
# 4 -6.8105 -1.0728 -3.4457 25.7617 -2.5456 -4.9484
# 5 -0.9941 -2.2229 -10.2403 -2.5456 38.9602 -2.2758
# 6 -7.9480 -16.5538 5.0762 -4.9484 -2.2758 41.5520
#
#
#
# Elastic Compliance Matrix: (Units=1/GPa)
#
#
# Indices 1 2 3 4 5 6 
#
# 1 0.009392 -0.003848 -0.002786 0.002055 -0.000530 0.000820
# 2 -0.003848 0.011472 -0.001507 0.000077 0.000402 0.004050
# 3 -0.002786 -0.001507 0.011199 0.000524 0.002687 -0.002292
# 4 0.002055 0.000077 0.000524 0.040783 0.003174 0.005390
# 5 -0.000530 0.000402 0.002687 0.003174 0.026682 0.001570
# 6 0.000820 0.004050 -0.002292 0.005390 0.001570 0.026844
#
#
# Mechanical properties :
#
#
# Convention : Reuss Voigt Hill
#
# Bulk Modulus (GPa) = 63.36277 68.93127 66.14702
# Shear Modulus (GPa) = 33.80376 37.32227 35.56302
#
# Velocity S-wave (km/s) = 3.95883 4.15976 4.06054
# Velocity P-wave (km/s) = 7.09035 7.41821 7.25613
#
# Compressibility (1/GPa) = 0.01578214
#
# Stress axis : x y z
#
# Youngs Moduli (GPa) = 106.47875 87.16742 89.29555
#
# Poissons Ratio (x) = 0.33539 0.24877
# Poissons Ratio (y) = 0.40969 0.13453
# Poissons Ratio (z) = 0.29664 0.13133
#
# Static dielectric constant tensor:
#      x y z
#    x 3.198250 0.219410 0.003690 
#    y 0.219410 3.950130 -0.151000 
#    z 0.003690 -0.151000 3.902630 
# 
# 
# High freq. dielectric constant tensor:
#      x y z
#    x 1.866460 -0.007730 -0.000980 
#    y -0.007730 1.862670 -0.010040 
#    z -0.000980 -0.010040 1.848540 
# 
# From -- ./inp_files/447583.got.cif
#   From: 2010.06.25/outbox.cif.g09.slc.cpg/sg2_224_cif.got.tgz:447583.got - 2010.06.27 13:26:56.
