data_PCOD8030406
_publ_section_title
;
Structure prediction by ZEFSAII (Michael W. Deem and Ramdas Pophale) SiO2 
 PCOD8030406
Probable space group: P -1
;
_chemical_formula_sum "Si O2"
_cell_formula_units_Z 16
_cell_length_a 11.243629
_cell_length_b 17.652807
_cell_length_c 8.257754
_cell_angle_alpha 132.140250
_cell_angle_beta 55.269941
_cell_angle_gamma 145.881094
_cell_volume 681.296204
_symmetry_space_group_name_H-M "P -1"
_symmetry_group_IT_number 2
_symmetry_cell_setting 'triclinic'
loop_
_space_group_symop_operation_xyz
x,y,z
-x,-y,-z
loop_
_atom_site_type_symbol
_atom_site_label
_atom_site_fract_x
_atom_site_fract_y
_atom_site_fract_z
Si Si1 0.362352 0.882425 0.686825
Si Si2 0.793931 0.625599 0.424360
Si Si3 0.421570 0.690910 0.884659
Si Si4 0.372468 0.388777 0.785949
Si Si5 0.051665 0.864278 0.103420
Si Si6 0.715466 0.720475 0.919706
Si Si7 0.241454 0.794668 0.294582
Si Si8 0.592733 0.826108 0.605837
O O1 0.217681 0.871151 0.906682
O O2 0.239991 0.799529 0.497032
O O3 0.422106 0.806250 0.614977
O O4 0.574173 0.052436 0.723471
O O5 0.710315 0.471148 0.314674
O O6 0.626740 0.591579 0.381977
O O7 0.813257 0.701310 0.677936
O O8 0.023615 0.733248 0.317126
O O9 0.585001 0.747122 0.984728
O O10 0.548292 0.804434 0.800703
O O11 0.253790 0.682885 0.076946
O O12 0.564169 0.571294 0.947512
O O13 0.415328 0.289685 0.637461
O O14 0.133894 0.295954 0.892585
O O15 0.920057 0.863164 0.068350
O O16 0.170953 0.001651 0.333712
#
# Coordination Sequence:
#
# PCOD8030406 Si02
#       8
#     2   2   2   2   2   2   2   2
#     4  11  26  44  65  92 136 169 216 270 324 381
#     4  11  21  45  70  93 129 176 217 262 323 387
#     4  11  23  42  70  96 131 169 216 269 323 382
#     4  11  24  44  68  96 133 173 211 269 327 381
#     4  12  25  43  66  97 131 176 214 266 327 381
#     4  11  23  46  67  95 134 170 220 266 317 386
#     4  11  24  45  66  95 126 176 218 267 317 388
#     4  12  24  44  66 100 133 167 214 273 325 384
#
# _framework density 23.484649000000001
#
# number of rings (size 3 to 8) (size 9 to 14) (size 15 to 20)
#    0.000    0.750    5.000    3.000    3.500    0.500 
#    2.250    1.250    0.000    0.000    0.000    0.000 
#    0.000    0.000    0.000    0.000    0.000    0.000 
#
# Total GULP energy -198403.470034 kJ/mol
# GULP energy per Si atom -12400.216877 kJ/mol
# Density = 2.343120 g / cm^3
# Si number density = 23.484649 Si / 1000 Ang^3
#
#
#
# Elastic Constant Matrix: (Units=GPa)
#
#
# Indices 1 2 3 4 5 6 
#
# 1 117.3170 34.0423 22.4812 1.3922 -14.4953 -3.3194
# 2 34.0423 84.2303 26.0372 -6.5478 -4.6764 8.2411
# 3 22.4812 26.0372 91.9708 3.3650 -24.4189 2.6480
# 4 1.3922 -6.5478 3.3650 37.3075 9.7149 3.0618
# 5 -14.4953 -4.6764 -24.4189 9.7149 28.6833 -1.5316
# 6 -3.3194 8.2411 2.6480 3.0618 -1.5316 40.3735
#
#
#
# Elastic Compliance Matrix: (Units=1/GPa)
#
#
# Indices 1 2 3 4 5 6 
#
# 1 0.010611 -0.004503 0.000327 -0.002969 0.006031 0.002224
# 2 -0.004503 0.015695 -0.005006 0.005244 -0.005961 -0.003869
# 3 0.000327 -0.005006 0.016609 -0.006583 0.015775 0.001057
# 4 -0.002969 0.005244 -0.006583 0.033395 -0.017779 -0.004090
# 5 0.006031 -0.005961 0.015775 -0.017779 0.056614 0.004174
# 6 0.002224 -0.003869 0.001057 -0.004090 0.004174 0.026141
#
#
# Mechanical properties :
#
#
# Convention : Reuss Voigt Hill
#
# Bulk Modulus (GPa) = 40.73123 50.95995 45.84559
# Shear Modulus (GPa) = 26.93794 35.33667 31.13731
#
# Velocity S-wave (km/s) = 3.39048 3.88322 3.64518
# Velocity P-wave (km/s) = 5.71914 6.46933 6.10577
#
# Compressibility (1/GPa) = 0.02455119
#
# Stress axis : x y z
#
# Youngs Moduli (GPa) = 94.23913 63.71520 60.20804
#
# Poissons Ratio (x) = 0.28692 -0.01968
# Poissons Ratio (y) = 0.42438 0.30138
# Poissons Ratio (z) = -0.03081 0.31894
#
# Static dielectric constant tensor:
#      x y z
#    x 4.407540 0.045930 0.209030 
#    y 0.045930 4.265430 -0.125370 
#    z 0.209030 -0.125370 4.324690 
# 
# 
# High freq. dielectric constant tensor:
#      x y z
#    x 1.940300 0.003690 0.013570 
#    y 0.003690 1.932760 -0.015380 
#    z 0.013570 -0.015380 1.942150 
# 
# From -- ./inp_files/279801.got.cif
#   From: 2010.06.25/outbox.cif.g09.slc.cpg/sg2_140_cif.got.tgz:279801.got - 2010.06.27 13:26:56.
