data_PCOD8030556
_publ_section_title
;
Structure prediction by ZEFSAII (Michael W. Deem and Ramdas Pophale) SiO2 
 PCOD8030556
Probable space group: P -1
;
_chemical_formula_sum "Si O2"
_cell_formula_units_Z 14
_cell_length_a 11.916738
_cell_length_b 13.423032
_cell_length_c 16.042913
_cell_angle_alpha 26.102930
_cell_angle_beta 43.622787
_cell_angle_gamma 33.591113
_cell_volume 621.602913
_symmetry_space_group_name_H-M "P -1"
_symmetry_group_IT_number 2
_symmetry_cell_setting 'triclinic'
loop_
_space_group_symop_operation_xyz
x,y,z
-x,-y,-z
loop_
_atom_site_type_symbol
_atom_site_label
_atom_site_fract_x
_atom_site_fract_y
_atom_site_fract_z
Si Si1 0.051422 0.167746 0.902896
Si Si2 0.384794 0.225970 0.632542
Si Si3 0.037377 0.916059 0.448986
Si Si4 0.789153 0.689354 0.748434
Si Si5 0.231465 0.483673 0.934222
Si Si6 0.377121 0.918759 0.218838
Si Si7 0.359947 0.738554 0.190295
O O1 0.196701 0.212130 0.737897
O O2 0.834747 0.473427 0.811525
O O3 0.156556 0.998177 0.060002
O O4 0.000000 0.000000 0.000000
O O5 0.449099 0.176591 0.733543
O O6 0.316186 0.526425 0.409519
O O7 0.565638 0.989227 0.650650
O O8 0.275693 0.761605 0.418266
O O9 0.967450 0.723646 0.610100
O O10 0.000000 0.000000 0.500000
O O11 0.922668 0.193764 0.247645
O O12 0.830766 0.520764 0.936200
O O13 0.457611 0.404769 0.866751
O O14 0.217828 0.264065 0.051370
O O15 0.438704 0.837816 0.149362
#
# Coordination Sequence:
#
# PCOD8030556 Si02
#       7
#     2   2   2   2   2   2   2
#     4  12  29  49  71  97 129 182 242 287 332 391
#     4  11  24  47  68 104 137 177 223 278 345 406
#     4  12  21  36  62 100 142 176 218 260 330 424
#     4  11  24  45  69  95 136 179 220 281 338 398
#     4  11  22  38  62 101 138 178 217 261 338 412
#     4  11  22  38  65 104 144 180 210 274 340 414
#     4  12  23  43  69 100 144 175 223 279 337 407
#
# _framework density 22.522417000000001
#
# number of rings (size 3 to 8) (size 9 to 14) (size 15 to 20)
#    0.000    0.571    7.143    3.000    2.000    1.143 
#    0.000    0.714    0.000    0.000    0.000    0.000 
#    0.000    0.000    0.000    0.000    0.000    0.000 
#
# Total GULP energy -173509.205960 kJ/mol
# GULP energy per Si atom -12393.514711 kJ/mol
# Density = 2.247115 g / cm^3
# Si number density = 22.522417 Si / 1000 Ang^3
#
#
#
# Elastic Constant Matrix: (Units=GPa)
#
#
# Indices 1 2 3 4 5 6 
#
# 1 67.0423 38.7707 34.8957 5.6732 -29.8474 5.0672
# 2 38.7707 79.8604 7.2557 0.0969 -25.2491 11.2133
# 3 34.8957 7.2557 106.9980 13.9950 -23.0817 10.7929
# 4 5.6732 0.0969 13.9950 24.2852 2.9997 -10.5148
# 5 -29.8474 -25.2491 -23.0817 2.9997 32.4078 -4.5884
# 6 5.0672 11.2133 10.7929 -10.5148 -4.5884 25.3646
#
#
#
# Elastic Compliance Matrix: (Units=1/GPa)
#
#
# Indices 1 2 3 4 5 6 
#
# 1 0.031810 -0.008724 -0.004541 -0.007221 0.019940 0.000048
# 2 -0.008724 0.021842 0.006382 -0.008410 0.012632 -0.011830
# 3 -0.004541 0.006382 0.016347 -0.015561 0.012011 -0.013148
# 4 -0.007221 -0.008410 -0.015561 0.070842 -0.025675 0.036505
# 5 0.019940 0.012632 0.012011 -0.025675 0.068155 -0.012993
# 6 0.000048 -0.011830 -0.013148 0.036505 -0.012993 0.063023
#
#
# Mechanical properties :
#
#
# Convention : Reuss Voigt Hill
#
# Bulk Modulus (GPa) = 17.78322 46.19388 31.98855
# Shear Modulus (GPa) = 16.41874 27.94343 22.18109
#
# Velocity S-wave (km/s) = 2.70292 3.52617 3.14163
# Velocity P-wave (km/s) = 4.20166 6.09370 5.23389
#
# Compressibility (1/GPa) = 0.05623278
#
# Stress axis : x y z
#
# Youngs Moduli (GPa) = 31.43681 45.78262 61.17313
#
# Poissons Ratio (x) = 0.39941 0.27781
# Poissons Ratio (y) = 0.27425 -0.39042
# Poissons Ratio (z) = 0.14277 -0.29219
#
# Static dielectric constant tensor:
#      x y z
#    x 3.577180 -0.165490 -0.199420 
#    y -0.165490 4.172970 0.080320 
#    z -0.199420 0.080320 4.426710 
# 
# 
# High freq. dielectric constant tensor:
#      x y z
#    x 1.830080 -0.011920 -0.013280 
#    y -0.011920 1.901340 0.005000 
#    z -0.013280 0.005000 1.919680 
# 
# From -- ./inp_files/477652.got.cif
#   From: 2010.06.25/outbox.cif.g09.slc.cpg/sg2_239_cif.got.tgz:477652.got - 2010.06.27 13:26:56.
