data_PCOD8030093
_publ_section_title
;
Structure prediction by ZEFSAII (Michael W. Deem and Ramdas Pophale) SiO2 
 PCOD8030093
Probable space group: P -1
;
_chemical_formula_sum "Si O2"
_cell_formula_units_Z 14
_cell_length_a 9.778414
_cell_length_b 10.125463
_cell_length_c 12.657028
_cell_angle_alpha 110.513532
_cell_angle_beta 34.355869
_cell_angle_gamma 97.308610
_cell_volume 630.454071
_symmetry_space_group_name_H-M "P -1"
_symmetry_group_IT_number 2
_symmetry_cell_setting 'triclinic'
loop_
_space_group_symop_operation_xyz
x,y,z
-x,-y,-z
loop_
_atom_site_type_symbol
_atom_site_label
_atom_site_fract_x
_atom_site_fract_y
_atom_site_fract_z
Si Si1 0.748812 0.142203 0.576417
Si Si2 0.798902 0.220773 0.173186
Si Si3 0.568785 0.823799 0.902413
Si Si4 0.082807 0.808532 0.292088
Si Si5 0.051140 0.685215 0.675244
Si Si6 0.726199 0.652659 0.549267
Si Si7 0.326679 0.053461 0.728865
O O1 0.789055 0.215243 0.680431
O O2 0.798170 0.233693 0.471532
O O3 0.460049 0.139808 0.747288
O O4 0.931701 0.975609 0.407539
O O5 0.890638 0.295044 0.234585
O O6 0.555282 0.339840 0.309576
O O7 0.697184 0.086754 0.232605
O O8 0.037864 0.162329 0.922112
O O9 0.713240 0.767554 0.685323
O O10 0.751108 0.754561 0.864925
O O11 0.321669 0.766222 0.047669
O O12 0.500000 0.000000 0.000000
O O13 0.902884 0.702634 0.363723
O O14 0.137328 0.511927 0.544329
O O15 0.500000 0.000000 0.500000
#
# Coordination Sequence:
#
# PCOD8030093 Si02
#       7
#     2   2   2   2   2   2   2
#     4  11  21  42  68  98 132 176 226 288 330 403
#     4  11  26  42  71  98 139 186 228 277 350 404
#     4  12  25  43  75 101 135 182 238 282 342 405
#     4  11  23  41  70  98 133 177 230 280 339 404
#     4  12  25  47  69 101 145 183 225 288 345 407
#     4  12  27  46  67 104 146 179 226 288 345 408
#     4  11  23  40  70 100 130 173 239 286 327 401
#
# _framework density 22.206216999999999
#
# number of rings (size 3 to 8) (size 9 to 14) (size 15 to 20)
#    0.000    0.571    5.714    2.571    6.000    0.571 
#    2.571    0.714    0.000    0.000    0.000    0.000 
#    0.000    0.000    0.000    0.000    0.000    0.000 
#
# Total GULP energy -173590.511535 kJ/mol
# GULP energy per Si atom -12399.322253 kJ/mol
# Density = 2.215567 g / cm^3
# Si number density = 22.206217 Si / 1000 Ang^3
#
#
#
# Elastic Constant Matrix: (Units=GPa)
#
#
# Indices 1 2 3 4 5 6 
#
# 1 86.8986 37.1234 37.7186 14.2667 -24.5140 4.2124
# 2 37.1234 100.5694 63.8117 7.3180 -6.0204 -4.9033
# 3 37.7186 63.8117 127.7789 -12.2623 -25.8877 0.8147
# 4 14.2667 7.3180 -12.2623 36.3386 1.1157 -11.6868
# 5 -24.5140 -6.0204 -25.8877 1.1157 41.4088 -0.5207
# 6 4.2124 -4.9033 0.8147 -11.6868 -0.5207 23.6000
#
#
#
# Elastic Compliance Matrix: (Units=1/GPa)
#
#
# Indices 1 2 3 4 5 6 
#
# 1 0.019551 -0.004767 -0.002448 -0.010919 0.009524 -0.009593
# 2 -0.004767 0.017289 -0.008716 -0.003441 -0.005628 0.002916
# 3 -0.002448 -0.008716 0.014996 0.008345 0.006464 0.002383
# 4 -0.010919 -0.003441 0.008345 0.042440 -0.002616 0.021905
# 5 0.009524 -0.005628 0.006464 -0.002616 0.033035 -0.003659
# 6 -0.009593 0.002916 0.002383 0.021905 -0.003659 0.055375
#
#
# Mechanical properties :
#
#
# Convention : Reuss Voigt Hill
#
# Bulk Modulus (GPa) = 50.06114 65.83937 57.95025
# Shear Modulus (GPa) = 22.60339 32.04236 27.32287
#
# Velocity S-wave (km/s) = 3.19389 3.80273 3.51153
# Velocity P-wave (km/s) = 6.01614 6.99961 6.52642
#
# Compressibility (1/GPa) = 0.01997557
#
# Stress axis : x y z
#
# Youngs Moduli (GPa) = 51.14807 57.84117 66.68283
#
# Poissons Ratio (x) = 0.27571 0.16323
# Poissons Ratio (y) = 0.24381 0.58119
# Poissons Ratio (z) = 0.12520 0.50413
#
# Static dielectric constant tensor:
#      x y z
#    x 4.224550 0.129190 -0.359640 
#    y 0.129190 3.847950 -0.210490 
#    z -0.359640 -0.210490 4.261520 
# 
# 
# High freq. dielectric constant tensor:
#      x y z
#    x 1.880450 0.002290 -0.020690 
#    y 0.002290 1.858090 -0.015570 
#    z -0.020690 -0.015570 1.879640 
# 
# From -- ./inp_files/390591.got.cif
#   From: 2010.06.25/outbox.cif.g09.slc.cpg/sg2_196_cif.got.tgz:390591.got - 2010.06.27 13:26:56.
