data_PCOD8030117
_publ_section_title
;
Structure prediction by ZEFSAII (Michael W. Deem and Ramdas Pophale) SiO2 
 PCOD8030117
Probable space group: P -1
;
_chemical_formula_sum "Si O2"
_cell_formula_units_Z 16
_cell_length_a 11.657962
_cell_length_b 14.214987
_cell_length_c 15.454520
_cell_angle_alpha 28.146862
_cell_angle_beta 38.540305
_cell_angle_gamma 54.204399
_cell_volume 703.302995
_symmetry_space_group_name_H-M "P -1"
_symmetry_group_IT_number 2
_symmetry_cell_setting 'triclinic'
loop_
_space_group_symop_operation_xyz
x,y,z
-x,-y,-z
loop_
_atom_site_type_symbol
_atom_site_label
_atom_site_fract_x
_atom_site_fract_y
_atom_site_fract_z
Si Si1 0.382055 0.015648 0.142093
Si Si2 0.380965 0.850916 0.946092
Si Si3 0.017335 0.323686 0.397967
Si Si4 0.425348 0.461738 0.707086
Si Si5 0.593668 0.801319 0.472842
Si Si6 0.569268 0.530102 0.031132
Si Si7 0.819429 0.635178 0.231543
Si Si8 0.988829 0.139398 0.754512
O O1 0.491071 0.981758 0.192101
O O2 0.166537 0.842933 0.406523
O O3 0.372426 0.248860 0.967522
O O4 0.500000 0.000000 0.000000
O O5 0.449042 0.649366 0.059429
O O6 0.401576 0.964285 0.747631
O O7 0.156128 0.772109 0.177537
O O8 0.994103 0.555225 0.223981
O O9 0.045616 0.257598 0.532925
O O10 0.198837 0.335618 0.219080
O O11 0.465666 0.655756 0.590421
O O12 0.624261 0.495285 0.510454
O O13 0.235872 0.424863 0.787500
O O14 0.817718 0.809382 0.342018
O O15 0.477370 0.705121 0.707937
O O16 0.500000 0.500000 0.000000
O O17 0.884128 0.886529 0.005841
#
# Coordination Sequence:
#
# PCOD8030117 Si02
#       8
#     2   2   2   2   2   2   2   2
#     4  12  21  44  76 111 143 184 236 308 365 421
#     4  12  26  46  77 106 144 186 239 307 358 423
#     4  12  26  45  74 105 148 194 238 289 367 434
#     4  11  21  42  70 110 145 177 228 309 359 422
#     4  12  27  46  72 107 146 185 246 296 362 420
#     4  12  30  51  66  99 152 204 238 286 361 443
#     4  11  23  41  74 110 146 177 238 298 370 423
#     4  12  25  44  77 113 139 183 247 306 361 420
#
# _framework density 22.749796
#
# number of rings (size 3 to 8) (size 9 to 14) (size 15 to 20)
#    0.000    0.250    7.500    1.125    1.750    2.500 
#    0.000    1.250    0.000    0.000    0.000    0.000 
#    0.000    0.000    0.000    0.000    0.000    0.000 
#
# Total GULP energy -198376.261644 kJ/mol
# GULP energy per Si atom -12398.516353 kJ/mol
# Density = 2.269802 g / cm^3
# Si number density = 22.749796 Si / 1000 Ang^3
#
#
#
# Elastic Constant Matrix: (Units=GPa)
#
#
# Indices 1 2 3 4 5 6 
#
# 1 82.5474 12.3439 31.8814 7.0889 20.0371 3.0873
# 2 12.3439 64.2222 22.7488 5.8328 0.0303 -7.6204
# 3 31.8814 22.7488 119.8270 21.5743 9.1263 -11.4779
# 4 7.0889 5.8328 21.5743 25.6376 -2.2814 1.4251
# 5 20.0371 0.0303 9.1263 -2.2814 47.0948 -3.1717
# 6 3.0873 -7.6204 -11.4779 1.4251 -3.1717 37.3655
#
#
#
# Elastic Compliance Matrix: (Units=1/GPa)
#
#
# Indices 1 2 3 4 5 6 
#
# 1 0.015442 -0.002046 -0.003299 -0.001404 -0.006211 -0.003180
# 2 -0.002046 0.017281 -0.002271 -0.001503 0.001441 0.003175
# 3 -0.003299 -0.002271 0.011639 -0.008658 -0.001026 0.003628
# 4 -0.001404 -0.001503 -0.008658 0.047643 0.004294 -0.004303
# 5 -0.006211 0.001441 -0.001026 0.004294 0.024444 0.002403
# 6 -0.003180 0.003175 0.003628 -0.004303 0.002403 0.029155
#
#
# Mechanical properties :
#
#
# Convention : Reuss Voigt Hill
#
# Bulk Modulus (GPa) = 34.33017 44.50495 39.41756
# Shear Modulus (GPa) = 29.31756 35.32774 32.32265
#
# Velocity S-wave (km/s) = 3.59374 3.94494 3.77342
# Velocity P-wave (km/s) = 5.68709 6.35258 6.02903
#
# Compressibility (1/GPa) = 0.02912890
#
# Stress axis : x y z
#
# Youngs Moduli (GPa) = 64.76048 57.86559 85.92061
#
# Poissons Ratio (x) = 0.11842 0.28342
# Poissons Ratio (y) = 0.13253 0.19516
# Poissons Ratio (z) = 0.21362 0.13143
#
# Static dielectric constant tensor:
#      x y z
#    x 4.772070 -0.383430 0.265400 
#    y -0.383430 4.786900 0.197170 
#    z 0.265400 0.197170 4.851360 
# 
# 
# High freq. dielectric constant tensor:
#      x y z
#    x 1.922590 0.001760 0.007660 
#    y 0.001760 1.865010 -0.016140 
#    z 0.007660 -0.016140 1.906370 
# 
# From -- ./inp_files/522103.got.cif
#   From: 2010.06.25/outbox.cif.g09.slc.cpg/sg2_262_cif.got.tgz:522103.got - 2010.06.27 13:26:56.
