data_PCOD8030500
_publ_section_title
;
Structure prediction by ZEFSAII (Michael W. Deem and Ramdas Pophale) SiO2 
 PCOD8030500
Probable space group: P -1
;
_chemical_formula_sum "Si O2"
_cell_formula_units_Z 16
_cell_length_a 9.867471
_cell_length_b 8.594055
_cell_length_c 13.021319
_cell_angle_alpha 44.689448
_cell_angle_beta 74.536704
_cell_angle_gamma 64.421985
_cell_volume 699.043255
_symmetry_space_group_name_H-M "P -1"
_symmetry_group_IT_number 2
_symmetry_cell_setting 'triclinic'
loop_
_space_group_symop_operation_xyz
x,y,z
-x,-y,-z
loop_
_atom_site_type_symbol
_atom_site_label
_atom_site_fract_x
_atom_site_fract_y
_atom_site_fract_z
Si Si1 0.462787 0.692138 0.005166
Si Si2 0.804370 0.792638 0.694024
Si Si3 0.136265 0.559160 0.733431
Si Si4 0.599221 0.312934 0.483654
Si Si5 0.347355 0.441621 0.320140
Si Si6 0.882935 0.094213 0.825590
Si Si7 0.222714 0.312519 0.036392
Si Si8 0.835153 0.939782 0.125290
O O1 0.417899 0.584445 0.165017
O O2 0.500000 0.500000 0.000000
O O3 0.598447 0.775641 0.972458
O O4 0.338957 0.929414 0.871451
O O5 0.727284 0.723974 0.643958
O O6 0.814690 0.610144 0.872817
O O7 0.976242 0.770704 0.643182
O O8 0.698697 0.055487 0.629704
O O9 0.280165 0.603922 0.639473
O O10 0.128898 0.328005 0.788833
O O11 0.147275 0.524325 0.871868
O O12 0.500000 0.500000 0.500000
O O13 0.478488 0.279938 0.443736
O O14 0.218077 0.643157 0.317634
O O15 0.061389 0.051630 0.801029
O O16 0.838171 0.900008 0.866926
O O17 0.859149 0.093237 0.953488
#
# Coordination Sequence:
#
# PCOD8030500 Si02
#       8
#     2   2   2   2   2   2   2   2
#     4  11  22  36  63 105 140 170 216 279 338 399
#     4  12  25  45  69 102 138 176 223 277 339 402
#     4  11  24  45  71  99 135 178 223 280 337 395
#     4  12  28  47  70  96 134 182 232 276 330 401
#     4  11  22  43  68  93 136 179 220 275 337 396
#     4   9  19  37  61  96 129 172 218 267 329 394
#     4  11  23  39  72 105 135 173 222 276 336 401
#     4   9  20  35  62  92 135 173 214 270 337 386
#
# _framework density 22.888425999999999
#
# number of rings (size 3 to 8) (size 9 to 14) (size 15 to 20)
#    0.000    1.250    3.750    1.875    5.250    2.500 
#    0.000    0.625    0.000    0.000    0.000    0.000 
#    0.000    0.000    0.000    0.000    0.000    0.000 
#
# Total GULP energy -198289.501267 kJ/mol
# GULP energy per Si atom -12393.093829 kJ/mol
# Density = 2.283633 g / cm^3
# Si number density = 22.888426 Si / 1000 Ang^3
#
#
#
# Elastic Constant Matrix: (Units=GPa)
#
#
# Indices 1 2 3 4 5 6 
#
# 1 184.7105 44.6179 38.8922 -7.6729 33.6150 -4.5866
# 2 44.6179 83.6304 22.9873 -6.9988 19.6668 -7.9195
# 3 38.8922 22.9873 65.3782 0.3519 12.4965 -4.8881
# 4 -7.6729 -6.9988 0.3519 27.9630 -4.0661 9.5467
# 5 33.6150 19.6668 12.4965 -4.0661 27.6048 -9.2595
# 6 -4.5866 -7.9195 -4.8881 9.5467 -9.2595 38.2111
#
#
#
# Elastic Compliance Matrix: (Units=1/GPa)
#
#
# Indices 1 2 3 4 5 6 
#
# 1 0.007766 -0.001710 -0.002746 0.001305 -0.007442 -0.001903
# 2 -0.001710 0.015640 -0.003093 0.002329 -0.007214 0.000311
# 3 -0.002746 -0.003093 0.018676 -0.002650 -0.002830 0.001395
# 4 0.001305 0.002329 -0.002650 0.040094 0.000650 -0.009559
# 5 -0.007442 -0.007214 -0.002830 0.000650 0.055324 0.010494
# 6 -0.001903 0.000311 0.001395 -0.009559 0.010494 0.031116
#
#
# Mechanical properties :
#
#
# Convention : Reuss Voigt Hill
#
# Bulk Modulus (GPa) = 37.05544 60.74600 48.90072
# Shear Modulus (GPa) = 25.94594 33.90391 29.92492
#
# Velocity S-wave (km/s) = 3.37053 3.85290 3.61976
# Velocity P-wave (km/s) = 5.60107 6.81108 6.23549
#
# Compressibility (1/GPa) = 0.02698659
#
# Stress axis : x y z
#
# Youngs Moduli (GPa) = 128.76077 63.93748 53.54501
#
# Poissons Ratio (x) = 0.10930 0.14702
# Poissons Ratio (y) = 0.22012 0.16560
# Poissons Ratio (z) = 0.35354 0.19774
#
# Static dielectric constant tensor:
#      x y z
#    x 3.564430 1.904500 0.515080 
#    y 1.904500 0.018290 -0.429350 
#    z 0.515080 -0.429350 3.861350 
# 
# 
# High freq. dielectric constant tensor:
#      x y z
#    x 1.936720 -0.003800 0.018360 
#    y -0.003800 1.891070 -0.012120 
#    z 0.018360 -0.012120 1.871410 
# 
# From -- ./inp_files/494239.got.cif
#   From: 2010.06.25/outbox.cif.g09.slc.cpg/sg2_248_cif.got.tgz:494239.got - 2010.06.27 13:26:56.
