data_PCOD8030943
_publ_section_title
;
Structure prediction by ZEFSAII (Michael W. Deem and Ramdas Pophale) SiO2 
 PCOD8030943
Probable space group: P -1
;
_chemical_formula_sum "Si O2"
_cell_formula_units_Z 14
_cell_length_a 9.356368
_cell_length_b 11.739408
_cell_length_c 9.428650
_cell_angle_alpha 137.310996
_cell_angle_beta 120.006153
_cell_angle_gamma 64.053164
_cell_volume 603.732469
_symmetry_space_group_name_H-M "P -1"
_symmetry_group_IT_number 2
_symmetry_cell_setting 'triclinic'
loop_
_space_group_symop_operation_xyz
x,y,z
-x,-y,-z
loop_
_atom_site_type_symbol
_atom_site_label
_atom_site_fract_x
_atom_site_fract_y
_atom_site_fract_z
Si Si1 0.978530 0.206919 0.053624
Si Si2 0.700642 0.010195 0.673721
Si Si3 0.162430 0.639766 0.598869
Si Si4 0.694913 0.730152 0.638862
Si Si5 0.925701 0.524581 0.142457
Si Si6 0.516607 0.190748 0.148065
Si Si7 0.383873 0.210056 0.797994
O O1 0.960455 0.272797 0.265623
O O2 0.901911 0.340944 0.022339
O O3 0.178042 0.174821 0.111531
O O4 0.888898 0.039221 0.832351
O O5 0.574436 0.181322 0.802856
O O6 0.645842 0.849977 0.589260
O O7 0.692623 0.956348 0.454844
O O8 0.235918 0.461123 0.543407
O O9 0.300146 0.764634 0.752742
O O10 0.058589 0.614715 0.382562
O O11 0.542351 0.704525 0.644304
O O12 0.741282 0.626280 0.158473
O O13 0.000000 0.500000 0.000000
O O14 0.394409 0.228029 0.987839
O O15 0.500000 0.000000 0.000000
#
# Coordination Sequence:
#
# PCOD8030943 Si02
#       7
#     2   2   2   2   2   2   2
#     4  11  22  43  69  98 127 178 224 266 323 394
#     4  11  23  41  66 101 132 173 220 274 330 386
#     4  11  23  44  68  97 127 179 221 267 324 395
#     4  11  22  41  68  95 133 170 223 271 324 395
#     4  11  25  45  67  98 136 171 220 276 333 390
#     4  12  24  44  64  98 132 172 220 271 329 391
#     4  11  23  43  63  96 137 167 218 272 335 385
#
# _framework density 23.189080000000001
#
# number of rings (size 3 to 8) (size 9 to 14) (size 15 to 20)
#    0.000    0.857    2.857    6.000    0.000    2.857 
#    5.143    2.143    0.000    0.000    0.000    0.000 
#    0.000    0.000    0.000    0.000    0.000    0.000 
#
# Total GULP energy -173465.066191 kJ/mol
# GULP energy per Si atom -12390.361871 kJ/mol
# Density = 2.313630 g / cm^3
# Si number density = 23.189080 Si / 1000 Ang^3
#
#
#
# Elastic Constant Matrix: (Units=GPa)
#
#
# Indices 1 2 3 4 5 6 
#
# 1 66.4471 22.4974 4.4350 -1.2659 1.2404 10.0512
# 2 22.4974 103.7144 13.1406 -7.0219 8.1943 0.8801
# 3 4.4350 13.1406 92.4672 -15.5517 0.2373 21.7665
# 4 -1.2659 -7.0219 -15.5517 29.7661 8.0470 1.3962
# 5 1.2404 8.1943 0.2373 8.0470 27.2579 -0.4850
# 6 10.0512 0.8801 21.7665 1.3962 -0.4850 37.3209
#
#
#
# Elastic Compliance Matrix: (Units=1/GPa)
#
#
# Indices 1 2 3 4 5 6 
#
# 1 0.017034 -0.003746 0.001019 0.000592 0.000076 -0.005114
# 2 -0.003746 0.011104 -0.001217 0.002837 -0.003971 0.001299
# 3 0.001019 -0.001217 0.014488 0.008413 -0.002451 -0.009042
# 4 0.000592 0.002837 0.008413 0.042708 -0.013684 -0.006908
# 5 0.000076 -0.003971 -0.002451 -0.013684 0.041984 0.002560
# 6 -0.005114 0.001299 -0.009042 -0.006908 0.002560 0.033707
#
#
# Mechanical properties :
#
#
# Convention : Reuss Voigt Hill
#
# Bulk Modulus (GPa) = 28.78816 38.08609 33.43712
# Shear Modulus (GPa) = 27.70206 33.70604 30.70405
#
# Velocity S-wave (km/s) = 3.46007 3.81666 3.64273
# Velocity P-wave (km/s) = 5.32957 5.99018 5.66950
#
# Compressibility (1/GPa) = 0.03473651
#
# Stress axis : x y z
#
# Youngs Moduli (GPa) = 58.70777 90.06162 69.02086
#
# Poissons Ratio (x) = 0.33741 -0.07031
# Poissons Ratio (y) = 0.21995 0.08398
# Poissons Ratio (z) = -0.05981 0.10958
#
# Static dielectric constant tensor:
#      x y z
#    x 2.859560 -0.275400 0.528770 
#    y -0.275400 4.130620 -0.029080 
#    z 0.528770 -0.029080 4.001600 
# 
# 
# High freq. dielectric constant tensor:
#      x y z
#    x 1.916860 -0.013930 -0.003990 
#    y -0.013930 1.916270 -0.009220 
#    z -0.003990 -0.009220 1.918940 
# 
# From -- ./inp_files/158954.got.cif
#   From: 2010.06.25/outbox.cif.g09.slc.cpg/sg2_80_cif.got.tgz:158954.got - 2010.06.27 13:26:56.
