data_PCOD8030129
_publ_section_title
;
Structure prediction by ZEFSAII (Michael W. Deem and Ramdas Pophale) SiO2 
 PCOD8030129
Probable space group: P -1
;
_chemical_formula_sum "Si O2"
_cell_formula_units_Z 12
_cell_length_a 8.997605
_cell_length_b 9.639293
_cell_length_c 9.671749
_cell_angle_alpha 137.299677
_cell_angle_beta 73.344247
_cell_angle_gamma 101.776014
_cell_volume 544.973200
_symmetry_space_group_name_H-M "P -1"
_symmetry_group_IT_number 2
_symmetry_cell_setting 'triclinic'
loop_
_space_group_symop_operation_xyz
x,y,z
-x,-y,-z
loop_
_atom_site_type_symbol
_atom_site_label
_atom_site_fract_x
_atom_site_fract_y
_atom_site_fract_z
Si Si1 0.144981 0.047339 0.236461
Si Si2 0.800055 0.067476 0.413981
Si Si3 0.286582 0.264161 0.585177
Si Si4 0.783770 0.799805 0.969817
Si Si5 0.574227 0.437859 0.788592
Si Si6 0.057389 0.605171 0.923933
O O1 0.291257 0.134868 0.346998
O O2 0.156329 0.098495 0.110457
O O3 0.979440 0.133327 0.401486
O O4 0.153126 0.806283 0.082875
O O5 0.704242 0.260143 0.639933
O O6 0.787843 0.874174 0.377036
O O7 0.736245 0.984445 0.222215
O O8 0.452085 0.347740 0.647323
O O9 0.177302 0.452526 0.708313
O O10 0.643271 0.646966 0.862139
O O11 0.918144 0.660403 0.898933
O O12 0.500000 0.500000 0.000000
O O13 0.000000 0.500000 0.000000
#
# Coordination Sequence:
#
# PCOD8030129 Si02
#       6
#     2   2   2   2   2   2
#     4  11  26  43  71 106 140 170 226 290 344 391
#     4  11  23  44  73  98 133 182 230 279 339 400
#     4  12  25  39  70 105 132 181 230 278 333 409
#     4  11  25  46  70 102 141 180 217 289 343 397
#     4  12  26  44  70  99 139 183 233 272 337 413
#     4  11  21  42  71 101 132 173 235 276 327 401
#
# _framework density 22.019431999999998
#
# number of rings (size 3 to 8) (size 9 to 14) (size 15 to 20)
#    0.000    0.667    5.000    4.000    4.667    4.667 
#    0.000    1.667    0.000    0.000    0.000    0.000 
#    0.000    0.000    0.000    0.000    0.000    0.000 
#
# Total GULP energy -148777.664093 kJ/mol
# GULP energy per Si atom -12398.138674 kJ/mol
# Density = 2.196931 g / cm^3
# Si number density = 22.019432 Si / 1000 Ang^3
#
#
#
# Elastic Constant Matrix: (Units=GPa)
#
#
# Indices 1 2 3 4 5 6 
#
# 1 75.4392 35.0118 48.7257 6.1884 33.3751 11.5261
# 2 35.0118 114.1740 53.6105 3.8955 5.0495 -6.5308
# 3 48.7257 53.6105 118.4418 7.7829 9.9333 -0.3572
# 4 6.1884 3.8955 7.7829 33.1445 -2.0139 13.4354
# 5 33.3751 5.0495 9.9333 -2.0139 48.8951 1.5022
# 6 11.5261 -6.5308 -0.3572 13.4354 1.5022 23.9361
#
#
#
# Elastic Compliance Matrix: (Units=1/GPa)
#
#
# Indices 1 2 3 4 5 6 
#
# 1 0.033554 -0.006030 -0.009680 0.002977 -0.019627 -0.018387
# 2 -0.006030 0.012507 -0.003266 -0.002388 0.003162 0.007409
# 3 -0.009680 -0.003266 0.013795 -0.003013 0.003851 0.005426
# 4 0.002977 -0.002388 -0.003013 0.040879 0.001283 -0.025156
# 5 -0.019627 0.003162 0.003851 0.001283 0.032559 0.007608
# 6 -0.018387 0.007409 0.005426 -0.025156 0.007608 0.066377
#
#
# Mechanical properties :
#
#
# Convention : Reuss Voigt Hill
#
# Bulk Modulus (GPa) = 45.65240 64.75012 55.20126
# Shear Modulus (GPa) = 20.41448 32.57562 26.49505
#
# Velocity S-wave (km/s) = 3.04815 3.85047 3.47256
# Velocity P-wave (km/s) = 5.75900 7.01697 6.41888
#
# Compressibility (1/GPa) = 0.02190465
#
# Stress axis : x y z
#
# Youngs Moduli (GPa) = 29.80231 79.95677 72.49053
#
# Poissons Ratio (x) = 0.48212 0.70169
# Poissons Ratio (y) = 0.17970 0.23677
# Poissons Ratio (z) = 0.28848 0.26116
#
# Static dielectric constant tensor:
#      x y z
#    x 4.052260 0.077250 0.137920 
#    y 0.077250 4.076400 0.324770 
#    z 0.137920 0.324770 4.264310 
# 
# 
# High freq. dielectric constant tensor:
#      x y z
#    x 1.861170 0.006830 0.016040 
#    y 0.006830 1.865980 0.016130 
#    z 0.016040 0.016130 1.875480 
# 
# From -- ./inp_files/157758.got.cif
#   From: 2010.06.25/outbox.cif.g09.slc.cpg/sg2_79_cif.got.tgz:157758.got - 2010.06.27 13:26:56.
