data_PCOD8030506
_publ_section_title
;
Structure prediction by ZEFSAII (Michael W. Deem and Ramdas Pophale) SiO2 
 PCOD8030506
Probable space group: P -1
;
_chemical_formula_sum "Si O2"
_cell_formula_units_Z 16
_cell_length_a 8.955530
_cell_length_b 9.546542
_cell_length_c 18.911506
_cell_angle_alpha 39.712721
_cell_angle_beta 96.833013
_cell_angle_gamma 120.233890
_cell_volume 779.963241
_symmetry_space_group_name_H-M "P -1"
_symmetry_group_IT_number 2
_symmetry_cell_setting 'triclinic'
loop_
_space_group_symop_operation_xyz
x,y,z
-x,-y,-z
loop_
_atom_site_type_symbol
_atom_site_label
_atom_site_fract_x
_atom_site_fract_y
_atom_site_fract_z
Si Si1 0.489572 0.181517 0.984067
Si Si2 0.511644 0.665681 0.723094
Si Si3 0.839093 0.175136 0.782607
Si Si4 0.087134 0.746762 0.504737
Si Si5 0.509107 0.979475 0.729919
Si Si6 0.775803 0.238228 0.078050
Si Si7 0.777103 0.544421 0.461935
Si Si8 0.795132 0.769896 0.235033
O O1 0.521975 0.439588 0.846996
O O2 0.670141 0.326271 0.992606
O O3 0.500000 0.000000 0.000000
O O4 0.279379 0.960217 0.098392
O O5 0.452098 0.778028 0.737599
O O6 0.344937 0.511044 0.713204
O O7 0.717690 0.925326 0.594127
O O8 0.970309 0.526805 0.650880
O O9 0.978649 0.092676 0.817160
O O10 0.687549 0.032361 0.763194
O O11 0.148522 0.599652 0.518649
O O12 0.940803 0.765995 0.443835
O O13 0.317751 0.845428 0.817208
O O14 0.574658 0.284348 0.590145
O O15 0.759063 0.991352 0.130970
O O16 0.000000 0.500000 0.000000
O O17 0.739407 0.696619 0.343355
#
# Coordination Sequence:
#
# PCOD8030506 Si02
#       8
#     2   2   2   2   2   2   2   2
#     4  11  24  44  59  83 127 161 189 247 306 347
#     4  11  22  36  65  89 121 154 200 241 300 346
#     4   9  21  39  66  85 118 159 203 234 292 360
#     4   8  16  35  59  92 111 154 198 243 283 357
#     4   9  21  41  62  88 116 159 195 242 293 359
#     4  11  26  40  59  87 123 152 204 245 291 347
#     4   8  16  34  62  84 120 150 197 236 294 349
#     4  11  22  37  61  93 120 152 193 252 292 343
#
# _framework density 20.513786
#
# number of rings (size 3 to 8) (size 9 to 14) (size 15 to 20)
#    0.000    2.250    1.250    2.250    5.250    7.500 
#    0.000    0.625    0.000    0.000    0.000    0.000 
#    0.000    0.000    0.000    0.000    0.000    0.000 
#
# Total GULP energy -198295.656798 kJ/mol
# GULP energy per Si atom -12393.478550 kJ/mol
# Density = 2.046710 g / cm^3
# Si number density = 20.513786 Si / 1000 Ang^3
#
#
#
# Elastic Constant Matrix: (Units=GPa)
#
#
# Indices 1 2 3 4 5 6 
#
# 1 91.9320 28.8042 43.1929 -5.1242 -16.6801 12.1732
# 2 28.8042 59.6468 -4.3697 -20.9533 -4.3101 7.2389
# 3 43.1929 -4.3697 81.6939 -15.6360 -5.4482 8.5616
# 4 -5.1242 -20.9533 -15.6360 22.0665 12.1546 -0.1354
# 5 -16.6801 -4.3101 -5.4482 12.1546 27.3253 -2.0881
# 6 12.1732 7.2389 8.5616 -0.1354 -2.0881 26.3973
#
#
#
# Elastic Compliance Matrix: (Units=1/GPa)
#
#
# Indices 1 2 3 4 5 6 
#
# 1 2.536517 -3.617638 -2.672667 -6.646957 3.472527 0.929764
# 2 -3.617638 5.196526 3.824442 9.533020 -4.968979 -1.341308
# 3 -2.672667 3.824442 2.835318 7.033869 -3.667281 -0.989864
# 4 -6.646957 9.533020 7.033869 17.564162 -9.152370 -2.464167
# 5 3.472527 -4.968979 -3.667281 -9.152370 4.810548 1.284274
# 6 0.929764 -1.341308 -0.989864 -2.464167 1.284274 0.386940
#
#
# Mechanical properties :
#
#
# Convention : Reuss Voigt Hill
#
# Bulk Modulus (GPa) = 0.17741 40.94750 20.56245
# Shear Modulus (GPa) = 0.12456 26.20085 13.16270
#
# Velocity S-wave (km/s) = 0.24668 3.57771 2.53583
# Velocity P-wave (km/s) = 0.40964 6.08860 4.31502
#
# Compressibility (1/GPa) = 5.63663509
#
# Stress axis : x y z
#
# Youngs Moduli (GPa) = 0.39424 0.19244 0.35269
#
# Poissons Ratio (x) = 0.69616 0.94263
# Poissons Ratio (y) = 1.42622 -1.34886
# Poissons Ratio (z) = 1.05368 -0.73596
#
# Static dielectric constant tensor:
#      x y z
#    x -1.431470 6.068130 -8.452790 
#    y 6.068130 -3.310730 9.799590 
#    z -8.452790 9.799590 -9.248800 
# 
# 
# High freq. dielectric constant tensor:
#      x y z
#    x 1.792380 0.015380 -0.007960 
#    y 0.015380 1.782330 0.007090 
#    z -0.007960 0.007090 1.813000 
# 
# From -- ./inp_files/279942.got.cif
#   From: 2010.06.25/outbox.cif.g09.slc.cpg/sg2_140_cif.got.tgz:279942.got - 2010.06.27 13:26:56.
