data_PCOD8030332
_publ_section_title
;
Structure prediction by ZEFSAII (Michael W. Deem and Ramdas Pophale) SiO2 
 PCOD8030332
Probable space group: P -1
;
_chemical_formula_sum "Si O2"
_cell_formula_units_Z 16
_cell_length_a 12.406371
_cell_length_b 10.654561
_cell_length_c 13.981087
_cell_angle_alpha 149.591191
_cell_angle_beta 61.875533
_cell_angle_gamma 98.674394
_cell_volume 676.204932
_symmetry_space_group_name_H-M "P -1"
_symmetry_group_IT_number 2
_symmetry_cell_setting 'triclinic'
loop_
_space_group_symop_operation_xyz
x,y,z
-x,-y,-z
loop_
_atom_site_type_symbol
_atom_site_label
_atom_site_fract_x
_atom_site_fract_y
_atom_site_fract_z
Si Si1 0.794327 0.136252 0.101867
Si Si2 0.830542 0.749828 0.233120
Si Si3 0.608502 0.299144 0.960944
Si Si4 0.740207 0.370478 0.679676
Si Si5 0.342313 0.040697 0.101366
Si Si6 0.351189 0.228486 0.515973
Si Si7 0.676226 0.735771 0.115331
Si Si8 0.860918 0.288945 0.363547
O O1 0.702888 0.484701 0.338306
O O2 0.806112 0.134783 0.211971
O O3 0.701944 0.004688 0.016604
O O4 0.960166 0.922350 0.847114
O O5 0.742965 0.652305 0.268807
O O6 0.769708 0.818485 0.194639
O O7 0.817020 0.038777 0.472373
O O8 0.000000 0.500000 0.000000
O O9 0.649214 0.210048 0.997550
O O10 0.682543 0.989780 0.667321
O O11 0.433471 0.478842 0.142553
O O12 0.654617 0.511084 0.039858
O O13 0.797100 0.344267 0.532550
O O14 0.771999 0.561347 0.864703
O O15 0.211791 0.366747 0.414171
O O16 0.500000 0.000000 0.000000
O O17 0.523991 0.050084 0.356502
#
# Coordination Sequence:
#
# PCOD8030332 Si02
#       8
#     2   2   2   2   2   2   2   2
#     4  11  26  45  71  99 137 185 221 282 351 403
#     4  12  25  41  65 103 137 175 222 273 337 407
#     4  11  21  44  70  98 134 173 224 280 334 397
#     4  11  23  43  66 100 135 169 229 282 324 398
#     4  12  25  44  71 101 133 178 234 282 336 402
#     4  11  21  44  71  97 130 178 226 273 338 399
#     4  11  24  43  72  96 136 183 218 278 340 394
#     4  11  25  48  67  98 143 177 230 281 342 406
#
# _framework density 23.661466999999998
#
# number of rings (size 3 to 8) (size 9 to 14) (size 15 to 20)
#    0.000    0.750    5.000    3.000    1.750    2.000 
#    2.250    0.000    0.000    0.000    0.000    0.000 
#    0.000    0.000    0.000    0.000    0.000    0.000 
#
# Total GULP energy -198327.870562 kJ/mol
# GULP energy per Si atom -12395.491910 kJ/mol
# Density = 2.360761 g / cm^3
# Si number density = 23.661467 Si / 1000 Ang^3
#
#
#
# Elastic Constant Matrix: (Units=GPa)
#
#
# Indices 1 2 3 4 5 6 
#
# 1 117.4323 9.5330 57.8311 -11.5839 -3.4836 -17.7149
# 2 9.5330 81.0765 29.9820 -16.9156 -10.7351 -16.1462
# 3 57.8311 29.9820 166.9187 5.8743 -5.5327 -14.9623
# 4 -11.5839 -16.9156 5.8743 54.9355 -13.2562 2.4203
# 5 -3.4836 -10.7351 -5.5327 -13.2562 28.6753 -0.7677
# 6 -17.7149 -16.1462 -14.9623 2.4203 -0.7677 27.7330
#
#
#
# Elastic Compliance Matrix: (Units=1/GPa)
#
#
# Indices 1 2 3 4 5 6 
#
# 1 0.011866 0.002936 -0.004052 0.004511 0.004027 0.006820
# 2 0.002936 0.018653 -0.003379 0.008943 0.011101 0.010439
# 3 -0.004052 -0.003379 0.008060 -0.003159 -0.001662 0.000023
# 4 0.004511 0.008943 -0.003159 0.025738 0.015307 0.004561
# 5 0.004027 0.011101 -0.001662 0.015307 0.046491 0.008090
# 6 0.006820 0.010439 0.000023 0.004561 0.008090 0.046331
#
#
# Mechanical properties :
#
#
# Convention : Reuss Voigt Hill
#
# Bulk Modulus (GPa) = 33.79674 62.23552 48.01613
# Shear Modulus (GPa) = 28.41040 40.14085 34.27562
#
# Velocity S-wave (km/s) = 3.46888 4.12328 3.81016
# Velocity P-wave (km/s) = 5.50986 7.00202 6.30027
#
# Compressibility (1/GPa) = 0.02958865
#
# Stress axis : x y z
#
# Youngs Moduli (GPa) = 84.27339 53.61093 124.07067
#
# Poissons Ratio (x) = -0.15739 0.50279
# Poissons Ratio (y) = -0.24742 0.41919
# Poissons Ratio (z) = 0.34151 0.18113
#
# Static dielectric constant tensor:
#      x y z
#    x 4.235010 -0.470950 0.360040 
#    y -0.470950 4.540620 0.081630 
#    z 0.360040 0.081630 4.764180 
# 
# 
# High freq. dielectric constant tensor:
#      x y z
#    x 1.925540 -0.022530 0.016880 
#    y -0.022530 1.936100 0.007920 
#    z 0.016880 0.007920 1.958170 
# 
# From -- ./inp_files/519951.got.cif
#   From: 2010.06.25/outbox.cif.g09.slc.cpg/sg2_260_cif.got.tgz:519951.got - 2010.06.27 13:26:56.
