data_PCOD8030895
_publ_section_title
;
Structure prediction by ZEFSAII (Michael W. Deem and Ramdas Pophale) SiO2 
 PCOD8030895
Probable space group: P -1
;
_chemical_formula_sum "Si O2"
_cell_formula_units_Z 14
_cell_length_a 10.512917
_cell_length_b 13.805042
_cell_length_c 18.505030
_cell_angle_alpha 157.096209
_cell_angle_beta 144.329504
_cell_angle_gamma 33.669382
_cell_volume 566.293220
_symmetry_space_group_name_H-M "P -1"
_symmetry_group_IT_number 2
_symmetry_cell_setting 'triclinic'
loop_
_space_group_symop_operation_xyz
x,y,z
-x,-y,-z
loop_
_atom_site_type_symbol
_atom_site_label
_atom_site_fract_x
_atom_site_fract_y
_atom_site_fract_z
Si Si1 0.938148 0.121273 0.977784
Si Si2 0.608870 0.125506 0.575545
Si Si3 0.881867 0.978980 0.217239
Si Si4 0.565200 0.865204 0.235624
Si Si5 0.197262 0.620540 0.662177
Si Si6 0.652535 0.237643 0.430322
Si Si7 0.957175 0.522277 0.830117
O O1 0.658278 0.209513 0.899201
O O2 0.099245 0.903506 0.848827
O O3 0.017424 0.366168 0.162201
O O4 0.000000 0.000000 0.000000
O O5 0.437751 0.418480 0.669046
O O6 0.838276 0.144835 0.730412
O O7 0.500000 0.000000 0.500000
O O8 0.675173 0.920815 0.398848
O O9 0.781076 0.280435 0.341842
O O10 0.774287 0.010773 0.269794
O O11 0.826372 0.753283 0.988149
O O12 0.771193 0.635780 0.129654
O O13 0.490463 0.129762 0.331910
O O14 0.000000 0.500000 0.500000
O O15 0.500000 0.500000 0.500000
O O16 0.830062 0.310723 0.616198
#
# Coordination Sequence:
#
# PCOD8030895 Si02
#       7
#     2   2   2   2   2   2   2
#     4  11  25  41  70 105 143 183 233 305 359 408
#     4  12  23  40  74 102 140 192 232 296 366 413
#     4  11  26  47  70 103 145 190 236 299 363 415
#     4  12  25  46  71 107 143 189 244 289 356 442
#     4  11  22  41  66 103 139 181 244 289 350 435
#     4  12  27  49  77  99 146 198 233 294 365 429
#     4  11  26  47  70 107 145 178 249 296 348 441
#
# _framework density 24.722175
#
# number of rings (size 3 to 8) (size 9 to 14) (size 15 to 20)
#    0.000    0.571    4.286    3.429    6.000    1.143 
#    0.000    0.000    0.000    0.000    0.000    0.000 
#    0.000    0.000    0.000    0.000    0.000    0.000 
#
# Total GULP energy -173485.746186 kJ/mol
# GULP energy per Si atom -12391.839013 kJ/mol
# Density = 2.466591 g / cm^3
# Si number density = 24.722175 Si / 1000 Ang^3
#
#
#
# Elastic Constant Matrix: (Units=GPa)
#
#
# Indices 1 2 3 4 5 6 
#
# 1 90.7054 -7.6480 24.4029 -2.5350 -6.5235 13.9465
# 2 -7.6480 113.9440 -9.2463 8.8302 -3.0256 2.0069
# 3 24.4029 -9.2463 51.3221 1.3902 -13.4251 2.0233
# 4 -2.5350 8.8302 1.3902 32.0929 1.3276 -2.4238
# 5 -6.5235 -3.0256 -13.4251 1.3276 32.3557 5.3150
# 6 13.9465 2.0069 2.0233 -2.4238 5.3150 43.4528
#
#
#
# Elastic Compliance Matrix: (Units=1/GPa)
#
#
# Indices 1 2 3 4 5 6 
#
# 1 0.013370 0.000451 -0.005893 0.000839 0.000933 -0.004105
# 2 0.000451 0.009271 0.002132 -0.002778 0.002135 -0.001088
# 3 -0.005893 0.002132 0.025318 -0.002607 0.009742 -0.000723
# 4 0.000839 -0.002778 -0.002607 0.032382 -0.002852 0.002136
# 5 0.000933 0.002135 0.009742 -0.002852 0.036350 -0.005457
# 6 -0.004105 -0.001088 -0.000723 0.002136 -0.005457 0.025201
#
#
# Mechanical properties :
#
#
# Convention : Reuss Voigt Hill
#
# Bulk Modulus (GPa) = 24.18916 30.10987 27.14952
# Shear Modulus (GPa) = 30.80885 38.14447 34.47666
#
# Velocity S-wave (km/s) = 3.53399 3.93227 3.73844
# Velocity P-wave (km/s) = 5.14371 5.72911 5.44429
#
# Compressibility (1/GPa) = 0.04134084
#
# Stress axis : x y z
#
# Youngs Moduli (GPa) = 74.79552 107.86626 39.49696
#
# Poissons Ratio (x) = -0.04868 0.23275
# Poissons Ratio (y) = -0.03375 -0.08422
# Poissons Ratio (z) = 0.44075 -0.23002
#
# Static dielectric constant tensor:
#      x y z
#    x 5.176090 -0.409110 -1.536880 
#    y -0.409110 4.716660 0.432640 
#    z -1.536880 0.432640 6.985620 
# 
# 
# High freq. dielectric constant tensor:
#      x y z
#    x 1.998470 0.007510 0.000020 
#    y 0.007510 1.992790 0.015640 
#    z 0.000020 0.015640 1.972580 
# 
# From -- ./inp_files/466510.got.cif
#   From: 2010.06.25/outbox.cif.g09.slc.cpg/sg2_234_cif.got.tgz:466510.got - 2010.06.27 13:26:56.
