data_PCOD8030541
_publ_section_title
;
Structure prediction by ZEFSAII (Michael W. Deem and Ramdas Pophale) SiO2 
 PCOD8030541
Probable space group: P -1
;
_chemical_formula_sum "Si O2"
_cell_formula_units_Z 16
_cell_length_a 9.536809
_cell_length_b 17.064340
_cell_length_c 11.223508
_cell_angle_alpha 146.078186
_cell_angle_beta 125.731346
_cell_angle_gamma 48.144173
_cell_volume 757.183842
_symmetry_space_group_name_H-M "P -1"
_symmetry_group_IT_number 2
_symmetry_cell_setting 'triclinic'
loop_
_space_group_symop_operation_xyz
x,y,z
-x,-y,-z
loop_
_atom_site_type_symbol
_atom_site_label
_atom_site_fract_x
_atom_site_fract_y
_atom_site_fract_z
Si Si1 0.952539 0.856001 0.827162
Si Si2 0.260716 0.150983 0.506395
Si Si3 0.962037 0.152379 0.746080
Si Si4 0.647361 0.370772 0.242973
Si Si5 0.709930 0.985268 0.091627
Si Si6 0.385400 0.811886 0.212378
Si Si7 0.962994 0.349190 0.779553
Si Si8 0.636106 0.322424 0.448998
O O1 0.883051 0.785608 0.593488
O O2 0.131705 0.710938 0.782720
O O3 0.790678 0.913460 0.915442
O O4 0.000000 0.000000 0.000000
O O5 0.432880 0.204058 0.638711
O O6 0.154581 0.214668 0.657885
O O7 0.326122 0.968798 0.307523
O O8 0.154625 0.124844 0.879038
O O9 0.783788 0.191285 0.794504
O O10 0.914622 0.297314 0.818265
O O11 0.000000 0.000000 0.500000
O O12 0.616236 0.310951 0.282236
O O13 0.563347 0.556597 0.442714
O O14 0.545668 0.321637 0.022247
O O15 0.701065 0.154495 0.324693
O O16 0.500000 0.000000 0.000000
O O17 0.794893 0.382591 0.642726
O O18 0.000000 0.500000 0.000000
#
# Coordination Sequence:
#
# PCOD8030541 Si02
#       8
#     2   2   2   2   2   2   2   2
#     4  12  20  42  68  97 131 180 232 279 340 410
#     4  11  22  37  67 101 134 175 240 281 333 416
#     4  12  24  45  71  95 140 186 227 286 351 406
#     4  11  22  40  71  96 135 182 227 275 354 406
#     4  12  26  43  72 104 134 181 235 288 344 419
#     4  11  22  40  67 101 133 184 230 287 339 417
#     4  12  25  44  69 102 141 183 233 285 352 415
#     4  11  23  43  69 102 142 181 228 292 351 406
#
# _framework density 21.130932000000001
#
# number of rings (size 3 to 8) (size 9 to 14) (size 15 to 20)
#    0.000    0.500    7.500    0.750    1.750    3.000 
#    0.000    4.375    0.000    0.000    0.000    0.000 
#    0.000    0.000    0.000    0.000    0.000    0.000 
#
# Total GULP energy -198375.086293 kJ/mol
# GULP energy per Si atom -12398.442893 kJ/mol
# Density = 2.108284 g / cm^3
# Si number density = 21.130932 Si / 1000 Ang^3
#
#
#
# Elastic Constant Matrix: (Units=GPa)
#
#
# Indices 1 2 3 4 5 6 
#
# 1 127.2282 39.8821 55.1588 -7.9860 -8.0533 -14.2490
# 2 39.8821 81.2824 36.4861 -9.0803 2.6215 -5.1543
# 3 55.1588 36.4861 118.6103 -10.1955 -7.2771 2.6469
# 4 -7.9860 -9.0803 -10.1955 40.7992 -9.9432 -2.0418
# 5 -8.0533 2.6215 -7.2771 -9.9432 34.1558 -1.3691
# 6 -14.2490 -5.1543 2.6469 -2.0418 -1.3691 38.4214
#
#
#
# Elastic Compliance Matrix: (Units=1/GPa)
#
#
# Indices 1 2 3 4 5 6 
#
# 1 0.011430 -0.003451 -0.004073 0.001306 0.002641 0.004220
# 2 -0.003451 0.015778 -0.003278 0.001525 -0.002237 0.001064
# 3 -0.004073 -0.003278 0.011681 0.001799 0.002200 -0.002581
# 4 0.001306 0.001525 0.001799 0.027809 0.008764 0.002355
# 5 0.002641 -0.002237 0.002200 0.008764 0.033179 0.002176
# 6 0.004220 0.001064 -0.002581 0.002355 0.002176 0.028115
#
#
# Mechanical properties :
#
#
# Convention : Reuss Voigt Hill
#
# Bulk Modulus (GPa) = 57.86301 65.57500 61.71901
# Shear Modulus (GPa) = 32.18367 35.71489 33.94928
#
# Velocity S-wave (km/s) = 3.90687 4.11563 4.01261
# Velocity P-wave (km/s) = 6.91333 7.32698 7.12316
#
# Compressibility (1/GPa) = 0.01728220
#
# Stress axis : x y z
#
# Youngs Moduli (GPa) = 87.49263 63.38059 85.60925
#
# Poissons Ratio (x) = 0.21874 0.34872
# Poissons Ratio (y) = 0.30196 0.28066
# Poissons Ratio (z) = 0.35640 0.20778
#
# Static dielectric constant tensor:
#      x y z
#    x 4.142180 -0.305250 -0.496120 
#    y -0.305250 3.836540 0.047710 
#    z -0.496120 0.047710 4.192450 
# 
# 
# High freq. dielectric constant tensor:
#      x y z
#    x 1.817730 -0.021810 -0.021950 
#    y -0.021810 1.829010 -0.015710 
#    z -0.021950 -0.015710 1.833540 
# 
# From -- ./inp_files/403624.got.cif
#   From: 2010.06.25/outbox.cif.g09.slc.cpg/sg2_202_cif.got.tgz:403624.got - 2010.06.27 13:26:56.
