data_PCOD8030661
_publ_section_title
;
Structure prediction by ZEFSAII (Michael W. Deem and Ramdas Pophale) SiO2 
 PCOD8030661
Probable space group: P -1
;
_chemical_formula_sum "Si O2"
_cell_formula_units_Z 14
_cell_length_a 14.702275
_cell_length_b 8.480187
_cell_length_c 11.491179
_cell_angle_alpha 82.907628
_cell_angle_beta 49.321501
_cell_angle_gamma 121.245673
_cell_volume 652.380974
_symmetry_space_group_name_H-M "P -1"
_symmetry_group_IT_number 2
_symmetry_cell_setting 'triclinic'
loop_
_space_group_symop_operation_xyz
x,y,z
-x,-y,-z
loop_
_atom_site_type_symbol
_atom_site_label
_atom_site_fract_x
_atom_site_fract_y
_atom_site_fract_z
Si Si1 0.333543 0.911055 0.222610
Si Si2 0.550024 0.396979 0.154069
Si Si3 0.324143 0.395367 0.729131
Si Si4 0.792004 0.749031 0.558121
Si Si5 0.028314 0.597949 0.318963
Si Si6 0.101659 0.313159 0.311020
Si Si7 0.013069 0.176339 0.836542
O O1 0.170493 0.825792 0.280575
O O2 0.202667 0.645289 0.427966
O O3 0.432322 0.131858 0.212909
O O4 0.500000 0.000000 0.000000
O O5 0.585402 0.400148 0.261509
O O6 0.439450 0.451142 0.237329
O O7 0.757730 0.641430 0.894637
O O8 0.500000 0.500000 0.500000
O O9 0.184285 0.366261 0.774232
O O10 0.187736 0.110907 0.920811
O O11 0.819282 0.623051 0.628093
O O12 0.890464 0.826613 0.344944
O O13 0.886083 0.007987 0.511364
O O14 0.104335 0.497333 0.249164
O O15 0.044861 0.710135 0.173937
#
# Coordination Sequence:
#
# PCOD8030661 Si02
#       7
#     2   2   2   2   2   2   2
#     4  11  23  39  66  98 144 174 205 266 344 404
#     4  12  23  41  67  98 133 173 224 269 323 390
#     4  11  25  48  68  94 128 176 235 279 320 385
#     4  11  22  39  67 100 136 172 213 270 335 396
#     4  11  24  44  63  99 141 173 214 268 337 404
#     4  11  23  40  64 102 142 169 207 271 339 406
#     4  11  25  44  72  94 129 180 224 277 331 386
#
# _framework density 21.459855000000001
#
# number of rings (size 3 to 8) (size 9 to 14) (size 15 to 20)
#    0.000    0.857    5.714    2.143    2.000    2.286 
#    0.000    1.429    0.000    0.000    0.000    0.000 
#    0.000    0.000    0.000    0.000    0.000    0.000 
#
# Total GULP energy -173523.234365 kJ/mol
# GULP energy per Si atom -12394.516740 kJ/mol
# Density = 2.141101 g / cm^3
# Si number density = 21.459855 Si / 1000 Ang^3
#
#
#
# Elastic Constant Matrix: (Units=GPa)
#
#
# Indices 1 2 3 4 5 6 
#
# 1 166.8851 61.4548 47.8847 -9.4462 13.5493 5.4603
# 2 61.4548 102.1235 31.7620 4.8946 -4.3997 15.9740
# 3 47.8847 31.7620 143.9992 12.5114 -5.1901 2.2497
# 4 -9.4462 4.8946 12.5114 18.7749 2.4939 6.3882
# 5 13.5493 -4.3997 -5.1901 2.4939 34.1531 -0.4238
# 6 5.4603 15.9740 2.2497 6.3882 -0.4238 36.2042
#
#
#
# Elastic Compliance Matrix: (Units=1/GPa)
#
#
# Indices 1 2 3 4 5 6 
#
# 1 0.010015 -0.005683 -0.003112 0.009569 -0.005884 -0.000567
# 2 -0.005683 0.014561 -0.000637 -0.005263 0.004361 -0.004548
# 3 -0.003112 -0.000637 0.008932 -0.008349 0.003141 0.001705
# 4 0.009569 -0.005263 -0.008349 0.070262 -0.011011 -0.011129
# 5 -0.005884 0.004361 0.003141 -0.011011 0.033471 0.001103
# 6 -0.000567 -0.004548 0.001705 -0.011129 0.001103 0.031584
#
#
# Mechanical properties :
#
#
# Convention : Reuss Voigt Hill
#
# Bulk Modulus (GPa) = 68.27554 77.24564 72.76059
# Shear Modulus (GPa) = 25.96471 35.95354 30.95912
#
# Velocity S-wave (km/s) = 3.48216 4.09759 3.80235
# Velocity P-wave (km/s) = 6.93194 7.64595 7.29768
#
# Compressibility (1/GPa) = 0.01464653
#
# Stress axis : x y z
#
# Youngs Moduli (GPa) = 99.84542 68.67524 111.96225
#
# Poissons Ratio (x) = 0.39026 0.34839
# Poissons Ratio (y) = 0.56739 0.07128
# Poissons Ratio (z) = 0.31069 0.04372
#
# Static dielectric constant tensor:
#      x y z
#    x 3.998850 0.273040 -0.230010 
#    y 0.273040 3.732940 0.012660 
#    z -0.230010 0.012660 4.134410 
# 
# 
# High freq. dielectric constant tensor:
#      x y z
#    x 1.835450 0.010130 -0.021060 
#    y 0.010130 1.833860 0.005440 
#    z -0.021060 0.005440 1.859680 
# 
# From -- ./inp_files/445830.got.cif
#   From: 2010.06.25/outbox.cif.g09.slc.cpg/sg2_223_cif.got.tgz:445830.got - 2010.06.27 13:26:56.
