data_PCOD8030738
_publ_section_title
;
Structure prediction by ZEFSAII (Michael W. Deem and Ramdas Pophale) SiO2 
 PCOD8030738
Probable space group: P -1
;
_chemical_formula_sum "Si O2"
_cell_formula_units_Z 14
_cell_length_a 7.517954
_cell_length_b 15.983896
_cell_length_c 12.355994
_cell_angle_alpha 46.911175
_cell_angle_beta 82.755656
_cell_angle_gamma 47.033790
_cell_volume 612.766704
_symmetry_space_group_name_H-M "P -1"
_symmetry_group_IT_number 2
_symmetry_cell_setting 'triclinic'
loop_
_space_group_symop_operation_xyz
x,y,z
-x,-y,-z
loop_
_atom_site_type_symbol
_atom_site_label
_atom_site_fract_x
_atom_site_fract_y
_atom_site_fract_z
Si Si1 0.352749 0.180857 0.025861
Si Si2 0.392096 0.873077 0.163995
Si Si3 0.821186 0.296246 0.943484
Si Si4 0.687428 0.782376 0.666953
Si Si5 0.453055 0.439206 0.651720
Si Si6 0.615881 0.635814 0.976321
Si Si7 0.264563 0.232440 0.567308
O O1 0.437073 0.138054 0.930266
O O2 0.992301 0.323144 0.944925
O O3 0.381273 0.290972 0.978010
O O4 0.590289 0.970755 0.254052
O O5 0.322756 0.786008 0.194827
O O6 0.608229 0.751118 0.363047
O O7 0.066952 0.096110 0.030361
O O8 0.531332 0.465312 0.733733
O O9 0.674133 0.302677 0.050336
O O10 0.542117 0.755897 0.773526
O O11 0.659147 0.757909 0.566058
O O12 0.500000 0.000000 0.500000
O O13 0.047898 0.606679 0.838769
O O14 0.500000 0.500000 0.500000
O O15 0.105166 0.574331 0.563753
#
# Coordination Sequence:
#
# PCOD8030738 Si02
#       7
#     2   2   2   2   2   2   2
#     4  11  22  43  69  97 138 174 213 271 338 402
#     4  11  23  40  64  96 141 174 209 269 343 396
#     4  11  23  41  65 100 130 173 221 265 335 399
#     4  11  23  44  72  93 129 181 228 277 334 389
#     4  12  23  35  62  99 135 169 218 268 327 405
#     4  11  24  44  73  95 131 181 221 279 338 382
#     4  11  22  40  65  95 129 177 220 271 333 391
#
# _framework density 22.847193999999998
#
# number of rings (size 3 to 8) (size 9 to 14) (size 15 to 20)
#    0.000    0.857    4.286    4.286    2.000    1.143 
#    0.000    5.714    3.143    0.000    0.000    0.000 
#    0.000    0.000    0.000    0.000    0.000    0.000 
#
# Total GULP energy -173545.067791 kJ/mol
# GULP energy per Si atom -12396.076271 kJ/mol
# Density = 2.279519 g / cm^3
# Si number density = 22.847194 Si / 1000 Ang^3
#
#
#
# Elastic Constant Matrix: (Units=GPa)
#
#
# Indices 1 2 3 4 5 6 
#
# 1 48.1059 23.8816 6.4890 6.6197 -5.8460 -25.4243
# 2 23.8816 95.7761 31.9191 29.1018 -9.6543 -25.8355
# 3 6.4890 31.9191 98.6260 22.6258 -13.6614 -6.3792
# 4 6.6197 29.1018 22.6258 53.0940 0.0357 -11.0127
# 5 -5.8460 -9.6543 -13.6614 0.0357 32.2123 9.5358
# 6 -25.4243 -25.8355 -6.3792 -11.0127 9.5358 41.4796
#
#
#
# Elastic Compliance Matrix: (Units=1/GPa)
#
#
# Indices 1 2 3 4 5 6 
#
# 1 0.031681 -0.003653 -0.000279 0.001855 -0.000723 0.017759
# 2 -0.003653 0.015630 -0.002992 -0.005752 0.001210 0.005231
# 3 -0.000279 -0.002992 0.012649 -0.004214 0.005128 -0.002388
# 4 0.001855 -0.005752 -0.004214 0.024476 -0.004517 0.004443
# 5 -0.000723 0.001210 0.005128 -0.004517 0.035930 -0.008360
# 6 0.017759 0.005231 -0.002388 0.004443 -0.008360 0.040986
#
#
# Mechanical properties :
#
#
# Convention : Reuss Voigt Hill
#
# Bulk Modulus (GPa) = 21.68680 40.78748 31.23714
# Shear Modulus (GPa) = 26.23686 37.37173 31.80430
#
# Velocity S-wave (km/s) = 3.39243 4.04880 3.73506
# Velocity P-wave (km/s) = 4.98573 6.30461 5.68355
#
# Compressibility (1/GPa) = 0.04611100
#
# Stress axis : x y z
#
# Youngs Moduli (GPa) = 31.56445 63.98002 79.05886
#
# Poissons Ratio (x) = 0.23369 0.02209
# Poissons Ratio (y) = 0.11529 0.23658
# Poissons Ratio (z) = 0.00882 0.19146
#
# Static dielectric constant tensor:
#      x y z
#    x 4.075580 -0.154550 0.137490 
#    y -0.154550 4.151760 0.434680 
#    z 0.137490 0.434680 3.253370 
# 
# 
# High freq. dielectric constant tensor:
#      x y z
#    x 1.885670 -0.009660 -0.003240 
#    y -0.009660 1.908980 0.009210 
#    z -0.003240 0.009210 1.910340 
# 
# From -- ./inp_files/200094.got.cif
#   From: 2010.06.25/outbox.cif.g09.slc.cpg/sg2_101_cif.got.tgz:200094.got - 2010.06.27 13:26:56.
