data_PCOD8030213
_publ_section_title
;
Structure prediction by ZEFSAII (Michael W. Deem and Ramdas Pophale) SiO2 
 PCOD8030213
Probable space group: P -1
;
_chemical_formula_sum "Si O2"
_cell_formula_units_Z 14
_cell_length_a 12.156904
_cell_length_b 8.208802
_cell_length_c 19.023345
_cell_angle_alpha 135.625952
_cell_angle_beta 147.156834
_cell_angle_gamma 64.697968
_cell_volume 640.622844
_symmetry_space_group_name_H-M "P -1"
_symmetry_group_IT_number 2
_symmetry_cell_setting 'triclinic'
loop_
_space_group_symop_operation_xyz
x,y,z
-x,-y,-z
loop_
_atom_site_type_symbol
_atom_site_label
_atom_site_fract_x
_atom_site_fract_y
_atom_site_fract_z
Si Si1 0.413441 0.908275 0.716599
Si Si2 0.030320 0.523956 0.215481
Si Si3 0.936986 0.610569 0.432334
Si Si4 0.685788 0.763265 0.715852
Si Si5 0.345552 0.621532 0.921682
Si Si6 0.194912 0.675375 0.104589
Si Si7 0.324913 0.092054 0.585157
O O1 0.572233 0.782427 0.734911
O O2 0.153877 0.702565 0.526975
O O3 0.408601 0.102121 0.713392
O O4 0.522503 0.067807 0.895981
O O5 0.095938 0.285693 0.168498
O O6 0.897277 0.504490 0.209398
O O7 0.248586 0.807769 0.421824
O O8 0.871290 0.492344 0.054173
O O9 0.714041 0.423178 0.207819
O O10 0.883953 0.837466 0.506006
O O11 0.000000 0.500000 0.500000
O O12 0.500000 0.500000 0.500000
O O13 0.768753 0.025641 0.793696
O O14 0.500000 0.500000 0.000000
O O15 0.445550 0.706037 0.271314
O O16 0.000000 0.500000 0.000000
#
# Coordination Sequence:
#
# PCOD8030213 Si02
#       7
#     2   2   2   2   2   2   2
#     4  11  22  41  71  97 130 186 234 280 337 427
#     4  12  22  42  72  98 131 187 234 281 339 425
#     4  12  26  44  66 104 142 175 227 302 358 396
#     4  11  21  43  70 100 135 177 239 279 336 426
#     4  12  22  41  74  97 129 185 239 279 338 426
#     4  11  25  43  65 104 141 176 226 296 355 399
#     4  11  22  45  69  98 134 183 240 272 345 429
#
# _framework density 21.853733999999999
#
# number of rings (size 3 to 8) (size 9 to 14) (size 15 to 20)
#    0.000    0.571    8.571    1.714    0.000    2.286 
#    5.143    0.000    0.000    0.000    0.000    0.000 
#    0.000    0.000    0.000    0.000    0.000    0.000 
#
# Total GULP energy -173463.432552 kJ/mol
# GULP energy per Si atom -12390.245182 kJ/mol
# Density = 2.180399 g / cm^3
# Si number density = 21.853734 Si / 1000 Ang^3
#
#
#
# Elastic Constant Matrix: (Units=GPa)
#
#
# Indices 1 2 3 4 5 6 
#
# 1 92.4485 60.3170 48.6575 -2.9738 9.4738 -14.9069
# 2 60.3170 101.5702 38.4979 -11.4864 -1.6147 -22.2025
# 3 48.6575 38.4979 131.3755 2.6222 -4.9956 5.7471
# 4 -2.9738 -11.4864 2.6222 34.8085 -5.2981 2.9754
# 5 9.4738 -1.6147 -4.9956 -5.2981 56.3355 -8.8902
# 6 -14.9069 -22.2025 5.7471 2.9754 -8.8902 36.1077
#
#
#
# Elastic Compliance Matrix: (Units=1/GPa)
#
#
# Indices 1 2 3 4 5 6 
#
# 1 0.020852 -0.010345 -0.004901 -0.002073 -0.004087 0.002192
# 2 -0.010345 0.019361 -0.002174 0.005546 0.003965 0.008499
# 3 -0.004901 -0.002174 0.010328 -0.001390 0.000807 -0.004691
# 4 -0.002073 0.005546 -0.001390 0.030921 0.003463 0.001080
# 5 -0.004087 0.003965 0.000807 0.003463 0.019770 0.005205
# 6 0.002192 0.008499 -0.004691 0.001080 0.005205 0.035765
#
#
# Mechanical properties :
#
#
# Convention : Reuss Voigt Hill
#
# Bulk Modulus (GPa) = 63.69434 68.92654 66.31044
# Shear Modulus (GPa) = 28.23755 37.31177 32.77466
#
# Velocity S-wave (km/s) = 3.59850 4.13648 3.87683
# Velocity P-wave (km/s) = 6.81723 7.37715 7.10271
#
# Compressibility (1/GPa) = 0.01569998
#
# Stress axis : x y z
#
# Youngs Moduli (GPa) = 47.95805 51.65108 96.82800
#
# Poissons Ratio (x) = 0.53434 0.47457
# Poissons Ratio (y) = 0.49613 0.21047
# Poissons Ratio (z) = 0.23505 0.11227
#
# Static dielectric constant tensor:
#      x y z
#    x -2.497530 2.027370 -1.841480 
#    y 2.027370 3.072060 0.506630 
#    z -1.841480 0.506630 3.682460 
# 
# 
# High freq. dielectric constant tensor:
#      x y z
#    x 1.848350 -0.031930 -0.001920 
#    y -0.031930 1.830930 -0.011250 
#    z -0.001920 -0.011250 1.888420 
# 
# From -- ./inp_files/396846.got.cif
#   From: 2010.06.25/outbox.cif.g09.slc.cpg/sg2_199_cif.got.tgz:396846.got - 2010.06.27 13:26:56.
