data_PCOD8030306
_publ_section_title
;
Structure prediction by ZEFSAII (Michael W. Deem and Ramdas Pophale) SiO2 
 PCOD8030306
Probable space group: P -1
;
_chemical_formula_sum "Si O2"
_cell_formula_units_Z 10
_cell_length_a 9.004332
_cell_length_b 8.740001
_cell_length_c 18.727826
_cell_angle_alpha 150.676165
_cell_angle_beta 135.751714
_cell_angle_gamma 49.153849
_cell_volume 501.774668
_symmetry_space_group_name_H-M "P -1"
_symmetry_group_IT_number 2
_symmetry_cell_setting 'triclinic'
loop_
_space_group_symop_operation_xyz
x,y,z
-x,-y,-z
loop_
_atom_site_type_symbol
_atom_site_label
_atom_site_fract_x
_atom_site_fract_y
_atom_site_fract_z
Si Si1 0.122977 0.556111 0.212422
Si Si2 0.098609 0.824713 0.652796
Si Si3 0.703895 0.784071 0.007046
Si Si4 0.466247 0.303366 0.338661
Si Si5 0.684513 0.347848 0.954502
O O1 0.185576 0.396061 0.093942
O O2 0.307917 0.499542 0.310526
O O3 0.078675 0.934064 0.347649
O O4 0.904018 0.404211 0.094284
O O5 0.311834 0.790775 0.663987
O O6 0.000000 0.500000 0.500000
O O7 0.144096 0.977161 0.807028
O O8 0.656521 0.511557 0.934688
O O9 0.500000 0.000000 0.000000
O O10 0.500000 0.500000 0.500000
O O11 0.343992 0.016986 0.209290
O O12 0.500000 0.500000 0.000000
#
# Coordination Sequence:
#
# PCOD8030306 Si02
#       5
#     2   2   2   2   2
#     4  11  24  46  70  94 132 181 220 268 330 392
#     4  11  25  44  65 100 135 170 222 270 330 395
#     4  11  22  43  73  97 126 177 225 265 324 398
#     4  12  27  43  64 100 136 173 219 275 334 381
#     4  11  21  44  68  98 132 167 225 273 320 395
#
# _framework density 19.929265999999998
#
# number of rings (size 3 to 8) (size 9 to 14) (size 15 to 20)
#    0.000    0.800    6.000    3.000    5.600    3.200 
#    0.000    0.000    0.000    0.000    0.000    0.000 
#    0.000    0.000    0.000    0.000    0.000    0.000 
#
# Total GULP energy -123967.619183 kJ/mol
# GULP energy per Si atom -12396.761918 kJ/mol
# Density = 1.988391 g / cm^3
# Si number density = 19.929266 Si / 1000 Ang^3
#
#
#
# Elastic Constant Matrix: (Units=GPa)
#
#
# Indices 1 2 3 4 5 6 
#
# 1 114.9181 54.0651 60.3658 -3.5437 -5.1994 -11.9819
# 2 54.0651 172.6785 82.0540 4.8596 -2.2780 -3.9242
# 3 60.3658 82.0540 143.4168 18.5727 -5.2576 14.3028
# 4 -3.5437 4.8596 18.5727 42.7951 14.3965 1.2033
# 5 -5.1994 -2.2780 -5.2576 14.3965 37.7264 6.1514
# 6 -11.9819 -3.9242 14.3028 1.2033 6.1514 35.8774
#
#
#
# Elastic Compliance Matrix: (Units=1/GPa)
#
#
# Indices 1 2 3 4 5 6 
#
# 1 0.013336 -0.001182 -0.006280 0.004419 -0.001938 0.007012
# 2 -0.001182 0.008462 -0.004835 0.001399 -0.001289 0.002632
# 3 -0.006280 -0.004835 0.014488 -0.007791 0.005310 -0.009051
# 4 0.004419 0.001399 -0.007791 0.031260 -0.013294 0.005965
# 5 -0.001938 -0.001289 0.005310 -0.013294 0.033307 -0.008170
# 6 0.007012 0.002632 -0.009051 0.005965 -0.008170 0.035312
#
#
# Mechanical properties :
#
#
# Convention : Reuss Voigt Hill
#
# Bulk Modulus (GPa) = 85.51778 91.55371 88.53575
# Shear Modulus (GPa) = 30.36633 38.91501 34.64067
#
# Velocity S-wave (km/s) = 3.90770 4.42368 4.17367
# Velocity P-wave (km/s) = 7.96015 8.49300 8.23089
#
# Compressibility (1/GPa) = 0.01169347
#
# Stress axis : x y z
#
# Youngs Moduli (GPa) = 74.98284 118.17368 69.02103
#
# Poissons Ratio (x) = 0.13970 0.43343
# Poissons Ratio (y) = 0.08864 0.33371
# Poissons Ratio (z) = 0.47087 0.57135
#
# Static dielectric constant tensor:
#      x y z
#    x 3.739580 -0.061030 -0.121970 
#    y -0.061030 3.787620 0.126770 
#    z -0.121970 0.126770 3.569260 
# 
# 
# High freq. dielectric constant tensor:
#      x y z
#    x 1.787830 -0.011260 -0.002210 
#    y -0.011260 1.798830 0.007590 
#    z -0.002210 0.007590 1.777350 
# 
# From -- ./inp_files/129119.got.cif
#   From: 2010.06.25/outbox.cif.g09.slc.cpg/sg2_65_cif.got.tgz:129119.got - 2010.06.27 13:26:56.
