data_PCOD8030512
_publ_section_title
;
Structure prediction by ZEFSAII (Michael W. Deem and Ramdas Pophale) SiO2 
 PCOD8030512
Probable space group: P -1
;
_chemical_formula_sum "Si O2"
_cell_formula_units_Z 16
_cell_length_a 13.454818
_cell_length_b 6.550261
_cell_length_c 14.646394
_cell_angle_alpha 59.910066
_cell_angle_beta 120.613038
_cell_angle_gamma 77.826826
_cell_volume 749.544085
_symmetry_space_group_name_H-M "P -1"
_symmetry_group_IT_number 2
_symmetry_cell_setting 'triclinic'
loop_
_space_group_symop_operation_xyz
x,y,z
-x,-y,-z
loop_
_atom_site_type_symbol
_atom_site_label
_atom_site_fract_x
_atom_site_fract_y
_atom_site_fract_z
Si Si1 0.574549 0.296161 0.669114
Si Si2 0.442857 0.720655 0.841733
Si Si3 0.849902 0.600460 0.953154
Si Si4 0.839680 0.676172 0.141146
Si Si5 0.935657 0.619224 0.542968
Si Si6 0.682711 0.357247 0.883994
Si Si7 0.325098 0.333133 0.643686
Si Si8 0.179098 0.748012 0.650635
O O1 0.500000 0.500000 0.500000
O O2 0.635029 0.416171 0.741638
O O3 0.433526 0.357588 0.634446
O O4 0.708587 0.946337 0.784947
O O5 0.549612 0.605070 0.830892
O O6 0.285890 0.823448 0.714124
O O7 0.424408 0.005805 0.812870
O O8 0.500000 0.500000 0.000000
O O9 0.815462 0.377079 0.953311
O O10 0.886046 0.552822 0.088068
O O11 0.000000 0.500000 0.000000
O O12 0.790704 0.493708 0.206217
O O13 0.971080 0.614074 0.278762
O O14 0.720077 0.039670 0.001267
O O15 0.780157 0.684928 0.469088
O O16 0.000000 0.500000 0.500000
O O17 0.960400 0.879581 0.507658
O O18 0.224220 0.607989 0.603199
#
# Coordination Sequence:
#
# PCOD8030512 Si02
#       8
#     2   2   2   2   2   2   2   2
#     4  11  26  47  71 102 133 182 236 293 346 408
#     4  11  22  36  66  99 136 177 216 273 342 411
#     4  11  27  49  70  98 135 180 236 293 349 409
#     4  11  25  41  68 100 137 183 224 280 341 412
#     4  11  25  40  63 102 144 187 226 268 341 422
#     4  11  24  44  70  98 135 173 233 279 345 415
#     4  11  23  42  65  99 137 176 230 278 340 409
#     4  11  23  39  65 100 141 179 223 279 340 411
#
# _framework density 21.346309999999999
#
# number of rings (size 3 to 8) (size 9 to 14) (size 15 to 20)
#    0.000    1.000    3.750    1.875    5.250    6.500 
#    0.000    0.000    0.000    0.000    0.000    0.000 
#    0.000    0.000    0.000    0.000    0.000    0.000 
#
# Total GULP energy -198225.925251 kJ/mol
# GULP energy per Si atom -12389.120328 kJ/mol
# Density = 2.129772 g / cm^3
# Si number density = 21.346310 Si / 1000 Ang^3
#
#
#
# Elastic Constant Matrix: (Units=GPa)
#
#
# Indices 1 2 3 4 5 6 
#
# 1 117.1657 45.1567 35.2063 -5.8063 -6.0708 -4.0357
# 2 45.1567 136.9876 56.9458 -5.4437 -5.6924 -1.9392
# 3 35.2063 56.9458 129.3138 10.0252 -18.0720 -11.6513
# 4 -5.8063 -5.4437 10.0252 37.5407 -4.3900 4.1641
# 5 -6.0708 -5.6924 -18.0720 -4.3900 20.3562 -3.3050
# 6 -4.0357 -1.9392 -11.6513 4.1641 -3.3050 32.2022
#
#
#
# Elastic Compliance Matrix: (Units=1/GPa)
#
#
# Indices 1 2 3 4 5 6 
#
# 1 0.010163 -0.002584 -0.001521 0.001713 0.001407 0.000491
# 2 -0.002584 0.009889 -0.004183 0.002159 -0.001526 -0.001678
# 3 -0.001521 -0.004183 0.012022 -0.003572 0.009141 0.005307
# 4 0.001713 0.002159 -0.003572 0.029062 0.003505 -0.004346
# 5 0.001407 -0.001526 0.009141 0.003505 0.059457 0.009041
# 6 0.000491 -0.001678 0.005307 -0.004346 0.009041 0.034424
#
#
# Mechanical properties :
#
#
# Convention : Reuss Voigt Hill
#
# Bulk Modulus (GPa) = 64.52681 73.12055 68.82368
# Shear Modulus (GPa) = 28.28703 34.43037 31.35870
#
# Velocity S-wave (km/s) = 3.64421 4.02050 3.83697
# Velocity P-wave (km/s) = 6.92829 7.47538 7.20703
#
# Compressibility (1/GPa) = 0.01549743
#
# Stress axis : x y z
#
# Youngs Moduli (GPa) = 98.39986 101.11799 83.18165
#
# Poissons Ratio (x) = 0.26132 0.12650
# Poissons Ratio (y) = 0.25430 0.34796
# Poissons Ratio (z) = 0.14964 0.42300
#
# Static dielectric constant tensor:
#      x y z
#    x 3.855250 0.318060 0.248080 
#    y 0.318060 4.289370 0.146310 
#    z 0.248080 0.146310 3.715980 
# 
# 
# High freq. dielectric constant tensor:
#      x y z
#    x 1.838620 0.019520 0.017850 
#    y 0.019520 1.860590 -0.001710 
#    z 0.017850 -0.001710 1.847120 
# 
# From -- ./inp_files/525218.got.cif
#   From: 2010.06.25/outbox.cif.g09.slc.cpg/sg2_263_cif.got.tgz:525218.got - 2010.06.27 13:26:56.
