data_PCOD8030399
_publ_section_title
;
Structure prediction by ZEFSAII (Michael W. Deem and Ramdas Pophale) SiO2 
 PCOD8030399
Probable space group: P -1
;
_chemical_formula_sum "Si O2"
_cell_formula_units_Z 16
_cell_length_a 9.721830
_cell_length_b 9.275443
_cell_length_c 11.970947
_cell_angle_alpha 99.198490
_cell_angle_beta 132.067212
_cell_angle_gamma 91.390272
_cell_volume 778.236781
_symmetry_space_group_name_H-M "P -1"
_symmetry_group_IT_number 2
_symmetry_cell_setting 'triclinic'
loop_
_space_group_symop_operation_xyz
x,y,z
-x,-y,-z
loop_
_atom_site_type_symbol
_atom_site_label
_atom_site_fract_x
_atom_site_fract_y
_atom_site_fract_z
Si Si1 0.108985 0.402282 0.972279
Si Si2 0.660510 0.142682 0.108026
Si Si3 0.823500 0.866309 0.872705
Si Si4 0.226582 0.177167 0.631040
Si Si5 0.072888 0.104877 0.304244
Si Si6 0.397546 0.878499 0.684939
Si Si7 0.918976 0.204045 0.653920
Si Si8 0.556778 0.391629 0.928434
O O1 0.997656 0.347616 0.789901
O O2 0.157673 0.263018 0.047449
O O3 0.297398 0.514940 0.063188
O O4 0.000000 0.500000 0.000000
O O5 0.651731 0.210348 0.236305
O O6 0.849751 0.086099 0.173693
O O7 0.638319 0.262218 0.018145
O O8 0.500000 0.000000 0.000000
O O9 0.830251 0.809194 0.741435
O O10 0.620948 0.914123 0.787546
O O11 0.000000 0.000000 0.000000
O O12 0.145501 0.194666 0.466022
O O13 0.377284 0.324877 0.749030
O O14 0.063686 0.168422 0.633568
O O15 0.323138 0.033376 0.674747
O O16 0.123783 0.940244 0.308258
O O17 0.278694 0.778392 0.510742
O O18 0.500000 0.500000 0.000000
#
# Coordination Sequence:
#
# PCOD8030399 Si02
#       8
#     2   2   2   2   2   2   2   2
#     4  12  28  47  66  96 144 182 221 276 342 405
#     4  12  21  39  69 101 129 174 233 275 320 396
#     4  12  26  45  67 103 134 178 234 277 326 403
#     4  11  22  42  70 106 137 170 223 283 343 391
#     4  11  22  41  70 100 134 170 228 284 328 392
#     4  11  23  39  73 105 132 171 226 286 334 389
#     4  11  21  45  69 104 138 172 222 284 341 392
#     4  12  25  41  66  98 138 182 219 272 341 400
#
# _framework density 20.559296
#
# number of rings (size 3 to 8) (size 9 to 14) (size 15 to 20)
#    0.000    0.500    6.250    3.000    1.750    3.000 
#    0.000    7.500    0.000    0.000    0.000    0.000 
#    0.000    0.000    0.000    0.000    0.000    0.000 
#
# Total GULP energy -198396.521639 kJ/mol
# GULP energy per Si atom -12399.782602 kJ/mol
# Density = 2.051250 g / cm^3
# Si number density = 20.559296 Si / 1000 Ang^3
#
#
#
# Elastic Constant Matrix: (Units=GPa)
#
#
# Indices 1 2 3 4 5 6 
#
# 1 137.8651 34.1302 45.8293 -7.3515 6.0781 3.8760
# 2 34.1302 88.0139 48.2924 0.8117 4.9406 15.2614
# 3 45.8293 48.2924 125.3447 0.6590 4.8590 0.8081
# 4 -7.3515 0.8117 0.6590 31.8140 0.2657 -4.2935
# 5 6.0781 4.9406 4.8590 0.2657 43.3372 0.0468
# 6 3.8760 15.2614 0.8081 -4.2935 0.0468 41.4972
#
#
#
# Elastic Compliance Matrix: (Units=1/GPa)
#
#
# Indices 1 2 3 4 5 6 
#
# 1 0.008696 -0.002098 -0.002356 0.002149 -0.000730 0.000228
# 2 -0.002098 0.016214 -0.005398 -0.001565 -0.000933 -0.005823
# 3 -0.002356 -0.005398 0.010919 -0.000367 -0.000278 0.001955
# 4 0.002149 -0.001565 -0.000367 0.032484 -0.000285 0.003743
# 5 -0.000730 -0.000933 -0.000278 -0.000285 0.023316 0.000361
# 6 0.000228 -0.005823 0.001955 0.003743 0.000361 0.026567
#
#
# Mechanical properties :
#
#
# Convention : Reuss Voigt Hill
#
# Bulk Modulus (GPa) = 62.01220 67.52527 64.76874
# Shear Modulus (GPa) = 34.89805 38.19445 36.54625
#
# Velocity S-wave (km/s) = 4.12446 4.31486 4.22074
# Velocity P-wave (km/s) = 7.27390 7.59865 7.43805
#
# Compressibility (1/GPa) = 0.01612586
#
# Stress axis : x y z
#
# Youngs Moduli (GPa) = 114.99118 61.67687 91.58347
#
# Poissons Ratio (x) = 0.12941 0.21574
# Poissons Ratio (y) = 0.24127 0.49433
# Poissons Ratio (z) = 0.27089 0.33291
#
# Static dielectric constant tensor:
#      x y z
#    x 3.920330 0.076840 -0.104220 
#    y 0.076840 3.428780 0.020870 
#    z -0.104220 0.020870 4.280300 
# 
# 
# High freq. dielectric constant tensor:
#      x y z
#    x 1.815470 0.005980 -0.003500 
#    y 0.005980 1.779300 -0.004590 
#    z -0.003500 -0.004590 1.826270 
# 
# From -- ./inp_files/184200.got.cif
#   From: 2010.06.25/outbox.cif.g09.slc.cpg/sg2_93_cif.got.tgz:184200.got - 2010.06.27 13:26:56.
