data_PCOD8030258
_publ_section_title
;
Structure prediction by ZEFSAII (Michael W. Deem and Ramdas Pophale) SiO2 
 PCOD8030258
Probable space group: P -1
;
_chemical_formula_sum "Si O2"
_cell_formula_units_Z 14
_cell_length_a 12.000489
_cell_length_b 6.751896
_cell_length_c 14.253996
_cell_angle_alpha 70.459916
_cell_angle_beta 47.849609
_cell_angle_gamma 44.554984
_cell_volume 577.356319
_symmetry_space_group_name_H-M "P -1"
_symmetry_group_IT_number 2
_symmetry_cell_setting 'triclinic'
loop_
_space_group_symop_operation_xyz
x,y,z
-x,-y,-z
loop_
_atom_site_type_symbol
_atom_site_label
_atom_site_fract_x
_atom_site_fract_y
_atom_site_fract_z
Si Si1 0.803546 0.635340 0.526371
Si Si2 0.483132 0.698564 0.400813
Si Si3 0.720796 0.231320 0.018041
Si Si4 0.943856 0.374675 0.126002
Si Si5 0.376312 0.611314 0.286902
Si Si6 0.906148 0.770539 0.727418
Si Si7 0.418258 0.231745 0.090776
O O1 0.668583 0.591508 0.662735
O O2 0.000000 0.500000 0.500000
O O3 0.874829 0.458625 0.415549
O O4 0.655689 0.976949 0.530612
O O5 0.500000 0.500000 0.500000
O O6 0.701068 0.576271 0.256337
O O7 0.352277 0.727863 0.385001
O O8 0.616778 0.406720 0.147074
O O9 0.604466 0.126885 0.069075
O O10 0.699145 0.443080 0.925779
O O11 0.966002 0.926511 0.927347
O O12 0.061225 0.308065 0.168698
O O13 0.000000 0.500000 0.000000
O O14 0.207319 0.892217 0.270593
O O15 0.757259 0.741551 0.764490
O O16 0.500000 0.000000 0.000000
#
# Coordination Sequence:
#
# PCOD8030258 Si02
#       7
#     2   2   2   2   2   2   2
#     4  12  27  49  83 110 146 203 263 316 377 457
#     4  12  31  53  75 113 161 199 256 324 384 459
#     4  11  24  42  74 108 149 191 248 304 382 446
#     4  12  29  48  73 112 161 202 251 314 393 458
#     4  12  26  48  79 113 148 197 261 315 376 462
#     4  12  25  45  83 107 150 199 263 312 378 455
#     4  11  21  43  72 111 142 188 246 317 360 440
#
# _framework density 24.248457999999999
#
# number of rings (size 3 to 8) (size 9 to 14) (size 15 to 20)
#    0.000    0.286    4.286    3.857    8.000    4.000 
#    0.000    0.000    0.000    0.000    0.000    0.000 
#    0.000    0.000    0.000    0.000    0.000    0.000 
#
# Total GULP energy -173535.844408 kJ/mol
# GULP energy per Si atom -12395.417458 kJ/mol
# Density = 2.419327 g / cm^3
# Si number density = 24.248458 Si / 1000 Ang^3
#
#
#
# Elastic Constant Matrix: (Units=GPa)
#
#
# Indices 1 2 3 4 5 6 
#
# 1 56.6696 27.7816 14.1974 -12.8101 4.0719 -0.2687
# 2 27.7816 189.2535 70.1328 9.1040 1.3484 -5.9523
# 3 14.1974 70.1328 135.5424 4.7551 0.3408 -10.7122
# 4 -12.8101 9.1040 4.7551 57.2275 3.7288 0.4721
# 5 4.0719 1.3484 0.3408 3.7288 44.2812 -2.4415
# 6 -0.2687 -5.9523 -10.7122 0.4721 -2.4415 34.2349
#
#
#
# Elastic Compliance Matrix: (Units=1/GPa)
#
#
# Indices 1 2 3 4 5 6 
#
# 1 0.020695 -0.002981 -0.000875 0.005337 -0.002303 -0.000868
# 2 -0.002981 0.007001 -0.003240 -0.001528 0.000227 0.000217
# 3 -0.000875 -0.003240 0.009351 -0.000495 0.000280 0.002383
# 4 0.005337 -0.001528 -0.000495 0.019096 -0.002092 -0.000791
# 5 -0.002303 0.000227 0.000280 -0.002092 0.023060 0.001782
# 6 -0.000868 0.000217 0.002383 -0.000791 0.001782 0.030124
#
#
# Mechanical properties :
#
#
# Convention : Reuss Voigt Hill
#
# Bulk Modulus (GPa) = 43.75637 67.29879 55.52758
# Shear Modulus (GPa) = 38.12805 45.10563 41.61684
#
# Velocity S-wave (km/s) = 3.96964 4.31762 4.14728
# Velocity P-wave (km/s) = 6.25259 7.25740 6.77365
#
# Compressibility (1/GPa) = 0.02285382
#
# Stress axis : x y z
#
# Youngs Moduli (GPa) = 48.32193 142.83801 106.94236
#
# Poissons Ratio (x) = 0.42582 0.09359
# Poissons Ratio (y) = 0.14406 0.34649
# Poissons Ratio (z) = 0.04229 0.46279
#
# Static dielectric constant tensor:
#      x y z
#    x 4.405520 0.119080 -0.326220 
#    y 0.119080 4.483190 0.167280 
#    z -0.326220 0.167280 5.018350 
# 
# 
# High freq. dielectric constant tensor:
#      x y z
#    x 1.946770 0.011790 -0.000230 
#    y 0.011790 1.975430 0.009500 
#    z -0.000230 0.009500 1.983340 
# 
# From -- ./inp_files/510800.got.cif
#   From: 2010.06.25/outbox.cif.g09.slc.cpg/sg2_256_cif.got.tgz:510800.got - 2010.06.27 13:26:56.
