data_PCOD8030230
_publ_section_title
;
Structure prediction by ZEFSAII (Michael W. Deem and Ramdas Pophale) SiO2 
 PCOD8030230
Probable space group: P -1
;
_chemical_formula_sum "Si O2"
_cell_formula_units_Z 16
_cell_length_a 16.387701
_cell_length_b 8.410258
_cell_length_c 9.082707
_cell_angle_alpha 65.556884
_cell_angle_beta 104.964407
_cell_angle_gamma 56.191087
_cell_volume 723.014147
_symmetry_space_group_name_H-M "P -1"
_symmetry_group_IT_number 2
_symmetry_cell_setting 'triclinic'
loop_
_space_group_symop_operation_xyz
x,y,z
-x,-y,-z
loop_
_atom_site_type_symbol
_atom_site_label
_atom_site_fract_x
_atom_site_fract_y
_atom_site_fract_z
Si Si1 0.027210 0.755237 0.413265
Si Si2 0.994264 0.831355 0.705675
Si Si3 0.522313 0.934172 0.206954
Si Si4 0.750427 0.717066 0.922089
Si Si5 0.211847 0.007459 0.972440
Si Si6 0.627222 0.403024 0.554758
Si Si7 0.786902 0.911884 0.626765
Si Si8 0.735794 0.861619 0.316378
O O1 0.925067 0.842398 0.212709
O O2 0.965317 0.853538 0.509817
O O3 0.156628 0.438985 0.583712
O O4 0.062342 0.904017 0.347011
O O5 0.927465 0.774699 0.783167
O O6 0.148068 0.596381 0.890914
O O7 0.600079 0.640453 0.398986
O O8 0.610524 0.959275 0.284421
O O9 0.387106 0.143311 0.148684
O O10 0.500000 0.000000 0.000000
O O11 0.753314 0.775072 0.731787
O O12 0.803566 0.804757 0.997491
O O13 0.300394 0.944853 0.904548
O O14 0.280928 0.746127 0.198968
O O15 0.500000 0.500000 0.500000
O O16 0.683699 0.216195 0.511855
O O17 0.789910 0.890803 0.461741
#
# Coordination Sequence:
#
# PCOD8030230 Si02
#       8
#     2   2   2   2   2   2   2   2
#     4  11  23  40  70 102 138 176 230 289 325 403
#     4  11  22  41  66 102 138 177 230 280 342 395
#     4  12  23  45  73  96 132 185 231 275 339 410
#     4  11  23  43  67  96 139 181 223 281 345 395
#     4  11  21  43  70  98 133 184 217 280 339 400
#     4  11  23  47  69  96 140 176 222 277 347 395
#     4  11  24  41  69 101 134 180 227 280 342 405
#     4  12  23  43  70 103 137 181 232 272 342 404
#
# _framework density 22.129581000000002
#
# number of rings (size 3 to 8) (size 9 to 14) (size 15 to 20)
#    0.000    0.750    6.250    2.250    0.000    3.500 
#    2.250    5.000    0.000    0.000    0.000    0.000 
#    0.000    0.000    0.000    0.000    0.000    0.000 
#
# Total GULP energy -198275.646786 kJ/mol
# GULP energy per Si atom -12392.227924 kJ/mol
# Density = 2.207921 g / cm^3
# Si number density = 22.129581 Si / 1000 Ang^3
#
#
#
# Elastic Constant Matrix: (Units=GPa)
#
#
# Indices 1 2 3 4 5 6 
#
# 1 132.9505 25.6895 33.5260 -6.8964 -3.8585 -6.9187
# 2 25.6895 89.3465 32.5038 -1.7799 -0.4926 -6.0136
# 3 33.5260 32.5038 119.5986 -10.7012 -18.0324 2.8953
# 4 -6.8964 -1.7799 -10.7012 28.7125 -1.2925 4.8807
# 5 -3.8585 -0.4926 -18.0324 -1.2925 43.9254 -1.3128
# 6 -6.9187 -6.0136 2.8953 4.8807 -1.3128 17.7913
#
#
#
# Elastic Compliance Matrix: (Units=1/GPa)
#
#
# Indices 1 2 3 4 5 6 
#
# 1 0.008502 -0.001516 -0.001974 0.000717 0.000028 0.002921
# 2 -0.001516 0.013246 -0.003665 -0.001800 -0.001396 0.004875
# 3 -0.001974 -0.003665 0.011071 0.004419 0.004320 -0.004701
# 4 0.000717 -0.001800 0.004419 0.038600 0.002651 -0.011442
# 5 0.000028 -0.001396 0.004320 0.002651 0.024602 -0.000076
# 6 0.002921 0.004875 -0.004701 -0.011442 -0.000076 0.062889
#
#
# Mechanical properties :
#
#
# Convention : Reuss Voigt Hill
#
# Bulk Modulus (GPa) = 54.02140 58.37047 56.19593
# Shear Modulus (GPa) = 27.87248 34.76426 31.31837
#
# Velocity S-wave (km/s) = 3.55281 3.96781 3.76603
# Velocity P-wave (km/s) = 6.42607 6.88660 6.66032
#
# Compressibility (1/GPa) = 0.01851118
#
# Stress axis : x y z
#
# Youngs Moduli (GPa) = 117.61709 75.49511 90.32560
#
# Poissons Ratio (x) = 0.11442 0.17828
# Poissons Ratio (y) = 0.17825 0.33101
# Poissons Ratio (z) = 0.23215 0.27667
#
# Static dielectric constant tensor:
#      x y z
#    x 4.339200 -0.165820 -0.130090 
#    y -0.165820 4.045320 -0.102010 
#    z -0.130090 -0.102010 4.298250 
# 
# 
# High freq. dielectric constant tensor:
#      x y z
#    x 1.884890 -0.008710 -0.007870 
#    y -0.008710 1.854340 0.003290 
#    z -0.007870 0.003290 1.873190 
# 
# From -- ./inp_files/297689.got.cif
#   From: 2010.06.25/outbox.cif.g09.slc.cpg/sg2_149_cif.got.tgz:297689.got - 2010.06.27 13:26:56.
