data_PCOD8030769
_publ_section_title
;
Structure prediction by ZEFSAII (Michael W. Deem and Ramdas Pophale) SiO2 
 PCOD8030769
Probable space group: P -1
;
_chemical_formula_sum "Si O2"
_cell_formula_units_Z 16
_cell_length_a 11.548500
_cell_length_b 10.284203
_cell_length_c 8.309597
_cell_angle_alpha 78.540334
_cell_angle_beta 125.767809
_cell_angle_gamma 123.064475
_cell_volume 660.519336
_symmetry_space_group_name_H-M "P -1"
_symmetry_group_IT_number 2
_symmetry_cell_setting 'triclinic'
loop_
_space_group_symop_operation_xyz
x,y,z
-x,-y,-z
loop_
_atom_site_type_symbol
_atom_site_label
_atom_site_fract_x
_atom_site_fract_y
_atom_site_fract_z
Si Si1 0.172589 0.230884 0.240506
Si Si2 0.169658 0.897804 0.875528
Si Si3 0.457028 0.913671 0.316091
Si Si4 0.563509 0.656406 0.816995
Si Si5 0.286775 0.560135 0.364959
Si Si6 0.695218 0.872897 0.345139
Si Si7 0.049660 0.576153 0.698212
Si Si8 0.394487 0.608892 0.995800
O O1 0.271017 0.202804 0.181497
O O2 0.250369 0.419442 0.248815
O O3 0.194260 0.165864 0.442867
O O4 0.968678 0.138736 0.087416
O O5 0.097208 0.754645 0.721742
O O6 0.207274 0.047028 0.761788
O O7 0.338286 0.941437 0.097653
O O8 0.376372 0.728618 0.315346
O O9 0.638536 0.983031 0.357623
O O10 0.500000 0.000000 0.500000
O O11 0.407814 0.552918 0.596458
O O12 0.628715 0.560488 0.989515
O O13 0.481986 0.709832 0.876002
O O14 0.113345 0.534366 0.298726
O O15 0.519328 0.707509 0.216144
O O16 0.000000 0.500000 0.500000
O O17 0.210907 0.576326 0.890701
#
# Coordination Sequence:
#
# PCOD8030769 Si02
#       8
#     2   2   2   2   2   2   2   2
#     4  11  24  46  71 103 135 184 235 291 347 405
#     4  11  28  44  69 104 141 187 231 287 352 414
#     4  12  28  45  70 104 139 191 230 285 353 420
#     4  11  22  40  67 103 136 175 236 288 342 415
#     4  11  23  42  71  97 137 173 234 286 347 399
#     4  12  24  47  72  96 145 187 234 283 348 421
#     4  11  24  41  69 102 139 177 232 295 341 409
#     4  11  24  40  70 105 135 184 230 288 351 409
#
# _framework density 24.223362000000002
#
# number of rings (size 3 to 8) (size 9 to 14) (size 15 to 20)
#    0.000    0.750    5.000    1.875    5.250    1.000 
#    0.000    3.750    0.000    0.000    0.000    0.000 
#    0.000    0.000    0.000    0.000    0.000    0.000 
#
# Total GULP energy -198248.724034 kJ/mol
# GULP energy per Si atom -12390.545252 kJ/mol
# Density = 2.416823 g / cm^3
# Si number density = 24.223362 Si / 1000 Ang^3
#
#
#
# Elastic Constant Matrix: (Units=GPa)
#
#
# Indices 1 2 3 4 5 6 
#
# 1 132.0945 15.5842 9.1283 -4.7324 13.5685 31.4095
# 2 15.5842 85.3703 22.0409 -11.7643 8.2350 13.6479
# 3 9.1283 22.0409 61.7906 -9.5272 2.6968 0.4954
# 4 -4.7324 -11.7643 -9.5272 34.3721 -1.3855 -1.7250
# 5 13.5685 8.2350 2.6968 -1.3855 43.1839 -3.2709
# 6 31.4095 13.6479 0.4954 -1.7250 -3.2709 27.1739
#
#
#
# Elastic Compliance Matrix: (Units=1/GPa)
#
#
# Indices 1 2 3 4 5 6 
#
# 1 0.011480 0.001187 -0.001702 0.000600 -0.004797 -0.014374
# 2 0.001187 0.014972 -0.004771 0.003372 -0.003505 -0.009013
# 3 -0.001702 -0.004771 0.018616 0.003540 0.000724 0.004336
# 4 0.000600 0.003372 0.003540 0.031284 -0.000085 -0.000476
# 5 -0.004797 -0.003505 0.000724 -0.000085 0.026074 0.010424
# 6 -0.014374 -0.009013 0.004336 -0.000476 0.010424 0.059086
#
#
# Mechanical properties :
#
#
# Convention : Reuss Voigt Hill
#
# Bulk Modulus (GPa) = 28.98846 41.41803 35.20325
# Shear Modulus (GPa) = 27.23561 36.44612 31.84086
#
# Velocity S-wave (km/s) = 3.35677 3.88311 3.62949
# Velocity P-wave (km/s) = 5.19779 6.10247 5.66821
#
# Compressibility (1/GPa) = 0.03449648
#
# Stress axis : x y z
#
# Youngs Moduli (GPa) = 87.10891 66.78998 53.71618
#
# Poissons Ratio (x) = -0.07929 0.09144
# Poissons Ratio (y) = -0.10341 0.25628
# Poissons Ratio (z) = 0.14828 0.31865
#
# Static dielectric constant tensor:
#      x y z
#    x 4.989910 0.163780 0.082350 
#    y 0.163780 4.100390 0.095050 
#    z 0.082350 0.095050 4.361400 
# 
# 
# High freq. dielectric constant tensor:
#      x y z
#    x 1.988300 0.014460 0.002860 
#    y 0.014460 1.944460 -0.007550 
#    z 0.002860 -0.007550 1.954130 
# 
# From -- ./inp_files/181473.got.cif
#   From: 2010.06.25/outbox.cif.g09.slc.cpg/sg2_91_cif.got.tgz:181473.got - 2010.06.27 13:26:56.
