data_PCOD8030341
_publ_section_title
;
Structure prediction by ZEFSAII (Michael W. Deem and Ramdas Pophale) SiO2 
 PCOD8030341
Probable space group: P -1
;
_chemical_formula_sum "Si O2"
_cell_formula_units_Z 16
_cell_length_a 9.708799
_cell_length_b 12.233542
_cell_length_c 15.050211
_cell_angle_alpha 129.588536
_cell_angle_beta 50.323294
_cell_angle_gamma 144.877699
_cell_volume 764.347198
_symmetry_space_group_name_H-M "P -1"
_symmetry_group_IT_number 2
_symmetry_cell_setting 'triclinic'
loop_
_space_group_symop_operation_xyz
x,y,z
-x,-y,-z
loop_
_atom_site_type_symbol
_atom_site_label
_atom_site_fract_x
_atom_site_fract_y
_atom_site_fract_z
Si Si1 0.746688 0.733255 0.163529
Si Si2 0.503102 0.919425 0.715899
Si Si3 0.838586 0.736153 0.664412
Si Si4 0.868661 0.096929 0.062868
Si Si5 0.365127 0.998826 0.637542
Si Si6 0.699385 0.713878 0.897474
Si Si7 0.003937 0.093508 0.673210
Si Si8 0.514464 0.629993 0.490494
O O1 0.630952 0.826908 0.271676
O O2 0.539422 0.511877 0.098050
O O3 0.861136 0.751288 0.220785
O O4 0.974738 0.846328 0.060485
O O5 0.319860 0.873867 0.846304
O O6 0.405382 0.711133 0.621358
O O7 0.487735 0.013744 0.685950
O O8 0.782842 0.070381 0.716133
O O9 0.706732 0.744490 0.804584
O O10 0.659097 0.510377 0.592330
O O11 0.896639 0.880979 0.637340
O O12 0.082263 0.794866 0.633694
O O13 0.048195 0.222461 0.138410
O O14 0.692206 0.861046 0.027845
O O15 0.500000 0.000000 0.500000
O O16 0.204400 0.181573 0.557975
O O17 0.500000 0.500000 0.500000
#
# Coordination Sequence:
#
# PCOD8030341 Si02
#       8
#     2   2   2   2   2   2   2   2
#     4  11  23  45  70  95 136 183 217 268 333 398
#     4  12  25  43  66 102 138 171 222 279 330 395
#     4  11  22  45  70  95 133 180 219 270 336 395
#     4  11  23  43  67 100 137 172 221 277 330 387
#     4  11  24  41  67 103 135 171 219 281 331 383
#     4  11  21  44  71  97 132 178 225 262 337 393
#     4  11  24  45  67  96 135 176 218 274 336 392
#     4  12  26  44  71  96 133 181 220 270 342 402
#
# _framework density 20.932894000000001
#
# number of rings (size 3 to 8) (size 9 to 14) (size 15 to 20)
#    0.000    0.750    6.250    3.000    1.750    2.000 
#    2.250    0.625    0.000    0.000    0.000    0.000 
#    0.000    0.000    0.000    0.000    0.000    0.000 
#
# Total GULP energy -198336.028850 kJ/mol
# GULP energy per Si atom -12396.001803 kJ/mol
# Density = 2.088525 g / cm^3
# Si number density = 20.932894 Si / 1000 Ang^3
#
#
#
# Elastic Constant Matrix: (Units=GPa)
#
#
# Indices 1 2 3 4 5 6 
#
# 1 131.4141 36.8254 41.5493 4.7113 -6.0967 11.8796
# 2 36.8254 118.2049 50.8675 18.6688 -10.5799 17.9004
# 3 41.5493 50.8675 133.8372 -3.8177 -16.4342 7.1234
# 4 4.7113 18.6688 -3.8177 31.9235 5.8181 17.1636
# 5 -6.0967 -10.5799 -16.4342 5.8181 29.9930 -3.7680
# 6 11.8796 17.9004 7.1234 17.1636 -3.7680 32.9509
#
#
#
# Elastic Compliance Matrix: (Units=1/GPa)
#
#
# Indices 1 2 3 4 5 6 
#
# 1 0.008886 -0.001703 -0.002010 0.000712 -0.000317 -0.002251
# 2 -0.001703 0.012281 -0.003911 -0.007456 0.003168 -0.000966
# 3 -0.002010 -0.003911 0.010097 0.003791 0.002886 -0.000978
# 4 0.000712 -0.007456 0.003791 0.052521 -0.013858 -0.025968
# 5 -0.000317 0.003168 0.002886 -0.013858 0.039863 0.009547
# 6 -0.002251 -0.000966 -0.000978 -0.025968 0.009547 0.046514
#
#
# Mechanical properties :
#
#
# Convention : Reuss Voigt Hill
#
# Bulk Modulus (GPa) = 62.44256 71.32672 66.88464
# Shear Modulus (GPa) = 26.21259 35.92109 31.06684
#
# Velocity S-wave (km/s) = 3.54251 4.14697 3.85660
# Velocity P-wave (km/s) = 6.82841 7.55498 7.20087
#
# Compressibility (1/GPa) = 0.01601472
#
# Stress axis : x y z
#
# Youngs Moduli (GPa) = 112.54242 81.42629 99.04097
#
# Poissons Ratio (x) = 0.13869 0.19906
# Poissons Ratio (y) = 0.19169 0.38737
# Poissons Ratio (z) = 0.22620 0.31847
#
# Static dielectric constant tensor:
#      x y z
#    x 4.105550 0.283740 -0.006300 
#    y 0.283740 3.991030 0.011790 
#    z -0.006300 0.011790 4.067800 
# 
# 
# High freq. dielectric constant tensor:
#      x y z
#    x 1.814800 0.012410 0.021570 
#    y 0.012410 1.817810 0.000710 
#    z 0.021570 0.000710 1.829720 
# 
# From -- ./inp_files/500806.got.cif
#   From: 2010.06.25/outbox.cif.g09.slc.cpg/sg2_251_cif.got.tgz:500806.got - 2010.06.27 13:26:56.
