data_PCOD8030456
_publ_section_title
;
Structure prediction by ZEFSAII (Michael W. Deem and Ramdas Pophale) SiO2 
 PCOD8030456
Probable space group: P -1
;
_chemical_formula_sum "Si O2"
_cell_formula_units_Z 14
_cell_length_a 9.490326
_cell_length_b 14.122544
_cell_length_c 9.638506
_cell_angle_alpha 50.793130
_cell_angle_beta 135.007499
_cell_angle_gamma 128.572440
_cell_volume 669.997317
_symmetry_space_group_name_H-M "P -1"
_symmetry_group_IT_number 2
_symmetry_cell_setting 'triclinic'
loop_
_space_group_symop_operation_xyz
x,y,z
-x,-y,-z
loop_
_atom_site_type_symbol
_atom_site_label
_atom_site_fract_x
_atom_site_fract_y
_atom_site_fract_z
Si Si1 0.529167 0.143054 0.151026
Si Si2 0.182231 0.445059 0.718197
Si Si3 0.194300 0.892023 0.230630
Si Si4 0.835774 0.783408 0.282143
Si Si5 0.035985 0.862635 0.634757
Si Si6 0.429540 0.721415 0.673404
Si Si7 0.107413 0.234231 0.085383
O O1 0.715086 0.111287 0.229985
O O2 0.623439 0.255776 0.224714
O O3 0.392443 0.019814 0.258892
O O4 0.378990 0.180802 0.901270
O O5 0.213281 0.354561 0.699470
O O6 0.390626 0.569201 0.765239
O O7 0.000000 0.500000 0.500000
O O8 0.131933 0.368711 0.899779
O O9 0.277309 0.770107 0.423633
O O10 0.021479 0.891086 0.228823
O O11 0.079261 0.878528 0.014445
O O12 0.906654 0.781884 0.490775
O O13 0.954366 0.767010 0.796052
O O14 0.000000 0.000000 0.500000
O O15 0.674156 0.797071 0.743692
#
# Coordination Sequence:
#
# PCOD8030456 Si02
#       7
#     2   2   2   2   2   2   2
#     4  12  24  40  71 100 134 177 222 273 340 391
#     4  11  21  46  72  96 131 173 233 278 315 393
#     4  11  22  40  69 101 129 170 230 276 319 396
#     4  11  24  42  67  98 137 171 224 276 328 393
#     4  12  27  45  63 101 146 174 213 275 345 401
#     4  12  22  41  75  98 126 177 226 275 329 389
#     4  11  25  41  68 100 130 176 221 275 333 385
#
# _framework density 20.895606000000001
#
# number of rings (size 3 to 8) (size 9 to 14) (size 15 to 20)
#    0.000    0.571    7.143    3.000    2.000    3.429 
#    0.000    3.571    0.000    0.000    0.000    0.000 
#    0.000    0.000    0.000    0.000    0.000    0.000 
#
# Total GULP energy -173604.113758 kJ/mol
# GULP energy per Si atom -12400.293840 kJ/mol
# Density = 2.084805 g / cm^3
# Si number density = 20.895606 Si / 1000 Ang^3
#
#
#
# Elastic Constant Matrix: (Units=GPa)
#
#
# Indices 1 2 3 4 5 6 
#
# 1 134.9703 42.0192 76.7469 7.0603 9.8689 -11.3832
# 2 42.0192 110.6208 45.1471 -2.2213 -6.9656 -4.3166
# 3 76.7469 45.1471 143.0542 11.8338 4.1481 -8.3658
# 4 7.0603 -2.2213 11.8338 25.4578 -9.3866 3.6170
# 5 9.8689 -6.9656 4.1481 -9.3866 52.9877 4.2545
# 6 -11.3832 -4.3166 -8.3658 3.6170 4.2545 19.4514
#
#
#
# Elastic Compliance Matrix: (Units=1/GPa)
#
#
# Indices 1 2 3 4 5 6 
#
# 1 0.011839 -0.002561 -0.004861 -0.003209 -0.003176 0.005561
# 2 -0.002561 0.011355 -0.002756 0.004356 0.003089 -0.001650
# 3 -0.004861 -0.002756 0.011061 -0.004906 -0.001394 0.002518
# 4 -0.003209 0.004356 -0.004906 0.049130 0.011434 -0.014658
# 5 -0.003176 0.003089 -0.001394 0.011434 0.022717 -0.008868
# 6 0.005561 -0.001650 0.002518 -0.014658 -0.008868 0.060047
#
#
# Mechanical properties :
#
#
# Convention : Reuss Voigt Hill
#
# Bulk Modulus (GPa) = 71.93993 79.60797 75.77395
# Shear Modulus (GPa) = 26.15915 34.56150 30.36032
#
# Velocity S-wave (km/s) = 3.54205 4.07136 3.81590
# Velocity P-wave (km/s) = 7.15760 7.76415 7.46703
#
# Compressibility (1/GPa) = 0.01390049
#
# Stress axis : x y z
#
# Youngs Moduli (GPa) = 84.46483 88.06630 90.40386
#
# Poissons Ratio (x) = 0.22552 0.43943
# Poissons Ratio (y) = 0.21629 0.24917
# Poissons Ratio (z) = 0.41056 0.24272
#
# Static dielectric constant tensor:
#      x y z
#    x 3.637560 0.084500 0.200060 
#    y 0.084500 4.297920 0.056470 
#    z 0.200060 0.056470 4.000330 
# 
# 
# High freq. dielectric constant tensor:
#      x y z
#    x 1.795610 0.001990 0.023420 
#    y 0.001990 1.818140 0.009280 
#    z 0.023420 0.009280 1.840290 
# 
# From -- ./inp_files/178546.got.cif
#   From: 2010.06.25/outbox.cif.g09.slc.cpg/sg2_90_cif.got.tgz:178546.got - 2010.06.27 13:26:56.
