data_PCOD8030530
_publ_section_title
;
Structure prediction by ZEFSAII (Michael W. Deem and Ramdas Pophale) SiO2 
 PCOD8030530
Probable space group: P -1
;
_chemical_formula_sum "Si O2"
_cell_formula_units_Z 16
_cell_length_a 23.602284
_cell_length_b 16.633487
_cell_length_c 6.904852
_cell_angle_alpha 59.718111
_cell_angle_beta 57.877855
_cell_angle_gamma 20.900469
_cell_volume 818.759909
_symmetry_space_group_name_H-M "P -1"
_symmetry_group_IT_number 2
_symmetry_cell_setting 'triclinic'
loop_
_space_group_symop_operation_xyz
x,y,z
-x,-y,-z
loop_
_atom_site_type_symbol
_atom_site_label
_atom_site_fract_x
_atom_site_fract_y
_atom_site_fract_z
Si Si1 0.010963 0.215559 0.163655
Si Si2 0.134104 0.869432 0.273457
Si Si3 0.248621 0.414724 0.118378
Si Si4 0.430105 0.897876 0.172077
Si Si5 0.163250 0.648635 0.337951
Si Si6 0.812317 0.716455 0.552430
Si Si7 0.567329 0.612156 0.609618
Si Si8 0.290817 0.004421 0.897907
O O1 0.974692 0.226752 0.433385
O O2 0.098394 0.022898 0.111295
O O3 0.846775 0.455523 0.066941
O O4 0.125056 0.159646 0.039496
O O5 0.124599 0.809139 0.180709
O O6 0.315542 0.627009 0.331243
O O7 0.000000 0.000000 0.500000
O O8 0.177566 0.582800 0.186023
O O9 0.218554 0.353038 0.344665
O O10 0.438957 0.188450 0.011380
O O11 0.513704 0.711164 0.373507
O O12 0.280207 0.134873 0.266170
O O13 0.367519 0.928079 0.057320
O O14 0.332230 0.430418 0.417997
O O15 0.000000 0.500000 0.500000
O O16 0.743516 0.855783 0.320560
O O17 0.411756 0.787700 0.813037
#
# Coordination Sequence:
#
# PCOD8030530 Si02
#       8
#     2   2   2   2   2   2   2   2
#     4  11  22  37  64  89 122 159 197 240 301 348
#     4   8  16  37  60  89 122 153 192 250 287 341
#     4  12  22  41  64  88 115 164 202 239 297 354
#     4  11  22  41  65  83 118 164 195 242 299 352
#     4   9  20  37  62  87 119 152 198 243 282 351
#     4  11  26  42  58  90 124 149 200 257 291 348
#     4   9  19  40  58  87 126 150 192 253 282 347
#     4  11  24  40  60  90 121 159 196 244 301 351
#
# _framework density 19.54175
#
# number of rings (size 3 to 8) (size 9 to 14) (size 15 to 20)
#    0.750    1.000    3.750    0.375    1.750    3.000 
#    0.000    1.875    0.000    0.000    0.000    0.000 
#    0.000    0.000    0.000    0.000    0.000    0.000 
#
# Total GULP energy -198291.511803 kJ/mol
# GULP energy per Si atom -12393.219488 kJ/mol
# Density = 1.949727 g / cm^3
# Si number density = 19.541750 Si / 1000 Ang^3
#
#
#
# Elastic Constant Matrix: (Units=GPa)
#
#
# Indices 1 2 3 4 5 6 
#
# 1 76.8445 29.8730 34.4459 0.9969 -8.4165 -16.3282
# 2 29.8730 101.3665 21.8635 9.9441 -0.3156 -7.2289
# 3 34.4459 21.8635 63.4236 6.8831 3.0899 -11.9954
# 4 0.9969 9.9441 6.8831 32.2520 -3.5757 -4.7718
# 5 -8.4165 -0.3156 3.0899 -3.5757 27.3573 -3.6514
# 6 -16.3282 -7.2289 -11.9954 -4.7718 -3.6514 29.9305
#
#
#
# Elastic Compliance Matrix: (Units=1/GPa)
#
#
# Indices 1 2 3 4 5 6 
#
# 1 0.021942 -0.004181 -0.009794 0.005111 0.009682 0.009031
# 2 -0.004181 0.011690 -0.001457 -0.003450 -0.001542 -0.000780
# 3 -0.009794 -0.001457 0.022736 -0.004463 -0.005916 0.001984
# 4 0.005111 -0.003450 -0.004463 0.034667 0.007449 0.006602
# 5 0.009682 -0.001542 -0.005916 0.007449 0.042343 0.008891
# 6 0.009031 -0.000780 0.001984 0.006602 0.008891 0.041082
#
#
# Mechanical properties :
#
#
# Convention : Reuss Voigt Hill
#
# Bulk Modulus (GPa) = 39.20901 45.99993 42.60447
# Shear Modulus (GPa) = 23.38381 28.27144 25.82762
#
# Velocity S-wave (km/s) = 3.46295 3.80770 3.63941
# Velocity P-wave (km/s) = 6.00809 6.55148 6.28566
#
# Compressibility (1/GPa) = 0.02550434
#
# Stress axis : x y z
#
# Youngs Moduli (GPa) = 45.57502 85.54569 43.98299
#
# Poissons Ratio (x) = 0.35767 0.43076
# Poissons Ratio (y) = 0.19055 0.06407
# Poissons Ratio (z) = 0.44635 0.12462
#
# Static dielectric constant tensor:
#      x y z
#    x 3.494810 0.126370 -0.121630 
#    y 0.126370 3.875820 0.091820 
#    z -0.121630 0.091820 3.395050 
# 
# 
# High freq. dielectric constant tensor:
#      x y z
#    x 1.744050 -0.002180 -0.003180 
#    y -0.002180 1.774860 0.010190 
#    z -0.003180 0.010190 1.750120 
# 
# From -- ./inp_files/124644.got.cif
#   From: 2010.06.25/outbox.cif.g09.slc.cpg/sg2_63_cif.got.tgz:124644.got - 2010.06.27 13:26:56.
