data_PCOD8030696
_publ_section_title
;
Structure prediction by ZEFSAII (Michael W. Deem and Ramdas Pophale) SiO2 
 PCOD8030696
Probable space group: P -1
;
_chemical_formula_sum "Si O2"
_cell_formula_units_Z 16
_cell_length_a 7.872532
_cell_length_b 14.488630
_cell_length_c 11.475895
_cell_angle_alpha 61.194299
_cell_angle_beta 51.557021
_cell_angle_gamma 45.914918
_cell_volume 733.590614
_symmetry_space_group_name_H-M "P -1"
_symmetry_group_IT_number 2
_symmetry_cell_setting 'triclinic'
loop_
_space_group_symop_operation_xyz
x,y,z
-x,-y,-z
loop_
_atom_site_type_symbol
_atom_site_label
_atom_site_fract_x
_atom_site_fract_y
_atom_site_fract_z
Si Si1 0.243417 0.014266 0.053655
Si Si2 0.256212 0.369000 0.769721
Si Si3 0.309021 0.152809 0.510558
Si Si4 0.491080 0.733890 0.035939
Si Si5 0.156713 0.941042 0.619603
Si Si6 0.931539 0.668489 0.709540
Si Si7 0.978736 0.768498 0.168362
Si Si8 0.823500 0.203894 0.510334
O O1 0.043079 0.072212 0.211488
O O2 0.304580 0.878140 0.074891
O O3 0.118862 0.104360 0.940357
O O4 0.500000 0.000000 0.000000
O O5 0.295159 0.357689 0.900012
O O6 0.545742 0.296917 0.635640
O O7 0.089519 0.517649 0.715726
O O8 0.085875 0.317907 0.826967
O O9 0.550374 0.169663 0.392814
O O10 0.102603 0.262526 0.442001
O O11 0.176387 0.187367 0.672298
O O12 0.500000 0.000000 0.500000
O O13 0.296906 0.692409 0.104088
O O14 0.660464 0.727451 0.858063
O O15 0.178374 0.900317 0.501019
O O16 0.055911 0.096131 0.571227
O O17 0.114066 0.713628 0.653199
#
# Coordination Sequence:
#
# PCOD8030696 Si02
#       8
#     2   2   2   2   2   2   2   2
#     4  12  22  41  72 104 143 179 228 294 360 410
#     4  12  26  50  69 103 144 191 238 286 346 426
#     4  12  23  44  70 102 139 176 234 299 346 410
#     4  12  25  47  70 103 143 188 234 291 353 417
#     4  11  22  39  70 101 134 174 227 290 355 405
#     4  12  27  45  72 100 142 192 234 285 356 419
#     4  12  26  45  73 105 144 183 236 293 351 424
#     4  11  22  43  68 101 136 178 232 289 347 414
#
# _framework density 21.810528999999999
#
# number of rings (size 3 to 8) (size 9 to 14) (size 15 to 20)
#    0.000    0.250    5.000    4.875    1.750    1.000 
#    2.250    0.000    0.000    0.000    0.000    0.000 
#    0.000    0.000    0.000    0.000    0.000    0.000 
#
# Total GULP energy -198227.932331 kJ/mol
# GULP energy per Si atom -12389.245771 kJ/mol
# Density = 2.176089 g / cm^3
# Si number density = 21.810529 Si / 1000 Ang^3
#
#
#
# Elastic Constant Matrix: (Units=GPa)
#
#
# Indices 1 2 3 4 5 6 
#
# 1 105.1108 30.6968 35.1416 -10.5711 -7.7007 -7.9138
# 2 30.6968 81.9484 26.8276 -16.5484 5.5799 -7.8606
# 3 35.1416 26.8276 129.3224 4.6697 -2.4448 -12.2695
# 4 -10.5711 -16.5484 4.6697 42.9630 -7.0675 -3.9468
# 5 -7.7007 5.5799 -2.4448 -7.0675 46.3171 -1.1399
# 6 -7.9138 -7.8606 -12.2695 -3.9468 -1.1399 19.7448
#
#
#
# Elastic Compliance Matrix: (Units=1/GPa)
#
#
# Indices 1 2 3 4 5 6 
#
# 1 0.011876 -0.003041 -0.002381 0.002707 0.002696 0.002767
# 2 -0.003041 0.015798 -0.002238 0.005764 -0.001531 0.004744
# 3 -0.002381 -0.002238 0.009254 -0.002112 0.000126 0.003490
# 4 0.002707 0.005764 -0.002112 0.027784 0.004077 0.007856
# 5 0.002696 -0.001531 0.000126 0.004077 0.022918 0.002688
# 6 0.002767 0.004744 0.003490 0.007856 0.002688 0.057538
#
#
# Mechanical properties :
#
#
# Convention : Reuss Voigt Hill
#
# Bulk Modulus (GPa) = 46.27788 55.74596 51.01192
# Shear Modulus (GPa) = 29.81723 36.71936 33.26830
#
# Velocity S-wave (km/s) = 3.70145 4.10757 3.90979
# Velocity P-wave (km/s) = 6.28743 6.93620 6.61977
#
# Compressibility (1/GPa) = 0.02160859
#
# Stress axis : x y z
#
# Youngs Moduli (GPa) = 84.20479 63.30067 108.06685
#
# Poissons Ratio (x) = 0.19248 0.25726
# Poissons Ratio (y) = 0.25604 0.24185
# Poissons Ratio (z) = 0.20046 0.14166
#
# Static dielectric constant tensor:
#      x y z
#    x 4.661300 -0.274860 -0.159810 
#    y -0.274860 3.965930 -0.027480 
#    z -0.159810 -0.027480 3.958090 
# 
# 
# High freq. dielectric constant tensor:
#      x y z
#    x 1.882940 -0.006750 -0.012970 
#    y -0.006750 1.844680 0.002830 
#    z -0.012970 0.002830 1.869310 
# 
# From -- ./inp_files/263502.got.cif
#   From: 2010.06.25/outbox.cif.g09.slc.cpg/sg2_132_cif.got.tgz:263502.got - 2010.06.27 13:26:56.
