data_PCOD8030592
_publ_section_title
;
Structure prediction by ZEFSAII (Michael W. Deem and Ramdas Pophale) SiO2 
 PCOD8030592
Probable space group: P -1
;
_chemical_formula_sum "Si O2"
_cell_formula_units_Z 16
_cell_length_a 13.731080
_cell_length_b 8.393931
_cell_length_c 12.852383
_cell_angle_alpha 49.319585
_cell_angle_beta 108.701934
_cell_angle_gamma 134.933749
_cell_volume 767.855602
_symmetry_space_group_name_H-M "P -1"
_symmetry_group_IT_number 2
_symmetry_cell_setting 'triclinic'
loop_
_space_group_symop_operation_xyz
x,y,z
-x,-y,-z
loop_
_atom_site_type_symbol
_atom_site_label
_atom_site_fract_x
_atom_site_fract_y
_atom_site_fract_z
Si Si1 0.858650 0.742267 0.921605
Si Si2 0.560465 0.305461 0.927756
Si Si3 0.148674 0.690713 0.782779
Si Si4 0.441003 0.063099 0.206525
Si Si5 0.555979 0.803811 0.423074
Si Si6 0.846626 0.005285 0.148025
Si Si7 0.149924 0.828524 0.149439
Si Si8 0.451179 0.575261 0.701860
O O1 0.731947 0.553292 0.873943
O O2 0.861666 0.967972 0.883067
O O3 0.832880 0.529599 0.091315
O O4 0.006689 0.916346 0.838217
O O5 0.498001 0.397520 0.793584
O O6 0.500000 0.000000 0.000000
O O7 0.516426 0.285165 0.041055
O O8 0.999276 0.508442 0.748180
O O9 0.274860 0.945270 0.643330
O O10 0.145855 0.811808 0.837707
O O11 0.473913 0.861442 0.301516
O O12 0.271525 0.858104 0.230583
O O13 0.505639 0.251157 0.252161
O O14 0.500000 0.500000 0.500000
O O15 0.525994 0.800401 0.536064
O O16 0.719492 0.660100 0.272074
O O17 0.815265 0.085063 0.996672
#
# Coordination Sequence:
#
# PCOD8030592 Si02
#       8
#     2   2   2   2   2   2   2   2
#     4  11  22  39  65 102 135 165 218 273 335 380
#     4  12  23  39  69 102 134 168 223 280 324 385
#     4  11  23  42  66  98 135 180 215 269 333 396
#     4  12  25  43  68  99 133 171 226 276 330 388
#     4  12  26  48  66  95 135 179 225 268 333 405
#     4  11  22  38  68  98 137 168 220 266 335 380
#     4  11  23  41  67 102 135 167 219 280 330 390
#     4  12  24  44  67  99 133 175 221 275 330 398
#
# _framework density 20.837250999999998
#
# number of rings (size 3 to 8) (size 9 to 14) (size 15 to 20)
#    0.000    0.500    5.000    6.000    3.500    0.000 
#    0.000    2.500    0.000    0.000    0.000    0.000 
#    0.000    0.000    0.000    0.000    0.000    0.000 
#
# Total GULP energy -198497.096476 kJ/mol
# GULP energy per Si atom -12406.068530 kJ/mol
# Density = 2.078982 g / cm^3
# Si number density = 20.837251 Si / 1000 Ang^3
#
#
#
# Elastic Constant Matrix: (Units=GPa)
#
#
# Indices 1 2 3 4 5 6 
#
# 1 113.8299 64.6635 40.0790 -11.0515 -6.5416 17.0781
# 2 64.6635 152.4846 25.4126 -15.9351 -14.1855 14.8951
# 3 40.0790 25.4126 80.8850 -11.1350 -18.9483 14.6860
# 4 -11.0515 -15.9351 -11.1350 27.9505 2.1037 -8.5600
# 5 -6.5416 -14.1855 -18.9483 2.1037 35.1518 -2.7972
# 6 17.0781 14.8951 14.6860 -8.5600 -2.7972 41.8255
#
#
#
# Elastic Compliance Matrix: (Units=1/GPa)
#
#
# Indices 1 2 3 4 5 6 
#
# 1 0.013662 -0.004921 -0.005443 -0.000020 -0.002542 -0.002089
# 2 -0.004921 0.009187 0.000816 0.003178 0.002986 -0.000699
# 3 -0.005443 0.000816 0.017865 0.003879 0.008477 -0.002980
# 4 -0.000020 0.003178 0.003879 0.040849 0.001400 0.005968
# 5 -0.002542 0.002986 0.008477 0.001400 0.033628 -0.000466
# 6 -0.002089 -0.000699 -0.002980 0.005968 -0.000466 0.027247
#
#
# Mechanical properties :
#
#
# Convention : Reuss Voigt Hill
#
# Bulk Modulus (GPa) = 46.25739 67.50110 56.87924
# Shear Modulus (GPa) = 29.63114 35.45519 32.54316
#
# Velocity S-wave (km/s) = 3.77507 4.12943 3.95622
# Velocity P-wave (km/s) = 6.42255 7.42974 6.94443
#
# Compressibility (1/GPa) = 0.02161817
#
# Stress axis : x y z
#
# Youngs Moduli (GPa) = 73.19380 108.84785 55.97617
#
# Poissons Ratio (x) = 0.53567 0.30466
# Poissons Ratio (y) = 0.36021 -0.04567
# Poissons Ratio (z) = 0.39837 -0.08881
#
# Static dielectric constant tensor:
#      x y z
#    x 4.061990 0.235630 -0.067820 
#    y 0.235630 4.042320 -0.047430 
#    z -0.067820 -0.047430 3.810900 
# 
# 
# High freq. dielectric constant tensor:
#      x y z
#    x 1.831460 -0.000100 -0.009440 
#    y -0.000100 1.836100 -0.007040 
#    z -0.009440 -0.007040 1.782530 
# 
# From -- ./inp_files/319137.got.cif
#   From: 2010.06.25/outbox.cif.g09.slc.cpg/sg2_160_cif.got.tgz:319137.got - 2010.06.27 13:26:56.
