data_PCOD8030391
_publ_section_title
;
Structure prediction by ZEFSAII (Michael W. Deem and Ramdas Pophale) SiO2 
 PCOD8030391
Probable space group: P -1
;
_chemical_formula_sum "Si O2"
_cell_formula_units_Z 16
_cell_length_a 8.762491
_cell_length_b 6.712844
_cell_length_c 18.472385
_cell_angle_alpha 60.800610
_cell_angle_beta 58.675848
_cell_angle_gamma 74.829716
_cell_volume 810.194983
_symmetry_space_group_name_H-M "P -1"
_symmetry_group_IT_number 2
_symmetry_cell_setting 'triclinic'
loop_
_space_group_symop_operation_xyz
x,y,z
-x,-y,-z
loop_
_atom_site_type_symbol
_atom_site_label
_atom_site_fract_x
_atom_site_fract_y
_atom_site_fract_z
Si Si1 0.694090 0.426185 0.986180
Si Si2 0.974874 0.795276 0.842570
Si Si3 0.166190 0.047501 0.998233
Si Si4 0.334154 0.414277 0.332682
Si Si5 0.834222 0.042624 0.581864
Si Si6 0.666123 0.518087 0.510954
Si Si7 0.977674 0.216558 0.661674
Si Si8 0.690450 0.482834 0.147201
O O1 0.704751 0.405022 0.074063
O O2 0.500000 0.500000 0.000000
O O3 0.836336 0.601292 0.884549
O O4 0.714824 0.180391 0.986559
O O5 0.902971 0.867243 0.924203
O O6 0.171190 0.679928 0.814813
O O7 0.980798 0.032562 0.756814
O O8 0.270544 0.251748 0.899029
O O9 0.000000 0.000000 0.000000
O O10 0.385994 0.412315 0.405860
O O11 0.162272 0.574898 0.328868
O O12 0.498013 0.481370 0.230857
O O13 0.300392 0.162584 0.356600
O O14 0.737192 0.264704 0.537989
O O15 0.908525 0.068407 0.638923
O O16 0.000000 0.000000 0.500000
O O17 0.500000 0.500000 0.500000
O O18 0.822264 0.686941 0.415368
#
# Coordination Sequence:
#
# PCOD8030391 Si02
#       8
#     2   2   2   2   2   2   2   2
#     4  11  25  42  66  96 128 172 219 261 322 382
#     4  11  25  42  63  99 128 167 221 263 319 387
#     4  11  21  45  68  84 134 177 204 267 322 372
#     4  11  25  44  66  96 130 173 216 264 326 383
#     4  11  21  45  69  84 129 178 210 262 320 384
#     4  11  25  44  66  98 131 167 214 268 324 386
#     4  11  25  43  65  96 133 168 219 265 322 387
#     4  11  25  42  65  97 129 167 220 264 319 388
#
# _framework density 19.748332999999999
#
# number of rings (size 3 to 8) (size 9 to 14) (size 15 to 20)
#    0.000    1.000    5.000    1.500    7.000    4.500 
#    0.000    0.000    0.000    0.000    0.000    0.000 
#    0.000    0.000    0.000    0.000    0.000    0.000 
#
# Total GULP energy -198299.821189 kJ/mol
# GULP energy per Si atom -12393.738824 kJ/mol
# Density = 1.970338 g / cm^3
# Si number density = 19.748333 Si / 1000 Ang^3
#
#
#
# Elastic Constant Matrix: (Units=GPa)
#
#
# Indices 1 2 3 4 5 6 
#
# 1 107.2529 27.4373 30.1509 -14.3354 -6.7356 2.8646
# 2 27.4373 110.2855 27.8044 -17.4736 -17.0210 11.9685
# 3 30.1509 27.8044 117.8986 -21.7862 -21.4931 6.9266
# 4 -14.3354 -17.4736 -21.7862 30.7025 -4.5219 -8.1225
# 5 -6.7356 -17.0210 -21.4931 -4.5219 26.7581 0.4425
# 6 2.8646 11.9685 6.9266 -8.1225 0.4425 28.4625
#
#
#
# Elastic Compliance Matrix: (Units=1/GPa)
#
#
# Indices 1 2 3 4 5 6 
#
# 1 0.010678 -0.001711 -0.001641 0.003218 0.000810 0.000950
# 2 -0.001711 0.012215 0.000756 0.007189 0.009215 -0.003240
# 3 -0.001641 0.000756 0.012923 0.010506 0.012232 -0.000490
# 4 0.003218 0.007189 0.010506 0.051113 0.022322 0.008336
# 5 0.000810 0.009215 0.012232 0.022322 0.057059 -0.001450
# 6 0.000950 -0.003240 -0.000490 0.008336 -0.001450 0.038921
#
#
# Mechanical properties :
#
#
# Convention : Reuss Voigt Hill
#
# Bulk Modulus (GPa) = 32.65372 56.24690 44.45031
# Shear Modulus (GPa) = 25.21294 33.85424 29.53359
#
# Velocity S-wave (km/s) = 3.57699 4.14488 3.87136
# Velocity P-wave (km/s) = 5.79919 7.17289 6.52231
#
# Compressibility (1/GPa) = 0.03062439
#
# Stress axis : x y z
#
# Youngs Moduli (GPa) = 93.64696 81.86325 77.37965
#
# Poissons Ratio (x) = 0.14008 0.12696
# Poissons Ratio (y) = 0.16025 -0.05847
# Poissons Ratio (z) = 0.15366 -0.06185
#
# Static dielectric constant tensor:
#      x y z
#    x 4.009520 -0.050380 0.103620 
#    y -0.050380 3.309720 -0.100000 
#    z 0.103620 -0.100000 3.922200 
# 
# 
# High freq. dielectric constant tensor:
#      x y z
#    x 1.777000 0.000510 -0.007410 
#    y 0.000510 1.791220 -0.007730 
#    z -0.007410 -0.007730 1.775080 
# 
# From -- ./inp_files/38532.got.cif
#   From: 2010.06.25/outbox.cif.g09.slc.cpg/sg2_20_cif.got.tgz:38532.got - 2010.06.27 13:26:56.
