data_PCOD8030655
_publ_section_title
;
Structure prediction by ZEFSAII (Michael W. Deem and Ramdas Pophale) SiO2 
 PCOD8030655
Probable space group: P -1
;
_chemical_formula_sum "Si O2"
_cell_formula_units_Z 16
_cell_length_a 8.622331
_cell_length_b 8.623580
_cell_length_c 11.770820
_cell_angle_alpha 90.902741
_cell_angle_beta 91.224064
_cell_angle_gamma 121.318135
_cell_volume 747.158212
_symmetry_space_group_name_H-M "P -1"
_symmetry_group_IT_number 2
_symmetry_cell_setting 'triclinic'
loop_
_space_group_symop_operation_xyz
x,y,z
-x,-y,-z
loop_
_atom_site_type_symbol
_atom_site_label
_atom_site_fract_x
_atom_site_fract_y
_atom_site_fract_z
Si Si1 0.829024 0.517328 0.758193
Si Si2 0.196140 0.207945 0.388819
Si Si3 0.164580 0.161930 0.650160
Si Si4 0.720300 0.928306 0.000423
Si Si5 0.477381 0.142060 0.778985
Si Si6 0.849329 0.531441 0.220693
Si Si7 0.082529 0.284584 0.005050
Si Si8 0.526953 0.821583 0.756118
O O1 0.777785 0.605970 0.656735
O O2 0.679694 0.306207 0.763036
O O3 0.021084 0.537699 0.733050
O O4 0.832720 0.617613 0.874549
O O5 0.218423 0.229299 0.523745
O O6 0.350043 0.173055 0.344981
O O7 0.998748 0.044858 0.346802
O O8 0.336870 0.179601 0.714795
O O9 0.100605 0.284742 0.712189
O O10 0.561082 0.881276 0.086786
O O11 0.814925 0.816632 0.035593
O O12 0.642014 0.879343 0.873332
O O13 0.867818 0.142608 0.013113
O O14 0.461110 0.960364 0.727190
O O15 0.885393 0.567058 0.087026
O O16 0.641760 0.381368 0.238002
#
# Coordination Sequence:
#
# PCOD8030655 Si02
#       8
#     2   2   2   2   2   2   2   2
#     4  12  25  42  67  97 132 170 214 262 318 382
#     4  11  25  46  69  94 127 167 215 269 322 377
#     4  11  25  46  69  94 127 167 215 269 322 377
#     4  11  22  39  66  96 133 171 209 259 320 382
#     4  12  25  42  67  97 132 170 214 262 318 382
#     4  12  25  42  67  97 132 170 214 262 318 382
#     4  11  22  39  66  96 133 171 209 259 320 382
#     4  12  25  42  67  97 132 170 214 262 318 382
#
# _framework density 21.414473999999998
#
# number of rings (size 3 to 8) (size 9 to 14) (size 15 to 20)
#    0.000    0.500    2.500    6.750    0.000    4.000 
#    0.000    0.000    0.000    0.000    0.000    0.000 
#    0.000    0.000    0.000    0.000    0.000    0.000 
#
# Total GULP energy -198565.590179 kJ/mol
# GULP energy per Si atom -12410.349386 kJ/mol
# Density = 2.136573 g / cm^3
# Si number density = 21.414474 Si / 1000 Ang^3
#
#
#
# Elastic Constant Matrix: (Units=GPa)
#
#
# Indices 1 2 3 4 5 6 
#
# 1 86.0364 10.0770 24.7212 -8.0058 -11.6251 -10.3761
# 2 10.0770 82.9892 26.2484 -12.5420 1.3363 3.9012
# 3 24.7212 26.2484 94.3170 -15.2582 -2.0364 -2.4815
# 4 -8.0058 -12.5420 -15.2582 28.2504 7.0363 -2.5736
# 5 -11.6251 1.3363 -2.0364 7.0363 16.3653 2.6514
# 6 -10.3761 3.9012 -2.4815 -2.5736 2.6514 40.2594
#
#
#
# Elastic Compliance Matrix: (Units=1/GPa)
#
#
# Indices 1 2 3 4 5 6 
#
# 1 0.014278 -0.001045 -0.003208 -0.000237 0.009453 0.002946
# 2 -0.001045 0.014024 -0.002889 0.005347 -0.004355 -0.001178
# 3 -0.003208 -0.002889 0.013130 0.005723 -0.003004 0.000826
# 4 -0.000237 0.005347 0.005723 0.046259 -0.020442 0.004077
# 5 0.009453 -0.004355 -0.003004 -0.020442 0.077193 -0.003717
# 6 0.002946 -0.001178 0.000826 0.004077 -0.003717 0.026269
#
#
# Mechanical properties :
#
#
# Convention : Reuss Voigt Hill
#
# Bulk Modulus (GPa) = 36.83637 42.82623 39.83130
# Shear Modulus (GPa) = 23.31153 30.46141 26.88647
#
# Velocity S-wave (km/s) = 3.30295 3.77565 3.54719
# Velocity P-wave (km/s) = 5.63782 6.24897 5.95124
#
# Compressibility (1/GPa) = 0.02714709
#
# Stress axis : x y z
#
# Youngs Moduli (GPa) = 70.03922 71.30632 76.16059
#
# Poissons Ratio (x) = 0.07455 0.24433
# Poissons Ratio (y) = 0.07322 0.22002
# Poissons Ratio (z) = 0.22469 0.20599
#
# Static dielectric constant tensor:
#      x y z
#    x 3.886690 -0.039800 -0.087950 
#    y -0.039800 3.990940 -0.050400 
#    z -0.087950 -0.050400 3.780470 
# 
# 
# High freq. dielectric constant tensor:
#      x y z
#    x 1.852400 -0.001130 -0.004490 
#    y -0.001130 1.853330 -0.004260 
#    z -0.004490 -0.004260 1.835190 
# 
# From -- ./inp_files/185345.got.cif
#   From: 2010.06.25/outbox.cif.g09.slc.cpg/sg2_93_cif.got.tgz:185345.got - 2010.06.27 13:26:56.
