data_PCOD8030519
_publ_section_title
;
Structure prediction by ZEFSAII (Michael W. Deem and Ramdas Pophale) SiO2 
 PCOD8030519
Probable space group: P -1
;
_chemical_formula_sum "Si O2"
_cell_formula_units_Z 12
_cell_length_a 12.271075
_cell_length_b 11.932045
_cell_length_c 11.931896
_cell_angle_alpha 118.112013
_cell_angle_beta 120.944827
_cell_angle_gamma 23.602941
_cell_volume 599.947656
_symmetry_space_group_name_H-M "P -1"
_symmetry_group_IT_number 2
_symmetry_cell_setting 'triclinic'
loop_
_space_group_symop_operation_xyz
x,y,z
-x,-y,-z
loop_
_atom_site_type_symbol
_atom_site_label
_atom_site_fract_x
_atom_site_fract_y
_atom_site_fract_z
Si Si1 0.155064 0.995729 0.204099
Si Si2 0.004222 0.549087 0.349208
Si Si3 0.087646 0.768013 0.058001
Si Si4 0.549038 0.155063 0.053310
Si Si5 0.470288 0.087709 0.202340
Si Si6 0.232003 0.470338 0.644341
O O1 0.438925 0.819013 0.294963
O O2 0.195910 0.811442 0.167207
O O3 0.076543 0.085824 0.076477
O O4 0.910224 0.267294 0.282409
O O5 0.914139 0.499979 0.337642
O O6 0.180932 0.356090 0.242057
O O7 0.188510 0.471357 0.492648
O O8 0.732652 0.872240 0.322483
O O9 0.355975 0.438955 0.037000
O O10 0.872164 0.910282 0.104923
O O11 0.471302 0.195907 0.159860
O O12 0.500033 0.076451 0.914118
#
# Coordination Sequence:
#
# PCOD8030519 Si02
#       6
#     2   2   2   2   2   2
#     4  11  22  37  59  85 114 147 184 230 280 331
#     4  11  22  37  59  85 114 147 184 230 280 331
#     4  11  22  37  59  85 114 147 184 230 280 331
#     4  11  22  37  59  85 114 147 184 230 280 331
#     4  11  22  37  59  85 114 147 184 230 280 331
#     4  11  22  37  59  85 114 147 184 230 280 331
#
# _framework density 20.001746000000001
#
# number of rings (size 3 to 8) (size 9 to 14) (size 15 to 20)
#    0.000    1.000    0.000    9.000    0.000    8.000 
#    0.000    0.000    0.000   20.000    0.000    0.000 
#    0.000    0.000    0.000    0.000    0.000    0.000 
#
# Total GULP energy -148896.066994 kJ/mol
# GULP energy per Si atom -12408.005583 kJ/mol
# Density = 1.995622 g / cm^3
# Si number density = 20.001746 Si / 1000 Ang^3
#
#
#
# Elastic Constant Matrix: (Units=GPa)
#
#
# Indices 1 2 3 4 5 6 
#
# 1 66.9038 9.4101 31.7553 4.0649 -3.3119 5.7395
# 2 9.4101 83.5926 5.9511 1.8904 3.1396 -2.4710
# 3 31.7553 5.9511 70.7345 -6.4890 0.2872 -1.2719
# 4 4.0649 1.8904 -6.4890 29.4075 -7.9019 2.7685
# 5 -3.3119 3.1396 0.2872 -7.9019 25.0120 5.8175
# 6 5.7395 -2.4710 -1.2719 2.7685 5.8175 34.1509
#
#
#
# Elastic Compliance Matrix: (Units=1/GPa)
#
#
# Indices 1 2 3 4 5 6 
#
# 1 0.020378 -0.001769 -0.009418 -0.003635 0.002831 -0.004091
# 2 -0.001769 0.012373 -0.000343 -0.001509 -0.002669 0.001757
# 3 -0.009418 -0.000343 0.018912 0.005270 -0.000191 0.001868
# 4 -0.003635 -0.001509 0.005270 0.039804 0.013339 -0.004801
# 5 0.002831 -0.002669 -0.000191 0.013339 0.047185 -0.009795
# 6 -0.004091 0.001757 0.001868 -0.004801 -0.009795 0.032224
#
#
# Mechanical properties :
#
#
# Convention : Reuss Voigt Hill
#
# Bulk Modulus (GPa) = 34.96104 35.05157 35.00631
# Shear Modulus (GPa) = 24.57377 29.32170 26.94774
#
# Velocity S-wave (km/s) = 3.50892 3.83294 3.67450
# Velocity P-wave (km/s) = 5.82525 6.09515 5.96173
#
# Compressibility (1/GPa) = 0.02860327
#
# Stress axis : x y z
#
# Youngs Moduli (GPa) = 49.07299 80.82400 52.87600
#
# Poissons Ratio (x) = 0.14294 0.49799
# Poissons Ratio (y) = 0.08679 0.01814
# Poissons Ratio (z) = 0.46217 0.02772
#
# Static dielectric constant tensor:
#      x y z
#    x 3.654510 -0.006310 -0.000360 
#    y -0.006310 3.683060 0.001650 
#    z -0.000360 0.001650 3.653140 
# 
# 
# High freq. dielectric constant tensor:
#      x y z
#    x 1.773110 -0.005680 -0.000320 
#    y -0.005680 1.799020 0.001510 
#    z -0.000320 0.001510 1.772000 
# 
# From -- ./inp_files/63242.got.cif
#   From: 2010.06.25/outbox.cif.g09.slc.cpg/sg2_32_cif.got.tgz:63242.got - 2010.06.27 13:26:56.
