data_PCOD8030472
_publ_section_title
;
Structure prediction by ZEFSAII (Michael W. Deem and Ramdas Pophale) SiO2 
 PCOD8030472
Probable space group: P -1
;
_chemical_formula_sum "Si O2"
_cell_formula_units_Z 14
_cell_length_a 15.741439
_cell_length_b 11.491729
_cell_length_c 12.969621
_cell_angle_alpha 45.537503
_cell_angle_beta 152.970405
_cell_angle_gamma 144.258282
_cell_volume 620.556091
_symmetry_space_group_name_H-M "P -1"
_symmetry_group_IT_number 2
_symmetry_cell_setting 'triclinic'
loop_
_space_group_symop_operation_xyz
x,y,z
-x,-y,-z
loop_
_atom_site_type_symbol
_atom_site_label
_atom_site_fract_x
_atom_site_fract_y
_atom_site_fract_z
Si Si1 0.258414 0.802403 0.837099
Si Si2 0.206858 0.312144 0.606084
Si Si3 0.504979 0.438402 0.426460
Si Si4 0.935823 0.632065 0.070937
Si Si5 0.788449 0.284862 0.866638
Si Si6 0.828492 0.386146 0.478999
Si Si7 0.529536 0.856572 0.913254
O O1 0.178646 0.602792 0.939709
O O2 0.299050 0.750304 0.798878
O O3 0.068012 0.850443 0.605922
O O4 0.500000 0.000000 0.000000
O O5 0.315829 0.378509 0.568431
O O6 0.221239 0.484672 0.581196
O O7 0.319949 0.225109 0.846952
O O8 0.500000 0.500000 0.500000
O O9 0.570842 0.283249 0.600921
O O10 0.258748 0.328354 0.173267
O O11 0.129403 0.771404 0.110276
O O12 0.053699 0.692961 0.272814
O O13 0.695462 0.098875 0.960245
O O14 0.000000 0.500000 0.000000
O O15 0.575787 0.205453 0.277281
O O16 0.000000 0.500000 0.500000
#
# Coordination Sequence:
#
# PCOD8030472 Si02
#       7
#     2   2   2   2   2   2   2
#     4  11  23  40  68 101 140 177 232 290 343 413
#     4  11  24  45  73 103 137 185 234 290 349 412
#     4  12  24  43  73 100 139 192 227 281 363 412
#     4  11  23  44  66  96 144 182 227 287 348 400
#     4  12  26  46  66 104 146 183 230 293 350 416
#     4  11  21  47  74 100 142 179 238 294 341 415
#     4  12  26  42  75 106 136 189 237 283 354 417
#
# _framework density 22.560410999999998
#
# number of rings (size 3 to 8) (size 9 to 14) (size 15 to 20)
#    0.000    0.571    8.571    1.286    0.000    3.429 
#    0.000    0.714    0.000    0.000    0.000    0.000 
#    0.000    0.000    0.000    0.000    0.000    0.000 
#
# Total GULP energy -173488.121361 kJ/mol
# GULP energy per Si atom -12392.008669 kJ/mol
# Density = 2.250906 g / cm^3
# Si number density = 22.560411 Si / 1000 Ang^3
#
#
#
# Elastic Constant Matrix: (Units=GPa)
#
#
# Indices 1 2 3 4 5 6 
#
# 1 112.5764 16.2826 57.2863 1.2531 20.1657 20.1901
# 2 16.2826 66.9432 33.3751 -0.7324 2.3854 7.4121
# 3 57.2863 33.3751 214.2519 -9.3241 24.9476 4.5740
# 4 1.2531 -0.7324 -9.3241 33.7854 -2.0541 -5.3846
# 5 20.1657 2.3854 24.9476 -2.0541 40.2453 5.4416
# 6 20.1901 7.4121 4.5740 -5.3846 5.4416 25.6941
#
#
#
# Elastic Compliance Matrix: (Units=1/GPa)
#
#
# Indices 1 2 3 4 5 6 
#
# 1 0.012716 -0.000567 -0.002838 -0.002946 -0.003485 -0.009203
# 2 -0.000567 0.016792 -0.002578 -0.000947 0.001439 -0.004442
# 3 -0.002838 -0.002578 0.006149 0.002046 -0.002517 0.002841
# 4 -0.002946 -0.000947 0.002046 0.031684 0.000703 0.008715
# 5 -0.003485 0.001439 -0.002517 0.000703 0.028527 -0.003123
# 6 -0.009203 -0.004442 0.002841 0.008715 -0.003123 0.049414
#
#
# Mechanical properties :
#
#
# Convention : Reuss Voigt Hill
#
# Bulk Modulus (GPa) = 42.20978 67.51772 54.86375
# Shear Modulus (GPa) = 30.27640 39.06679 34.67159
#
# Velocity S-wave (km/s) = 3.66733 4.16583 3.92450
# Velocity P-wave (km/s) = 6.05662 7.28912 6.70127
#
# Compressibility (1/GPa) = 0.02369119
#
# Stress axis : x y z
#
# Youngs Moduli (GPa) = 78.63821 59.55383 162.62359
#
# Poissons Ratio (x) = 0.03379 0.46147
# Poissons Ratio (y) = 0.04462 0.41924
# Poissons Ratio (z) = 0.22315 0.15353
#
# Static dielectric constant tensor:
#      x y z
#    x 5.168340 0.100330 0.035080 
#    y 0.100330 3.663550 0.049270 
#    z 0.035080 0.049270 4.503820 
# 
# 
# High freq. dielectric constant tensor:
#      x y z
#    x 1.910420 0.017700 0.001440 
#    y 0.017700 1.851090 0.006250 
#    z 0.001440 0.006250 1.910090 
# 
# From -- ./inp_files/451179.got.cif
#   From: 2010.06.25/outbox.cif.g09.slc.cpg/sg2_226_cif.got.tgz:451179.got - 2010.06.27 13:26:56.
