data_PCOD8030448
_publ_section_title
;
Structure prediction by ZEFSAII (Michael W. Deem and Ramdas Pophale) SiO2 
 PCOD8030448
Probable space group: P -1
;
_chemical_formula_sum "Si O2"
_cell_formula_units_Z 16
_cell_length_a 9.638522
_cell_length_b 14.630496
_cell_length_c 9.897362
_cell_angle_alpha 106.298952
_cell_angle_beta 112.846890
_cell_angle_gamma 37.396767
_cell_volume 780.179323
_symmetry_space_group_name_H-M "P -1"
_symmetry_group_IT_number 2
_symmetry_cell_setting 'triclinic'
loop_
_space_group_symop_operation_xyz
x,y,z
-x,-y,-z
loop_
_atom_site_type_symbol
_atom_site_label
_atom_site_fract_x
_atom_site_fract_y
_atom_site_fract_z
Si Si1 0.124470 0.775037 0.176757
Si Si2 0.655329 0.678959 0.714968
Si Si3 0.429161 0.435219 0.147585
Si Si4 0.527964 0.714117 0.371774
Si Si5 0.060188 0.773076 0.853321
Si Si6 0.441398 0.961043 0.338812
Si Si7 0.146888 0.520055 0.823864
Si Si8 0.396657 0.999285 0.830635
O O1 0.273680 0.605338 0.182069
O O2 0.268416 0.793772 0.298216
O O3 0.881562 0.886604 0.214004
O O4 0.072171 0.824223 0.020267
O O5 0.571276 0.629760 0.747892
O O6 0.591859 0.692281 0.542247
O O7 0.941331 0.543600 0.780789
O O8 0.531915 0.834631 0.787071
O O9 0.699591 0.332898 0.183560
O O10 0.335564 0.422246 0.977092
O O11 0.543955 0.807373 0.343143
O O12 0.721385 0.555779 0.300891
O O13 0.014836 0.685907 0.838938
O O14 0.841016 0.913956 0.737769
O O15 0.572571 0.939894 0.250970
O O16 0.500000 0.000000 0.500000
O O17 0.500000 0.000000 0.000000
#
# Coordination Sequence:
#
# PCOD8030448 Si02
#       8
#     2   2   2   2   2   2   2   2
#     4  11  24  44  69 102 134 172 224 273 330 398
#     4  12  27  43  64 104 136 171 222 279 329 387
#     4  11  24  43  71  99 130 173 223 276 328 389
#     4  12  26  44  68  98 136 177 221 270 337 395
#     4  11  21  46  71  95 134 173 224 275 320 400
#     4  12  26  46  68  98 133 180 219 272 339 389
#     4  11  21  46  70  94 132 175 224 270 327 397
#     4  12  25  45  68  96 136 175 222 276 325 393
#
# _framework density 20.508103999999999
#
# number of rings (size 3 to 8) (size 9 to 14) (size 15 to 20)
#    0.000    0.500    6.250    2.250    5.250    2.500 
#    0.000    0.000    0.000    0.000    0.000    0.000 
#    0.000    0.000    0.000    0.000    0.000    0.000 
#
# Total GULP energy -198485.591598 kJ/mol
# GULP energy per Si atom -12405.349475 kJ/mol
# Density = 2.046143 g / cm^3
# Si number density = 20.508104 Si / 1000 Ang^3
#
#
#
# Elastic Constant Matrix: (Units=GPa)
#
#
# Indices 1 2 3 4 5 6 
#
# 1 133.0005 35.1171 38.2600 -5.2182 -6.2782 -13.9902
# 2 35.1171 64.6892 41.5273 1.5507 0.0338 -19.7163
# 3 38.2600 41.5273 104.9850 1.8018 -10.7312 6.1156
# 4 -5.2182 1.5507 1.8018 28.4313 0.2268 0.1755
# 5 -6.2782 0.0338 -10.7312 0.2268 38.8076 -5.3082
# 6 -13.9902 -19.7163 6.1156 0.1755 -5.3082 46.0988
#
#
#
# Elastic Compliance Matrix: (Units=1/GPa)
#
#
# Indices 1 2 3 4 5 6 
#
# 1 0.009303 -0.003114 -0.002186 0.001995 0.001152 0.001906
# 2 -0.003114 0.027768 -0.010718 -0.001467 -0.001821 0.012149
# 3 -0.002186 -0.010718 0.015278 -0.000766 0.002937 -0.006933
# 4 0.001995 -0.001467 -0.000766 0.035668 -0.000105 -0.000069
# 5 0.001152 -0.001821 0.002937 -0.000105 0.027083 0.002300
# 6 0.001906 0.012149 -0.006933 -0.000069 0.002300 0.028652
#
#
# Mechanical properties :
#
#
# Convention : Reuss Voigt Hill
#
# Bulk Modulus (GPa) = 49.22725 59.16484 54.19605
# Shear Modulus (GPa) = 27.38812 35.18555 31.28683
#
# Velocity S-wave (km/s) = 3.65838 4.14658 3.91011
# Velocity P-wave (km/s) = 6.47309 7.19984 6.84612
#
# Compressibility (1/GPa) = 0.02031395
#
# Stress axis : x y z
#
# Youngs Moduli (GPa) = 107.49084 36.01231 65.45198
#
# Poissons Ratio (x) = 0.11216 0.14308
# Poissons Ratio (y) = 0.33477 0.70149
# Poissons Ratio (z) = 0.23497 0.38596
#
# Static dielectric constant tensor:
#      x y z
#    x 3.824510 -0.076320 0.125320 
#    y -0.076320 3.531230 -0.106040 
#    z 0.125320 -0.106040 3.700520 
# 
# 
# High freq. dielectric constant tensor:
#      x y z
#    x 1.817470 -0.008550 0.005890 
#    y -0.008550 1.802170 0.001240 
#    z 0.005890 0.001240 1.808290 
# 
# From -- ./inp_files/206404.got.cif
#   From: 2010.06.25/outbox.cif.g09.slc.cpg/sg2_104_cif.got.tgz:206404.got - 2010.06.27 13:26:56.
