data_PCOD8030721
_publ_section_title
;
Structure prediction by ZEFSAII (Michael W. Deem and Ramdas Pophale) SiO2 
 PCOD8030721
Probable space group: P -1
;
_chemical_formula_sum "Si O2"
_cell_formula_units_Z 14
_cell_length_a 11.734874
_cell_length_b 10.720458
_cell_length_c 11.896618
_cell_angle_alpha 41.981370
_cell_angle_beta 41.159276
_cell_angle_gamma 40.867329
_cell_volume 589.543949
_symmetry_space_group_name_H-M "P -1"
_symmetry_group_IT_number 2
_symmetry_cell_setting 'triclinic'
loop_
_space_group_symop_operation_xyz
x,y,z
-x,-y,-z
loop_
_atom_site_type_symbol
_atom_site_label
_atom_site_fract_x
_atom_site_fract_y
_atom_site_fract_z
Si Si1 0.933931 0.113566 0.593671
Si Si2 0.276326 0.788989 0.681793
Si Si3 0.357702 0.197772 0.699773
Si Si4 0.771997 0.583444 0.134020
Si Si5 0.448286 0.850179 0.049191
Si Si6 0.019358 0.490772 0.626537
Si Si7 0.354128 0.527956 0.993247
O O1 0.729106 0.116317 0.762501
O O2 0.928001 0.339102 0.465555
O O3 0.000000 0.000000 0.500000
O O4 0.073500 0.979986 0.678514
O O5 0.446110 0.843118 0.480354
O O6 0.293141 0.587517 0.738801
O O7 0.277969 0.755022 0.838519
O O8 0.273536 0.392989 0.716597
O O9 0.189348 0.261391 0.687413
O O10 0.397470 0.996544 0.879607
O O11 0.634358 0.813853 0.019775
O O12 0.000000 0.500000 0.000000
O O13 0.522114 0.622756 0.095644
O O14 0.000000 0.500000 0.500000
O O15 0.817647 0.521525 0.806810
O O16 0.500000 0.500000 0.000000
#
# Coordination Sequence:
#
# PCOD8030721 Si02
#       7
#     2   2   2   2   2   2   2
#     4  12  25  45  70 103 139 178 226 282 338 402
#     4  11  24  40  63  96 131 175 224 277 334 399
#     4  12  23  41  65  96 133 176 222 276 336 402
#     4  11  22  40  63  94 133 176 221 277 338 399
#     4  11  24  42  67  99 133 175 222 279 338 401
#     4  12  26  46  71 101 135 180 229 280 339 404
#     4  11  24  46  68  95 135 180 227 281 337 403
#
# _framework density 23.747169
#
# number of rings (size 3 to 8) (size 9 to 14) (size 15 to 20)
#    0.000    0.571    0.000   10.286    0.000    4.571 
#    0.000    5.714    0.000    0.000    0.000    0.000 
#    0.000    0.000    0.000    0.000    0.000    0.000 
#
# Total GULP energy -173486.416125 kJ/mol
# GULP energy per Si atom -12391.886866 kJ/mol
# Density = 2.369312 g / cm^3
# Si number density = 23.747169 Si / 1000 Ang^3
#
#
#
# Elastic Constant Matrix: (Units=GPa)
#
#
# Indices 1 2 3 4 5 6 
#
# 1 136.8510 41.4157 59.1146 2.2490 13.2089 -42.1058
# 2 41.4157 90.1056 54.1763 10.3968 3.0928 -42.1423
# 3 59.1146 54.1763 150.5057 9.4948 -1.0825 -16.6967
# 4 2.2490 10.3968 9.4948 46.5773 -10.1053 7.4338
# 5 13.2089 3.0928 -1.0825 -10.1053 50.3219 -4.5667
# 6 -42.1058 -42.1423 -16.6967 7.4338 -4.5667 48.1670
#
#
#
# Elastic Compliance Matrix: (Units=1/GPa)
#
#
# Indices 1 2 3 4 5 6 
#
# 1 0.012388 0.003168 -0.004483 -0.003001 -0.003036 0.012222
# 2 0.003168 0.027052 -0.007653 -0.009099 -0.002219 0.024979
# 3 -0.004483 -0.007653 0.010302 0.001279 0.001481 -0.007100
# 4 -0.003001 -0.009099 0.001279 0.026774 0.005503 -0.013752
# 5 -0.003036 -0.002219 0.001481 0.005503 0.021681 -0.002876
# 6 0.012222 0.024979 -0.007100 -0.013752 -0.002876 0.052688
#
#
# Mechanical properties :
#
#
# Convention : Reuss Voigt Hill
#
# Bulk Modulus (GPa) = 31.43981 76.31952 53.87967
# Shear Modulus (GPa) = 27.86737 43.86363 35.86550
#
# Velocity S-wave (km/s) = 3.42936 4.30246 3.89048
# Velocity P-wave (km/s) = 5.38041 7.54253 6.55128
#
# Compressibility (1/GPa) = 0.03180680
#
# Stress axis : x y z
#
# Youngs Moduli (GPa) = 80.72635 36.96595 97.06928
#
# Poissons Ratio (x) = -0.11711 0.43512
# Poissons Ratio (y) = -0.25575 0.74285
# Poissons Ratio (z) = 0.36186 0.28289
#
# Static dielectric constant tensor:
#      x y z
#    x 4.110170 -0.228430 0.356180 
#    y -0.228430 4.790370 -0.238670 
#    z 0.356180 -0.238670 4.272550 
# 
# 
# High freq. dielectric constant tensor:
#      x y z
#    x 1.954370 -0.025110 0.015700 
#    y -0.025110 1.954320 -0.004430 
#    z 0.015700 -0.004430 1.948790 
# 
# From -- ./inp_files/427331.got.cif
#   From: 2010.06.25/outbox.cif.g09.slc.cpg/sg2_214_cif.got.tgz:427331.got - 2010.06.27 13:26:56.
