data_PCOD8030228
_publ_section_title
;
Structure prediction by ZEFSAII (Michael W. Deem and Ramdas Pophale) SiO2 
 PCOD8030228
Probable space group: P -1
;
_chemical_formula_sum "Si O2"
_cell_formula_units_Z 14
_cell_length_a 6.486466
_cell_length_b 15.279276
_cell_length_c 7.739312
_cell_angle_alpha 85.007413
_cell_angle_beta 100.643227
_cell_angle_gamma 56.060322
_cell_volume 608.157850
_symmetry_space_group_name_H-M "P -1"
_symmetry_group_IT_number 2
_symmetry_cell_setting 'triclinic'
loop_
_space_group_symop_operation_xyz
x,y,z
-x,-y,-z
loop_
_atom_site_type_symbol
_atom_site_label
_atom_site_fract_x
_atom_site_fract_y
_atom_site_fract_z
Si Si1 0.053815 0.387492 0.078133
Si Si2 0.144917 0.550171 0.584229
Si Si3 0.852719 0.166553 0.630208
Si Si4 0.898109 0.974367 0.828036
Si Si5 0.257284 0.634942 0.258439
Si Si6 0.422388 0.997025 0.680536
Si Si7 0.618700 0.197911 0.245125
O O1 0.359649 0.299981 0.102780
O O2 0.993140 0.382652 0.271865
O O3 0.000000 0.500000 0.000000
O O4 0.887386 0.364441 0.934360
O O5 0.132191 0.625755 0.416805
O O6 0.441320 0.460356 0.695525
O O7 0.000000 0.500000 0.500000
O O8 0.812161 0.072013 0.665028
O O9 0.769674 0.252146 0.757538
O O10 0.670564 0.234854 0.427404
O O11 0.154075 0.111541 0.654764
O O12 0.646466 0.980728 0.842147
O O13 0.119582 0.852726 0.817225
O O14 0.000000 0.000000 0.000000
O O15 0.409686 0.898334 0.727211
O O16 0.500000 0.000000 0.500000
#
# Coordination Sequence:
#
# PCOD8030228 Si02
#       7
#     2   2   2   2   2   2   2
#     4  12  27  48  72 102 144 184 238 295 347 417
#     4  11  24  49  73  96 139 184 235 295 352 407
#     4  11  24  43  69 102 137 174 234 278 343 426
#     4  11  25  42  68 102 142 177 225 284 343 418
#     4  11  27  45  72 105 135 186 235 290 354 414
#     4  11  21  43  70  97 133 183 220 276 346 408
#     4  11  25  44  67 102 136 182 233 279 342 417
#
# _framework density 23.020340000000001
#
# number of rings (size 3 to 8) (size 9 to 14) (size 15 to 20)
#    0.000    0.857    4.286    2.143    8.000    3.429 
#    0.000    0.000    0.000    0.000    0.000    0.000 
#    0.000    0.000    0.000    0.000    0.000    0.000 
#
# Total GULP energy -173571.191918 kJ/mol
# GULP energy per Si atom -12397.942280 kJ/mol
# Density = 2.296794 g / cm^3
# Si number density = 23.020340 Si / 1000 Ang^3
#
#
#
# Elastic Constant Matrix: (Units=GPa)
#
#
# Indices 1 2 3 4 5 6 
#
# 1 93.3118 14.2302 28.9075 -1.8604 30.5969 -10.3816
# 2 14.2302 109.2437 29.9773 -1.2028 19.4357 -10.0103
# 3 28.9075 29.9773 127.5350 14.4919 35.1248 -7.8395
# 4 -1.8604 -1.2028 14.4919 41.6803 0.2824 10.3873
# 5 30.5969 19.4357 35.1248 0.2824 55.1662 0.3556
# 6 -10.3816 -10.0103 -7.8395 10.3873 0.3556 25.6517
#
#
#
# Elastic Compliance Matrix: (Units=1/GPa)
#
#
# Indices 1 2 3 4 5 6 
#
# 1 0.013977 0.000232 -0.000778 -0.000498 -0.007373 0.005813
# 2 0.000232 0.010381 -0.001453 -0.000108 -0.002885 0.003785
# 3 -0.000778 -0.001453 0.010838 -0.004928 -0.005961 0.004508
# 4 -0.000498 -0.000108 -0.004928 0.029035 0.003391 -0.013554
# 5 -0.007373 -0.002885 -0.005961 0.003391 0.027060 -0.007679
# 6 0.005813 0.003785 0.004508 -0.013554 -0.007679 0.049786
#
#
# Mechanical properties :
#
#
# Convention : Reuss Voigt Hill
#
# Bulk Modulus (GPa) = 32.05433 52.92450 42.48942
# Shear Modulus (GPa) = 32.15949 41.63135 36.89542
#
# Velocity S-wave (km/s) = 3.74171 4.25721 4.00776
# Velocity P-wave (km/s) = 5.71154 6.87062 6.31772
#
# Compressibility (1/GPa) = 0.03119703
#
# Stress axis : x y z
#
# Youngs Moduli (GPa) = 71.54644 96.32759 92.27067
#
# Poissons Ratio (x) = -0.02233 0.07178
# Poissons Ratio (y) = -0.01659 0.13409
# Poissons Ratio (z) = 0.05566 0.13999
#
# Static dielectric constant tensor:
#      x y z
#    x 4.465030 -0.392020 0.525720 
#    y -0.392020 3.946340 0.153890 
#    z 0.525720 0.153890 3.900810 
# 
# 
# High freq. dielectric constant tensor:
#      x y z
#    x 1.918430 -0.004180 0.019360 
#    y -0.004180 1.907600 0.005400 
#    z 0.019360 0.005400 1.919740 
# 
# From -- ./inp_files/107449.got.cif
#   From: 2010.06.25/outbox.cif.g09.slc.cpg/sg2_54_cif.got.tgz:107449.got - 2010.06.27 13:26:56.
