data_PCOD8030794
_publ_section_title
;
Structure prediction by ZEFSAII (Michael W. Deem and Ramdas Pophale) SiO2 
 PCOD8030794
Probable space group: P -1
;
_chemical_formula_sum "Si O2"
_cell_formula_units_Z 16
_cell_length_a 11.189592
_cell_length_b 8.811044
_cell_length_c 12.434433
_cell_angle_alpha 54.555247
_cell_angle_beta 130.208559
_cell_angle_gamma 112.490008
_cell_volume 762.671283
_symmetry_space_group_name_H-M "P -1"
_symmetry_group_IT_number 2
_symmetry_cell_setting 'triclinic'
loop_
_space_group_symop_operation_xyz
x,y,z
-x,-y,-z
loop_
_atom_site_type_symbol
_atom_site_label
_atom_site_fract_x
_atom_site_fract_y
_atom_site_fract_z
Si Si1 0.686438 0.533969 0.307914
Si Si2 0.839793 0.505940 0.191521
Si Si3 0.862579 0.884139 0.771317
Si Si4 0.681071 0.967345 0.103486
Si Si5 0.146628 0.705982 0.321200
Si Si6 0.950029 0.134075 0.323960
Si Si7 0.182595 0.757705 0.082531
Si Si8 0.324744 0.449285 0.140778
O O1 0.742416 0.441729 0.266818
O O2 0.723787 0.752732 0.227601
O O3 0.780915 0.452335 0.496403
O O4 0.505259 0.498371 0.239502
O O5 0.951121 0.341410 0.284958
O O6 0.959127 0.675632 0.218555
O O7 0.716914 0.556562 0.006982
O O8 0.707681 0.755485 0.745018
O O9 0.918533 0.884361 0.681855
O O10 0.818833 0.091489 0.693847
O O11 0.996373 0.793006 0.961147
O O12 0.776750 0.082833 0.201441
O O13 0.500000 0.000000 0.000000
O O14 0.729906 0.049229 0.980925
O O15 0.228482 0.697243 0.254515
O O16 0.000000 0.000000 0.500000
O O17 0.221713 0.598300 0.084385
#
# Coordination Sequence:
#
# PCOD8030794 Si02
#       8
#     2   2   2   2   2   2   2   2
#     4  12  27  44  64 104 138 170 214 278 338 383
#     4  12  22  43  69  95 130 174 222 269 322 394
#     4  11  23  43  68  97 129 176 227 267 321 397
#     4  11  22  44  66  95 130 172 219 260 325 398
#     4  12  26  43  69  99 135 172 220 278 330 382
#     4  11  22  40  68  96 126 169 221 273 322 382
#     4  11  22  44  71  97 126 177 227 268 320 400
#     4  12  24  43  68  96 133 174 222 270 326 394
#
# _framework density 20.978895000000001
#
# number of rings (size 3 to 8) (size 9 to 14) (size 15 to 20)
#    0.000    0.500    5.000    5.250    1.750    1.000 
#    2.250    0.000    0.000    0.000    0.000    0.000 
#    0.000    0.000    0.000    0.000    0.000    0.000 
#
# Total GULP energy -198459.505740 kJ/mol
# GULP energy per Si atom -12403.719109 kJ/mol
# Density = 2.093115 g / cm^3
# Si number density = 20.978895 Si / 1000 Ang^3
#
#
#
# Elastic Constant Matrix: (Units=GPa)
#
#
# Indices 1 2 3 4 5 6 
#
# 1 92.4600 33.4259 45.2634 1.5158 -20.5743 9.4422
# 2 33.4259 113.0915 25.9919 -18.7506 -11.5692 7.9898
# 3 45.2634 25.9919 115.8617 -6.7158 -32.5657 -6.3914
# 4 1.5158 -18.7506 -6.7158 20.3557 0.9589 -1.7024
# 5 -20.5743 -11.5692 -32.5657 0.9589 37.9554 2.8826
# 6 9.4422 7.9898 -6.3914 -1.7024 2.8826 34.2450
#
#
#
# Elastic Compliance Matrix: (Units=1/GPa)
#
#
# Indices 1 2 3 4 5 6 
#
# 1 0.016272 -0.004095 -0.005079 -0.007270 0.003790 -0.005159
# 2 -0.004095 0.012183 -0.000241 0.011288 0.001100 -0.001290
# 3 -0.005079 -0.000241 0.013470 0.004499 0.008352 0.003491
# 4 -0.007270 0.011288 0.004499 0.061740 0.001561 0.003148
# 5 0.003790 0.001100 0.008352 0.001561 0.036068 -0.002701
# 6 -0.005159 -0.001290 0.003491 0.003148 -0.002701 0.031960
#
#
# Mechanical properties :
#
#
# Convention : Reuss Voigt Hill
#
# Bulk Modulus (GPa) = 43.29930 58.97507 51.13719
# Shear Modulus (GPa) = 25.22426 32.96002 29.09214
#
# Velocity S-wave (km/s) = 3.47127 3.96802 3.72793
# Velocity P-wave (km/s) = 6.06223 7.01186 6.55426
#
# Compressibility (1/GPa) = 0.02309506
#
# Stress axis : x y z
#
# Youngs Moduli (GPa) = 61.45643 82.07866 74.23862
#
# Poissons Ratio (x) = 0.33612 0.37705
# Poissons Ratio (y) = 0.25167 0.01790
# Poissons Ratio (z) = 0.31213 0.01979
#
# Static dielectric constant tensor:
#      x y z
#    x 3.816420 0.074430 -0.238880 
#    y 0.074430 3.917380 -0.072260 
#    z -0.238880 -0.072260 3.785370 
# 
# 
# High freq. dielectric constant tensor:
#      x y z
#    x 1.825570 0.004660 -0.018110 
#    y 0.004660 1.831720 -0.008280 
#    z -0.018110 -0.008280 1.816860 
# 
# From -- ./inp_files/419230.got.cif
#   From: 2010.06.25/outbox.cif.g09.slc.cpg/sg2_210_cif.got.tgz:419230.got - 2010.06.27 13:26:56.
