data_PCOD8030091
_publ_section_title
;
Structure prediction by ZEFSAII (Michael W. Deem and Ramdas Pophale) SiO2 
 PCOD8030091
Probable space group: P -1
;
_chemical_formula_sum "Si O2"
_cell_formula_units_Z 16
_cell_length_a 9.019613
_cell_length_b 24.053229
_cell_length_c 8.774676
_cell_angle_alpha 52.389366
_cell_angle_beta 129.253426
_cell_angle_gamma 150.179666
_cell_volume 723.697099
_symmetry_space_group_name_H-M "P -1"
_symmetry_group_IT_number 2
_symmetry_cell_setting 'triclinic'
loop_
_space_group_symop_operation_xyz
x,y,z
-x,-y,-z
loop_
_atom_site_type_symbol
_atom_site_label
_atom_site_fract_x
_atom_site_fract_y
_atom_site_fract_z
Si Si1 0.140739 0.950748 0.566646
Si Si2 0.563876 0.293423 0.997240
Si Si3 0.922984 0.513191 0.195480
Si Si4 0.351667 0.896253 0.976252
Si Si5 0.558581 0.821258 0.583098
Si Si6 0.707295 0.662946 0.083538
Si Si7 0.777811 0.897660 0.141246
Si Si8 0.996976 0.608014 0.397548
O O1 0.286679 0.915045 0.738568
O O2 0.896553 0.888154 0.652602
O O3 0.978482 0.909620 0.367750
O O4 0.412932 0.086642 0.534766
O O5 0.571127 0.247956 0.228490
O O6 0.360501 0.304496 0.874866
O O7 0.437403 0.216936 0.897228
O O8 0.911236 0.415313 0.972698
O O9 0.057998 0.476168 0.393863
O O10 0.991340 0.587611 0.249607
O O11 0.558078 0.403999 0.105806
O O12 0.588555 0.900869 0.106625
O O13 0.034328 0.774860 0.036216
O O14 0.500000 0.000000 0.000000
O O15 0.328408 0.737529 0.435501
O O16 0.728098 0.588706 0.283235
O O17 0.000000 0.000000 0.000000
#
# Coordination Sequence:
#
# PCOD8030091 Si02
#       8
#     2   2   2   2   2   2   2   2
#     4  11  22  42  70  96 135 185 224 269 341 416
#     4  12  24  45  66 100 143 176 219 296 337 390
#     4  11  25  45  69  96 139 174 229 286 338 394
#     4  12  24  43  74 104 133 181 231 277 336 415
#     4  11  21  42  68  97 135 178 224 277 342 401
#     4  12  24  44  71  99 133 178 230 275 339 409
#     4  12  26  45  67 103 142 175 223 288 340 396
#     4  11  24  44  70  96 127 182 234 272 338 415
#
# _framework density 22.108696999999999
#
# number of rings (size 3 to 8) (size 9 to 14) (size 15 to 20)
#    0.000    0.500    3.750    6.000    0.000    2.000 
#    2.250    0.000    0.000    0.000    0.000    0.000 
#    0.000    0.000    0.000    0.000    0.000    0.000 
#
# Total GULP energy -198426.077181 kJ/mol
# GULP energy per Si atom -12401.629824 kJ/mol
# Density = 2.205838 g / cm^3
# Si number density = 22.108697 Si / 1000 Ang^3
#
#
#
# Elastic Constant Matrix: (Units=GPa)
#
#
# Indices 1 2 3 4 5 6 
#
# 1 96.5812 50.1815 31.1037 -0.0683 4.1460 -12.1815
# 2 50.1815 116.6890 32.6919 8.5816 -13.5805 -4.8637
# 3 31.1037 32.6919 114.1327 1.2175 6.1257 0.1494
# 4 -0.0683 8.5816 1.2175 35.2838 2.2462 -12.1912
# 5 4.1460 -13.5805 6.1257 2.2462 40.9074 -7.4139
# 6 -12.1815 -4.8637 0.1494 -12.1912 -7.4139 43.7314
#
#
#
# Elastic Compliance Matrix: (Units=1/GPa)
#
#
# Indices 1 2 3 4 5 6 
#
# 1 0.014864 -0.006163 -0.002179 0.003113 -0.002695 0.003873
# 2 -0.006163 0.012694 -0.002203 -0.003489 0.005293 -0.000373
# 3 -0.002179 -0.002203 0.010111 -0.000124 -0.002254 -0.001303
# 4 0.003113 -0.003489 -0.000124 0.032505 -0.001559 0.009277
# 5 -0.002695 0.005293 -0.002254 -0.001559 0.027641 0.004097
# 6 0.003873 -0.000373 -0.001303 0.009277 0.004097 0.027190
#
#
# Mechanical properties :
#
#
# Convention : Reuss Voigt Hill
#
# Bulk Modulus (GPa) = 60.31683 61.70636 61.01160
# Shear Modulus (GPa) = 32.97673 38.21291 35.59482
#
# Velocity S-wave (km/s) = 3.86628 4.16193 4.01682
# Velocity P-wave (km/s) = 6.87546 7.14609 7.01208
#
# Compressibility (1/GPa) = 0.01657912
#
# Stress axis : x y z
#
# Youngs Moduli (GPa) = 67.27501 78.77502 98.90592
#
# Poissons Ratio (x) = 0.48549 0.21554
# Poissons Ratio (y) = 0.41461 0.21789
# Poissons Ratio (z) = 0.14661 0.17354
#
# Static dielectric constant tensor:
#      x y z
#    x 4.817790 -0.848040 0.285160 
#    y -0.848040 4.721430 -0.153130 
#    z 0.285160 -0.153130 4.236810 
# 
# 
# High freq. dielectric constant tensor:
#      x y z
#    x 1.852880 -0.011480 0.003840 
#    y -0.011480 1.886820 -0.004950 
#    z 0.003840 -0.004950 1.884100 
# 
# From -- ./inp_files/226208.got.cif
#   From: 2010.06.25/outbox.cif.g09.slc.cpg/sg2_114_cif.got.tgz:226208.got - 2010.06.27 13:26:56.
