data_PCOD8030705
_publ_section_title
;
Structure prediction by ZEFSAII (Michael W. Deem and Ramdas Pophale) SiO2 
 PCOD8030705
Probable space group: P -1
;
_chemical_formula_sum "Si O2"
_cell_formula_units_Z 16
_cell_length_a 11.935325
_cell_length_b 17.691264
_cell_length_c 9.293370
_cell_angle_alpha 62.211288
_cell_angle_beta 128.135105
_cell_angle_gamma 151.022325
_cell_volume 733.525967
_symmetry_space_group_name_H-M "P -1"
_symmetry_group_IT_number 2
_symmetry_cell_setting 'triclinic'
loop_
_space_group_symop_operation_xyz
x,y,z
-x,-y,-z
loop_
_atom_site_type_symbol
_atom_site_label
_atom_site_fract_x
_atom_site_fract_y
_atom_site_fract_z
Si Si1 0.676617 0.279788 0.814237
Si Si2 0.110502 0.988453 0.211401
Si Si3 0.685570 0.126650 0.760671
Si Si4 0.223477 0.313876 0.118226
Si Si5 0.755415 0.366825 0.108513
Si Si6 0.358532 0.831736 0.611914
Si Si7 0.774782 0.851355 0.559525
Si Si8 0.584955 0.649500 0.064513
O O1 0.597610 0.150476 0.791286
O O2 0.510843 0.275521 0.624781
O O3 0.986458 0.449257 0.886021
O O4 0.625909 0.253351 0.968703
O O5 0.874866 0.802614 0.232245
O O6 0.344906 0.053322 0.271875
O O7 0.216090 0.089795 0.342388
O O8 0.000000 0.000000 0.000000
O O9 0.785348 0.221482 0.606565
O O10 0.412752 0.940296 0.663754
O O11 0.923004 0.188100 0.953146
O O12 0.205000 0.239260 0.304998
O O13 0.402219 0.487238 0.145601
O O14 0.376033 0.347912 0.076057
O O15 0.829131 0.331178 0.313876
O O16 0.545503 0.323733 0.051065
O O17 0.000000 0.000000 0.500000
#
# Coordination Sequence:
#
# PCOD8030705 Si02
#       8
#     2   2   2   2   2   2   2   2
#     4  11  26  45  65  99 138 177 231 264 346 418
#     4  12  20  40  68 100 132 174 230 278 327 400
#     4  11  23  44  66 101 134 168 227 286 334 400
#     4  11  24  43  68 104 136 173 226 289 340 397
#     4  11  24  45  68  96 139 186 219 282 336 406
#     4  11  23  40  69 100 133 174 228 284 334 396
#     4  12  26  46  69 100 134 184 228 274 340 419
#     4  11  22  39  72  97 135 179 223 279 344 386
#
# _framework density 21.812450999999999
#
# number of rings (size 3 to 8) (size 9 to 14) (size 15 to 20)
#    0.000    0.750    6.250    0.750    1.750    3.000 
#    0.000    2.500    0.000    0.000    0.000    0.000 
#    0.000    0.000    0.000    0.000    0.000    0.000 
#
# Total GULP energy -198362.976431 kJ/mol
# GULP energy per Si atom -12397.686027 kJ/mol
# Density = 2.176280 g / cm^3
# Si number density = 21.812451 Si / 1000 Ang^3
#
#
#
# Elastic Constant Matrix: (Units=GPa)
#
#
# Indices 1 2 3 4 5 6 
#
# 1 90.2170 7.9644 28.4408 -6.2770 4.0624 -13.1840
# 2 7.9644 66.5443 12.0817 -16.3354 -2.2957 -9.2243
# 3 28.4408 12.0817 103.8847 -13.2699 10.4804 2.9534
# 4 -6.2770 -16.3354 -13.2699 41.9846 -0.2665 2.8941
# 5 4.0624 -2.2957 10.4804 -0.2665 20.7382 6.7940
# 6 -13.1840 -9.2243 2.9534 2.8941 6.7940 30.1860
#
#
#
# Elastic Compliance Matrix: (Units=1/GPa)
#
#
# Indices 1 2 3 4 5 6 
#
# 1 0.013348 -0.000030 -0.003483 0.000393 -0.003086 0.006818
# 2 -0.000030 0.017462 -0.001515 0.006001 0.001272 0.004610
# 3 -0.003483 -0.001515 0.011627 0.002698 -0.004555 -0.002355
# 4 0.000393 0.006001 0.002698 0.027120 -0.000158 -0.000823
# 5 -0.003086 0.001272 -0.004555 -0.000158 0.055523 -0.012995
# 6 0.006818 0.004610 -0.002355 -0.000823 -0.012995 0.040749
#
#
# Mechanical properties :
#
#
# Convention : Reuss Voigt Hill
#
# Bulk Modulus (GPa) = 30.88285 39.73554 35.30920
# Shear Modulus (GPa) = 26.78388 32.72568 29.75478
#
# Velocity S-wave (km/s) = 3.50797 3.87760 3.69741
# Velocity P-wave (km/s) = 5.53144 6.18904 5.86946
#
# Compressibility (1/GPa) = 0.03238043
#
# Stress axis : x y z
#
# Youngs Moduli (GPa) = 74.91876 57.26601 86.00684
#
# Poissons Ratio (x) = 0.00171 0.29956
# Poissons Ratio (y) = 0.00224 0.13034
# Poissons Ratio (z) = 0.26094 0.08678
#
# Static dielectric constant tensor:
#      x y z
#    x 4.000660 -0.199380 0.131370 
#    y -0.199380 4.109730 -0.121110 
#    z 0.131370 -0.121110 3.567310 
# 
# 
# High freq. dielectric constant tensor:
#      x y z
#    x 1.861070 -0.010990 0.005510 
#    y -0.010990 1.855670 0.002960 
#    z 0.005510 0.002960 1.851760 
# 
# From -- ./inp_files/279253.got.cif
#   From: 2010.06.25/outbox.cif.g09.slc.cpg/sg2_140_cif.got.tgz:279253.got - 2010.06.27 13:26:56.
