data_PCOD8030063
_publ_section_title
;
Structure prediction by ZEFSAII (Michael W. Deem and Ramdas Pophale) SiO2 
 PCOD8030063
Probable space group: P -1
;
_chemical_formula_sum "Si O2"
_cell_formula_units_Z 14
_cell_length_a 17.474101
_cell_length_b 17.312510
_cell_length_c 11.176755
_cell_angle_alpha 146.345442
_cell_angle_beta 31.171922
_cell_angle_gamma 156.760847
_cell_volume 672.653248
_symmetry_space_group_name_H-M "P -1"
_symmetry_group_IT_number 2
_symmetry_cell_setting 'triclinic'
loop_
_space_group_symop_operation_xyz
x,y,z
-x,-y,-z
loop_
_atom_site_type_symbol
_atom_site_label
_atom_site_fract_x
_atom_site_fract_y
_atom_site_fract_z
Si Si1 0.790705 0.952051 0.916370
Si Si2 0.938018 0.036202 0.249944
Si Si3 0.501839 0.339110 0.278691
Si Si4 0.070264 0.417031 0.117580
Si Si5 0.169207 0.467317 0.471452
Si Si6 0.482362 0.339449 0.571872
Si Si7 0.393655 0.590188 0.094499
O O1 0.695373 0.841481 0.773296
O O2 0.945242 0.944087 0.762018
O O3 0.588766 0.830887 0.121432
O O4 0.921528 0.180257 0.010554
O O5 0.980279 0.227805 0.421262
O O6 0.687590 0.851697 0.363459
O O7 0.000000 0.000000 0.000000
O O8 0.500000 0.500000 0.500000
O O9 0.460875 0.258851 0.364756
O O10 0.735277 0.450381 0.065749
O O11 0.174217 0.501745 0.219131
O O12 0.917728 0.441367 0.326057
O O13 0.285022 0.546640 0.546384
O O14 0.349417 0.538649 0.226943
O O15 0.452506 0.487416 0.811719
#
# Coordination Sequence:
#
# PCOD8030063 Si02
#       7
#     2   2   2   2   2   2   2
#     4  11  22  40  68  93 123 173 218 253 314 379
#     4  12  22  39  68  97 125 170 216 255 318 382
#     4  11  22  43  66  91 128 165 224 262 299 386
#     4  11  25  42  64  98 128 169 208 261 328 372
#     4  12  25  41  64  97 138 159 204 277 322 366
#     4  12  23  40  66  97 123 168 216 264 307 376
#     4  11  21  42  66  94 128 164 215 259 312 384
#
# _framework density 20.813102000000001
#
# number of rings (size 3 to 8) (size 9 to 14) (size 15 to 20)
#    0.000    0.571    7.143    1.714    0.000    6.857 
#    0.000    1.429    0.000    0.000    0.000    0.000 
#    0.000    0.000    0.000    0.000    0.000    0.000 
#
# Total GULP energy -173555.394789 kJ/mol
# GULP energy per Si atom -12396.813913 kJ/mol
# Density = 2.076573 g / cm^3
# Si number density = 20.813102 Si / 1000 Ang^3
#
#
#
# Elastic Constant Matrix: (Units=GPa)
#
#
# Indices 1 2 3 4 5 6 
#
# 1 89.2338 11.5099 25.2593 2.5714 -1.0084 3.2187
# 2 11.5099 111.5907 18.7329 1.8923 1.5080 -5.0589
# 3 25.2593 18.7329 53.8015 -0.5856 -4.6774 -5.3646
# 4 2.5714 1.8923 -0.5856 21.4489 -5.3937 -0.7637
# 5 -1.0084 1.5080 -4.6774 -5.3937 41.0368 -5.8752
# 6 3.2187 -5.0589 -5.3646 -0.7637 -5.8752 35.6323
#
#
#
# Elastic Compliance Matrix: (Units=1/GPa)
#
#
# Indices 1 2 3 4 5 6 
#
# 1 0.013207 -0.000343 -0.006434 -0.002070 -0.001015 -0.002422
# 2 -0.000343 0.009593 -0.003179 -0.001054 -0.000752 0.000768
# 3 -0.006434 -0.003179 0.023490 0.002757 0.003617 0.004322
# 4 -0.002070 -0.001054 0.002757 0.048923 0.007115 0.002674
# 5 -0.001015 -0.000752 0.003617 0.007115 0.026440 0.005042
# 6 -0.002422 0.000768 0.004322 0.002674 0.005042 0.029931
#
#
# Mechanical properties :
#
#
# Convention : Reuss Voigt Hill
#
# Bulk Modulus (GPa) = 37.91015 40.62557 39.26786
# Shear Modulus (GPa) = 27.73298 32.89853 30.31576
#
# Velocity S-wave (km/s) = 3.65427 3.98007 3.82065
# Velocity P-wave (km/s) = 6.00492 6.37831 6.19443
#
# Compressibility (1/GPa) = 0.02637816
#
# Stress axis : x y z
#
# Youngs Moduli (GPa) = 75.71467 104.23961 42.57171
#
# Poissons Ratio (x) = 0.03578 0.27389
# Poissons Ratio (y) = 0.02599 0.13535
# Poissons Ratio (z) = 0.48712 0.33142
#
# Static dielectric constant tensor:
#      x y z
#    x 5.035710 -0.439720 1.034000 
#    y -0.439720 5.904650 -0.717780 
#    z 1.034000 -0.717780 4.233660 
# 
# 
# High freq. dielectric constant tensor:
#      x y z
#    x 1.831210 0.002560 0.010540 
#    y 0.002560 1.834170 -0.005230 
#    z 0.010540 -0.005230 1.779160 
# 
# From -- ./inp_files/78764.got.cif
#   From: 2010.06.25/outbox.cif.g09.slc.cpg/sg2_40_cif.got.tgz:78764.got - 2010.06.27 13:26:56.
