data_PCOD8030909
_publ_section_title
;
Structure prediction by ZEFSAII (Michael W. Deem and Ramdas Pophale) SiO2 
 PCOD8030909
Probable space group: P -1
;
_chemical_formula_sum "Si O2"
_cell_formula_units_Z 16
_cell_length_a 15.888960
_cell_length_b 11.994604
_cell_length_c 9.698186
_cell_angle_alpha 63.782431
_cell_angle_beta 117.673697
_cell_angle_gamma 154.069753
_cell_volume 714.375277
_symmetry_space_group_name_H-M "P -1"
_symmetry_group_IT_number 2
_symmetry_cell_setting 'triclinic'
loop_
_space_group_symop_operation_xyz
x,y,z
-x,-y,-z
loop_
_atom_site_type_symbol
_atom_site_label
_atom_site_fract_x
_atom_site_fract_y
_atom_site_fract_z
Si Si1 0.032144 0.947311 0.175599
Si Si2 0.883589 0.534085 0.683058
Si Si3 0.304535 0.568697 0.678306
Si Si4 0.063209 0.151685 0.336022
Si Si5 0.505467 0.387011 0.661270
Si Si6 0.452300 0.006571 0.154576
Si Si7 0.529507 0.577188 0.822939
Si Si8 0.713011 0.098408 0.188643
O O1 0.871224 0.654573 0.223086
O O2 0.972095 0.969904 0.242746
O O3 0.249733 0.140727 0.218573
O O4 0.000000 0.000000 0.000000
O O5 0.791890 0.468548 0.502234
O O6 0.999038 0.778300 0.716516
O O7 0.711761 0.281213 0.779532
O O8 0.054942 0.627214 0.756217
O O9 0.402758 0.554046 0.705901
O O10 0.477134 0.839769 0.739372
O O11 0.285013 0.429048 0.309997
O O12 0.000000 0.000000 0.500000
O O13 0.500000 0.500000 0.500000
O O14 0.458597 0.379996 0.784725
O O15 0.358463 0.106250 0.670309
O O16 0.636924 0.141534 0.165867
O O17 0.362753 0.997415 0.975893
O O18 0.500000 0.500000 0.000000
#
# Coordination Sequence:
#
# PCOD8030909 Si02
#       8
#     2   2   2   2   2   2   2   2
#     4  11  25  39  67 106 145 191 234 291 361 430
#     4  12  25  45  73 102 135 189 244 298 354 421
#     4  12  26  44  71 104 148 187 236 296 362 428
#     4  11  22  41  67 102 144 177 234 294 353 424
#     4  11  23  40  69 104 139 178 231 296 354 415
#     4  11  27  49  68 100 143 191 241 290 355 432
#     4  11  24  42  66 101 149 189 227 287 364 425
#     4  11  26  45  73 101 137 190 244 292 353 426
#
# _framework density 22.397193000000001
#
# number of rings (size 3 to 8) (size 9 to 14) (size 15 to 20)
#    0.000    0.750    3.750    3.000    5.250    2.500 
#    0.000    0.000    0.000    0.000    0.000    0.000 
#    0.000    0.000    0.000    0.000    0.000    0.000 
#
# Total GULP energy -198224.981164 kJ/mol
# GULP energy per Si atom -12389.061323 kJ/mol
# Density = 2.234622 g / cm^3
# Si number density = 22.397193 Si / 1000 Ang^3
#
#
#
# Elastic Constant Matrix: (Units=GPa)
#
#
# Indices 1 2 3 4 5 6 
#
# 1 83.3896 39.1132 37.9909 3.0694 1.8025 19.3472
# 2 39.1132 84.6360 27.6856 0.4921 3.1563 -4.0040
# 3 37.9909 27.6856 126.7940 -2.5405 0.4928 10.6456
# 4 3.0694 0.4921 -2.5405 37.3339 4.4295 11.3494
# 5 1.8025 3.1563 0.4928 4.4295 41.7136 4.6500
# 6 19.3472 -4.0040 10.6456 11.3494 4.6500 24.2627
#
#
#
# Elastic Compliance Matrix: (Units=1/GPa)
#
#
# Indices 1 2 3 4 5 6 
#
# 1 0.023093 -0.010909 -0.002657 0.004369 0.001784 -0.021434
# 2 -0.010909 0.018323 -0.002038 -0.003718 -0.002142 0.014767
# 3 -0.002657 -0.002038 0.009440 0.001848 0.000328 -0.003287
# 4 0.004369 -0.003718 0.001848 0.032833 -0.001182 -0.020040
# 5 0.001784 -0.002142 0.000328 -0.001182 0.024863 -0.006132
# 6 -0.021434 0.014767 -0.003287 -0.020040 -0.006132 0.072736
#
#
# Mechanical properties :
#
#
# Convention : Reuss Voigt Hill
#
# Bulk Modulus (GPa) = 50.89694 56.04431 53.47062
# Shear Modulus (GPa) = 22.82633 33.33070 28.07852
#
# Velocity S-wave (km/s) = 3.19589 3.86186 3.54455
# Velocity P-wave (km/s) = 6.03261 6.70541 6.37789
#
# Compressibility (1/GPa) = 0.01964755
#
# Stress axis : x y z
#
# Youngs Moduli (GPa) = 43.30395 54.57481 105.93534
#
# Poissons Ratio (x) = 0.59534 0.28147
# Poissons Ratio (y) = 0.47239 0.21594
# Poissons Ratio (z) = 0.11506 0.11125
#
# Static dielectric constant tensor:
#      x y z
#    x 4.245760 0.115670 -0.079400 
#    y 0.115670 3.982860 -0.049280 
#    z -0.079400 -0.049280 4.121530 
# 
# 
# High freq. dielectric constant tensor:
#      x y z
#    x 1.885980 0.014040 -0.002280 
#    y 0.014040 1.892390 -0.010030 
#    z -0.002280 -0.010030 1.883670 
# 
# From -- ./inp_files/307135.got.cif
#   From: 2010.06.25/outbox.cif.g09.slc.cpg/sg2_154_cif.got.tgz:307135.got - 2010.06.27 13:26:56.
