data_PCOD8030893
_publ_section_title
;
Structure prediction by ZEFSAII (Michael W. Deem and Ramdas Pophale) SiO2 
 PCOD8030893
Probable space group: P -1
;
_chemical_formula_sum "Si O2"
_cell_formula_units_Z 16
_cell_length_a 22.246690
_cell_length_b 11.611029
_cell_length_c 10.896937
_cell_angle_alpha 40.508699
_cell_angle_beta 135.940000
_cell_angle_gamma 155.917162
_cell_volume 742.885987
_symmetry_space_group_name_H-M "P -1"
_symmetry_group_IT_number 2
_symmetry_cell_setting 'triclinic'
loop_
_space_group_symop_operation_xyz
x,y,z
-x,-y,-z
loop_
_atom_site_type_symbol
_atom_site_label
_atom_site_fract_x
_atom_site_fract_y
_atom_site_fract_z
Si Si1 0.395205 0.478025 0.555935
Si Si2 0.113234 0.467522 0.572934
Si Si3 0.839904 0.507962 0.959806
Si Si4 0.092329 0.093389 0.448367
Si Si5 0.558928 0.095746 0.368033
Si Si6 0.436063 0.162765 0.943700
Si Si7 0.326986 0.456101 0.203633
Si Si8 0.925383 0.184714 0.761965
O O1 0.242959 0.255665 0.585743
O O2 0.465275 0.423531 0.769433
O O3 0.359589 0.396637 0.423658
O O4 0.501140 0.822650 0.440309
O O5 0.264027 0.619113 0.628389
O O6 0.125907 0.698747 0.396740
O O7 0.053669 0.340116 0.727405
O O8 0.986130 0.177129 0.535894
O O9 0.864814 0.648441 0.756389
O O10 0.752206 0.491313 0.933866
O O11 0.001849 0.733325 0.066309
O O12 0.738715 0.166077 0.064476
O O13 0.000000 0.000000 0.500000
O O14 0.500000 0.000000 0.500000
O O15 0.496132 0.168954 0.150875
O O16 0.524057 0.237529 0.894549
O O17 0.224463 0.171069 0.192946
#
# Coordination Sequence:
#
# PCOD8030893 Si02
#       8
#     2   2   2   2   2   2   2   2
#     4  11  24  46  66 101 131 172 231 273 335 403
#     4  11  24  41  68  94 135 174 215 285 337 390
#     4  11  23  39  65 101 131 172 228 265 336 403
#     4  11  23  46  67  92 135 180 223 280 329 395
#     4  12  27  48  67  95 137 181 232 275 334 404
#     4  12  25  42  70  98 132 181 216 282 336 397
#     4  11  22  41  66 100 141 169 217 276 343 407
#     4  11  23  41  65 105 132 166 224 275 347 402
#
# _framework density 21.537624999999998
#
# number of rings (size 3 to 8) (size 9 to 14) (size 15 to 20)
#    0.000    0.750    5.000    4.125    5.250    0.500 
#    2.250    1.250    0.000    0.000    0.000    0.000 
#    0.000    0.000    0.000    0.000    0.000    0.000 
#
# Total GULP energy -198266.011686 kJ/mol
# GULP energy per Si atom -12391.625730 kJ/mol
# Density = 2.148860 g / cm^3
# Si number density = 21.537625 Si / 1000 Ang^3
#
#
#
# Elastic Constant Matrix: (Units=GPa)
#
#
# Indices 1 2 3 4 5 6 
#
# 1 71.3222 7.2560 4.2932 10.2150 -22.1288 14.1793
# 2 7.2560 86.7115 9.7452 -1.4258 -8.5401 6.8273
# 3 4.2932 9.7452 334.6898 -42.7447 84.7800 46.9636
# 4 10.2150 -1.4258 -42.7447 39.5540 -16.1158 -9.9781
# 5 -22.1288 -8.5401 84.7800 -16.1158 44.9663 14.0008
# 6 14.1793 6.8273 46.9636 -9.9781 14.0008 33.8944
#
#
#
# Elastic Compliance Matrix: (Units=1/GPa)
#
#
# Indices 1 2 3 4 5 6 
#
# 1 0.027103 0.002398 -0.005922 -0.006180 0.028043 -0.017018
# 2 0.002398 0.012770 -0.001990 0.000160 0.008784 -0.004400
# 3 -0.005922 -0.001990 0.007790 0.002978 -0.016893 -0.000060
# 4 -0.006180 0.000160 0.002978 0.032265 0.000540 0.007703
# 5 0.028043 0.008784 -0.016893 0.000540 0.076451 -0.021514
# 6 -0.017018 -0.004400 -0.000060 0.007703 -0.021514 0.048747
#
#
# Mechanical properties :
#
#
# Convention : Reuss Voigt Hill
#
# Bulk Modulus (GPa) = 27.29757 59.47916 43.38836
# Shear Modulus (GPa) = 21.89477 55.11155 38.50316
#
# Velocity S-wave (km/s) = 3.19185 5.06400 4.23273
# Velocity P-wave (km/s) = 5.12696 7.86565 6.63906
#
# Compressibility (1/GPa) = 0.03663330
#
# Stress axis : x y z
#
# Youngs Moduli (GPa) = 36.89657 78.31052 128.37401
#
# Poissons Ratio (x) = -0.18778 0.76028
# Poissons Ratio (y) = -0.08847 0.25546
# Poissons Ratio (z) = 0.21852 0.15584
#
# Static dielectric constant tensor:
#      x y z
#    x 3.390170 0.480450 0.406090 
#    y 0.480450 3.851440 -0.264210 
#    z 0.406090 -0.264210 3.563360 
# 
# 
# High freq. dielectric constant tensor:
#      x y z
#    x 1.830630 0.011060 0.007040 
#    y 0.011060 1.861740 -0.005420 
#    z 0.007040 -0.005420 1.845650 
# 
# From -- ./inp_files/418407.got.cif
#   From: 2010.06.25/outbox.cif.g09.slc.cpg/sg2_210_cif.got.tgz:418407.got - 2010.06.27 13:26:56.
