data_PCOD8030126
_publ_section_title
;
Structure prediction by ZEFSAII (Michael W. Deem and Ramdas Pophale) SiO2 
 PCOD8030126
Probable space group: P -1
;
_chemical_formula_sum "Si O2"
_cell_formula_units_Z 16
_cell_length_a 11.156667
_cell_length_b 6.273836
_cell_length_c 10.966872
_cell_angle_alpha 88.041260
_cell_angle_beta 101.197795
_cell_angle_gamma 111.806055
_cell_volume 698.525547
_symmetry_space_group_name_H-M "P -1"
_symmetry_group_IT_number 2
_symmetry_cell_setting 'triclinic'
loop_
_space_group_symop_operation_xyz
x,y,z
-x,-y,-z
loop_
_atom_site_type_symbol
_atom_site_label
_atom_site_fract_x
_atom_site_fract_y
_atom_site_fract_z
Si Si1 0.515287 0.688211 0.101593
Si Si2 0.334911 0.058548 0.263142
Si Si3 0.282263 0.345061 0.448558
Si Si4 0.872906 0.370852 0.643196
Si Si5 0.397594 0.600321 0.692928
Si Si6 0.881679 0.073316 0.441266
Si Si7 0.853578 0.358366 0.225761
Si Si8 0.302307 0.885596 0.011318
O O1 0.552079 0.589754 0.234891
O O2 0.623756 0.933532 0.081888
O O3 0.500000 0.500000 0.000000
O O4 0.380654 0.735212 0.087547
O O5 0.332153 0.281103 0.331546
O O6 0.494042 0.137259 0.274459
O O7 0.257437 0.823446 0.322772
O O8 0.268891 0.021763 0.115571
O O9 0.153908 0.395943 0.382322
O O10 0.381272 0.557466 0.543291
O O11 0.249530 0.134497 0.540236
O O12 0.897683 0.301157 0.514676
O O13 0.006942 0.423836 0.746622
O O14 0.262447 0.581699 0.733017
O O15 0.871509 0.138758 0.298112
O O16 0.000000 0.000000 0.500000
O O17 0.824285 0.295430 0.078695
#
# Coordination Sequence:
#
# PCOD8030126 Si02
#       8
#     2   2   2   2   2   2   2   2
#     4  11  21  43  69 101 136 173 219 293 337 381
#     4  11  27  44  64  99 144 184 216 273 336 410
#     4  11  24  44  66 100 137 183 220 276 342 405
#     4  11  25  44  67  97 144 176 223 276 340 401
#     4  12  23  44  75 101 130 175 233 280 342 390
#     4  11  21  42  71 100 136 169 225 287 338 388
#     4  12  23  43  75 104 128 178 229 285 334 391
#     4  11  24  43  67 102 138 173 231 273 332 407
#
# _framework density 22.905391000000002
#
# number of rings (size 3 to 8) (size 9 to 14) (size 15 to 20)
#    0.000    0.750    5.000    3.000    1.750    1.000 
#    0.000    0.625    0.000    0.000    0.000    0.000 
#    0.000    0.000    0.000    0.000    0.000    0.000 
#
# Total GULP energy -198258.145479 kJ/mol
# GULP energy per Si atom -12391.134092 kJ/mol
# Density = 2.285326 g / cm^3
# Si number density = 22.905391 Si / 1000 Ang^3
#
#
#
# Elastic Constant Matrix: (Units=GPa)
#
#
# Indices 1 2 3 4 5 6 
#
# 1 77.8934 42.4310 48.9655 -2.1246 13.3770 0.9320
# 2 42.4310 91.4649 32.8279 0.3823 13.0684 9.7714
# 3 48.9655 32.8279 158.6546 26.6545 6.0048 -7.1585
# 4 -2.1246 0.3823 26.6545 47.6068 -5.3537 4.9172
# 5 13.3770 13.0684 6.0048 -5.3537 37.1224 4.4167
# 6 0.9320 9.7714 -7.1585 4.9172 4.4167 36.8819
#
#
#
# Elastic Compliance Matrix: (Units=1/GPa)
#
#
# Indices 1 2 3 4 5 6 
#
# 1 0.020922 -0.007301 -0.005396 0.003574 -0.003618 0.000315
# 2 -0.007301 0.015429 -0.001090 0.000327 -0.002113 -0.003905
# 3 -0.005396 -0.001090 0.009322 -0.005810 -0.000381 0.003055
# 4 0.003574 0.000327 -0.005810 0.025375 0.003808 -0.005144
# 5 -0.003618 -0.002113 -0.000381 0.003808 0.030016 -0.003525
# 6 0.000315 -0.003905 0.003055 -0.005144 -0.003525 0.029841
#
#
# Mechanical properties :
#
#
# Convention : Reuss Voigt Hill
#
# Bulk Modulus (GPa) = 55.25036 64.05128 59.65082
# Shear Modulus (GPa) = 30.39288 37.90812 34.15050
#
# Velocity S-wave (km/s) = 3.64660 4.07257 3.86545
# Velocity P-wave (km/s) = 6.47331 7.08086 6.78389
#
# Compressibility (1/GPa) = 0.01809943
#
# Stress axis : x y z
#
# Youngs Moduli (GPa) = 47.79638 64.81249 107.27030
#
# Poissons Ratio (x) = 0.47319 0.57881
# Poissons Ratio (y) = 0.34895 0.11696
# Poissons Ratio (z) = 0.25790 0.07067
#
# Static dielectric constant tensor:
#      x y z
#    x 0.043980 -0.950940 0.079130 
#    y -0.950940 4.056340 0.125490 
#    z 0.079130 0.125490 4.222490 
# 
# 
# High freq. dielectric constant tensor:
#      x y z
#    x 1.888620 0.003330 0.003310 
#    y 0.003330 1.907250 0.014810 
#    z 0.003310 0.014810 1.905960 
# 
# From -- ./inp_files/365038.got.cif
#   From: 2010.06.25/outbox.cif.g09.slc.cpg/sg2_183_cif.got.tgz:365038.got - 2010.06.27 13:26:56.
