data_PCOD8030660
_publ_section_title
;
Structure prediction by ZEFSAII (Michael W. Deem and Ramdas Pophale) SiO2 
 PCOD8030660
Probable space group: P -1
;
_chemical_formula_sum "Si O2"
_cell_formula_units_Z 14
_cell_length_a 20.642141
_cell_length_b 8.885203
_cell_length_c 18.417087
_cell_angle_alpha 144.518849
_cell_angle_beta 161.482413
_cell_angle_gamma 36.354434
_cell_volume 612.495831
_symmetry_space_group_name_H-M "P -1"
_symmetry_group_IT_number 2
_symmetry_cell_setting 'triclinic'
loop_
_space_group_symop_operation_xyz
x,y,z
-x,-y,-z
loop_
_atom_site_type_symbol
_atom_site_label
_atom_site_fract_x
_atom_site_fract_y
_atom_site_fract_z
Si Si1 0.355718 0.357938 0.586016
Si Si2 0.460903 0.689223 0.714364
Si Si3 0.718507 0.516732 0.278577
Si Si4 0.762183 0.722181 0.937968
Si Si5 0.074254 0.078376 0.425269
Si Si6 0.594255 0.789816 0.631900
Si Si7 0.947857 0.758827 0.893036
O O1 0.519092 0.520950 0.784488
O O2 0.321705 0.470484 0.673944
O O3 0.155495 0.421596 0.344988
O O4 0.418602 0.042305 0.526780
O O5 0.641499 0.832292 0.928209
O O6 0.439851 0.484067 0.546188
O O7 0.257670 0.909845 0.601883
O O8 0.810037 0.772944 0.452950
O O9 0.902851 0.271033 0.364956
O O10 0.500000 0.500000 0.000000
O O11 0.607560 0.756899 0.719482
O O12 0.848378 0.414153 0.923247
O O13 0.948612 0.872759 0.173911
O O14 0.800955 0.863765 0.845503
O O15 0.000000 0.000000 0.000000
#
# Coordination Sequence:
#
# PCOD8030660 Si02
#       7
#     2   2   2   2   2   2   2
#     4  11  23  44  67  98 140 177 221 281 336 396
#     4  11  23  42  65 103 139 174 223 277 335 403
#     4  11  26  49  70  95 130 180 234 284 337 395
#     4  12  23  42  68 101 137 180 225 272 332 406
#     4  11  24  45  69  97 132 169 237 280 332 400
#     4  11  22  39  66  99 143 180 222 266 332 408
#     4  11  23  39  64 104 144 175 217 270 338 403
#
# _framework density 22.857298
#
# number of rings (size 3 to 8) (size 9 to 14) (size 15 to 20)
#    0.000    0.857    2.857    6.857    2.000    0.571 
#    5.143    1.429    0.000    0.000    0.000    0.000 
#    0.000    0.000    0.000    0.000    0.000    0.000 
#
# Total GULP energy -173476.957725 kJ/mol
# GULP energy per Si atom -12391.211266 kJ/mol
# Density = 2.280527 g / cm^3
# Si number density = 22.857298 Si / 1000 Ang^3
#
#
#
# Elastic Constant Matrix: (Units=GPa)
#
#
# Indices 1 2 3 4 5 6 
#
# 1 168.0549 35.9093 41.4702 1.1937 2.9434 19.1934
# 2 35.9093 117.4485 21.0894 -16.6837 6.4792 12.1972
# 3 41.4702 21.0894 56.7209 -5.2973 13.4747 10.2081
# 4 1.1937 -16.6837 -5.2973 35.4691 5.5240 10.9686
# 5 2.9434 6.4792 13.4747 5.5240 37.2393 -0.7846
# 6 19.1934 12.1972 10.2081 10.9686 -0.7846 41.5750
#
#
#
# Elastic Compliance Matrix: (Units=1/GPa)
#
#
# Indices 1 2 3 4 5 6 
#
# 1 0.007766 -0.001611 -0.005454 -0.001728 0.001869 -0.001283
# 2 -0.001611 0.010634 -0.000877 0.006523 -0.002456 -0.003928
# 3 -0.005454 -0.000877 0.025970 0.006939 -0.009961 -0.005620
# 4 -0.001728 0.006523 0.006939 0.037833 -0.009395 -0.012978
# 5 0.001869 -0.002456 -0.009961 -0.009395 0.032244 0.005390
# 6 -0.001283 -0.003928 -0.005620 -0.012978 0.005390 0.030703
#
#
# Mechanical properties :
#
#
# Convention : Reuss Voigt Hill
#
# Bulk Modulus (GPa) = 35.10318 59.90689 47.50503
# Shear Modulus (GPa) = 29.32053 39.10704 34.21378
#
# Velocity S-wave (km/s) = 3.58546 4.14082 3.87310
# Velocity P-wave (km/s) = 5.70364 7.00912 6.38981
#
# Compressibility (1/GPa) = 0.02848745
#
# Stress axis : x y z
#
# Youngs Moduli (GPa) = 128.75862 94.03609 38.50662
#
# Poissons Ratio (x) = 0.15145 0.21002
# Poissons Ratio (y) = 0.20738 0.03376
# Poissons Ratio (z) = 0.70225 0.08245
#
# Static dielectric constant tensor:
#      x y z
#    x 4.281740 0.217390 0.547980 
#    y 0.217390 4.365620 -0.025940 
#    z 0.547980 -0.025940 4.260870 
# 
# 
# High freq. dielectric constant tensor:
#      x y z
#    x 1.908630 0.020580 0.031750 
#    y 0.020580 1.917770 -0.006250 
#    z 0.031750 -0.006250 1.882300 
# 
# From -- ./inp_files/241367.got.cif
#   From: 2010.06.25/outbox.cif.g09.slc.cpg/sg2_121_cif.got.tgz:241367.got - 2010.06.27 13:26:56.
