data_PCOD8030120
_publ_section_title
;
Structure prediction by ZEFSAII (Michael W. Deem and Ramdas Pophale) SiO2 
 PCOD8030120
Probable space group: P -1
;
_chemical_formula_sum "Si O2"
_cell_formula_units_Z 16
_cell_length_a 12.016079
_cell_length_b 11.503110
_cell_length_c 11.006241
_cell_angle_alpha 53.890278
_cell_angle_beta 117.502977
_cell_angle_gamma 74.860298
_cell_volume 728.105726
_symmetry_space_group_name_H-M "P -1"
_symmetry_group_IT_number 2
_symmetry_cell_setting 'triclinic'
loop_
_space_group_symop_operation_xyz
x,y,z
-x,-y,-z
loop_
_atom_site_type_symbol
_atom_site_label
_atom_site_fract_x
_atom_site_fract_y
_atom_site_fract_z
Si Si1 0.495929 0.663889 0.568370
Si Si2 0.850423 0.461330 0.510173
Si Si3 0.523753 0.152379 0.795665
Si Si4 0.137982 0.866414 0.366705
Si Si5 0.728856 0.195878 0.019100
Si Si6 0.573053 0.796078 0.730952
Si Si7 0.802169 0.695087 0.123207
Si Si8 0.656612 0.244951 0.229418
O O1 0.523593 0.697861 0.428197
O O2 0.273612 0.865508 0.367684
O O3 0.623509 0.642316 0.742963
O O4 0.559882 0.444920 0.744368
O O5 0.673203 0.700154 0.326898
O O6 0.817602 0.321086 0.562896
O O7 0.876742 0.500934 0.363220
O O8 0.029619 0.331547 0.769548
O O9 0.680194 0.082633 0.007989
O O10 0.604495 0.933054 0.921972
O O11 0.184135 0.830828 0.554465
O O12 0.917812 0.092517 0.112353
O O13 0.746657 0.157893 0.195343
O O14 0.422962 0.844353 0.714934
O O15 0.500000 0.000000 0.500000
O O16 0.760255 0.674701 0.977960
O O17 0.500000 0.500000 0.000000
#
# Coordination Sequence:
#
# PCOD8030120 Si02
#       8
#     2   2   2   2   2   2   2   2
#     4  11  25  43  65  96 134 172 218 275 331 393
#     4  11  24  42  66 100 129 174 223 273 327 393
#     4  12  23  43  65  95 134 173 216 268 338 392
#     4  11  23  41  66  97 131 163 224 275 324 383
#     4  12  23  40  69  99 127 173 220 275 331 382
#     4  11  22  44  69  94 137 180 211 272 341 391
#     4  11  24  43  67  94 133 175 219 269 331 403
#     4  11  21  42  70  95 131 174 219 278 323 385
#
# _framework density 21.974833
#
# number of rings (size 3 to 8) (size 9 to 14) (size 15 to 20)
#    0.000    0.750    6.250    2.625    0.000    1.500 
#    0.000    1.875    0.000    0.000    0.000    0.000 
#    0.000    0.000    0.000    0.000    0.000    0.000 
#
# Total GULP energy -198344.865178 kJ/mol
# GULP energy per Si atom -12396.554074 kJ/mol
# Density = 2.192482 g / cm^3
# Si number density = 21.974833 Si / 1000 Ang^3
#
#
#
# Elastic Constant Matrix: (Units=GPa)
#
#
# Indices 1 2 3 4 5 6 
#
# 1 74.3379 17.7269 36.1435 7.5651 -0.5600 4.6689
# 2 17.7269 89.7533 22.3174 23.2080 14.6060 11.0936
# 3 36.1435 22.3174 80.9880 17.8040 17.2438 0.5475
# 4 7.5651 23.2080 17.8040 42.0575 4.0419 3.5463
# 5 -0.5600 14.6060 17.2438 4.0419 39.0582 0.5177
# 6 4.6689 11.0936 0.5475 3.5463 0.5177 28.6818
#
#
#
# Elastic Compliance Matrix: (Units=1/GPa)
#
#
# Indices 1 2 3 4 5 6 
#
# 1 0.018367 -0.002323 -0.008917 0.001462 0.004946 -0.002191
# 2 -0.002323 0.014752 -0.000562 -0.006675 -0.004553 -0.004409
# 3 -0.008917 -0.000562 0.019413 -0.005724 -0.007924 0.002149
# 4 0.001462 -0.006675 -0.005724 0.029532 0.002004 -0.001234
# 5 0.004946 -0.004553 -0.007924 0.002004 0.030663 0.000306
# 6 -0.002191 -0.004409 0.002149 -0.001234 0.000306 0.037034
#
#
# Mechanical properties :
#
#
# Convention : Reuss Voigt Hill
#
# Bulk Modulus (GPa) = 34.56671 44.16163 39.36417
# Shear Modulus (GPa) = 27.32135 33.21893 30.27014
#
# Velocity S-wave (km/s) = 3.52987 3.89225 3.71548
# Velocity P-wave (km/s) = 5.69013 6.35135 6.02981
#
# Compressibility (1/GPa) = 0.02892957
#
# Stress axis : x y z
#
# Youngs Moduli (GPa) = 54.44412 67.78696 51.51263
#
# Poissons Ratio (x) = 0.15744 0.45933
# Poissons Ratio (y) = 0.12645 0.02895
# Poissons Ratio (z) = 0.48547 0.03809
#
# Static dielectric constant tensor:
#      x y z
#    x 3.882900 0.040270 0.011920 
#    y 0.040270 4.129700 0.303980 
#    z 0.011920 0.303980 3.936200 
# 
# 
# High freq. dielectric constant tensor:
#      x y z
#    x 1.855980 0.007000 -0.001540 
#    y 0.007000 1.873420 0.018670 
#    z -0.001540 0.018670 1.857040 
# 
# From -- ./inp_files/427621.got.cif
#   From: 2010.06.25/outbox.cif.g09.slc.cpg/sg2_214_cif.got.tgz:427621.got - 2010.06.27 13:26:56.
