data_PCOD8030514
_publ_section_title
;
Structure prediction by ZEFSAII (Michael W. Deem and Ramdas Pophale) SiO2 
 PCOD8030514
Probable space group: P -1
;
_chemical_formula_sum "Si O2"
_cell_formula_units_Z 16
_cell_length_a 19.460194
_cell_length_b 13.894040
_cell_length_c 9.697871
_cell_angle_alpha 60.526553
_cell_angle_beta 106.493665
_cell_angle_gamma 157.093269
_cell_volume 769.669415
_symmetry_space_group_name_H-M "P -1"
_symmetry_group_IT_number 2
_symmetry_cell_setting 'triclinic'
loop_
_space_group_symop_operation_xyz
x,y,z
-x,-y,-z
loop_
_atom_site_type_symbol
_atom_site_label
_atom_site_fract_x
_atom_site_fract_y
_atom_site_fract_z
Si Si1 0.033111 0.535966 0.158947
Si Si2 0.109823 0.123399 0.342700
Si Si3 0.549303 0.555385 0.144656
Si Si4 0.164038 0.577434 0.654801
Si Si5 0.525824 0.767089 0.029194
Si Si6 0.882475 0.122322 0.550872
Si Si7 0.571942 0.253276 0.287322
Si Si8 0.143457 0.179542 0.830926
O O1 0.934022 0.492602 0.225656
O O2 0.953121 0.304728 0.338923
O O3 0.000000 0.500000 0.000000
O O4 0.277427 0.877933 0.070487
O O5 0.338788 0.502384 0.216599
O O6 0.083253 0.955429 0.415057
O O7 0.000000 0.000000 0.500000
O O8 0.991596 0.023481 0.235121
O O9 0.590845 0.734516 0.103828
O O10 0.763801 0.807069 0.108509
O O11 0.361466 0.214357 0.341875
O O12 0.500000 0.500000 0.000000
O O13 0.283113 0.642794 0.738902
O O14 0.991267 0.302850 0.633916
O O15 0.339763 0.895765 0.448228
O O16 0.435366 0.673095 0.896749
O O17 0.677493 0.469961 0.321742
O O18 0.000000 0.000000 0.000000
#
# Coordination Sequence:
#
# PCOD8030514 Si02
#       8
#     2   2   2   2   2   2   2   2
#     4  12  28  46  67 100 141 182 226 278 350 409
#     4  11  26  45  68  99 142 178 222 283 345 403
#     4  11  22  36  68 102 132 167 224 285 332 392
#     4  11  24  41  71  98 134 176 229 290 330 399
#     4  11  24  42  66 100 135 178 227 277 342 405
#     4  11  23  46  69  99 131 183 231 276 337 401
#     4  11  22  40  67 105 129 171 237 282 332 392
#     4  12  22  38  64  97 131 172 226 273 331 398
#
# _framework density 20.788146999999999
#
# number of rings (size 3 to 8) (size 9 to 14) (size 15 to 20)
#    0.000    0.750    5.000    2.625    1.750    4.000 
#    0.000    3.750    0.000    0.000    0.000    0.000 
#    0.000    0.000    0.000    0.000    0.000    0.000 
#
# Total GULP energy -198226.328844 kJ/mol
# GULP energy per Si atom -12389.145553 kJ/mol
# Density = 2.074083 g / cm^3
# Si number density = 20.788147 Si / 1000 Ang^3
#
#
#
# Elastic Constant Matrix: (Units=GPa)
#
#
# Indices 1 2 3 4 5 6 
#
# 1 101.3152 45.0061 60.8646 0.0326 -11.8997 27.1383
# 2 45.0061 89.1291 55.3184 1.3904 -3.9069 16.5587
# 3 60.8646 55.3184 135.5980 -0.7788 -5.0270 10.3678
# 4 0.0326 1.3904 -0.7788 33.7950 -7.5895 0.5473
# 5 -11.8997 -3.9069 -5.0270 -7.5895 39.7470 0.0438
# 6 27.1383 16.5587 10.3678 0.5473 0.0438 34.1979
#
#
#
# Elastic Compliance Matrix: (Units=1/GPa)
#
#
# Indices 1 2 3 4 5 6 
#
# 1 0.018472 -0.003415 -0.005856 0.001226 0.004700 -0.011255
# 2 -0.003415 0.016794 -0.005032 -0.000775 -0.000152 -0.003884
# 3 -0.005856 -0.005032 0.011762 0.000267 -0.000713 0.003514
# 4 0.001226 -0.000775 0.000267 0.031051 0.006255 -0.001183
# 5 0.004700 -0.000152 -0.000713 0.006255 0.027659 -0.003576
# 6 -0.011255 -0.003884 0.003514 -0.001183 -0.003576 0.039012
#
#
# Mechanical properties :
#
#
# Convention : Reuss Voigt Hill
#
# Bulk Modulus (GPa) = 54.28034 72.04672 63.16353
# Shear Modulus (GPa) = 27.85571 32.53819 30.19695
#
# Velocity S-wave (km/s) = 3.66455 3.96059 3.81544
# Velocity P-wave (km/s) = 6.63876 7.45975 7.06119
#
# Compressibility (1/GPa) = 0.01842288
#
# Stress axis : x y z
#
# Youngs Moduli (GPa) = 54.13690 59.54575 85.01602
#
# Poissons Ratio (x) = 0.20333 0.49788
# Poissons Ratio (y) = 0.18486 0.42777
# Poissons Ratio (z) = 0.31704 0.29961
#
# Static dielectric constant tensor:
#      x y z
#    x 4.186970 -0.168440 0.173240 
#    y -0.168440 4.242020 -0.387320 
#    z 0.173240 -0.387320 3.864710 
# 
# 
# High freq. dielectric constant tensor:
#      x y z
#    x 1.816890 0.018500 0.011970 
#    y 0.018500 1.821690 -0.024180 
#    z 0.011970 -0.024180 1.818530 
# 
# From -- ./inp_files/208687.got.cif
#   From: 2010.06.25/outbox.cif.g09.slc.cpg/sg2_105_cif.got.tgz:208687.got - 2010.06.27 13:26:56.
