data_PCOD8030821
_publ_section_title
;
Structure prediction by ZEFSAII (Michael W. Deem and Ramdas Pophale) SiO2 
 PCOD8030821
Probable space group: P -1
;
_chemical_formula_sum "Si O2"
_cell_formula_units_Z 16
_cell_length_a 8.880260
_cell_length_b 14.578721
_cell_length_c 11.910003
_cell_angle_alpha 77.313138
_cell_angle_beta 143.557825
_cell_angle_gamma 117.940360
_cell_volume 771.935543
_symmetry_space_group_name_H-M "P -1"
_symmetry_group_IT_number 2
_symmetry_cell_setting 'triclinic'
loop_
_space_group_symop_operation_xyz
x,y,z
-x,-y,-z
loop_
_atom_site_type_symbol
_atom_site_label
_atom_site_fract_x
_atom_site_fract_y
_atom_site_fract_z
Si Si1 0.068245 0.093900 0.603793
Si Si2 0.187217 0.986238 0.288230
Si Si3 0.788360 0.832397 0.897389
Si Si4 0.857863 0.519704 0.517870
Si Si5 0.711972 0.479503 0.054338
Si Si6 0.808697 0.237274 0.326826
Si Si7 0.191760 0.367215 0.127096
Si Si8 0.657995 0.274076 0.991222
O O1 0.413654 0.183851 0.786635
O O2 0.995712 0.046112 0.698220
O O3 0.872309 0.146071 0.436387
O O4 0.000000 0.000000 0.500000
O O5 0.500000 0.000000 0.500000
O O6 0.207677 0.095451 0.224263
O O7 0.023436 0.896274 0.118606
O O8 0.463683 0.768419 0.769582
O O9 0.879429 0.749701 0.926316
O O10 0.517847 0.435712 0.352073
O O11 0.000000 0.500000 0.500000
O O12 0.000283 0.499773 0.715903
O O13 0.914736 0.642601 0.517644
O O14 0.500000 0.500000 0.000000
O O15 0.840767 0.565697 0.010051
O O16 0.540576 0.353826 0.943403
O O17 0.725937 0.216592 0.151056
O O18 0.959216 0.350034 0.086843
#
# Coordination Sequence:
#
# PCOD8030821 Si02
#       8
#     2   2   2   2   2   2   2   2
#     4  12  28  44  70  98 137 182 226 280 347 394
#     4  11  25  45  69  98 131 171 238 282 325 399
#     4  11  24  43  71 100 129 178 225 284 338 390
#     4  11  22  40  70 102 129 172 222 272 335 402
#     4  11  23  42  71  98 133 180 223 268 335 403
#     4  11  23  45  68  97 136 179 222 275 339 402
#     4  12  25  41  69 100 138 172 220 275 339 404
#     4  11  27  45  64 100 144 175 219 280 339 406
#
# _framework density 20.727119999999999
#
# number of rings (size 3 to 8) (size 9 to 14) (size 15 to 20)
#    0.000    0.750    5.000    1.875    3.500    4.500 
#    0.000    0.000    0.000    0.000    0.000    0.000 
#    0.000    0.000    0.000    0.000    0.000    0.000 
#
# Total GULP energy -198445.301706 kJ/mol
# GULP energy per Si atom -12402.831357 kJ/mol
# Density = 2.067994 g / cm^3
# Si number density = 20.727120 Si / 1000 Ang^3
#
#
#
# Elastic Constant Matrix: (Units=GPa)
#
#
# Indices 1 2 3 4 5 6 
#
# 1 98.1871 38.4137 45.3824 -0.8328 -2.1947 9.5434
# 2 38.4137 110.9790 65.8371 -9.4850 -22.0320 6.3844
# 3 45.3824 65.8371 123.5072 5.4483 -7.3983 -4.9446
# 4 -0.8328 -9.4850 5.4483 43.0562 8.4406 -6.5945
# 5 -2.1947 -22.0320 -7.3983 8.4406 31.8803 7.9722
# 6 9.5434 6.3844 -4.9446 -6.5945 7.9722 38.8561
#
#
#
# Elastic Compliance Matrix: (Units=1/GPa)
#
#
# Indices 1 2 3 4 5 6 
#
# 1 0.013110 -0.002264 -0.003776 -0.000120 -0.000705 -0.003204
# 2 -0.002264 0.017030 -0.007899 0.001855 0.010564 -0.005100
# 3 -0.003776 -0.007899 0.013789 -0.002339 -0.002947 0.004188
# 4 -0.000120 0.001855 -0.002339 0.026246 -0.007577 0.005436
# 5 -0.000705 0.010564 -0.002947 -0.007577 0.042951 -0.012036
# 6 -0.003204 -0.005100 0.004188 0.005436 -0.012036 0.031286
#
#
# Mechanical properties :
#
#
# Convention : Reuss Voigt Hill
#
# Bulk Modulus (GPa) = 62.30044 70.21553 66.25798
# Shear Modulus (GPa) = 28.14684 34.96119 31.55402
#
# Velocity S-wave (km/s) = 3.68906 4.11145 3.90597
# Velocity P-wave (km/s) = 6.94754 7.51587 7.23729
#
# Compressibility (1/GPa) = 0.01605125
#
# Stress axis : x y z
#
# Youngs Moduli (GPa) = 76.27688 58.72135 72.52078
#
# Poissons Ratio (x) = 0.13294 0.27382
# Poissons Ratio (y) = 0.17268 0.57286
# Poissons Ratio (z) = 0.28800 0.46385
#
# Static dielectric constant tensor:
#      x y z
#    x 3.590590 0.087680 -0.022560 
#    y 0.087680 3.898080 -0.102280 
#    z -0.022560 -0.102280 3.816300 
# 
# 
# High freq. dielectric constant tensor:
#      x y z
#    x 1.808810 0.004590 -0.005950 
#    y 0.004590 1.825920 -0.004110 
#    z -0.005950 -0.004110 1.825020 
# 
# From -- ./inp_files/399011.got.cif
#   From: 2010.06.25/outbox.cif.g09.slc.cpg/sg2_200_cif.got.tgz:399011.got - 2010.06.27 13:26:56.
