data_PCOD8030334
_publ_section_title
;
Structure prediction by ZEFSAII (Michael W. Deem and Ramdas Pophale) SiO2 
 PCOD8030334
Probable space group: P -1
;
_chemical_formula_sum "Si O2"
_cell_formula_units_Z 16
_cell_length_a 13.959860
_cell_length_b 9.586108
_cell_length_c 11.077758
_cell_angle_alpha 98.898105
_cell_angle_beta 32.095910
_cell_angle_gamma 107.464109
_cell_volume 736.726886
_symmetry_space_group_name_H-M "P -1"
_symmetry_group_IT_number 2
_symmetry_cell_setting 'triclinic'
loop_
_space_group_symop_operation_xyz
x,y,z
-x,-y,-z
loop_
_atom_site_type_symbol
_atom_site_label
_atom_site_fract_x
_atom_site_fract_y
_atom_site_fract_z
Si Si1 0.927625 0.682879 0.674346
Si Si2 0.079076 0.617230 0.257169
Si Si3 0.561274 0.677965 0.968627
Si Si4 0.389986 0.330595 0.566704
Si Si5 0.503248 0.801270 0.807928
Si Si6 0.387716 0.833380 0.567992
Si Si7 0.007107 0.654595 0.070243
Si Si8 0.683853 0.149084 0.626274
O O1 0.894899 0.545567 0.783859
O O2 0.740213 0.734049 0.876614
O O3 0.946788 0.632522 0.509998
O O4 0.102484 0.822995 0.550364
O O5 0.977353 0.633072 0.242700
O O6 0.281037 0.745113 0.069697
O O7 0.617385 0.753310 0.787385
O O8 0.500000 0.500000 0.000000
O O9 0.393181 0.731593 0.208406
O O10 0.500000 0.500000 0.500000
O O11 0.462691 0.275776 0.360267
O O12 0.453099 0.248136 0.599371
O O13 0.162794 0.293944 0.797614
O O14 0.561916 0.979349 0.759123
O O15 0.303329 0.812207 0.522374
O O16 0.500000 0.000000 0.500000
O O17 0.211125 0.775465 0.841249
O O18 0.000000 0.500000 0.000000
#
# Coordination Sequence:
#
# PCOD8030334 Si02
#       8
#     2   2   2   2   2   2   2   2
#     4  11  24  42  70 105 137 181 236 286 349 423
#     4  11  21  44  71 100 143 183 228 291 353 415
#     4  12  25  44  73 104 136 186 236 286 347 423
#     4  12  26  45  76 106 136 190 244 288 351 433
#     4  12  24  49  71 101 146 183 230 292 359 417
#     4  12  26  49  70 104 145 186 233 297 360 417
#     4  12  24  44  73 104 140 185 236 295 353 421
#     4  12  27  46  69 102 147 181 229 298 355 416
#
# _framework density 21.717680999999999
#
# number of rings (size 3 to 8) (size 9 to 14) (size 15 to 20)
#    0.000    0.250    6.250    2.625    1.750    3.000 
#    4.500    0.000    0.000    0.000    0.000    0.000 
#    0.000    0.000    0.000    0.000    0.000    0.000 
#
# Total GULP energy -198447.928433 kJ/mol
# GULP energy per Si atom -12402.995527 kJ/mol
# Density = 2.166825 g / cm^3
# Si number density = 21.717681 Si / 1000 Ang^3
#
#
#
# Elastic Constant Matrix: (Units=GPa)
#
#
# Indices 1 2 3 4 5 6 
#
# 1 133.2025 35.3161 41.2465 -1.2222 -12.0329 -5.5022
# 2 35.3161 131.2978 36.0013 -13.0213 -3.0781 0.3478
# 3 41.2465 36.0013 85.0844 -13.3387 -17.7883 -3.9817
# 4 -1.2222 -13.0213 -13.3387 33.6336 0.5720 -1.1859
# 5 -12.0329 -3.0781 -17.7883 0.5720 51.8636 1.5820
# 6 -5.5022 0.3478 -3.9817 -1.1859 1.5820 37.8747
#
#
#
# Elastic Compliance Matrix: (Units=1/GPa)
#
#
# Indices 1 2 3 4 5 6 
#
# 1 0.009213 -0.001574 -0.003896 -0.001801 0.000702 0.000858
# 2 -0.001574 0.009045 -0.002903 0.002289 -0.000834 -0.000510
# 3 -0.003896 -0.002903 0.016715 0.005328 0.004562 0.001194
# 4 -0.001801 0.002289 0.005328 0.032691 0.001147 0.001253
# 5 0.000702 -0.000834 0.004562 0.001147 0.020954 -0.000250
# 6 0.000858 -0.000510 0.001194 0.001253 -0.000250 0.026707
#
#
# Mechanical properties :
#
#
# Convention : Reuss Voigt Hill
#
# Bulk Modulus (GPa) = 54.86623 63.85692 59.36157
# Shear Modulus (GPa) = 36.19331 40.47578 38.33454
#
# Velocity S-wave (km/s) = 4.08675 4.32177 4.20590
# Velocity P-wave (km/s) = 6.89833 7.37364 7.13994
#
# Compressibility (1/GPa) = 0.01822615
#
# Stress axis : x y z
#
# Youngs Moduli (GPa) = 108.53711 110.56298 59.82729
#
# Poissons Ratio (x) = 0.17408 0.23307
# Poissons Ratio (y) = 0.17089 0.17368
# Poissons Ratio (z) = 0.42284 0.32097
#
# Static dielectric constant tensor:
#      x y z
#    x 2.914540 0.305700 -0.527000 
#    y 0.305700 3.676380 -0.023570 
#    z -0.527000 -0.023570 3.659550 
# 
# 
# High freq. dielectric constant tensor:
#      x y z
#    x 1.881220 -0.000530 -0.004100 
#    y -0.000530 1.846590 -0.008420 
#    z -0.004100 -0.008420 1.850310 
# 
# From -- ./inp_files/186361.got.cif
#   From: 2010.06.25/outbox.cif.g09.slc.cpg/sg2_94_cif.got.tgz:186361.got - 2010.06.27 13:26:56.
