data_PCOD8030342
_publ_section_title
;
Structure prediction by ZEFSAII (Michael W. Deem and Ramdas Pophale) SiO2 
 PCOD8030342
Probable space group: P -1
;
_chemical_formula_sum "Si O2"
_cell_formula_units_Z 12
_cell_length_a 7.567645
_cell_length_b 8.864476
_cell_length_c 8.577998
_cell_angle_alpha 102.316655
_cell_angle_beta 124.574998
_cell_angle_gamma 96.309465
_cell_volume 443.414829
_symmetry_space_group_name_H-M "P -1"
_symmetry_group_IT_number 2
_symmetry_cell_setting 'triclinic'
loop_
_space_group_symop_operation_xyz
x,y,z
-x,-y,-z
loop_
_atom_site_type_symbol
_atom_site_label
_atom_site_fract_x
_atom_site_fract_y
_atom_site_fract_z
Si Si1 0.171227 0.114741 0.995219
Si Si2 0.723255 0.094164 0.272604
Si Si3 0.115914 0.637371 0.795292
Si Si4 0.478828 0.789361 0.231259
Si Si5 0.636672 0.682933 0.594321
Si Si6 0.898778 0.721783 0.286919
O O1 0.371373 0.228653 0.225380
O O2 0.056904 0.229499 0.862587
O O3 0.268880 0.014542 0.898835
O O4 0.000000 0.000000 0.000000
O O5 0.707884 0.263597 0.227269
O O6 0.941865 0.135476 0.499789
O O7 0.520813 0.980286 0.251059
O O8 0.053274 0.447455 0.692603
O O9 0.893319 0.696515 0.680439
O O10 0.228474 0.686532 0.032439
O O11 0.515268 0.769600 0.428575
O O12 0.645379 0.710165 0.203329
O O13 0.500000 0.500000 0.500000
#
# Coordination Sequence:
#
# PCOD8030342 Si02
#       6
#     2   2   2   2   2   2
#     4  11  21  44  71  97 141 186 223 282 344 407
#     4  11  23  46  73 104 137 182 234 286 343 410
#     4  12  25  45  73 105 139 178 237 287 342 410
#     4  11  24  46  72 104 137 183 233 283 347 409
#     4  12  27  47  71 101 143 185 231 283 349 411
#     4  11  23  43  75 102 142 180 231 287 346 406
#
# _framework density 27.062695999999999
#
# number of rings (size 3 to 8) (size 9 to 14) (size 15 to 20)
#    0.000    0.667    3.333    5.500    0.000    4.000 
#    3.000    0.833    0.000    0.000    0.000    0.000 
#    0.000    0.000    0.000    0.000    0.000    0.000 
#
# Total GULP energy -148748.977790 kJ/mol
# GULP energy per Si atom -12395.748149 kJ/mol
# Density = 2.700110 g / cm^3
# Si number density = 27.062696 Si / 1000 Ang^3
#
#
#
# Elastic Constant Matrix: (Units=GPa)
#
#
# Indices 1 2 3 4 5 6 
#
# 1 36.1694 9.2141 16.5728 3.0618 -5.4348 11.6501
# 2 9.2141 178.3782 65.5780 -3.8368 -24.8680 23.7164
# 3 16.5728 65.5780 213.8701 0.3650 -15.8096 17.6272
# 4 3.0618 -3.8368 0.3650 57.6137 4.5973 -3.0708
# 5 -5.4348 -24.8680 -15.8096 4.5973 44.3541 -8.8173
# 6 11.6501 23.7164 17.6272 -3.0708 -8.8173 36.6094
#
#
#
# Elastic Compliance Matrix: (Units=1/GPa)
#
#
# Indices 1 2 3 4 5 6 
#
# 1 0.031793 0.000434 -0.001683 -0.002300 0.001925 -0.009318
# 2 0.000434 0.007024 -0.001722 0.000067 0.002736 -0.003195
# 3 -0.001683 -0.001722 0.005449 -0.000154 0.000620 -0.000836
# 4 -0.002300 0.000067 -0.000154 0.017723 -0.001774 0.001822
# 5 0.001925 0.002736 0.000620 -0.001774 0.025372 0.003278
# 6 -0.009318 -0.003195 -0.000836 0.001822 0.003278 0.033695
#
#
# Mechanical properties :
#
#
# Convention : Reuss Voigt Hill
#
# Bulk Modulus (GPa) = 26.09206 67.90527 46.99867
# Shear Modulus (GPa) = 35.77201 50.18563 42.97882
#
# Velocity S-wave (km/s) = 3.63963 4.31097 3.98945
# Velocity P-wave (km/s) = 5.22731 7.06580 6.21492
#
# Compressibility (1/GPa) = 0.03832583
#
# Stress axis : x y z
#
# Youngs Moduli (GPa) = 31.45319 142.36213 183.51389
#
# Poissons Ratio (x) = -0.06180 0.30877
# Poissons Ratio (y) = -0.01365 0.31602
# Poissons Ratio (z) = 0.05292 0.24515
#
# Static dielectric constant tensor:
#      x y z
#    x 4.708260 0.316190 -0.259800 
#    y 0.316190 5.438100 -0.303650 
#    z -0.259800 -0.303650 5.675480 
# 
# 
# High freq. dielectric constant tensor:
#      x y z
#    x 2.059720 0.011560 0.000150 
#    y 0.011560 2.108580 -0.008170 
#    z 0.000150 -0.008170 2.119470 
# 
# From -- ./inp_files/151812.got.cif
#   From: 2010.06.25/outbox.cif.g09.slc.cpg/sg2_76_cif.got.tgz:151812.got - 2010.06.27 13:26:56.
