data_PCOD8030767
_publ_section_title
;
Structure prediction by ZEFSAII (Michael W. Deem and Ramdas Pophale) SiO2 
 PCOD8030767
Probable space group: P -1
;
_chemical_formula_sum "Si O2"
_cell_formula_units_Z 16
_cell_length_a 20.137546
_cell_length_b 11.652269
_cell_length_c 14.984203
_cell_angle_alpha 28.031769
_cell_angle_beta 29.312937
_cell_angle_gamma 46.309836
_cell_volume 759.912744
_symmetry_space_group_name_H-M "P -1"
_symmetry_group_IT_number 2
_symmetry_cell_setting 'triclinic'
loop_
_space_group_symop_operation_xyz
x,y,z
-x,-y,-z
loop_
_atom_site_type_symbol
_atom_site_label
_atom_site_fract_x
_atom_site_fract_y
_atom_site_fract_z
Si Si1 0.045839 0.071360 0.054593
Si Si2 0.863202 0.485594 0.109893
Si Si3 0.279852 0.015057 0.472542
Si Si4 0.091874 0.635916 0.213898
Si Si5 0.491527 0.034946 0.632958
Si Si6 0.599808 0.396659 0.100783
Si Si7 0.783373 0.932120 0.971431
Si Si8 0.042187 0.591666 0.658505
O O1 0.099671 0.936721 0.001930
O O2 0.099114 0.983926 0.144655
O O3 0.114831 0.383991 0.750663
O O4 0.871488 0.973341 0.322000
O O5 0.768125 0.644200 0.153715
O O6 0.757755 0.185306 0.429674
O O7 0.000000 0.500000 0.000000
O O8 0.922543 0.603884 0.861783
O O9 0.357846 0.900136 0.535564
O O10 0.387929 0.301640 0.122185
O O11 0.000000 0.500000 0.500000
O O12 0.028418 0.508741 0.283813
O O13 0.247750 0.625204 0.045515
O O14 0.497691 0.249323 0.403034
O O15 0.368126 0.046634 0.837154
O O16 0.458367 0.749315 0.824195
O O17 0.839137 0.126182 0.688754
#
# Coordination Sequence:
#
# PCOD8030767 Si02
#       8
#     2   2   2   2   2   2   2   2
#     4  11  22  40  67 101 134 164 225 279 331 396
#     4  11  24  46  70  98 132 171 230 285 320 386
#     4  11  23  43  65  96 130 174 218 273 330 389
#     4  12  20  39  69 104 133 168 216 285 337 394
#     4  11  26  42  64  98 134 180 218 265 332 407
#     4  11  22  43  66  94 142 176 209 272 344 391
#     4  12  23  46  66  96 135 176 225 270 326 398
#     4  11  23  38  69 101 129 175 215 282 343 376
#
# _framework density 21.055047999999999
#
# number of rings (size 3 to 8) (size 9 to 14) (size 15 to 20)
#    0.000    0.750    6.250    2.625    0.000    1.500 
#    2.250    0.625    0.000    0.000    0.000    0.000 
#    0.000    0.000    0.000    0.000    0.000    0.000 
#
# Total GULP energy -198363.402395 kJ/mol
# GULP energy per Si atom -12397.712650 kJ/mol
# Density = 2.100713 g / cm^3
# Si number density = 21.055048 Si / 1000 Ang^3
#
#
#
# Elastic Constant Matrix: (Units=GPa)
#
#
# Indices 1 2 3 4 5 6 
#
# 1 111.8061 22.9378 29.9350 4.7994 -23.1925 4.3543
# 2 22.9378 117.1238 35.3135 -17.8087 5.6197 15.1713
# 3 29.9350 35.3135 93.2157 -14.3092 -0.5763 6.0636
# 4 4.7994 -17.8087 -14.3092 46.0646 -4.3988 -4.2794
# 5 -23.1925 5.6197 -0.5763 -4.3988 46.0601 1.0589
# 6 4.3543 15.1713 6.0636 -4.2794 1.0589 36.4626
#
#
#
# Elastic Compliance Matrix: (Units=1/GPa)
#
#
# Indices 1 2 3 4 5 6 
#
# 1 0.011529 -0.001841 -0.003310 -0.002438 0.005767 -0.000514
# 2 -0.001841 0.010725 -0.002809 0.002970 -0.001909 -0.003372
# 3 -0.003310 -0.002809 0.013374 0.003311 -0.000835 -0.000247
# 4 -0.002438 0.002970 0.003311 0.024335 0.000745 0.001339
# 5 0.005767 -0.001909 -0.000835 0.000745 0.024917 -0.000392
# 6 -0.000514 -0.003372 -0.000247 0.001339 -0.000392 0.029099
#
#
# Mechanical properties :
#
#
# Convention : Reuss Voigt Hill
#
# Bulk Modulus (GPa) = 50.73747 55.39092 53.06419
# Shear Modulus (GPa) = 36.63856 41.31476 38.97666
#
# Velocity S-wave (km/s) = 4.17601 4.43451 4.30720
# Velocity P-wave (km/s) = 6.88491 7.25152 7.07059
#
# Compressibility (1/GPa) = 0.01970930
#
# Stress axis : x y z
#
# Youngs Moduli (GPa) = 86.73800 93.23837 74.77206
#
# Poissons Ratio (x) = 0.17162 0.24751
# Poissons Ratio (y) = 0.15965 0.21000
# Poissons Ratio (z) = 0.28712 0.26186
#
# Static dielectric constant tensor:
#      x y z
#    x 3.932450 0.118560 0.243700 
#    y 0.118560 4.065860 -0.455660 
#    z 0.243700 -0.455660 3.208980 
# 
# 
# High freq. dielectric constant tensor:
#      x y z
#    x 1.823970 0.002380 0.005420 
#    y 0.002380 1.829370 -0.014640 
#    z 0.005420 -0.014640 1.814140 
# 
# From -- ./inp_files/541059.got.cif
#   From: 2010.06.25/outbox.cif.g09.slc.cpg/sg2_271_cif.got.tgz:541059.got - 2010.06.27 13:26:56.
