data_PCOD8030594
_publ_section_title
;
Structure prediction by ZEFSAII (Michael W. Deem and Ramdas Pophale) SiO2 
 PCOD8030594
Probable space group: P -1
;
_chemical_formula_sum "Si O2"
_cell_formula_units_Z 16
_cell_length_a 22.066001
_cell_length_b 12.895417
_cell_length_c 19.464970
_cell_angle_alpha 19.073607
_cell_angle_beta 26.740773
_cell_angle_gamma 37.121704
_cell_volume 772.298156
_symmetry_space_group_name_H-M "P -1"
_symmetry_group_IT_number 2
_symmetry_cell_setting 'triclinic'
loop_
_space_group_symop_operation_xyz
x,y,z
-x,-y,-z
loop_
_atom_site_type_symbol
_atom_site_label
_atom_site_fract_x
_atom_site_fract_y
_atom_site_fract_z
Si Si1 0.436218 0.179194 0.312336
Si Si2 0.456765 0.418761 0.418759
Si Si3 0.143035 0.426827 0.280815
Si Si4 0.566390 0.594220 0.045925
Si Si5 0.138284 0.195789 0.585748
Si Si6 0.553249 0.824360 0.196912
Si Si7 0.152524 0.669831 0.397461
Si Si8 0.155241 0.161100 0.833375
O O1 0.265910 0.040044 0.564001
O O2 0.502257 0.898032 0.396151
O O3 0.500000 0.500000 0.000000
O O4 0.480735 0.277528 0.284512
O O5 0.519509 0.731868 0.209377
O O6 0.286809 0.335756 0.640834
O O7 0.524842 0.511658 0.217618
O O8 0.265178 0.322201 0.184719
O O9 0.132693 0.320930 0.436455
O O10 0.995282 0.245167 0.504647
O O11 0.174337 0.824313 0.994290
O O12 0.525377 0.915880 0.861783
O O13 0.166261 0.519317 0.403145
O O14 0.990744 0.911062 0.931357
O O15 0.500000 0.500000 0.500000
O O16 0.722133 0.987000 0.932583
O O17 0.155574 0.398940 0.620626
#
# Coordination Sequence:
#
# PCOD8030594 Si02
#       8
#     2   2   2   2   2   2   2   2
#     4  12  22  40  68 104 134 165 226 280 326 383
#     4  12  26  42  69  98 135 174 223 271 339 392
#     4  11  24  39  68 103 134 171 218 280 331 386
#     4  12  24  44  67  99 133 171 227 279 325 395
#     4  11  22  38  69 100 138 165 220 274 337 381
#     4  12  28  46  68  92 136 183 224 270 333 408
#     4  11  24  42  64  99 137 178 218 266 338 399
#     4  11  22  40  68 100 137 168 218 272 337 387
#
# _framework density 20.717386999999999
#
# number of rings (size 3 to 8) (size 9 to 14) (size 15 to 20)
#    0.000    0.500    5.000    4.500    7.000    0.000 
#    0.000    2.500    0.000    0.000    0.000    0.000 
#    0.000    0.000    0.000    0.000    0.000    0.000 
#
# Total GULP energy -198488.509870 kJ/mol
# GULP energy per Si atom -12405.531867 kJ/mol
# Density = 2.067023 g / cm^3
# Si number density = 20.717387 Si / 1000 Ang^3
#
#
#
# Elastic Constant Matrix: (Units=GPa)
#
#
# Indices 1 2 3 4 5 6 
#
# 1 118.0456 38.4642 58.6501 19.0181 -26.0166 -18.7833
# 2 38.4642 85.9249 38.5687 21.6709 -22.1826 -27.7895
# 3 58.6501 38.5687 127.8914 26.2813 -14.7271 -11.3665
# 4 19.0181 21.6709 26.2813 35.7138 -6.6450 -4.8655
# 5 -26.0166 -22.1826 -14.7271 -6.6450 48.3672 4.6974
# 6 -18.7833 -27.7895 -11.3665 -4.8655 4.6974 42.1380
#
#
#
# Elastic Compliance Matrix: (Units=1/GPa)
#
#
# Indices 1 2 3 4 5 6 
#
# 1 0.012764 -0.001217 -0.004376 -0.001596 0.004462 0.003025
# 2 -0.001217 0.019952 -0.002382 -0.007203 0.005761 0.010499
# 3 -0.004376 -0.002382 0.011391 -0.004838 -0.000551 -0.000946
# 4 -0.001596 -0.007203 -0.004838 0.036364 -0.000394 -0.002524
# 5 0.004462 0.005761 -0.000551 -0.000394 0.025226 0.002782
# 6 0.003025 0.010499 -0.000946 -0.002524 0.002782 0.031147
#
#
# Mechanical properties :
#
#
# Convention : Reuss Voigt Hill
#
# Bulk Modulus (GPa) = 35.51496 67.02533 51.27015
# Shear Modulus (GPa) = 30.83032 38.32240 34.57636
#
# Velocity S-wave (km/s) = 3.86182 4.30556 4.08972
# Velocity P-wave (km/s) = 6.08808 7.55907 6.86310
#
# Compressibility (1/GPa) = 0.02815715
#
# Stress axis : x y z
#
# Youngs Moduli (GPa) = 78.34689 50.12142 87.78901
#
# Poissons Ratio (x) = 0.06098 0.38414
# Poissons Ratio (y) = 0.09532 0.20912
# Poissons Ratio (z) = 0.34283 0.11939
#
# Static dielectric constant tensor:
#      x y z
#    x 2.608110 1.389770 1.220510 
#    y 1.389770 2.165330 -1.407810 
#    z 1.220510 -1.407810 2.516320 
# 
# 
# High freq. dielectric constant tensor:
#      x y z
#    x 1.830650 -0.019330 0.008130 
#    y -0.019330 1.798660 0.019850 
#    z 0.008130 0.019850 1.808490 
# 
# From -- ./inp_files/306633.got.cif
#   From: 2010.06.25/outbox.cif.g09.slc.cpg/sg2_154_cif.got.tgz:306633.got - 2010.06.27 13:26:56.
