data_PCOD8030146
_publ_section_title
;
Structure prediction by ZEFSAII (Michael W. Deem and Ramdas Pophale) SiO2 
 PCOD8030146
Probable space group: P -1
;
_chemical_formula_sum "Si O2"
_cell_formula_units_Z 16
_cell_length_a 27.838464
_cell_length_b 16.542690
_cell_length_c 22.310373
_cell_angle_alpha 158.222999
_cell_angle_beta 169.620903
_cell_angle_gamma 22.165855
_cell_volume 674.306243
_symmetry_space_group_name_H-M "P -1"
_symmetry_group_IT_number 2
_symmetry_cell_setting 'triclinic'
loop_
_space_group_symop_operation_xyz
x,y,z
-x,-y,-z
loop_
_atom_site_type_symbol
_atom_site_label
_atom_site_fract_x
_atom_site_fract_y
_atom_site_fract_z
Si Si1 0.952325 0.190325 0.622213
Si Si2 0.255638 0.243141 0.614374
Si Si3 0.070153 0.977082 0.860492
Si Si4 0.472923 0.491359 0.288574
Si Si5 0.010860 0.568177 0.867938
Si Si6 0.270249 0.125360 0.088485
Si Si7 0.567522 0.643966 0.281641
Si Si8 0.035591 0.746445 0.849449
O O1 0.642637 0.253684 0.310871
O O2 0.022868 0.411043 0.831685
O O3 0.000000 0.000000 0.500000
O O4 0.145362 0.108464 0.858303
O O5 0.984182 0.286806 0.269325
O O6 0.141987 0.190710 0.504477
O O7 0.437935 0.031706 0.661468
O O8 0.408848 0.444867 0.940973
O O9 0.364099 0.877504 0.181719
O O10 0.085454 0.031529 0.846609
O O11 0.933790 0.196922 0.880408
O O12 0.691718 0.626320 0.678300
O O13 0.247391 0.455697 0.035450
O O14 0.332803 0.624329 0.150772
O O15 0.711205 0.614174 0.502220
O O16 0.805220 0.627029 0.512828
O O17 0.000000 0.000000 0.000000
#
# Coordination Sequence:
#
# PCOD8030146 Si02
#       8
#     2   2   2   2   2   2   2   2
#     4  12  29  51  74 106 148 194 249 312 373 432
#     4  12  24  44  70 113 154 196 239 305 375 434
#     4  12  24  42  74 110 146 202 244 294 367 446
#     4  11  24  47  76 110 140 195 249 306 360 435
#     4  11  25  46  76 109 145 201 247 300 366 447
#     4  12  25  48  75 106 150 191 254 306 358 442
#     4  11  24  43  68 111 162 188 241 304 369 436
#     4  11  21  42  72 107 153 190 243 296 363 444
#
# _framework density 23.728090999999999
#
# number of rings (size 3 to 8) (size 9 to 14) (size 15 to 20)
#    0.000    0.500    5.000    3.000    1.750    2.000 
#    2.250    0.000    0.000    0.000    0.000    0.000 
#    0.000    0.000    0.000    0.000    0.000    0.000 
#
# Total GULP energy -198409.156200 kJ/mol
# GULP energy per Si atom -12400.572262 kJ/mol
# Density = 2.367408 g / cm^3
# Si number density = 23.728091 Si / 1000 Ang^3
#
#
#
# Elastic Constant Matrix: (Units=GPa)
#
#
# Indices 1 2 3 4 5 6 
#
# 1 145.9154 36.6189 52.6526 1.7944 -4.2261 8.7976
# 2 36.6189 100.0279 33.1545 -8.2516 -5.9268 -15.1990
# 3 52.6526 33.1545 97.1098 11.4311 -14.1943 3.8079
# 4 1.7944 -8.2516 11.4311 34.0726 2.5216 10.8592
# 5 -4.2261 -5.9268 -14.1943 2.5216 36.0055 -6.5587
# 6 8.7976 -15.1990 3.8079 10.8592 -6.5587 39.8980
#
#
#
# Elastic Compliance Matrix: (Units=1/GPa)
#
#
# Indices 1 2 3 4 5 6 
#
# 1 0.009188 -0.002329 -0.004513 0.001624 -0.001784 -0.003218
# 2 -0.002329 0.013140 -0.003567 0.002709 0.001265 0.005330
# 3 -0.004513 -0.003567 0.015516 -0.006519 0.005612 0.000852
# 4 0.001624 0.002709 -0.006519 0.035553 -0.006133 -0.009389
# 5 -0.001784 0.001265 0.005612 -0.006133 0.031730 0.007225
# 6 -0.003218 0.005330 0.000852 -0.009389 0.007225 0.031466
#
#
# Mechanical properties :
#
#
# Convention : Reuss Voigt Hill
#
# Bulk Modulus (GPa) = 58.72324 65.32281 62.02302
# Shear Modulus (GPa) = 30.65874 36.70369 33.68122
#
# Velocity S-wave (km/s) = 3.59846 3.93726 3.77167
# Velocity P-wave (km/s) = 6.48593 6.94686 6.72035
#
# Compressibility (1/GPa) = 0.01702903
#
# Stress axis : x y z
#
# Youngs Moduli (GPa) = 108.83309 76.10210 64.44885
#
# Poissons Ratio (x) = 0.17722 0.29083
# Poissons Ratio (y) = 0.25344 0.22987
# Poissons Ratio (z) = 0.49111 0.27143
#
# Static dielectric constant tensor:
#      x y z
#    x 4.422400 0.099620 0.109370 
#    y 0.099620 4.411950 -0.209320 
#    z 0.109370 -0.209320 4.115910 
# 
# 
# High freq. dielectric constant tensor:
#      x y z
#    x 1.953070 0.001370 0.013510 
#    y 0.001370 1.941560 -0.006500 
#    z 0.013510 -0.006500 1.930240 
# 
# From -- ./inp_files/614554.got.cif
#   From: 2010.06.25/outbox.cif.g09.slc.cpg/sg2_308_cif.got.tgz:614554.got - 2010.06.27 13:26:56.
