data_PCOD8030524
_publ_section_title
;
Structure prediction by ZEFSAII (Michael W. Deem and Ramdas Pophale) SiO2 
 PCOD8030524
Probable space group: P -1
;
_chemical_formula_sum "Si O2"
_cell_formula_units_Z 14
_cell_length_a 13.113236
_cell_length_b 12.946243
_cell_length_c 15.277595
_cell_angle_alpha 34.346519
_cell_angle_beta 153.043781
_cell_angle_gamma 136.234049
_cell_volume 662.374987
_symmetry_space_group_name_H-M "P -1"
_symmetry_group_IT_number 2
_symmetry_cell_setting 'triclinic'
loop_
_space_group_symop_operation_xyz
x,y,z
-x,-y,-z
loop_
_atom_site_type_symbol
_atom_site_label
_atom_site_fract_x
_atom_site_fract_y
_atom_site_fract_z
Si Si1 0.492574 0.601162 0.131973
Si Si2 0.149717 0.328598 0.771342
Si Si3 0.966091 0.213543 0.306460
Si Si4 0.814293 0.084933 0.111994
Si Si5 0.592810 0.739111 0.811818
Si Si6 0.639078 0.739445 0.320485
Si Si7 0.150875 0.969901 0.297880
O O1 0.665608 0.721931 0.126499
O O2 0.483845 0.401568 0.221994
O O3 0.572316 0.586318 0.305469
O O4 0.254066 0.709173 0.865353
O O5 0.000000 0.500000 0.500000
O O6 0.988688 0.162172 0.778225
O O7 0.284775 0.365749 0.938928
O O8 0.172894 0.332436 0.415064
O O9 0.936857 0.227050 0.170266
O O10 0.000000 0.000000 0.500000
O O11 0.758252 0.896885 0.247571
O O12 0.571828 0.185674 0.834158
O O13 0.980482 0.054849 0.179754
O O14 0.367180 0.858754 0.585036
O O15 0.771885 0.868216 0.816796
#
# Coordination Sequence:
#
# PCOD8030524 Si02
#       7
#     2   2   2   2   2   2   2
#     4  11  22  37  62  93 123 161 212 267 311 366
#     4  12  25  40  66  96 123 167 223 264 309 370
#     4   9  20  32  59  94 124 152 203 268 317 362
#     4   9  18  34  58  89 119 160 203 255 310 371
#     4  11  27  42  61  95 132 173 207 258 323 381
#     4   9  18  34  57  93 120 151 207 265 309 356
#     4  11  24  44  64  91 135 170 207 257 323 385
#
# _framework density 21.136063
#
# number of rings (size 3 to 8) (size 9 to 14) (size 15 to 20)
#    0.000    1.714    2.857    1.714    6.000    0.000 
#    0.000    2.857    0.000    1.714    0.000    0.000 
#    0.000    0.000    0.000    0.000    0.000    0.000 
#
# Total GULP energy -173476.404048 kJ/mol
# GULP energy per Si atom -12391.171718 kJ/mol
# Density = 2.108796 g / cm^3
# Si number density = 21.136063 Si / 1000 Ang^3
#
#
#
# Elastic Constant Matrix: (Units=GPa)
#
#
# Indices 1 2 3 4 5 6 
#
# 1 97.5702 42.8843 57.7050 9.7646 33.9980 -11.7673
# 2 42.8843 101.1048 38.6987 24.2636 5.9846 -7.5844
# 3 57.7050 38.6987 126.5588 27.8542 16.4454 -13.8615
# 4 9.7646 24.2636 27.8542 35.8261 -1.4076 -2.9141
# 5 33.9980 5.9846 16.4454 -1.4076 35.0611 3.4450
# 6 -11.7673 -7.5844 -13.8615 -2.9141 3.4450 31.4000
#
#
#
# Elastic Compliance Matrix: (Units=1/GPa)
#
#
# Indices 1 2 3 4 5 6 
#
# 1 0.024814 -0.006988 -0.006289 0.002649 -0.020533 0.007334
# 2 -0.006988 0.014475 -0.000119 -0.007673 0.004086 -0.000335
# 3 -0.006289 -0.000119 0.012940 -0.008073 -0.000534 0.002636
# 4 0.002649 -0.007673 -0.008073 0.038724 0.004209 -0.001292
# 5 -0.020533 0.004086 -0.000534 0.004209 0.049330 -0.011965
# 6 0.007334 -0.000335 0.002636 -0.001292 -0.011965 0.036871
#
#
# Mechanical properties :
#
#
# Convention : Reuss Voigt Hill
#
# Bulk Modulus (GPa) = 39.31226 67.08999 53.20113
# Shear Modulus (GPa) = 23.53785 32.85380 28.19583
#
# Velocity S-wave (km/s) = 3.34074 3.94686 3.65638
# Velocity P-wave (km/s) = 5.78971 7.25128 6.56132
#
# Compressibility (1/GPa) = 0.02543736
#
# Stress axis : x y z
#
# Youngs Moduli (GPa) = 40.30008 69.08690 77.27915
#
# Poissons Ratio (x) = 0.48278 0.48599
# Poissons Ratio (y) = 0.28162 0.00918
# Poissons Ratio (z) = 0.25344 0.00820
#
# Static dielectric constant tensor:
#      x y z
#    x 3.711830 -0.283400 0.136190 
#    y -0.283400 4.178510 0.577200 
#    z 0.136190 0.577200 4.076250 
# 
# 
# High freq. dielectric constant tensor:
#      x y z
#    x 1.809560 -0.017580 0.027940 
#    y -0.017580 1.830310 0.029710 
#    z 0.027940 0.029710 1.828070 
# 
# From -- ./inp_files/222674.got.cif
#   From: 2010.06.25/outbox.cif.g09.slc.cpg/sg2_112_cif.got.tgz:222674.got - 2010.06.27 13:26:56.
