data_PCOD8030271
_publ_section_title
;
Structure prediction by ZEFSAII (Michael W. Deem and Ramdas Pophale) SiO2 
 PCOD8030271
Probable space group: P -1
;
_chemical_formula_sum "Si O2"
_cell_formula_units_Z 16
_cell_length_a 19.451283
_cell_length_b 9.182968
_cell_length_c 6.574356
_cell_angle_alpha 46.908381
_cell_angle_beta 121.863025
_cell_angle_gamma 116.806232
_cell_volume 720.567325
_symmetry_space_group_name_H-M "P -1"
_symmetry_group_IT_number 2
_symmetry_cell_setting 'triclinic'
loop_
_space_group_symop_operation_xyz
x,y,z
-x,-y,-z
loop_
_atom_site_type_symbol
_atom_site_label
_atom_site_fract_x
_atom_site_fract_y
_atom_site_fract_z
Si Si1 0.028261 0.631256 0.227193
Si Si2 0.078029 0.132385 0.392764
Si Si3 0.858545 0.007172 0.771220
Si Si4 0.545031 0.609285 0.161097
Si Si5 0.161289 0.368426 0.633839
Si Si6 0.413563 0.976278 0.276420
Si Si7 0.716344 0.263666 0.399300
Si Si8 0.592048 0.300774 0.831824
O O1 0.091740 0.505687 0.341326
O O2 0.000000 0.500000 0.500000
O O3 0.067413 0.859499 0.124710
O O4 0.951479 0.664457 0.937431
O O5 0.117916 0.992915 0.428987
O O6 0.154148 0.209195 0.588924
O O7 0.000000 0.000000 0.500000
O O8 0.777719 0.108700 0.584570
O O9 0.850202 0.773341 0.049385
O O10 0.597525 0.474845 0.503368
O O11 0.480084 0.692589 0.127367
O O12 0.500000 0.500000 0.000000
O O13 0.608542 0.797431 0.996519
O O14 0.244214 0.524563 0.640526
O O15 0.346895 0.839082 0.435675
O O16 0.421755 0.901547 0.129547
O O17 0.500000 0.000000 0.500000
O O18 0.675557 0.316833 0.073549
#
# Coordination Sequence:
#
# PCOD8030271 Si02
#       8
#     2   2   2   2   2   2   2   2
#     4  11  21  43  74 101 134 178 231 290 336 407
#     4  12  23  43  80 103 132 186 240 285 344 412
#     4  11  25  45  66 102 147 180 227 290 354 414
#     4  11  23  42  75 109 133 170 242 296 343 413
#     4  11  25  45  66 103 144 182 231 285 353 421
#     4  12  24  46  74 102 135 181 243 294 341 420
#     4  11  28  46  68  98 148 188 229 290 359 421
#     4  11  24  44  72 101 136 184 228 289 361 411
#
# _framework density 22.204726000000001
#
# number of rings (size 3 to 8) (size 9 to 14) (size 15 to 20)
#    0.000    0.750    5.000    1.875    0.000    5.000 
#    0.000    0.000    0.000    0.000    0.000    0.000 
#    0.000    0.000    0.000    0.000    0.000    0.000 
#
# Total GULP energy -198303.363765 kJ/mol
# GULP energy per Si atom -12393.960235 kJ/mol
# Density = 2.215419 g / cm^3
# Si number density = 22.204726 Si / 1000 Ang^3
#
#
#
# Elastic Constant Matrix: (Units=GPa)
#
#
# Indices 1 2 3 4 5 6 
#
# 1 94.6300 58.9462 31.6725 6.8663 -16.2320 -3.2287
# 2 58.9462 165.3484 63.6911 4.6276 -13.0749 3.2088
# 3 31.6725 63.6911 134.8095 -1.3344 -8.9329 9.5240
# 4 6.8663 4.6276 -1.3344 51.8302 3.1219 -7.6191
# 5 -16.2320 -13.0749 -8.9329 3.1219 34.5550 -1.3130
# 6 -3.2287 3.2088 9.5240 -7.6191 -1.3130 40.1453
#
#
#
# Elastic Compliance Matrix: (Units=1/GPa)
#
#
# Indices 1 2 3 4 5 6 
#
# 1 0.014761 -0.004380 -0.001190 -0.001661 0.005183 0.001674
# 2 -0.004380 0.008862 -0.003101 -0.000378 0.000514 -0.000380
# 3 -0.001190 -0.003101 0.009344 0.000349 0.000577 -0.001979
# 4 -0.001661 -0.000378 0.000349 0.020234 -0.002525 0.003571
# 5 0.005183 0.000514 0.000577 -0.002525 0.031976 0.000806
# 6 0.001674 -0.000380 -0.001979 0.003571 0.000806 0.026248
#
#
# Mechanical properties :
#
#
# Convention : Reuss Voigt Hill
#
# Bulk Modulus (GPa) = 63.99773 78.15641 71.07707
# Shear Modulus (GPa) = 37.32050 41.33798 39.32924
#
# Velocity S-wave (km/s) = 4.10414 4.31939 4.21314
# Velocity P-wave (km/s) = 7.16539 7.75569 7.46638
#
# Compressibility (1/GPa) = 0.01562555
#
# Stress axis : x y z
#
# Youngs Moduli (GPa) = 67.74753 112.83774 107.02157
#
# Poissons Ratio (x) = 0.49423 0.12734
# Poissons Ratio (y) = 0.29673 0.33185
# Poissons Ratio (z) = 0.08061 0.34989
#
# Static dielectric constant tensor:
#      x y z
#    x 6.749870 -0.095930 3.887440 
#    y -0.095930 4.236450 -0.207410 
#    z 3.887440 -0.207410 9.989680 
# 
# 
# High freq. dielectric constant tensor:
#      x y z
#    x 1.858090 -0.011450 -0.005000 
#    y -0.011450 1.887330 -0.004780 
#    z -0.005000 -0.004780 1.891960 
# 
# From -- ./inp_files/116563.got.cif
#   From: 2010.06.25/outbox.cif.g09.slc.cpg/sg2_59_cif.got.tgz:116563.got - 2010.06.27 13:26:56.
