data_PCOD8030144
_publ_section_title
;
Structure prediction by ZEFSAII (Michael W. Deem and Ramdas Pophale) SiO2 
 PCOD8030144
Probable space group: P -1
;
_chemical_formula_sum "Si O2"
_cell_formula_units_Z 14
_cell_length_a 8.381108
_cell_length_b 14.392176
_cell_length_c 13.083856
_cell_angle_alpha 142.460367
_cell_angle_beta 43.629387
_cell_angle_gamma 150.219801
_cell_volume 474.293374
_symmetry_space_group_name_H-M "P -1"
_symmetry_group_IT_number 2
_symmetry_cell_setting 'triclinic'
loop_
_space_group_symop_operation_xyz
x,y,z
-x,-y,-z
loop_
_atom_site_type_symbol
_atom_site_label
_atom_site_fract_x
_atom_site_fract_y
_atom_site_fract_z
Si Si1 0.275150 0.047015 0.348314
Si Si2 0.882824 0.811741 0.796112
Si Si3 0.203817 0.393369 0.966344
Si Si4 0.598275 0.381987 0.647478
Si Si5 0.414245 0.813179 0.174559
Si Si6 0.916464 0.297103 0.573077
Si Si7 0.585213 0.259678 0.186206
O O1 0.591104 0.266097 0.452266
O O2 0.310146 0.104105 0.263306
O O3 0.274911 0.862729 0.196522
O O4 0.000000 0.000000 0.500000
O O5 0.775055 0.622767 0.752072
O O6 0.592669 0.797408 0.891860
O O7 0.996044 0.803309 0.625392
O O8 0.201755 0.042708 0.895957
O O9 0.236615 0.267944 0.759497
O O10 0.500000 0.500000 0.000000
O O11 0.239482 0.570354 0.044574
O O12 0.841602 0.234368 0.043503
O O13 0.794018 0.391902 0.654920
O O14 0.352735 0.873470 0.365087
O O15 0.234913 0.498027 0.662276
#
# Coordination Sequence:
#
# PCOD8030144 Si02
#       7
#     2   2   2   2   2   2   2
#     4  12  27  46  75 111 144 183 251 302 347 425
#     4  12  24  41  73 110 139 185 247 297 354 422
#     4  11  26  50  73  99 150 196 235 289 368 433
#     4  12  25  45  75 101 145 190 238 292 366 421
#     4  11  25  43  74 105 143 188 239 295 356 426
#     4  11  21  42  72 102 139 185 241 291 355 416
#     4  11  25  45  72 103 146 191 235 294 361 426
#
# _framework density 29.517596999999999
#
# number of rings (size 3 to 8) (size 9 to 14) (size 15 to 20)
#    0.000    0.571    5.714    3.000    6.000    1.143 
#    0.000    1.429    0.000    0.000    0.000    0.000 
#    0.000    0.000    0.000    0.000    0.000    0.000 
#
# Total GULP energy -173631.901557 kJ/mol
# GULP energy per Si atom -12402.278683 kJ/mol
# Density = 2.945041 g / cm^3
# Si number density = 29.517597 Si / 1000 Ang^3
#
#
#
# Elastic Constant Matrix: (Units=GPa)
#
#
# Indices 1 2 3 4 5 6 
#
# 1 168.4261 40.9658 5.4415 0.7613 -27.0879 0.2277
# 2 40.9658 117.4463 9.8823 -24.9125 -12.8774 -6.8509
# 3 5.4415 9.8823 101.2193 -16.8900 -23.5913 14.1721
# 4 0.7613 -24.9125 -16.8900 52.0849 7.6141 -10.0889
# 5 -27.0879 -12.8774 -23.5913 7.6141 43.5674 -0.5280
# 6 0.2277 -6.8509 14.1721 -10.0889 -0.5280 44.6596
#
#
#
# Elastic Compliance Matrix: (Units=1/GPa)
#
#
# Indices 1 2 3 4 5 6 
#
# 1 0.007274 -0.002586 0.000726 -0.001967 0.004482 -0.001055
# 2 -0.002586 0.010876 -0.000290 0.005666 0.000497 0.003059
# 3 0.000726 -0.000290 0.012237 0.002209 0.006565 -0.003355
# 4 -0.001967 0.005666 0.002209 0.024103 -0.002497 0.005594
# 5 0.004482 0.000497 0.006565 -0.002497 0.029851 -0.002241
# 6 -0.001055 0.003059 -0.003355 0.005594 -0.002241 0.025168
#
#
# Mechanical properties :
#
#
# Convention : Reuss Voigt Hill
#
# Bulk Modulus (GPa) = 38.33376 55.51897 46.92636
# Shear Modulus (GPa) = 40.81489 50.11586 45.46538
#
# Velocity S-wave (km/s) = 3.72254 4.12494 3.92890
# Velocity P-wave (km/s) = 5.61172 6.44488 6.04268
#
# Compressibility (1/GPa) = 0.02608667
#
# Stress axis : x y z
#
# Youngs Moduli (GPa) = 137.47618 91.94964 81.71701
#
# Poissons Ratio (x) = 0.23775 -0.05929
# Poissons Ratio (y) = 0.35547 0.02369
# Poissons Ratio (z) = -0.09975 0.02666
#
# Static dielectric constant tensor:
#      x y z
#    x 5.345020 0.423670 0.310870 
#    y 0.423670 5.794860 -0.274190 
#    z 0.310870 -0.274190 6.226660 
# 
# 
# High freq. dielectric constant tensor:
#      x y z
#    x 2.206500 0.014970 0.010180 
#    y 0.014970 2.210560 -0.016860 
#    z 0.010180 -0.016860 2.239220 
# 
# From -- ./inp_files/199316.got.cif
#   From: 2010.06.25/outbox.cif.g09.slc.cpg/sg2_100_cif.got.tgz:199316.got - 2010.06.27 13:26:56.
