data_PCOD8030353
_publ_section_title
;
Structure prediction by ZEFSAII (Michael W. Deem and Ramdas Pophale) SiO2 
 PCOD8030353
Probable space group: P -1
;
_chemical_formula_sum "Si O2"
_cell_formula_units_Z 16
_cell_length_a 11.137622
_cell_length_b 15.589678
_cell_length_c 8.891354
_cell_angle_alpha 117.087451
_cell_angle_beta 73.207472
_cell_angle_gamma 54.185581
_cell_volume 712.193655
_symmetry_space_group_name_H-M "P -1"
_symmetry_group_IT_number 2
_symmetry_cell_setting 'triclinic'
loop_
_space_group_symop_operation_xyz
x,y,z
-x,-y,-z
loop_
_atom_site_type_symbol
_atom_site_label
_atom_site_fract_x
_atom_site_fract_y
_atom_site_fract_z
Si Si1 0.870271 0.441326 0.564827
Si Si2 0.449085 0.834530 0.945236
Si Si3 0.556561 0.013039 0.686124
Si Si4 0.753581 0.328380 0.702981
Si Si5 0.982525 0.656043 0.904348
Si Si6 0.236642 0.305364 0.524331
Si Si7 0.947006 0.856500 0.263273
Si Si8 0.014109 0.977012 0.799578
O O1 0.638165 0.654135 0.828919
O O2 0.832110 0.372792 0.624263
O O3 0.925403 0.378968 0.323382
O O4 0.082675 0.365766 0.490444
O O5 0.528044 0.804330 0.721737
O O6 0.414023 0.960632 0.137735
O O7 0.217819 0.921989 0.097862
O O8 0.694598 0.821303 0.482645
O O9 0.679945 0.003046 0.513314
O O10 0.294941 0.168776 0.853581
O O11 0.925110 0.197481 0.673760
O O12 0.772341 0.228194 0.496746
O O13 0.500000 0.500000 0.000000
O O14 0.092873 0.486052 0.795385
O O15 0.069932 0.685502 0.003455
O O16 0.951054 0.940874 0.214683
O O17 0.000000 0.000000 0.000000
#
# Coordination Sequence:
#
# PCOD8030353 Si02
#       8
#     2   2   2   2   2   2   2   2
#     4  11  21  44  72 103 139 184 233 290 355 425
#     4  11  22  42  75 101 136 181 237 292 346 418
#     4  12  23  41  73 103 142 186 226 293 358 421
#     4  12  27  45  71 104 141 191 235 297 361 418
#     4  11  25  44  68 107 147 181 237 290 349 434
#     4  11  22  40  72 106 136 184 236 287 358 417
#     4  12  27  46  67 103 144 185 230 297 357 417
#     4  12  28  49  73 100 137 192 249 289 348 433
#
# _framework density 22.465799000000001
#
# number of rings (size 3 to 8) (size 9 to 14) (size 15 to 20)
#    0.000    0.500    5.000    3.375    5.250    2.500 
#    0.000    4.375    0.000    0.000    0.000    0.000 
#    0.000    0.000    0.000    0.000    0.000    0.000 
#
# Total GULP energy -198459.043497 kJ/mol
# GULP energy per Si atom -12403.690219 kJ/mol
# Density = 2.241467 g / cm^3
# Si number density = 22.465799 Si / 1000 Ang^3
#
#
#
# Elastic Constant Matrix: (Units=GPa)
#
#
# Indices 1 2 3 4 5 6 
#
# 1 85.1220 39.3317 57.9282 0.4498 14.0496 22.2556
# 2 39.3317 112.1701 43.8194 0.5028 -0.5675 24.6129
# 3 57.9282 43.8194 132.6747 12.0664 6.1744 2.0629
# 4 0.4498 0.5028 12.0664 33.7024 2.5126 7.5149
# 5 14.0496 -0.5675 6.1744 2.5126 47.2072 -3.1403
# 6 22.2556 24.6129 2.0629 7.5149 -3.1403 30.2285
#
#
#
# Elastic Compliance Matrix: (Units=1/GPa)
#
#
# Indices 1 2 3 4 5 6 
#
# 1 0.027081 -0.000006 -0.011947 0.009537 -0.008493 -0.022372
# 2 -0.000006 0.013172 -0.004523 0.003987 -0.000221 -0.011426
# 3 -0.011947 -0.004523 0.014652 -0.008328 0.002950 0.013855
# 4 0.009537 0.003987 -0.008328 0.037176 -0.004974 -0.019459
# 5 -0.008493 -0.000221 0.002950 -0.004974 0.024252 0.009987
# 6 -0.022372 -0.011426 0.013855 -0.019459 0.009987 0.063786
#
#
# Mechanical properties :
#
#
# Convention : Reuss Voigt Hill
#
# Bulk Modulus (GPa) = 45.54723 68.01393 56.78058
# Shear Modulus (GPa) = 22.68742 34.82010 28.75376
#
# Velocity S-wave (km/s) = 3.18128 3.94117 3.58144
# Velocity P-wave (km/s) = 5.81482 7.14497 6.51394
#
# Compressibility (1/GPa) = 0.02195523
#
# Stress axis : x y z
#
# Youngs Moduli (GPa) = 36.92616 75.91836 68.25122
#
# Poissons Ratio (x) = 0.00043 0.81537
# Poissons Ratio (y) = 0.00021 0.30868
# Poissons Ratio (z) = 0.44114 0.34335
#
# Static dielectric constant tensor:
#      x y z
#    x 4.215680 0.138210 0.109000 
#    y 0.138210 3.927020 0.023170 
#    z 0.109000 0.023170 4.394440 
# 
# 
# High freq. dielectric constant tensor:
#      x y z
#    x 1.887880 0.011980 0.003940 
#    y 0.011980 1.881460 -0.003480 
#    z 0.003940 -0.003480 1.902950 
# 
# From -- ./inp_files/273648.got.cif
#   From: 2010.06.25/outbox.cif.g09.slc.cpg/sg2_137_cif.got.tgz:273648.got - 2010.06.27 13:26:56.
