data_PCOD8030287
_publ_section_title
;
Structure prediction by ZEFSAII (Michael W. Deem and Ramdas Pophale) SiO2 
 PCOD8030287
Probable space group: P -1
;
_chemical_formula_sum "Si O2"
_cell_formula_units_Z 16
_cell_length_a 21.020540
_cell_length_b 15.221321
_cell_length_c 9.013455
_cell_angle_alpha 132.975972
_cell_angle_beta 47.946972
_cell_angle_gamma 160.167529
_cell_volume 711.112071
_symmetry_space_group_name_H-M "P -1"
_symmetry_group_IT_number 2
_symmetry_cell_setting 'triclinic'
loop_
_space_group_symop_operation_xyz
x,y,z
-x,-y,-z
loop_
_atom_site_type_symbol
_atom_site_label
_atom_site_fract_x
_atom_site_fract_y
_atom_site_fract_z
Si Si1 0.122817 0.918106 0.251357
Si Si2 0.715825 0.787930 0.948411
Si Si3 0.038783 0.813033 0.734783
Si Si4 0.317195 0.578723 0.995120
Si Si5 0.707791 0.110146 0.091992
Si Si6 0.236488 0.633260 0.936302
Si Si7 0.946160 0.970468 0.266414
Si Si8 0.997909 0.474420 0.648533
O O1 0.921613 0.664867 0.192831
O O2 0.280837 0.155585 0.158096
O O3 0.112488 0.999161 0.492698
O O4 0.169015 0.836287 0.130359
O O5 0.500000 0.500000 0.000000
O O6 0.851901 0.839368 0.795233
O O7 0.798056 0.988593 0.166878
O O8 0.060360 0.738896 0.489215
O O9 0.036989 0.944363 0.821297
O O10 0.840789 0.540347 0.812302
O O11 0.383213 0.737210 0.925588
O O12 0.230316 0.340821 0.816657
O O13 0.497283 0.792395 0.067921
O O14 0.691579 0.218571 0.158568
O O15 0.800115 0.247139 0.267055
O O16 0.164654 0.653057 0.169794
O O17 0.000000 0.500000 0.500000
#
# Coordination Sequence:
#
# PCOD8030287 Si02
#       8
#     2   2   2   2   2   2   2   2
#     4  11  22  44  68  94 130 176 220 273 331 390
#     4  11  24  42  66  99 133 169 215 270 333 399
#     4  11  22  44  66  92 134 176 213 271 342 388
#     4  11  23  41  64  96 142 171 214 284 326 390
#     4  11  25  39  69  96 128 174 231 267 326 397
#     4  11  21  44  65  91 133 178 219 270 338 380
#     4  11  24  43  69  93 134 175 219 266 343 389
#     4  11  21  44  66  92 125 173 222 271 330 390
#
# _framework density 22.499972
#
# number of rings (size 3 to 8) (size 9 to 14) (size 15 to 20)
#    0.000    1.000    3.750    6.000    3.500    1.000 
#    2.250    1.250    0.000    0.000    0.000    0.000 
#    0.000    0.000    0.000    0.000    0.000    0.000 
#
# Total GULP energy -198278.510610 kJ/mol
# GULP energy per Si atom -12392.406913 kJ/mol
# Density = 2.244876 g / cm^3
# Si number density = 22.499972 Si / 1000 Ang^3
#
#
#
# Elastic Constant Matrix: (Units=GPa)
#
#
# Indices 1 2 3 4 5 6 
#
# 1 109.5283 36.6596 16.4992 14.2562 6.0982 -9.7076
# 2 36.6596 96.1716 45.2325 9.9878 3.4849 22.8303
# 3 16.4992 45.2325 110.1054 29.1120 -3.3791 6.0141
# 4 14.2562 9.9878 29.1120 24.5522 -8.5154 5.7066
# 5 6.0982 3.4849 -3.3791 -8.5154 29.3711 6.5484
# 6 -9.7076 22.8303 6.0141 5.7066 6.5484 40.1540
#
#
#
# Elastic Compliance Matrix: (Units=1/GPa)
#
#
# Indices 1 2 3 4 5 6 
#
# 1 0.015052 -0.008737 0.004859 -0.016802 -0.009018 0.011738
# 2 -0.008737 0.020188 -0.009615 0.013706 0.005634 -0.015017
# 3 0.004859 -0.009615 0.018202 -0.024877 -0.006898 0.008576
# 4 -0.016802 0.013706 -0.024877 0.091372 0.031338 -0.026225
# 5 -0.009018 0.005634 -0.006898 0.031338 0.047223 -0.016505
# 6 0.011738 -0.015017 0.008576 -0.026225 -0.016505 0.041415
#
#
# Mechanical properties :
#
#
# Convention : Reuss Voigt Hill
#
# Bulk Modulus (GPa) = 37.80128 56.95420 47.37774
# Shear Modulus (GPa) = 18.56962 33.30976 25.93969
#
# Velocity S-wave (km/s) = 2.87595 3.85182 3.39909
# Velocity P-wave (km/s) = 5.27875 6.71937 6.04215
#
# Compressibility (1/GPa) = 0.02645413
#
# Stress axis : x y z
#
# Youngs Moduli (GPa) = 66.43638 49.53362 54.94017
#
# Poissons Ratio (x) = 0.43280 -0.26693
# Poissons Ratio (y) = 0.58048 0.52825
# Poissons Ratio (z) = -0.32278 0.47627
#
# Static dielectric constant tensor:
#      x y z
#    x 4.372970 -0.170300 -0.044140 
#    y -0.170300 3.892020 0.248690 
#    z -0.044140 0.248690 4.074520 
# 
# 
# High freq. dielectric constant tensor:
#      x y z
#    x 1.905600 -0.012530 0.001310 
#    y -0.012530 1.870460 0.018970 
#    z 0.001310 0.018970 1.882450 
# 
# From -- ./inp_files/347677.got.cif
#   From: 2010.06.25/outbox.cif.g09.slc.cpg/sg2_174_cif.got.tgz:347677.got - 2010.06.27 13:26:56.
