data_PCOD8030178
_publ_section_title
;
Structure prediction by ZEFSAII (Michael W. Deem and Ramdas Pophale) SiO2 
 PCOD8030178
Probable space group: P -1
;
_chemical_formula_sum "Si O2"
_cell_formula_units_Z 14
_cell_length_a 15.763878
_cell_length_b 15.799568
_cell_length_c 8.499749
_cell_angle_alpha 125.969673
_cell_angle_beta 109.818345
_cell_angle_gamma 26.316678
_cell_volume 647.679906
_symmetry_space_group_name_H-M "P -1"
_symmetry_group_IT_number 2
_symmetry_cell_setting 'triclinic'
loop_
_space_group_symop_operation_xyz
x,y,z
-x,-y,-z
loop_
_atom_site_type_symbol
_atom_site_label
_atom_site_fract_x
_atom_site_fract_y
_atom_site_fract_z
Si Si1 0.210611 0.539031 0.413271
Si Si2 0.773857 0.797513 0.627345
Si Si3 0.799769 0.884605 0.410638
Si Si4 0.502694 0.929852 0.767697
Si Si5 0.528843 0.594983 0.115123
Si Si6 0.977451 0.138741 0.078755
Si Si7 0.599836 0.193121 0.070302
O O1 0.301583 0.360832 0.401945
O O2 0.036979 0.786978 0.681933
O O3 0.410753 0.395067 0.307705
O O4 0.061146 0.641818 0.294340
O O5 0.779832 0.831689 0.491938
O O6 0.570345 0.930887 0.664256
O O7 0.000000 0.500000 0.500000
O O8 0.714060 0.957939 0.879132
O O9 0.726121 0.890922 0.222559
O O10 0.652701 0.147326 0.615411
O O11 0.500000 0.000000 0.000000
O O12 0.768690 0.374910 0.091343
O O13 0.500000 0.500000 0.000000
O O14 0.523080 0.640441 0.983312
O O15 0.000000 0.000000 0.000000
O O16 0.201141 0.936967 0.905852
#
# Coordination Sequence:
#
# PCOD8030178 Si02
#       7
#     2   2   2   2   2   2   2
#     4  12  24  45  67 103 140 173 232 285 335 412
#     4  11  21  43  66  95 135 182 231 274 335 405
#     4  11  24  42  69  96 137 184 224 283 340 404
#     4  12  24  42  64  97 139 181 228 278 336 399
#     4  11  22  45  70  97 133 175 226 280 346 409
#     4  12  23  46  75  94 135 181 221 287 349 404
#     4  11  25  43  68 102 134 177 231 277 341 410
#
# _framework density 21.615614000000001
#
# number of rings (size 3 to 8) (size 9 to 14) (size 15 to 20)
#    0.000    0.571    8.571    0.429    0.000    2.286 
#    0.000    1.429    0.000    0.000    0.000    0.000 
#    0.000    0.000    0.000    0.000    0.000    0.000 
#
# Total GULP energy -173515.004498 kJ/mol
# GULP energy per Si atom -12393.928893 kJ/mol
# Density = 2.156642 g / cm^3
# Si number density = 21.615614 Si / 1000 Ang^3
#
#
#
# Elastic Constant Matrix: (Units=GPa)
#
#
# Indices 1 2 3 4 5 6 
#
# 1 155.4281 52.4014 45.7447 11.2956 -0.3726 -18.9600
# 2 52.4014 136.9475 21.6793 5.1594 8.5450 -26.1008
# 3 45.7447 21.6793 58.3963 -5.7718 0.5414 -2.0849
# 4 11.2956 5.1594 -5.7718 28.3199 -4.7400 6.9802
# 5 -0.3726 8.5450 0.5414 -4.7400 36.8980 8.1198
# 6 -18.9600 -26.1008 -2.0849 6.9802 8.1198 51.0068
#
#
#
# Elastic Compliance Matrix: (Units=1/GPa)
#
#
# Indices 1 2 3 4 5 6 
#
# 1 0.010235 -0.001654 -0.007902 -0.006474 -0.001041 0.003687
# 2 -0.001654 0.009720 -0.002439 -0.003579 -0.003872 0.005366
# 3 -0.007902 -0.002439 0.025042 0.010354 0.002545 -0.004984
# 4 -0.006474 -0.003579 0.010354 0.044949 0.008890 -0.011381
# 5 -0.001041 -0.003872 0.002545 0.008890 0.030943 -0.008407
# 6 0.003687 0.005366 -0.004984 -0.011381 -0.008407 0.026414
#
#
# Mechanical properties :
#
#
# Convention : Reuss Voigt Hill
#
# Bulk Modulus (GPa) = 47.60445 65.60252 56.60348
# Shear Modulus (GPa) = 28.04342 38.64137 33.34240
#
# Velocity S-wave (km/s) = 3.60581 4.23266 3.93175
# Velocity P-wave (km/s) = 6.27748 7.36904 6.84505
#
# Compressibility (1/GPa) = 0.02100644
#
# Stress axis : x y z
#
# Youngs Moduli (GPa) = 97.70488 102.87921 39.93292
#
# Poissons Ratio (x) = 0.17014 0.31556
# Poissons Ratio (y) = 0.16158 0.09741
# Poissons Ratio (z) = 0.77208 0.25096
#
# Static dielectric constant tensor:
#      x y z
#    x 3.904160 0.215300 0.119950 
#    y 0.215300 3.488080 0.011500 
#    z 0.119950 0.011500 3.561540 
# 
# 
# High freq. dielectric constant tensor:
#      x y z
#    x 1.862840 -0.004090 0.015450 
#    y -0.004090 1.861920 0.013960 
#    z 0.015450 0.013960 1.826790 
# 
# From -- ./inp_files/293411.got.cif
#   From: 2010.06.25/outbox.cif.g09.slc.cpg/sg2_147_cif.got.tgz:293411.got - 2010.06.27 13:26:56.
