data_PCOD8030609
_publ_section_title
;
Structure prediction by ZEFSAII (Michael W. Deem and Ramdas Pophale) SiO2 
 PCOD8030609
Probable space group: P -1
;
_chemical_formula_sum "Si O2"
_cell_formula_units_Z 16
_cell_length_a 6.621048
_cell_length_b 15.594327
_cell_length_c 16.060974
_cell_angle_alpha 142.445825
_cell_angle_beta 126.809345
_cell_angle_gamma 49.336727
_cell_volume 754.386294
_symmetry_space_group_name_H-M "P -1"
_symmetry_group_IT_number 2
_symmetry_cell_setting 'triclinic'
loop_
_space_group_symop_operation_xyz
x,y,z
-x,-y,-z
loop_
_atom_site_type_symbol
_atom_site_label
_atom_site_fract_x
_atom_site_fract_y
_atom_site_fract_z
Si Si1 0.878921 0.302895 0.955139
Si Si2 0.934475 0.117481 0.146480
Si Si3 0.387585 0.368893 0.158043
Si Si4 0.733369 0.721041 0.464881
Si Si5 0.737432 0.546574 0.624317
Si Si6 0.445667 0.189966 0.340118
Si Si7 0.508093 0.460880 0.838494
Si Si8 0.005963 0.964312 0.724560
O O1 0.748373 0.401347 0.918024
O O2 0.736175 0.395332 0.073662
O O3 0.835211 0.143362 0.816387
O O4 0.200215 0.273708 0.012222
O O5 0.701148 0.268529 0.173834
O O6 0.840865 0.069482 0.173901
O O7 0.226749 0.114419 0.243817
O O8 0.000000 0.000000 0.000000
O O9 0.253792 0.454864 0.275066
O O10 0.375134 0.488436 0.175759
O O11 0.542996 0.734463 0.509296
O O12 0.590145 0.677707 0.316249
O O13 0.994704 0.576506 0.440419
O O14 0.815512 0.867924 0.580962
O O15 0.500000 0.500000 0.500000
O O16 0.684937 0.706421 0.691993
O O17 0.749322 0.076790 0.312549
#
# Coordination Sequence:
#
# PCOD8030609 Si02
#       8
#     2   2   2   2   2   2   2   2
#     4  11  26  46  68  93 130 172 223 279 318 380
#     4  11  23  36  62  96 135 171 202 259 329 400
#     4  12  23  40  66  97 128 168 218 268 320 382
#     4  11  23  41  66  95 131 174 216 268 323 386
#     4  12  20  37  62  96 129 168 206 260 319 388
#     4  11  22  39  60  99 136 169 207 261 323 397
#     4  11  25  46  70  94 123 174 231 273 319 372
#     4  11  24  42  63 100 136 168 213 261 337 394
#
# _framework density 21.209292999999999
#
# number of rings (size 3 to 8) (size 9 to 14) (size 15 to 20)
#    0.000    0.750    3.750    4.500    1.750    2.500 
#    0.000    0.625    0.000    0.000    0.000    0.000 
#    0.000    0.000    0.000    0.000    0.000    0.000 
#
# Total GULP energy -198313.195147 kJ/mol
# GULP energy per Si atom -12394.574697 kJ/mol
# Density = 2.116102 g / cm^3
# Si number density = 21.209293 Si / 1000 Ang^3
#
#
#
# Elastic Constant Matrix: (Units=GPa)
#
#
# Indices 1 2 3 4 5 6 
#
# 1 107.2473 31.0301 50.8637 -0.8266 -18.7828 0.0694
# 2 31.0301 70.9045 30.0233 6.3672 -7.8891 11.8989
# 3 50.8637 30.0233 122.7368 9.8131 -12.5622 -0.7177
# 4 -0.8266 6.3672 9.8131 33.5418 -0.0275 1.0824
# 5 -18.7828 -7.8891 -12.5622 -0.0275 39.9658 -2.3738
# 6 0.0694 11.8989 -0.7177 1.0824 -2.3738 23.9408
#
#
#
# Elastic Compliance Matrix: (Units=1/GPa)
#
#
# Indices 1 2 3 4 5 6 
#
# 1 0.013281 -0.004124 -0.004232 0.002281 0.004230 0.002201
# 2 -0.004124 0.018898 -0.002722 -0.002592 0.000382 -0.009307
# 3 -0.004232 -0.002722 0.010909 -0.002840 0.001015 0.001921
# 4 0.002281 -0.002592 -0.002840 0.031200 -0.000326 -0.000246
# 5 0.004230 0.000382 0.001015 -0.000326 0.027557 0.002575
# 6 0.002201 -0.009307 0.001921 -0.000246 0.002575 0.046713
#
#
# Mechanical properties :
#
#
# Convention : Reuss Voigt Hill
#
# Bulk Modulus (GPa) = 47.77014 58.30253 53.03633
# Shear Modulus (GPa) = 28.13870 32.08780 30.11325
#
# Velocity S-wave (km/s) = 3.64636 3.89384 3.77213
# Velocity P-wave (km/s) = 6.34823 6.91121 6.63569
#
# Compressibility (1/GPa) = 0.02093358
#
# Stress axis : x y z
#
# Youngs Moduli (GPa) = 75.29341 52.91597 91.66574
#
# Poissons Ratio (x) = 0.21822 0.38790
# Poissons Ratio (y) = 0.31051 0.24949
# Poissons Ratio (z) = 0.31862 0.14402
#
# Static dielectric constant tensor:
#      x y z
#    x 4.068170 -0.203800 -0.078320 
#    y -0.203800 3.333240 0.239720 
#    z -0.078320 0.239720 3.855720 
# 
# 
# High freq. dielectric constant tensor:
#      x y z
#    x 1.844330 0.003040 -0.009280 
#    y 0.003040 1.806440 -0.005010 
#    z -0.009280 -0.005010 1.843550 
# 
# From -- ./inp_files/69114.got.cif
#   From: 2010.06.25/outbox.cif.g09.slc.cpg/sg2_35_cif.got.tgz:69114.got - 2010.06.27 13:26:56.
