data_PCOD8030961
_publ_section_title
;
Structure prediction by ZEFSAII (Michael W. Deem and Ramdas Pophale) SiO2 
 PCOD8030961
Probable space group: P -1
;
_chemical_formula_sum "Si O2"
_cell_formula_units_Z 14
_cell_length_a 11.804577
_cell_length_b 9.570910
_cell_length_c 9.018468
_cell_angle_alpha 70.576629
_cell_angle_beta 107.159954
_cell_angle_gamma 56.679613
_cell_volume 638.605814
_symmetry_space_group_name_H-M "P -1"
_symmetry_group_IT_number 2
_symmetry_cell_setting 'triclinic'
loop_
_space_group_symop_operation_xyz
x,y,z
-x,-y,-z
loop_
_atom_site_type_symbol
_atom_site_label
_atom_site_fract_x
_atom_site_fract_y
_atom_site_fract_z
Si Si1 0.087836 0.052066 0.103943
Si Si2 0.977843 0.629492 0.582165
Si Si3 0.118666 0.479695 0.162009
Si Si4 0.191384 0.944112 0.519117
Si Si5 0.569179 0.353807 0.719997
Si Si6 0.421475 0.378477 0.193891
Si Si7 0.705433 0.471703 0.224107
O O1 0.084960 0.045644 0.286227
O O2 0.283915 0.892338 0.183253
O O3 0.982714 0.282850 0.919056
O O4 0.000000 0.000000 0.000000
O O5 0.861590 0.642209 0.646029
O O6 0.000000 0.500000 0.500000
O O7 0.169297 0.500486 0.750028
O O8 0.882472 0.875416 0.448023
O O9 0.304925 0.346592 0.214024
O O10 0.000000 0.500000 0.000000
O O11 0.386044 0.817980 0.606984
O O12 0.188190 0.779430 0.641563
O O13 0.500000 0.500000 0.500000
O O14 0.650407 0.404041 0.842419
O O15 0.412139 0.408648 0.717301
O O16 0.418434 0.405438 0.007285
#
# Coordination Sequence:
#
# PCOD8030961 Si02
#       7
#     2   2   2   2   2   2   2
#     4  12  24  41  75 104 135 182 229 278 337 409
#     4  12  29  45  67 100 141 183 223 285 342 409
#     4  12  25  47  66  99 143 180 227 273 348 408
#     4  11  24  46  71 102 132 185 233 279 342 396
#     4  11  22  41  69 107 131 170 233 285 330 395
#     4  11  23  44  73  98 139 179 225 288 334 402
#     4  11  24  46  71  98 140 175 231 284 336 403
#
# _framework density 21.922757000000001
#
# number of rings (size 3 to 8) (size 9 to 14) (size 15 to 20)
#    0.000    0.571    7.143    2.143    4.000    2.857 
#    2.571    1.429    0.000    0.000    0.000    0.000 
#    0.000    0.000    0.000    0.000    0.000    0.000 
#
# Total GULP energy -173494.437115 kJ/mol
# GULP energy per Si atom -12392.459794 kJ/mol
# Density = 2.187286 g / cm^3
# Si number density = 21.922757 Si / 1000 Ang^3
#
#
#
# Elastic Constant Matrix: (Units=GPa)
#
#
# Indices 1 2 3 4 5 6 
#
# 1 131.9210 21.2020 28.9683 8.5103 -5.5531 6.9063
# 2 21.2020 123.9303 19.7041 4.4077 4.7884 6.3638
# 3 28.9683 19.7041 81.1619 11.1220 -1.8339 2.2787
# 4 8.5103 4.4077 11.1220 34.7464 -0.8191 -0.3936
# 5 -5.5531 4.7884 -1.8339 -0.8191 33.7543 9.8930
# 6 6.9063 6.3638 2.2787 -0.3936 9.8930 32.6399
#
#
#
# Elastic Compliance Matrix: (Units=1/GPa)
#
#
# Indices 1 2 3 4 5 6 
#
# 1 0.008565 -0.000989 -0.002560 -0.001130 0.001986 -0.002056
# 2 -0.000989 0.008617 -0.001690 -0.000349 -0.001194 -0.000995
# 3 -0.002560 -0.001690 0.014173 -0.003685 0.000600 -0.000345
# 4 -0.001130 -0.000349 -0.003685 0.030294 0.000138 0.000888
# 5 0.001986 -0.001194 0.000600 0.000138 0.033171 -0.010282
# 6 -0.002056 -0.000995 -0.000345 0.000888 -0.010282 0.034418
#
#
# Mechanical properties :
#
#
# Convention : Reuss Voigt Hill
#
# Bulk Modulus (GPa) = 47.89876 52.97358 50.43617
# Shear Modulus (GPa) = 34.08896 38.03736 36.06316
#
# Velocity S-wave (km/s) = 3.94757 4.16993 4.06027
# Velocity P-wave (km/s) = 6.53254 6.88481 6.71099
#
# Compressibility (1/GPa) = 0.02087737
#
# Stress axis : x y z
#
# Youngs Moduli (GPa) = 116.74783 116.05444 70.55596
#
# Poissons Ratio (x) = 0.11482 0.18060
# Poissons Ratio (y) = 0.11551 0.11924
# Poissons Ratio (z) = 0.29883 0.19613
#
# Static dielectric constant tensor:
#      x y z
#    x 3.997870 -0.054690 0.223420 
#    y -0.054690 4.194780 0.057930 
#    z 0.223420 0.057930 3.757940 
# 
# 
# High freq. dielectric constant tensor:
#      x y z
#    x 1.873630 -0.008290 0.011240 
#    y -0.008290 1.862950 0.008010 
#    z 0.011240 0.008010 1.852160 
# 
# From -- ./inp_files/243082.got.cif
#   From: 2010.06.25/outbox.cif.g09.slc.cpg/sg2_122_cif.got.tgz:243082.got - 2010.06.27 13:26:56.
