data_PCOD8030561
_publ_section_title
;
Structure prediction by ZEFSAII (Michael W. Deem and Ramdas Pophale) SiO2 
 PCOD8030561
Probable space group: P -1
;
_chemical_formula_sum "Si O2"
_cell_formula_units_Z 14
_cell_length_a 13.171179
_cell_length_b 5.038557
_cell_length_c 11.372897
_cell_angle_alpha 110.336375
_cell_angle_beta 67.198732
_cell_angle_gamma 115.511114
_cell_volume 612.954665
_symmetry_space_group_name_H-M "P -1"
_symmetry_group_IT_number 2
_symmetry_cell_setting 'triclinic'
loop_
_space_group_symop_operation_xyz
x,y,z
-x,-y,-z
loop_
_atom_site_type_symbol
_atom_site_label
_atom_site_fract_x
_atom_site_fract_y
_atom_site_fract_z
Si Si1 0.031204 0.729637 0.686435
Si Si2 0.287768 0.895873 0.551909
Si Si3 0.462668 0.781279 0.870780
Si Si4 0.665410 0.695197 0.619410
Si Si5 0.918076 0.065226 0.642064
Si Si6 0.927408 0.215937 0.063678
Si Si7 0.327745 0.105013 0.834053
O O1 0.082026 0.698596 0.785341
O O2 0.928858 0.408612 0.667665
O O3 0.148403 0.787677 0.563999
O O4 0.971168 0.984900 0.729986
O O5 0.659867 0.369022 0.527596
O O6 0.353849 0.142435 0.464440
O O7 0.314208 0.048914 0.691679
O O8 0.567452 0.684047 0.757077
O O9 0.363626 0.462330 0.899595
O O10 0.420778 0.962483 0.818319
O O11 0.500000 0.000000 0.000000
O O12 0.784929 0.860024 0.659979
O O13 0.000000 0.000000 0.500000
O O14 0.792362 0.052465 0.061068
O O15 0.000000 0.500000 0.000000
O O16 0.000000 0.000000 0.000000
#
# Coordination Sequence:
#
# PCOD8030561 Si02
#       7
#     2   2   2   2   2   2   2
#     4  11  22  38  62  96 139 171 207 281 336 403
#     4  11  22  42  67 103 130 166 225 278 350 403
#     4  12  28  49  67  96 135 184 235 278 327 407
#     4  12  25  39  68  99 136 178 228 274 330 413
#     4  12  21  37  63  97 138 175 209 266 349 395
#     4  11  24  43  69 102 131 173 231 273 333 409
#     4  11  26  47  74  94 138 179 217 297 344 384
#
# _framework density 22.84019
#
# number of rings (size 3 to 8) (size 9 to 14) (size 15 to 20)
#    0.000    0.571    2.857    5.143    0.000   11.429 
#    0.000    0.000    0.000    0.000    0.000    0.000 
#    0.000    0.000    0.000    0.000    0.000    0.000 
#
# Total GULP energy -173535.259489 kJ/mol
# GULP energy per Si atom -12395.375678 kJ/mol
# Density = 2.278821 g / cm^3
# Si number density = 22.840190 Si / 1000 Ang^3
#
#
#
# Elastic Constant Matrix: (Units=GPa)
#
#
# Indices 1 2 3 4 5 6 
#
# 1 92.0715 44.0211 23.0206 -5.1997 2.0870 4.2221
# 2 44.0211 160.5879 50.3969 -0.1566 -0.2689 -11.5234
# 3 23.0206 50.3969 82.1532 -8.8055 -8.3151 12.6036
# 4 -5.1997 -0.1566 -8.8055 38.8533 -6.3780 2.3883
# 5 2.0870 -0.2689 -8.3151 -6.3780 36.6763 -1.4960
# 6 4.2221 -11.5234 12.6036 2.3883 -1.4960 38.4596
#
#
#
# Elastic Compliance Matrix: (Units=1/GPa)
#
#
# Indices 1 2 3 4 5 6 
#
# 1 0.012951 -0.003332 -0.001188 0.001440 -0.000868 -0.002154
# 2 -0.003332 0.009401 -0.006016 -0.002306 -0.001292 0.005247
# 3 -0.001188 -0.006016 0.018453 0.005270 0.004803 -0.007860
# 4 0.001440 -0.002306 0.005270 0.028329 0.005855 -0.004108
# 5 -0.000868 -0.001292 0.004803 0.005855 0.029368 -0.001087
# 6 -0.002154 0.005247 -0.007860 -0.004108 -0.001087 0.030598
#
#
# Mechanical properties :
#
#
# Convention : Reuss Voigt Hill
#
# Bulk Modulus (GPa) = 50.67899 63.29887 56.98893
# Shear Modulus (GPa) = 31.89792 37.28945 34.59368
#
# Velocity S-wave (km/s) = 3.74113 4.04496 3.89600
# Velocity P-wave (km/s) = 6.39516 7.04199 6.72635
#
# Compressibility (1/GPa) = 0.01973204
#
# Stress axis : x y z
#
# Youngs Moduli (GPa) = 77.21381 106.37621 54.19250
#
# Poissons Ratio (x) = 0.35444 0.06439
# Poissons Ratio (y) = 0.25727 0.32603
# Poissons Ratio (z) = 0.09174 0.63997
#
# Static dielectric constant tensor:
#      x y z
#    x 4.508010 -0.363520 0.238180 
#    y -0.363520 4.444910 -0.313140 
#    z 0.238180 -0.313140 4.188340 
# 
# 
# High freq. dielectric constant tensor:
#      x y z
#    x 1.913080 -0.005100 0.005610 
#    y -0.005100 1.914290 -0.007570 
#    z 0.005610 -0.007570 1.896410 
# 
# From -- ./inp_files/410768.got.cif
#   From: 2010.06.25/outbox.cif.g09.slc.cpg/sg2_206_cif.got.tgz:410768.got - 2010.06.27 13:26:56.
