data_PCOD8030527
_publ_section_title
;
Structure prediction by ZEFSAII (Michael W. Deem and Ramdas Pophale) SiO2 
 PCOD8030527
Probable space group: P -1
;
_chemical_formula_sum "Si O2"
_cell_formula_units_Z 16
_cell_length_a 6.531066
_cell_length_b 11.568751
_cell_length_c 11.811400
_cell_angle_alpha 79.128735
_cell_angle_beta 99.431615
_cell_angle_gamma 120.584045
_cell_volume 752.048720
_symmetry_space_group_name_H-M "P -1"
_symmetry_group_IT_number 2
_symmetry_cell_setting 'triclinic'
loop_
_space_group_symop_operation_xyz
x,y,z
-x,-y,-z
loop_
_atom_site_type_symbol
_atom_site_label
_atom_site_fract_x
_atom_site_fract_y
_atom_site_fract_z
Si Si1 0.623722 0.215763 0.139067
Si Si2 0.039350 0.213697 0.721508
Si Si3 0.530912 0.071064 0.763616
Si Si4 0.490816 0.277500 0.885092
Si Si5 0.137492 0.426010 0.202811
Si Si6 0.442620 0.298367 0.318002
Si Si7 0.768493 0.877293 0.449596
Si Si8 0.948758 0.520029 0.365856
O O1 0.502490 0.215681 0.247028
O O2 0.891185 0.342494 0.127045
O O3 0.623874 0.073384 0.161247
O O4 0.471085 0.226516 0.020784
O O5 0.228948 0.250563 0.832683
O O6 0.150746 0.199036 0.617836
O O7 0.955970 0.324301 0.679723
O O8 0.787273 0.082757 0.754684
O O9 0.569739 0.192403 0.827741
O O10 0.392797 0.070648 0.637230
O O11 0.679368 0.437740 0.870922
O O12 0.233385 0.321347 0.247750
O O13 0.090917 0.466037 0.314436
O O14 0.383238 0.222496 0.445971
O O15 0.668485 0.445178 0.329856
O O16 0.000000 0.000000 0.500000
O O17 0.000000 0.500000 0.500000
#
# Coordination Sequence:
#
# PCOD8030527 Si02
#       8
#     2   2   2   2   2   2   2   2
#     4  11  26  43  66  95 128 176 218 264 322 380
#     4  11  23  40  66  95 128 168 212 261 326 379
#     4  11  24  44  67  96 131 168 218 266 321 385
#     4  11  24  44  68  94 129 171 221 269 314 380
#     4  11  23  43  65  96 131 166 219 267 322 379
#     4  11  24  40  63  96 131 164 212 264 322 386
#     4  11  24  41  65  96 132 170 208 265 326 388
#     4  11  22  37  63  95 126 167 208 259 324 380
#
# _framework density 21.275217000000001
#
# number of rings (size 3 to 8) (size 9 to 14) (size 15 to 20)
#    0.000    1.000    2.500    3.750    1.750    8.000 
#    0.000    0.000    0.000    0.000    0.000    0.000 
#    0.000    0.000    0.000    0.000    0.000    0.000 
#
# Total GULP energy -198465.719207 kJ/mol
# GULP energy per Si atom -12404.107450 kJ/mol
# Density = 2.122679 g / cm^3
# Si number density = 21.275217 Si / 1000 Ang^3
#
#
#
# Elastic Constant Matrix: (Units=GPa)
#
#
# Indices 1 2 3 4 5 6 
#
# 1 100.4972 28.6934 28.7669 -0.1058 15.1419 9.6151
# 2 28.6934 108.0128 33.8112 -10.3195 12.8815 6.9379
# 3 28.7669 33.8112 117.3620 -7.5728 20.5116 5.7423
# 4 -0.1058 -10.3195 -7.5728 31.5729 1.0594 5.1692
# 5 15.1419 12.8815 20.5116 1.0594 30.7099 -5.7770
# 6 9.6151 6.9379 5.7423 5.1692 -5.7770 29.5167
#
#
#
# Elastic Compliance Matrix: (Units=1/GPa)
#
#
# Indices 1 2 3 4 5 6 
#
# 1 0.012035 -0.001920 -0.001314 -0.000047 -0.005037 -0.004191
# 2 -0.001920 0.011286 -0.001815 0.003846 -0.003270 -0.002988
# 3 -0.001314 -0.001815 0.010817 0.002704 -0.006472 -0.002990
# 4 -0.000047 0.003846 0.002704 0.035231 -0.006269 -0.008811
# 5 -0.005037 -0.003270 -0.006472 -0.006269 0.043453 0.013271
# 6 -0.004191 -0.002988 -0.002990 -0.008811 0.013271 0.040669
#
#
# Mechanical properties :
#
#
# Convention : Reuss Voigt Hill
#
# Bulk Modulus (GPa) = 41.59884 56.49057 49.04470
# Shear Modulus (GPa) = 29.13706 33.99992 31.56849
#
# Velocity S-wave (km/s) = 3.70473 4.00196 3.85621
# Velocity P-wave (km/s) = 6.15591 6.92562 6.55208
#
# Compressibility (1/GPa) = 0.02403913
#
# Stress axis : x y z
#
# Youngs Moduli (GPa) = 83.09167 88.60845 92.44325
#
# Poissons Ratio (x) = 0.17015 0.12150
# Poissons Ratio (y) = 0.15955 0.16777
# Poissons Ratio (z) = 0.10921 0.16082
#
# Static dielectric constant tensor:
#      x y z
#    x 3.874980 0.169900 0.011600 
#    y 0.169900 4.038750 -0.004810 
#    z 0.011600 -0.004810 3.819420 
# 
# 
# High freq. dielectric constant tensor:
#      x y z
#    x 1.838520 0.005480 0.006610 
#    y 0.005480 1.847140 0.001210 
#    z 0.006610 0.001210 1.834610 
# 
# From -- ./inp_files/68442.got.cif
#   From: 2010.06.25/outbox.cif.g09.slc.cpg/sg2_35_cif.got.tgz:68442.got - 2010.06.27 13:26:56.
