data_PCOD8030616
_publ_section_title
;
Structure prediction by ZEFSAII (Michael W. Deem and Ramdas Pophale) SiO2 
 PCOD8030616
Probable space group: P -1
;
_chemical_formula_sum "Si O2"
_cell_formula_units_Z 16
_cell_length_a 11.238413
_cell_length_b 11.922019
_cell_length_c 11.867817
_cell_angle_alpha 128.309245
_cell_angle_beta 98.989027
_cell_angle_gamma 122.860293
_cell_volume 696.367140
_symmetry_space_group_name_H-M "P -1"
_symmetry_group_IT_number 2
_symmetry_cell_setting 'triclinic'
loop_
_space_group_symop_operation_xyz
x,y,z
-x,-y,-z
loop_
_atom_site_type_symbol
_atom_site_label
_atom_site_fract_x
_atom_site_fract_y
_atom_site_fract_z
Si Si1 0.113124 0.323070 0.877449
Si Si2 0.205737 0.485147 0.637695
Si Si3 0.738357 0.394805 0.719978
Si Si4 0.153293 0.628449 0.927518
Si Si5 0.742544 0.034456 0.281396
Si Si6 0.386055 0.460361 0.823490
Si Si7 0.676827 0.917519 0.449422
Si Si8 0.571481 0.179246 0.326561
O O1 0.210546 0.565776 0.990518
O O2 0.238011 0.320350 0.827535
O O3 0.161048 0.372390 0.049732
O O4 0.860789 0.071249 0.663759
O O5 0.193764 0.608778 0.796255
O O6 0.254528 0.386805 0.650263
O O7 0.384617 0.686523 0.695180
O O8 0.976403 0.243313 0.391834
O O9 0.498386 0.136147 0.572639
O O10 0.702187 0.384548 0.575028
O O11 0.904750 0.427883 0.783700
O O12 0.315838 0.921578 0.151143
O O13 0.644757 0.087931 0.260157
O O14 0.779899 0.072566 0.445492
O O15 0.597240 0.761698 0.051217
O O16 0.447105 0.354770 0.753139
#
# Coordination Sequence:
#
# PCOD8030616 Si02
#       8
#     2   2   2   2   2   2   2   2
#     4  11  22  39  62  94 130 167 208 262 321 369
#     4  11  24  42  66  96 125 168 214 266 309 367
#     4  12  25  37  62  96 133 173 198 257 322 389
#     4  11  22  39  62  94 130 167 208 262 321 369
#     4  12  22  39  68  99 124 160 206 270 320 365
#     4  11  24  42  66  96 125 168 214 266 309 367
#     4  12  24  42  64  97 132 163 214 258 320 377
#     4  12  24  42  64  97 132 163 214 258 320 377
#
# _framework density 22.976386000000002
#
# number of rings (size 3 to 8) (size 9 to 14) (size 15 to 20)
#    0.000    0.500    7.500    2.625    0.000    3.500 
#    0.000    0.625    0.000    2.250    0.000    0.000 
#    0.000    0.000    0.000    0.000    0.000    0.000 
#
# Total GULP energy -198340.928542 kJ/mol
# GULP energy per Si atom -12396.308034 kJ/mol
# Density = 2.292409 g / cm^3
# Si number density = 22.976386 Si / 1000 Ang^3
#
#
#
# Elastic Constant Matrix: (Units=GPa)
#
#
# Indices 1 2 3 4 5 6 
#
# 1 64.6954 25.8432 18.2826 7.0811 -1.1388 9.0322
# 2 25.8432 74.7376 21.0635 0.4485 -12.1972 6.4762
# 3 18.2826 21.0635 114.6339 1.5185 13.6559 12.5069
# 4 7.0811 0.4485 1.5185 30.0857 11.6252 3.1912
# 5 -1.1388 -12.1972 13.6559 11.6252 27.6919 4.6023
# 6 9.0322 6.4762 12.5069 3.1912 4.6023 23.5798
#
#
#
# Elastic Compliance Matrix: (Units=1/GPa)
#
#
# Indices 1 2 3 4 5 6 
#
# 1 0.019324 -0.005423 -0.001745 -0.004652 0.002009 -0.004750
# 2 -0.005423 0.018349 -0.003493 -0.002866 0.011270 -0.002922
# 3 -0.001745 -0.003493 0.010866 0.003264 -0.007832 -0.003049
# 4 -0.004652 -0.002866 0.003264 0.042290 -0.020676 -0.000850
# 5 0.002009 0.011270 -0.007832 -0.020676 0.054970 -0.007642
# 6 -0.004750 -0.002922 -0.003049 -0.000850 -0.007642 0.048255
#
#
# Mechanical properties :
#
#
# Convention : Reuss Voigt Hill
#
# Bulk Modulus (GPa) = 36.73992 42.71617 39.72805
# Shear Modulus (GPa) = 22.27691 28.86334 25.57013
#
# Velocity S-wave (km/s) = 3.11715 3.54816 3.33962
# Velocity P-wave (km/s) = 5.38335 5.95127 5.67442
#
# Compressibility (1/GPa) = 0.02721835
#
# Stress axis : x y z
#
# Youngs Moduli (GPa) = 51.74920 54.49825 92.03144
#
# Poissons Ratio (x) = 0.29553 0.16059
# Poissons Ratio (y) = 0.28063 0.32142
# Poissons Ratio (z) = 0.09030 0.19034
#
# Static dielectric constant tensor:
#      x y z
#    x 4.070610 0.171400 0.164540 
#    y 0.171400 3.769190 -0.102840 
#    z 0.164540 -0.102840 4.371550 
# 
# 
# High freq. dielectric constant tensor:
#      x y z
#    x 1.890170 0.012870 0.019850 
#    y 0.012870 1.862990 -0.005110 
#    z 0.019850 -0.005110 1.934670 
# 
# From -- ./inp_files/428739.got.cif
#   From: 2010.06.25/outbox.cif.g09.slc.cpg/sg2_215_cif.got.tgz:428739.got - 2010.06.27 13:26:56.
