data_PCOD8030184
_publ_section_title
;
Structure prediction by ZEFSAII (Michael W. Deem and Ramdas Pophale) SiO2 
 PCOD8030184
Probable space group: P -1
;
_chemical_formula_sum "Si O2"
_cell_formula_units_Z 16
_cell_length_a 15.260576
_cell_length_b 8.972864
_cell_length_c 11.941482
_cell_angle_alpha 125.880743
_cell_angle_beta 37.646918
_cell_angle_gamma 108.352768
_cell_volume 771.569948
_symmetry_space_group_name_H-M "P -1"
_symmetry_group_IT_number 2
_symmetry_cell_setting 'triclinic'
loop_
_space_group_symop_operation_xyz
x,y,z
-x,-y,-z
loop_
_atom_site_type_symbol
_atom_site_label
_atom_site_fract_x
_atom_site_fract_y
_atom_site_fract_z
Si Si1 0.687658 0.117558 0.119736
Si Si2 0.919056 0.168370 0.071119
Si Si3 0.185295 0.136715 0.637060
Si Si4 0.124962 0.166408 0.360250
Si Si5 0.233083 0.416450 0.522282
Si Si6 0.198120 0.830089 0.318427
Si Si7 0.430957 0.161210 0.552191
Si Si8 0.425143 0.579042 0.818312
O O1 0.763858 0.146290 0.171883
O O2 0.522308 0.117402 0.323597
O O3 0.669656 0.294554 0.131067
O O4 0.780628 0.914337 0.882416
O O5 0.877262 0.367627 0.268050
O O6 0.013526 0.174090 0.865360
O O7 0.000000 0.000000 0.000000
O O8 0.198544 0.303333 0.614151
O O9 0.268808 0.147630 0.674081
O O10 0.242063 0.924489 0.428489
O O11 0.187916 0.333831 0.416583
O O12 0.946627 0.245825 0.548160
O O13 0.154208 0.997783 0.346010
O O14 0.407827 0.403676 0.336831
O O15 0.339833 0.655598 0.055501
O O16 0.423689 0.363796 0.704017
O O17 0.500000 0.000000 0.500000
#
# Coordination Sequence:
#
# PCOD8030184 Si02
#       8
#     2   2   2   2   2   2   2   2
#     4  11  21  43  67  87 126 163 205 252 307 361
#     4  12  25  42  62  89 129 166 204 256 305 360
#     4  11  23  40  66  92 120 167 207 251 305 363
#     4   9  20  37  64  92 121 157 202 258 303 359
#     4  11  23  40  65  96 122 158 209 254 307 366
#     4   9  20  38  61  94 123 152 206 258 303 357
#     4  12  25  41  61  91 128 164 205 252 309 366
#     4  11  23  40  66  94 124 158 204 260 305 365
#
# _framework density 20.736941000000002
#
# number of rings (size 3 to 8) (size 9 to 14) (size 15 to 20)
#    0.000    1.250    3.750    2.250    5.250    1.500 
#    0.000    2.500    0.000    0.000    0.000    0.000 
#    0.000    0.000    0.000    0.000    0.000    0.000 
#
# Total GULP energy -198415.909328 kJ/mol
# GULP energy per Si atom -12400.994333 kJ/mol
# Density = 2.068974 g / cm^3
# Si number density = 20.736941 Si / 1000 Ang^3
#
#
#
# Elastic Constant Matrix: (Units=GPa)
#
#
# Indices 1 2 3 4 5 6 
#
# 1 89.1175 57.1129 29.9108 25.9277 3.7226 23.2546
# 2 57.1129 68.5351 55.1083 21.0944 6.1902 8.1893
# 3 29.9108 55.1083 160.7751 12.7586 14.5839 9.8640
# 4 25.9277 21.0944 12.7586 26.8047 7.7614 -3.8320
# 5 3.7226 6.1902 14.5839 7.7614 31.2404 7.3909
# 6 23.2546 8.1893 9.8640 -3.8320 7.3909 28.3776
#
#
#
# Elastic Compliance Matrix: (Units=1/GPa)
#
#
# Indices 1 2 3 4 5 6 
#
# 1 0.053764 -0.032831 0.005688 -0.041022 0.018751 -0.046984
# 2 -0.032831 0.048245 -0.011352 0.003543 -0.005697 0.018889
# 3 0.005688 -0.011352 0.009571 -0.001333 -0.001500 -0.004501
# 4 -0.041022 0.003543 -0.001333 0.091284 -0.030486 0.053324
# 5 0.018751 -0.005697 -0.001500 -0.030486 0.046117 -0.029328
# 6 -0.046984 0.018889 -0.004501 0.053324 -0.029328 0.084694
#
#
# Mechanical properties :
#
#
# Convention : Reuss Voigt Hill
#
# Bulk Modulus (GPa) = 28.90950 66.96575 47.93763
# Shear Modulus (GPa) = 11.84283 29.03759 20.44021
#
# Velocity S-wave (km/s) = 2.39236 3.74610 3.14298
# Velocity P-wave (km/s) = 4.64785 7.14661 6.02812
#
# Compressibility (1/GPa) = 0.03459070
#
# Stress axis : x y z
#
# Youngs Moduli (GPa) = 18.59972 20.72732 104.48379
#
# Poissons Ratio (x) = 0.68049 -0.59431
# Poissons Ratio (y) = 0.61064 1.18613
# Poissons Ratio (z) = -0.10580 0.23530
#
# Static dielectric constant tensor:
#      x y z
#    x 3.720190 0.296600 0.111220 
#    y 0.296600 3.664970 -0.070860 
#    z 0.111220 -0.070860 4.080930 
# 
# 
# High freq. dielectric constant tensor:
#      x y z
#    x 1.809580 0.023340 0.003020 
#    y 0.023340 1.790720 -0.006140 
#    z 0.003020 -0.006140 1.828190 
# 
# From -- ./inp_files/179198.got.cif
#   From: 2010.06.25/outbox.cif.g09.slc.cpg/sg2_90_cif.got.tgz:179198.got - 2010.06.27 13:26:56.
