data_PCOD8030688
_publ_section_title
;
Structure prediction by ZEFSAII (Michael W. Deem and Ramdas Pophale) SiO2 
 PCOD8030688
Probable space group: P -1
;
_chemical_formula_sum "Si O2"
_cell_formula_units_Z 14
_cell_length_a 11.561228
_cell_length_b 5.141366
_cell_length_c 14.863434
_cell_angle_alpha 114.463588
_cell_angle_beta 130.533020
_cell_angle_gamma 72.663170
_cell_volume 610.665788
_symmetry_space_group_name_H-M "P -1"
_symmetry_group_IT_number 2
_symmetry_cell_setting 'triclinic'
loop_
_space_group_symop_operation_xyz
x,y,z
-x,-y,-z
loop_
_atom_site_type_symbol
_atom_site_label
_atom_site_fract_x
_atom_site_fract_y
_atom_site_fract_z
Si Si1 0.153528 0.461808 0.815777
Si Si2 0.308235 0.493410 0.579168
Si Si3 0.651216 0.529146 0.784516
Si Si4 0.830486 0.891669 0.400056
Si Si5 0.914697 0.143231 0.893539
Si Si6 0.213071 0.126200 0.962326
Si Si7 0.814770 0.592626 0.687803
O O1 0.198242 0.345822 0.723520
O O2 0.255813 0.272532 0.910805
O O3 0.973789 0.408562 0.732430
O O4 0.194516 0.790572 0.891406
O O5 0.482557 0.416949 0.683035
O O6 0.203757 0.270698 0.546695
O O7 0.289774 0.453324 0.457848
O O8 0.276429 0.827616 0.632528
O O9 0.765244 0.327929 0.874557
O O10 0.719709 0.518317 0.717668
O O11 0.662390 0.829129 0.888210
O O12 0.000000 0.000000 0.500000
O O13 0.052118 0.297316 0.934481
O O14 0.853682 0.920835 0.758661
O O15 0.000000 0.000000 0.000000
#
# Coordination Sequence:
#
# PCOD8030688 Si02
#       7
#     2   2   2   2   2   2   2
#     4  11  24  43  76 102 131 181 257 296 341 402
#     4  12  30  45  75 106 146 196 232 295 371 416
#     4  12  25  45  67 110 159 182 229 290 367 447
#     4  12  27  52  74 100 139 188 258 301 340 420
#     4  11  22  39  69 102 149 187 235 279 349 426
#     4  11  23  41  70 107 137 187 230 294 351 420
#     4  11  24  41  70 106 148 187 232 293 357 433
#
# _framework density 22.925798
#
# number of rings (size 3 to 8) (size 9 to 14) (size 15 to 20)
#    0.000    0.571    4.286    3.857    8.000    0.571 
#    0.000    4.286    0.000    0.000    0.000    0.000 
#    0.000    0.000    0.000    0.000    0.000    0.000 
#
# Total GULP energy -173519.129150 kJ/mol
# GULP energy per Si atom -12394.223511 kJ/mol
# Density = 2.287362 g / cm^3
# Si number density = 22.925798 Si / 1000 Ang^3
#
#
#
# Elastic Constant Matrix: (Units=GPa)
#
#
# Indices 1 2 3 4 5 6 
#
# 1 86.3546 38.0417 63.6706 -4.8978 -4.7152 9.4235
# 2 38.0417 110.9695 57.1219 -10.2163 -0.8884 11.9099
# 3 63.6706 57.1219 168.2264 4.1268 -0.2013 -3.7902
# 4 -4.8978 -10.2163 4.1268 29.5569 0.2821 -6.3721
# 5 -4.7152 -0.8884 -0.2013 0.2821 38.1429 -3.1929
# 6 9.4235 11.9099 -3.7902 -6.3721 -3.1929 29.5909
#
#
#
# Elastic Compliance Matrix: (Units=1/GPa)
#
#
# Indices 1 2 3 4 5 6 
#
# 1 0.017845 -0.002219 -0.006159 0.001961 0.001691 -0.004974
# 2 -0.002219 0.012338 -0.003526 0.003533 -0.000366 -0.003989
# 3 -0.006159 -0.003526 0.009629 -0.002721 -0.000439 0.003980
# 4 0.001961 0.003533 -0.002721 0.036966 0.000507 0.005620
# 5 0.001691 -0.000366 -0.000439 0.000507 0.026624 0.002534
# 6 -0.004974 -0.003989 0.003980 0.005620 0.002534 0.038977
#
#
# Mechanical properties :
#
#
# Convention : Reuss Voigt Hill
#
# Bulk Modulus (GPa) = 62.48879 75.91320 69.20099
# Shear Modulus (GPa) = 29.15087 33.23923 31.19505
#
# Velocity S-wave (km/s) = 3.56972 3.81184 3.69276
# Velocity P-wave (km/s) = 6.65633 7.24968 6.95933
#
# Compressibility (1/GPa) = 0.01600287
#
# Stress axis : x y z
#
# Youngs Moduli (GPa) = 56.03808 81.05019 103.85764
#
# Poissons Ratio (x) = 0.17989 0.63961
# Poissons Ratio (y) = 0.12437 0.36624
# Poissons Ratio (z) = 0.34511 0.28581
#
# Static dielectric constant tensor:
#      x y z
#    x 4.330930 -0.116940 -0.290180 
#    y -0.116940 4.148710 0.150120 
#    z -0.290180 0.150120 4.299570 
# 
# 
# High freq. dielectric constant tensor:
#      x y z
#    x 1.885970 0.007340 -0.014730 
#    y 0.007340 1.904310 0.011170 
#    z -0.014730 0.011170 1.922510 
# 
# From -- ./inp_files/432184.got.cif
#   From: 2010.06.25/outbox.cif.g09.slc.cpg/sg2_217_cif.got.tgz:432184.got - 2010.06.27 13:26:56.
