data_PCOD8030415
_publ_section_title
;
Structure prediction by ZEFSAII (Michael W. Deem and Ramdas Pophale) SiO2 
 PCOD8030415
Probable space group: P -1
;
_chemical_formula_sum "Si O2"
_cell_formula_units_Z 16
_cell_length_a 20.059332
_cell_length_b 14.205181
_cell_length_c 11.120797
_cell_angle_alpha 31.608314
_cell_angle_beta 151.211901
_cell_angle_gamma 151.397946
_cell_volume 682.530993
_symmetry_space_group_name_H-M "P -1"
_symmetry_group_IT_number 2
_symmetry_cell_setting 'triclinic'
loop_
_space_group_symop_operation_xyz
x,y,z
-x,-y,-z
loop_
_atom_site_type_symbol
_atom_site_label
_atom_site_fract_x
_atom_site_fract_y
_atom_site_fract_z
Si Si1 0.337136 0.558588 0.079696
Si Si2 0.427966 0.236428 0.551984
Si Si3 0.702193 0.281738 0.562179
Si Si4 0.833458 0.838691 0.471575
Si Si5 0.996782 0.503329 0.348318
Si Si6 0.258672 0.601123 0.251651
Si Si7 0.166643 0.867223 0.658025
Si Si8 0.534314 0.818414 0.898331
O O1 0.325353 0.347289 0.237969
O O2 0.469440 0.654247 0.286922
O O3 0.396918 0.731922 0.879252
O O4 0.167216 0.499183 0.937383
O O5 0.546337 0.269500 0.593284
O O6 0.317503 0.986124 0.674525
O O7 0.841288 0.302336 0.667150
O O8 0.782390 0.450199 0.614894
O O9 0.565188 0.301001 0.251014
O O10 0.617122 0.064637 0.737763
O O11 0.825308 0.618944 0.714515
O O12 0.840112 0.939504 0.502656
O O13 0.676840 0.778923 0.206129
O O14 0.000000 0.000000 0.500000
O O15 0.000000 0.500000 0.500000
O O16 0.981894 0.295523 0.486232
O O17 0.189219 0.740378 0.938962
#
# Coordination Sequence:
#
# PCOD8030415 Si02
#       8
#     2   2   2   2   2   2   2   2
#     4  11  21  45  72 101 144 188 236 299 351 423
#     4  11  22  41  71 106 134 184 243 296 356 416
#     4  11  26  43  72 107 143 196 238 290 365 428
#     4  12  26  44  70 106 147 183 240 298 352 423
#     4  12  27  45  72 102 147 189 239 297 361 426
#     4  12  24  44  73 106 145 189 236 300 357 423
#     4  12  26  43  73 106 142 188 243 294 358 431
#     4  11  23  45  71 102 147 184 243 289 351 432
#
# _framework density 23.442160000000001
#
# number of rings (size 3 to 8) (size 9 to 14) (size 15 to 20)
#    0.000    0.500    6.250    1.875    3.500    1.500 
#    0.000    0.625    0.000    0.000    0.000    0.000 
#    0.000    0.000    0.000    0.000    0.000    0.000 
#
# Total GULP energy -198260.426185 kJ/mol
# GULP energy per Si atom -12391.276637 kJ/mol
# Density = 2.338880 g / cm^3
# Si number density = 23.442160 Si / 1000 Ang^3
#
#
#
# Elastic Constant Matrix: (Units=GPa)
#
#
# Indices 1 2 3 4 5 6 
#
# 1 148.5166 48.9510 37.2800 -5.0269 -20.2423 2.5449
# 2 48.9510 89.2494 34.7499 3.5067 -7.8560 1.7227
# 3 37.2800 34.7499 45.5450 -7.8971 -10.3150 4.3888
# 4 -5.0269 3.5067 -7.8971 18.0078 -2.9483 -1.4925
# 5 -20.2423 -7.8560 -10.3150 -2.9483 27.0094 -4.3313
# 6 2.5449 1.7227 4.3888 -1.4925 -4.3313 42.8239
#
#
#
# Elastic Compliance Matrix: (Units=1/GPa)
#
#
# Indices 1 2 3 4 5 6 
#
# 1 0.009577 -0.003526 -0.003564 0.002690 0.005173 0.000555
# 2 -0.003526 0.018860 -0.014414 -0.011607 -0.003908 0.000128
# 3 -0.003564 -0.014414 0.042486 0.022196 0.011525 -0.001623
# 4 0.002690 -0.011607 0.022196 0.070932 0.015187 0.002040
# 5 0.005173 -0.003908 0.011525 0.015187 0.046448 0.003896
# 6 0.000555 0.000128 -0.001623 0.002040 0.003896 0.023945
#
#
# Mechanical properties :
#
#
# Convention : Reuss Voigt Hill
#
# Bulk Modulus (GPa) = 35.82250 58.36363 47.09307
# Shear Modulus (GPa) = 18.89922 28.39023 23.64473
#
# Velocity S-wave (km/s) = 2.84246 3.48383 3.17936
# Velocity P-wave (km/s) = 5.10756 6.41355 5.79745
#
# Compressibility (1/GPa) = 0.02791541
#
# Stress axis : x y z
#
# Youngs Moduli (GPa) = 104.42065 53.02173 23.53704
#
# Poissons Ratio (x) = 0.18695 0.08389
# Poissons Ratio (y) = 0.36818 0.33926
# Poissons Ratio (z) = 0.37216 0.76425
#
# Static dielectric constant tensor:
#      x y z
#    x 4.786420 0.237450 0.099190 
#    y 0.237450 4.650710 0.094610 
#    z 0.099190 0.094610 4.570350 
# 
# 
# High freq. dielectric constant tensor:
#      x y z
#    x 1.942240 0.017690 -0.011870 
#    y 0.017690 1.929290 -0.004820 
#    z -0.011870 -0.004820 1.901630 
# 
# From -- ./inp_files/471699.got.cif
#   From: 2010.06.25/outbox.cif.g09.slc.cpg/sg2_236_cif.got.tgz:471699.got - 2010.06.27 13:26:56.
