data_PCOD8030438
_publ_section_title
;
Structure prediction by ZEFSAII (Michael W. Deem and Ramdas Pophale) SiO2 
 PCOD8030438
Probable space group: P -1
;
_chemical_formula_sum "Si O2"
_cell_formula_units_Z 10
_cell_length_a 13.828011
_cell_length_b 17.760946
_cell_length_c 16.783331
_cell_angle_alpha 164.299321
_cell_angle_beta 24.131100
_cell_angle_gamma 155.607563
_cell_volume 436.312161
_symmetry_space_group_name_H-M "P -1"
_symmetry_group_IT_number 2
_symmetry_cell_setting 'triclinic'
loop_
_space_group_symop_operation_xyz
x,y,z
-x,-y,-z
loop_
_atom_site_type_symbol
_atom_site_label
_atom_site_fract_x
_atom_site_fract_y
_atom_site_fract_z
Si Si1 0.126535 0.678020 0.749657
Si Si2 0.014577 0.039817 0.720532
Si Si3 0.349987 0.812783 0.351648
Si Si4 0.607136 0.768725 0.961290
Si Si5 0.091937 0.567957 0.088722
O O1 0.308712 0.487164 0.403106
O O2 0.845118 0.472284 0.754754
O O3 0.188525 0.860336 0.972797
O O4 0.174469 0.925109 0.896705
O O5 0.222313 0.014213 0.601851
O O6 0.914447 0.727669 0.432571
O O7 0.115166 0.281961 0.824275
O O8 0.500000 0.000000 0.500000
O O9 0.534150 0.706714 0.045947
O O10 0.368464 0.792127 0.113315
O O11 0.000000 0.500000 0.000000
#
# Coordination Sequence:
#
# PCOD8030438 Si02
#       5
#     2   2   2   2   2
#     4  12  23  45  68 100 140 175 229 275 339 402
#     4  11  21  46  66  95 145 170 219 289 326 397
#     4  11  26  46  71 100 140 182 225 282 334 400
#     4  11  24  43  70  95 139 180 219 285 339 391
#     4  11  23  44  74 100 132 182 227 275 345 402
#
# _framework density 22.919370000000001
#
# number of rings (size 3 to 8) (size 9 to 14) (size 15 to 20)
#    0.000    0.800    6.000    3.000    0.000    2.400 
#    0.000    6.000    0.000    0.000    0.000    0.000 
#    0.000    0.000    0.000    0.000    0.000    0.000 
#
# Total GULP energy -123893.292489 kJ/mol
# GULP energy per Si atom -12389.329249 kJ/mol
# Density = 2.286720 g / cm^3
# Si number density = 22.919370 Si / 1000 Ang^3
#
#
#
# Elastic Constant Matrix: (Units=GPa)
#
#
# Indices 1 2 3 4 5 6 
#
# 1 154.0024 40.9649 58.0020 -4.5470 35.2653 -6.8060
# 2 40.9649 112.8249 42.2148 0.1832 12.1920 -18.3020
# 3 58.0020 42.2148 174.9782 -4.9561 31.5298 -12.2724
# 4 -4.5470 0.1832 -4.9561 42.2145 -17.9498 4.5832
# 5 35.2653 12.1920 31.5298 -17.9498 41.7557 8.7310
# 6 -6.8060 -18.3020 -12.2724 4.5832 8.7310 18.9441
#
#
#
# Elastic Compliance Matrix: (Units=1/GPa)
#
#
# Indices 1 2 3 4 5 6 
#
# 1 0.009815 -0.000567 -0.000446 -0.005098 -0.011950 0.009429
# 2 -0.000567 0.013210 -0.000076 -0.006390 -0.009967 0.018649
# 3 -0.000446 -0.000076 0.008355 -0.004586 -0.010177 0.010979
# 4 -0.005098 -0.006390 -0.004586 0.041737 0.035393 -0.037385
# 5 -0.011950 -0.009967 -0.010177 0.035393 0.072962 -0.062704
# 6 0.009429 0.018649 0.010979 -0.037385 -0.062704 0.119248
#
#
# Mechanical properties :
#
#
# Convention : Reuss Voigt Hill
#
# Bulk Modulus (GPa) = 34.24556 80.46319 57.35438
# Shear Modulus (GPa) = 18.03487 40.62445 29.32966
#
# Velocity S-wave (km/s) = 2.80819 4.21467 3.58115
# Velocity P-wave (km/s) = 5.04864 7.67254 6.49448
#
# Compressibility (1/GPa) = 0.02920086
#
# Stress axis : x y z
#
# Youngs Moduli (GPa) = 101.88420 75.69796 119.68555
#
# Poissons Ratio (x) = 0.04296 0.05343
# Poissons Ratio (y) = 0.05782 0.00910
# Poissons Ratio (z) = 0.04548 0.00575
#
# Static dielectric constant tensor:
#      x y z
#    x 3.860220 -0.339430 0.288740 
#    y -0.339430 4.418840 -0.022670 
#    z 0.288740 -0.022670 4.681670 
# 
# 
# High freq. dielectric constant tensor:
#      x y z
#    x 1.865740 -0.031000 0.025380 
#    y -0.031000 1.898180 0.005920 
#    z 0.025380 0.005920 1.938790 
# 
# From -- ./inp_files/132369.got.cif
#   From: 2010.06.25/outbox.cif.g09.slc.cpg/sg2_67_cif.got.tgz:132369.got - 2010.06.27 13:26:56.
