data_PCOD8030657
_publ_section_title
;
Structure prediction by ZEFSAII (Michael W. Deem and Ramdas Pophale) SiO2 
 PCOD8030657
Probable space group: P -1
;
_chemical_formula_sum "Si O2"
_cell_formula_units_Z 16
_cell_length_a 9.336722
_cell_length_b 14.165762
_cell_length_c 9.453622
_cell_angle_alpha 78.096732
_cell_angle_beta 133.061857
_cell_angle_gamma 75.874186
_cell_volume 753.285583
_symmetry_space_group_name_H-M "P -1"
_symmetry_group_IT_number 2
_symmetry_cell_setting 'triclinic'
loop_
_space_group_symop_operation_xyz
x,y,z
-x,-y,-z
loop_
_atom_site_type_symbol
_atom_site_label
_atom_site_fract_x
_atom_site_fract_y
_atom_site_fract_z
Si Si1 0.233653 0.761363 0.591023
Si Si2 0.773711 0.301644 0.073363
Si Si3 0.894180 0.483402 0.719293
Si Si4 0.464563 0.896970 0.666127
Si Si5 0.863940 0.747455 0.194038
Si Si6 0.695597 0.850128 0.540602
Si Si7 0.623084 0.714424 0.300346
Si Si8 0.665249 0.537162 0.839813
O O1 0.225568 0.723066 0.754505
O O2 0.280755 0.862945 0.593187
O O3 0.428279 0.656601 0.663611
O O4 0.985454 0.805054 0.337661
O O5 0.036027 0.241224 0.211173
O O6 0.636114 0.258652 0.902831
O O7 0.644617 0.437603 0.925812
O O8 0.800397 0.587387 0.515578
O O9 0.708269 0.516422 0.707919
O O10 0.934319 0.372141 0.700917
O O11 0.138485 0.452101 0.956079
O O12 0.538178 0.865029 0.563250
O O13 0.331052 0.032166 0.559872
O O14 0.695151 0.835096 0.935089
O O15 0.714282 0.722588 0.207181
O O16 0.606480 0.808135 0.365863
#
# Coordination Sequence:
#
# PCOD8030657 Si02
#       8
#     2   2   2   2   2   2   2   2
#     4  12  24  43  68 100 134 176 219 271 330 393
#     4  12  24  43  68 100 134 176 219 271 330 393
#     4  11  22  39  66  98 138 175 211 266 332 398
#     4  11  26  47  69  97 133 173 224 278 326 386
#     4  12  24  43  68 100 134 176 219 271 330 393
#     4  11  26  47  69  97 133 173 224 278 326 386
#     4  12  24  43  68 100 134 176 219 271 330 393
#     4  11  22  39  66  98 138 175 211 266 332 398
#
# _framework density 21.240283999999999
#
# number of rings (size 3 to 8) (size 9 to 14) (size 15 to 20)
#    0.000    0.500    5.000    3.000    0.000    7.000 
#    0.000    2.500    0.000    0.000    0.000    0.000 
#    0.000    0.000    0.000    0.000    0.000    0.000 
#
# Total GULP energy -198530.606149 kJ/mol
# GULP energy per Si atom -12408.162884 kJ/mol
# Density = 2.119194 g / cm^3
# Si number density = 21.240284 Si / 1000 Ang^3
#
#
#
# Elastic Constant Matrix: (Units=GPa)
#
#
# Indices 1 2 3 4 5 6 
#
# 1 48.6643 5.7233 8.4024 8.9550 -3.7648 13.6888
# 2 5.7233 82.3050 41.9716 10.1164 3.8786 18.5648
# 3 8.4024 41.9716 51.6067 7.6889 -10.2210 4.4685
# 4 8.9550 10.1164 7.6889 35.3828 9.9798 -0.2993
# 5 -3.7648 3.8786 -10.2210 9.9798 33.2941 1.7936
# 6 13.6888 18.5648 4.4685 -0.2993 1.7936 34.1396
#
#
#
# Elastic Compliance Matrix: (Units=1/GPa)
#
#
# Indices 1 2 3 4 5 6 
#
# 1 0.026139 0.004020 -0.004408 -0.008105 0.004231 -0.012383
# 2 0.004020 0.027169 -0.023145 -0.001412 -0.008697 -0.012912
# 3 -0.004408 -0.023145 0.042444 -0.006116 0.016637 0.007870
# 4 -0.008105 -0.001412 -0.006116 0.035968 -0.013726 0.005855
# 5 0.004231 -0.008697 0.016637 -0.013726 0.040825 -0.001410
# 6 -0.012383 -0.012912 0.007870 0.005855 -0.001410 0.040374
#
#
# Mechanical properties :
#
#
# Convention : Reuss Voigt Hill
#
# Bulk Modulus (GPa) = 20.53946 32.75230 26.64588
# Shear Modulus (GPa) = 18.10197 28.99521 23.54859
#
# Velocity S-wave (km/s) = 2.92249 3.69874 3.33329
# Velocity P-wave (km/s) = 4.59119 5.80468 5.23322
#
# Compressibility (1/GPa) = 0.04868678
#
# Stress axis : x y z
#
# Youngs Moduli (GPa) = 38.25648 36.80624 23.56054
#
# Poissons Ratio (x) = -0.14796 0.10385
# Poissons Ratio (y) = -0.15379 0.54532
# Poissons Ratio (z) = 0.16862 0.85189
#
# Static dielectric constant tensor:
#      x y z
#    x 3.944260 0.103730 -0.013720 
#    y 0.103730 3.934830 0.113100 
#    z -0.013720 0.113100 3.905000 
# 
# 
# High freq. dielectric constant tensor:
#      x y z
#    x 1.842580 0.006480 -0.005800 
#    y 0.006480 1.836730 0.011020 
#    z -0.005800 0.011020 1.838340 
# 
# From -- ./inp_files/206551.got.cif
#   From: 2010.06.25/outbox.cif.g09.slc.cpg/sg2_104_cif.got.tgz:206551.got - 2010.06.27 13:26:56.
