data_PCOD8030681
_publ_section_title
;
Structure prediction by ZEFSAII (Michael W. Deem and Ramdas Pophale) SiO2 
 PCOD8030681
Probable space group: P -1
;
_chemical_formula_sum "Si O2"
_cell_formula_units_Z 14
_cell_length_a 8.813304
_cell_length_b 9.084879
_cell_length_c 11.540933
_cell_angle_alpha 131.162412
_cell_angle_beta 115.396476
_cell_angle_gamma 67.431702
_cell_volume 621.406741
_symmetry_space_group_name_H-M "P -1"
_symmetry_group_IT_number 2
_symmetry_cell_setting 'triclinic'
loop_
_space_group_symop_operation_xyz
x,y,z
-x,-y,-z
loop_
_atom_site_type_symbol
_atom_site_label
_atom_site_fract_x
_atom_site_fract_y
_atom_site_fract_z
Si Si1 0.326766 0.646362 0.510516
Si Si2 0.041317 0.997748 0.298230
Si Si3 0.607559 0.175495 0.611758
Si Si4 0.869074 0.643226 0.108192
Si Si5 0.035339 0.405594 0.635378
Si Si6 0.489227 0.431189 0.090071
Si Si7 0.206333 0.737361 0.766077
O O1 0.500000 0.500000 0.500000
O O2 0.338515 0.805921 0.494917
O O3 0.294250 0.755887 0.679451
O O4 0.166734 0.529239 0.372898
O O5 0.063674 0.180195 0.483954
O O6 0.947784 0.075545 0.186032
O O7 0.227541 0.872604 0.275229
O O8 0.922828 0.858480 0.248050
O O9 0.501607 0.383003 0.725322
O O10 0.500000 0.000000 0.500000
O O11 0.864249 0.564784 0.197527
O O12 0.684415 0.658157 0.995977
O O13 0.000000 0.500000 0.000000
O O14 0.113053 0.543091 0.639319
O O15 0.649512 0.263836 0.088936
O O16 0.500000 0.500000 0.000000
#
# Coordination Sequence:
#
# PCOD8030681 Si02
#       7
#     2   2   2   2   2   2   2
#     4  11  22  39  68 104 137 170 227 286 338 397
#     4  11  24  43  70 102 131 177 236 276 340 401
#     4  12  26  43  70 106 137 176 232 286 341 404
#     4  12  24  44  69  95 141 188 221 275 342 419
#     4  11  23  44  71 100 139 178 226 284 344 404
#     4  12  25  46  68  99 141 184 224 276 350 411
#     4  11  25  43  71 105 137 179 230 287 345 398
#
# _framework density 22.529530000000001
#
# number of rings (size 3 to 8) (size 9 to 14) (size 15 to 20)
#    0.000    0.571    5.714    3.000    4.000    0.571 
#    0.000    2.857    0.000    0.000    0.000    0.000 
#    0.000    0.000    0.000    0.000    0.000    0.000 
#
# Total GULP energy -173541.878749 kJ/mol
# GULP energy per Si atom -12395.848482 kJ/mol
# Density = 2.247825 g / cm^3
# Si number density = 22.529530 Si / 1000 Ang^3
#
#
#
# Elastic Constant Matrix: (Units=GPa)
#
#
# Indices 1 2 3 4 5 6 
#
# 1 100.2861 50.1900 19.0134 -10.1860 27.8370 7.0344
# 2 50.1900 124.3648 17.7502 -26.8509 11.9508 -11.9839
# 3 19.0134 17.7502 50.9187 -13.8618 14.6299 2.9560
# 4 -10.1860 -26.8509 -13.8618 44.4719 -3.2932 12.2710
# 5 27.8370 11.9508 14.6299 -3.2932 45.9979 -13.0126
# 6 7.0344 -11.9839 2.9560 12.2710 -13.0126 47.2479
#
#
#
# Elastic Compliance Matrix: (Units=1/GPa)
#
#
# Indices 1 2 3 4 5 6 
#
# 1 0.016541 -0.006060 -0.000378 0.001216 -0.010241 -0.007112
# 2 -0.006060 0.011772 -0.001517 0.004463 0.002397 0.003484
# 3 -0.000378 -0.001517 0.025356 0.008021 -0.008674 -0.006387
# 4 0.001216 0.004463 0.008021 0.029994 -0.004746 -0.008648
# 5 -0.010241 0.002397 -0.008674 -0.004746 0.033445 0.013119
# 6 -0.007112 0.003484 -0.006387 -0.008648 0.013119 0.029366
#
#
# Mechanical properties :
#
#
# Convention : Reuss Voigt Hill
#
# Bulk Modulus (GPa) = 26.48335 49.94188 38.21261
# Shear Modulus (GPa) = 28.57629 40.11794 34.34712
#
# Velocity S-wave (km/s) = 3.56531 4.22439 3.90877
# Velocity P-wave (km/s) = 5.35995 6.78302 6.11304
#
# Compressibility (1/GPa) = 0.03775957
#
# Stress axis : x y z
#
# Youngs Moduli (GPa) = 60.45578 84.94660 39.43896
#
# Poissons Ratio (x) = 0.51480 0.01489
# Poissons Ratio (y) = 0.36638 0.05981
# Poissons Ratio (z) = 0.02283 0.12883
#
# Static dielectric constant tensor:
#      x y z
#    x 4.435260 -0.225280 0.313630 
#    y -0.225280 4.419720 -0.262600 
#    z 0.313630 -0.262600 3.948390 
# 
# 
# High freq. dielectric constant tensor:
#      x y z
#    x 1.899860 -0.003400 0.023860 
#    y -0.003400 1.897420 -0.020660 
#    z 0.023860 -0.020660 1.862690 
# 
# From -- ./inp_files/175401.got.cif
#   From: 2010.06.25/outbox.cif.g09.slc.cpg/sg2_88_cif.got.tgz:175401.got - 2010.06.27 13:26:56.
