data_PCOD8030576
_publ_section_title
;
Structure prediction by ZEFSAII (Michael W. Deem and Ramdas Pophale) SiO2 
 PCOD8030576
Probable space group: P -1
;
_chemical_formula_sum "Si O2"
_cell_formula_units_Z 14
_cell_length_a 5.078435
_cell_length_b 16.884879
_cell_length_c 10.126435
_cell_angle_alpha 57.486139
_cell_angle_beta 110.566441
_cell_angle_gamma 89.601345
_cell_volume 664.148075
_symmetry_space_group_name_H-M "P -1"
_symmetry_group_IT_number 2
_symmetry_cell_setting 'triclinic'
loop_
_space_group_symop_operation_xyz
x,y,z
-x,-y,-z
loop_
_atom_site_type_symbol
_atom_site_label
_atom_site_fract_x
_atom_site_fract_y
_atom_site_fract_z
Si Si1 0.609802 0.235615 0.253454
Si Si2 0.983526 0.078477 0.041073
Si Si3 0.192499 0.517036 0.198917
Si Si4 0.435269 0.206018 0.955835
Si Si5 0.230356 0.428337 0.696103
Si Si6 0.053912 0.352725 0.188868
Si Si7 0.787598 0.029993 0.556048
O O1 0.286458 0.288824 0.189480
O O2 0.708367 0.145316 0.449510
O O3 0.850784 0.293495 0.275487
O O4 0.605857 0.210802 0.119139
O O5 0.074751 0.017451 0.243427
O O6 0.184706 0.150788 0.981833
O O7 0.659183 0.145396 0.942625
O O8 0.000000 0.000000 0.000000
O O9 0.481463 0.532663 0.303041
O O10 0.211084 0.402644 0.284344
O O11 0.902540 0.563903 0.188080
O O12 0.167772 0.565937 0.007574
O O13 0.304768 0.313871 0.775667
O O14 0.000000 0.500000 0.500000
O O15 0.500000 0.000000 0.500000
O O16 0.000000 0.000000 0.500000
#
# Coordination Sequence:
#
# PCOD8030576 Si02
#       7
#     2   2   2   2   2   2   2
#     4  12  21  39  67  96 129 164 221 266 330 398
#     4  12  26  47  68  98 136 175 222 280 342 398
#     4  11  22  41  64  93 130 168 214 269 334 373
#     4  12  23  44  73  91 127 181 225 266 336 399
#     4  12  25  43  66  93 132 175 226 266 312 404
#     4  11  22  38  65  96 130 166 206 275 332 386
#     4  12  23  40  68  99 128 163 219 286 323 393
#
# _framework density 21.079636000000001
#
# number of rings (size 3 to 8) (size 9 to 14) (size 15 to 20)
#    0.000    0.286    5.714    4.286    0.000    2.286 
#    7.714    0.000    0.000    0.000    0.000    0.000 
#    0.000    0.000    0.000    0.000    0.000    0.000 
#
# Total GULP energy -173613.644656 kJ/mol
# GULP energy per Si atom -12400.974618 kJ/mol
# Density = 2.103166 g / cm^3
# Si number density = 21.079636 Si / 1000 Ang^3
#
#
#
# Elastic Constant Matrix: (Units=GPa)
#
#
# Indices 1 2 3 4 5 6 
#
# 1 220.5235 158.6506 41.5910 1.7757 -53.9085 -3.4362
# 2 158.6506 281.8993 64.0366 2.0712 -61.8626 -10.2914
# 3 41.5910 64.0366 122.3216 -24.9310 0.3636 7.5877
# 4 1.7757 2.0712 -24.9310 37.0142 -8.9820 -10.9934
# 5 -53.9085 -61.8626 0.3636 -8.9820 50.5076 -2.9890
# 6 -3.4362 -10.2914 7.5877 -10.9934 -2.9890 49.5102
#
#
#
# Elastic Compliance Matrix: (Units=1/GPa)
#
#
# Indices 1 2 3 4 5 6 
#
# 1 0.008363 -0.003391 -0.001026 0.000405 0.004877 0.000417
# 2 -0.003391 0.007417 -0.002928 -0.000273 0.005557 0.002030
# 3 -0.001026 -0.002928 0.011514 0.006739 -0.003635 -0.001167
# 4 0.000405 -0.000273 0.006739 0.035327 0.006757 0.007191
# 5 0.004877 0.005557 -0.003635 0.006757 0.033368 0.005565
# 6 0.000417 0.002030 -0.001167 0.007191 0.005565 0.022760
#
#
# Mechanical properties :
#
#
# Convention : Reuss Voigt Hill
#
# Bulk Modulus (GPa) = 79.34407 128.14453 103.74430
# Shear Modulus (GPa) = 36.32664 51.43748 43.88206
#
# Velocity S-wave (km/s) = 4.15577 4.94515 4.56755
# Velocity P-wave (km/s) = 7.79417 9.67102 8.78287
#
# Compressibility (1/GPa) = 0.01260334
#
# Stress axis : x y z
#
# Youngs Moduli (GPa) = 119.56863 134.83331 86.85436
#
# Poissons Ratio (x) = 0.45725 0.08913
# Poissons Ratio (y) = 0.40549 0.25428
# Poissons Ratio (z) = 0.12270 0.39474
#
# Static dielectric constant tensor:
#      x y z
#    x 3.907680 -0.005420 -0.247280 
#    y -0.005420 4.001420 -0.435480 
#    z -0.247280 -0.435480 3.246240 
# 
# 
# High freq. dielectric constant tensor:
#      x y z
#    x 1.848710 -0.000220 -0.008080 
#    y -0.000220 1.831250 -0.022260 
#    z -0.008080 -0.022260 1.813130 
# 
# From -- ./inp_files/132919.got.cif
#   From: 2010.06.25/outbox.cif.g09.slc.cpg/sg2_67_cif.got.tgz:132919.got - 2010.06.27 13:26:56.
