data_PCOD8030011
_publ_section_title
;
Structure prediction by ZEFSAII (Michael W. Deem and Ramdas Pophale) SiO2 
 PCOD8030011
Probable space group: P -1
;
_chemical_formula_sum "Si O2"
_cell_formula_units_Z 12
_cell_length_a 10.013708
_cell_length_b 15.340895
_cell_length_c 9.111709
_cell_angle_alpha 60.705958
_cell_angle_beta 29.897425
_cell_angle_gamma 60.382182
_cell_volume 600.525548
_symmetry_space_group_name_H-M "P -1"
_symmetry_group_IT_number 2
_symmetry_cell_setting 'triclinic'
loop_
_space_group_symop_operation_xyz
x,y,z
-x,-y,-z
loop_
_atom_site_type_symbol
_atom_site_label
_atom_site_fract_x
_atom_site_fract_y
_atom_site_fract_z
Si Si1 0.246229 0.042812 0.301707
Si Si2 0.909927 0.258554 0.720418
Si Si3 0.652149 0.738202 0.910876
Si Si4 0.779409 0.454354 0.840627
Si Si5 0.217292 0.041295 0.662484
Si Si6 0.277066 0.467129 0.843832
O O1 0.237855 0.164001 0.207949
O O2 0.250699 0.001017 0.497574
O O3 0.000000 0.000000 0.500000
O O4 0.500000 0.000000 0.000000
O O5 0.821895 0.332465 0.879617
O O6 0.102619 0.314191 0.385250
O O7 0.117946 0.161512 0.658156
O O8 0.641113 0.231093 0.916135
O O9 0.634816 0.654176 0.120601
O O10 0.000000 0.500000 0.500000
O O11 0.500000 0.500000 0.000000
O O12 0.758686 0.475744 0.014458
O O13 0.500000 0.000000 0.500000
O O14 0.000000 0.000000 0.000000
O O15 0.500000 0.500000 0.500000
O O16 0.000000 0.500000 0.000000
#
# Coordination Sequence:
#
# PCOD8030011 Si02
#       6
#     2   2   2   2   2   2
#     4  11  23  43  68  93 124 173 222 259 317 402
#     4  11  21  41  70  95 122 178 226 257 317 397
#     4  11  22  42  69  92 130 179 218 260 325 396
#     4  12  22  42  70  94 126 172 229 261 303 410
#     4  11  23  42  66  95 131 161 209 282 330 364
#     4  12  25  42  63  99 141 166 208 278 335 366
#
# _framework density 19.982496999999999
#
# number of rings (size 3 to 8) (size 9 to 14) (size 15 to 20)
#    0.000    0.667    3.333    7.000    0.000    0.000 
#    9.000    0.000    0.000    0.000    0.000    0.000 
#    0.000    0.000    0.000    0.000    0.000    0.000 
#
# Total GULP energy -148694.366158 kJ/mol
# GULP energy per Si atom -12391.197180 kJ/mol
# Density = 1.993702 g / cm^3
# Si number density = 19.982497 Si / 1000 Ang^3
#
#
#
# Elastic Constant Matrix: (Units=GPa)
#
#
# Indices 1 2 3 4 5 6 
#
# 1 177.7892 82.1998 89.5615 7.9958 -3.1907 -0.0385
# 2 82.1998 139.0008 58.5539 5.2304 -3.7253 -1.1997
# 3 89.5615 58.5539 193.9230 5.3094 3.4506 1.7756
# 4 7.9958 5.2304 5.3094 40.1057 -3.5388 1.2051
# 5 -3.1907 -3.7253 3.4506 -3.5388 54.3714 9.5689
# 6 -0.0385 -1.1997 1.7756 1.2051 9.5689 33.7491
#
#
#
# Elastic Compliance Matrix: (Units=1/GPa)
#
#
# Indices 1 2 3 4 5 6 
#
# 1 0.009019 -0.004061 -0.002923 -0.000845 0.000392 -0.000061
# 2 -0.004061 0.010121 -0.001182 -0.000322 0.000456 0.000299
# 3 -0.002923 -0.001182 0.006884 -0.000227 -0.000667 -0.000210
# 4 -0.000845 -0.000322 -0.000227 0.025381 0.001846 -0.001430
# 5 0.000392 0.000456 -0.000667 0.001846 0.019589 -0.005568
# 6 -0.000061 0.000299 -0.000210 -0.001430 -0.005568 0.031282
#
#
# Mechanical properties :
#
#
# Convention : Reuss Voigt Hill
#
# Bulk Modulus (GPa) = 103.18043 107.92703 105.55373
# Shear Modulus (GPa) = 41.03826 44.33842 42.68834
#
# Velocity S-wave (km/s) = 4.53670 4.71559 4.62701
# Velocity P-wave (km/s) = 8.89886 9.15298 9.02682
#
# Compressibility (1/GPa) = 0.00969176
#
# Stress axis : x y z
#
# Youngs Moduli (GPa) = 110.87112 98.80767 145.27375
#
# Poissons Ratio (x) = 0.40124 0.42459
# Poissons Ratio (y) = 0.45023 0.17178
# Poissons Ratio (z) = 0.32404 0.11684
#
# Static dielectric constant tensor:
#      x y z
#    x 3.666560 0.094580 0.112870 
#    y 0.094580 4.073380 -0.037410 
#    z 0.112870 -0.037410 4.065610 
# 
# 
# High freq. dielectric constant tensor:
#      x y z
#    x 1.773500 0.002070 -0.004530 
#    y 0.002070 1.787190 0.007810 
#    z -0.004530 0.007810 1.812920 
# 
# From -- ./inp_files/205785.got.cif
#   From: 2010.06.25/outbox.cif.g09.slc.cpg/sg2_103_cif.got.tgz:205785.got - 2010.06.27 13:26:56.
