data_PCOD8030680
_publ_section_title
;
Structure prediction by ZEFSAII (Michael W. Deem and Ramdas Pophale) SiO2 
 PCOD8030680
Probable space group: P -1
;
_chemical_formula_sum "Si O2"
_cell_formula_units_Z 14
_cell_length_a 8.665072
_cell_length_b 9.264362
_cell_length_c 12.944445
_cell_angle_alpha 34.094800
_cell_angle_beta 87.774594
_cell_angle_gamma 83.240543
_cell_volume 575.233137
_symmetry_space_group_name_H-M "P -1"
_symmetry_group_IT_number 2
_symmetry_cell_setting 'triclinic'
loop_
_space_group_symop_operation_xyz
x,y,z
-x,-y,-z
loop_
_atom_site_type_symbol
_atom_site_label
_atom_site_fract_x
_atom_site_fract_y
_atom_site_fract_z
Si Si1 0.574845 0.829149 0.902447
Si Si2 0.173819 0.031600 0.052889
Si Si3 0.154243 0.489777 0.641128
Si Si4 0.690494 0.403815 0.833182
Si Si5 0.475569 0.661999 0.509226
Si Si6 0.829080 0.450273 0.002976
Si Si7 0.921517 0.876871 0.306426
O O1 0.520468 0.032495 0.691516
O O2 0.652190 0.990683 0.892168
O O3 0.433541 0.715772 0.023184
O O4 0.702950 0.592981 0.000477
O O5 0.116198 0.321666 0.840135
O O6 0.183730 0.830948 0.076194
O O7 0.061075 0.954079 0.188247
O O8 0.308337 0.616812 0.585813
O O9 0.003213 0.709758 0.499283
O O10 0.181872 0.303316 0.648414
O O11 0.611428 0.584203 0.636503
O O12 0.786102 0.551786 0.826303
O O13 0.500000 0.500000 0.500000
O O14 0.818338 0.140350 0.193784
O O15 0.000000 0.500000 0.000000
#
# Coordination Sequence:
#
# PCOD8030680 Si02
#       7
#     2   2   2   2   2   2   2
#     4  12  25  46  72 103 146 184 224 290 351 419
#     4  12  21  42  73 103 134 179 233 288 345 402
#     4  11  22  39  68 104 134 173 234 289 339 404
#     4  12  26  44  74 104 139 188 230 288 351 409
#     4  12  23  42  72 109 136 175 240 293 342 410
#     4  12  26  48  70  99 148 190 228 281 355 420
#     4  11  24  42  67 103 140 179 228 292 344 403
#
# _framework density 24.337958
#
# number of rings (size 3 to 8) (size 9 to 14) (size 15 to 20)
#    0.000    0.286    7.143    2.143    0.000    0.571 
#    0.000    2.143    0.000    0.000    0.000    0.000 
#    0.000    0.000    0.000    0.000    0.000    0.000 
#
# Total GULP energy -173626.919885 kJ/mol
# GULP energy per Si atom -12401.922849 kJ/mol
# Density = 2.428256 g / cm^3
# Si number density = 24.337958 Si / 1000 Ang^3
#
#
#
# Elastic Constant Matrix: (Units=GPa)
#
#
# Indices 1 2 3 4 5 6 
#
# 1 65.0057 9.9921 42.5915 8.5991 12.2257 24.4803
# 2 9.9921 70.1580 21.4626 -5.8955 3.9415 8.7950
# 3 42.5915 21.4626 156.0377 2.7565 26.9364 -2.1087
# 4 8.5991 -5.8955 2.7565 35.8332 1.3632 15.6523
# 5 12.2257 3.9415 26.9364 1.3632 42.6161 10.0006
# 6 24.4803 8.7950 -2.1087 15.6523 10.0006 46.1470
#
#
#
# Elastic Compliance Matrix: (Units=1/GPa)
#
#
# Indices 1 2 3 4 5 6 
#
# 1 0.025179 0.000432 -0.007243 0.000746 0.000613 -0.014157
# 2 0.000432 0.016048 -0.002694 0.005050 0.001196 -0.005383
# 3 -0.007243 -0.002694 0.009815 -0.002187 -0.005382 0.006712
# 4 0.000746 0.005050 -0.002187 0.034660 0.002838 -0.013829
# 5 0.000613 0.001196 -0.005382 0.002838 0.028345 -0.007904
# 6 -0.014157 -0.005383 0.006712 -0.013829 -0.007904 0.036916
#
#
# Mechanical properties :
#
#
# Convention : Reuss Voigt Hill
#
# Bulk Modulus (GPa) = 31.21684 48.81042 40.01363
# Shear Modulus (GPa) = 27.67812 39.39629 33.53721
#
# Velocity S-wave (km/s) = 3.37596 4.02769 3.71614
# Velocity P-wave (km/s) = 5.29626 6.45977 5.90673
#
# Compressibility (1/GPa) = 0.03203399
#
# Stress axis : x y z
#
# Youngs Moduli (GPa) = 39.71510 62.31317 101.88974
#
# Poissons Ratio (x) = -0.02695 0.73795
# Poissons Ratio (y) = -0.01718 0.27447
# Poissons Ratio (z) = 0.28764 0.16786
#
# Static dielectric constant tensor:
#      x y z
#    x 4.676230 0.084520 0.315440 
#    y 0.084520 4.926350 -0.161320 
#    z 0.315440 -0.161320 4.614090 
# 
# 
# High freq. dielectric constant tensor:
#      x y z
#    x 1.987220 0.009180 0.016260 
#    y 0.009180 1.939260 0.000490 
#    z 0.016260 0.000490 1.973160 
# 
# From -- ./inp_files/380852.got.cif
#   From: 2010.06.25/outbox.cif.g09.slc.cpg/sg2_191_cif.got.tgz:380852.got - 2010.06.27 13:26:56.
