data_PCOD8030768
_publ_section_title
;
Structure prediction by ZEFSAII (Michael W. Deem and Ramdas Pophale) SiO2 
 PCOD8030768
Probable space group: P -1
;
_chemical_formula_sum "Si O2"
_cell_formula_units_Z 16
_cell_length_a 15.373327
_cell_length_b 6.439042
_cell_length_c 16.201025
_cell_angle_alpha 56.023093
_cell_angle_beta 144.293255
_cell_angle_gamma 126.789575
_cell_volume 740.496049
_symmetry_space_group_name_H-M "P -1"
_symmetry_group_IT_number 2
_symmetry_cell_setting 'triclinic'
loop_
_space_group_symop_operation_xyz
x,y,z
-x,-y,-z
loop_
_atom_site_type_symbol
_atom_site_label
_atom_site_fract_x
_atom_site_fract_y
_atom_site_fract_z
Si Si1 0.915994 0.315118 0.082228
Si Si2 0.885373 0.260567 0.418170
Si Si3 0.553086 0.840417 0.647247
Si Si4 0.083427 0.907644 0.690499
Si Si5 0.880648 0.128560 0.920366
Si Si6 0.587742 0.315061 0.802204
Si Si7 0.425164 0.220104 0.861573
Si Si8 0.440549 0.776108 0.745295
O O1 0.951494 0.201610 0.220829
O O2 0.067142 0.560107 0.126134
O O3 0.886885 0.104301 0.030954
O O4 0.760027 0.404166 0.955828
O O5 0.895644 0.300548 0.316999
O O6 0.713129 0.217202 0.327782
O O7 0.000000 0.500000 0.500000
O O8 0.934734 0.000630 0.532085
O O9 0.571065 0.568561 0.682975
O O10 0.419053 0.754829 0.634012
O O11 0.500000 0.000000 0.500000
O O12 0.712639 0.004735 0.777504
O O13 0.243779 0.147260 0.761298
O O14 0.000000 0.000000 0.000000
O O15 0.449459 0.225407 0.781787
O O16 0.574038 0.055890 0.795700
O O17 0.495907 0.527448 0.877599
O O18 0.500000 0.000000 0.000000
#
# Coordination Sequence:
#
# PCOD8030768 Si02
#       8
#     2   2   2   2   2   2   2   2
#     4  11  24  43  70  99 133 183 235 289 356 407
#     4  11  24  44  63  96 145 182 226 280 345 425
#     4  11  26  44  71 103 136 187 240 291 361 423
#     4  11  24  42  68 101 133 184 234 281 345 433
#     4  11  24  46  68  98 140 174 233 301 348 415
#     4  11  22  43  67 100 137 176 229 293 343 422
#     4  11  22  40  67 102 137 173 226 280 345 417
#     4  11  24  43  68  97 140 185 224 292 347 416
#
# _framework density 21.607137999999999
#
# number of rings (size 3 to 8) (size 9 to 14) (size 15 to 20)
#    0.000    1.000    6.250    0.000    0.000    5.000 
#    2.250    0.000    0.000    0.000    0.000    0.000 
#    0.000    0.000    0.000    0.000    0.000    0.000 
#
# Total GULP energy -198209.205643 kJ/mol
# GULP energy per Si atom -12388.075353 kJ/mol
# Density = 2.155796 g / cm^3
# Si number density = 21.607138 Si / 1000 Ang^3
#
#
#
# Elastic Constant Matrix: (Units=GPa)
#
#
# Indices 1 2 3 4 5 6 
#
# 1 123.8546 32.4719 52.7338 -7.7528 -14.3638 -14.2107
# 2 32.4719 153.6231 56.9526 -8.0500 -9.7427 -15.3922
# 3 52.7338 56.9526 114.4582 -17.3633 -15.4145 -10.6194
# 4 -7.7528 -8.0500 -17.3633 37.6892 -2.5246 -0.1246
# 5 -14.3638 -9.7427 -15.4145 -2.5246 41.1632 -2.1312
# 6 -14.2107 -15.3922 -10.6194 -0.1246 -2.1312 27.2359
#
#
#
# Elastic Compliance Matrix: (Units=1/GPa)
#
#
# Indices 1 2 3 4 5 6 
#
# 1 0.010607 -0.000163 -0.004038 0.000460 0.002389 0.004057
# 2 -0.000163 0.008262 -0.003621 0.000122 0.000717 0.003229
# 3 -0.004038 -0.003621 0.013723 0.004941 0.003252 0.001475
# 4 0.000460 0.000122 0.004941 0.029205 0.003970 0.002680
# 5 0.002389 0.000717 0.003252 0.003970 0.027020 0.005052
# 6 0.004057 0.003229 0.001475 0.002680 0.005052 0.041640
#
#
# Mechanical properties :
#
#
# Convention : Reuss Voigt Hill
#
# Bulk Modulus (GPa) = 59.00383 75.13918 67.07150
# Shear Modulus (GPa) = 32.94870 37.86949 35.40910
#
# Velocity S-wave (km/s) = 3.90923 4.19099 4.05256
# Velocity P-wave (km/s) = 6.90963 7.63347 7.28055
#
# Compressibility (1/GPa) = 0.01694805
#
# Stress axis : x y z
#
# Youngs Moduli (GPa) = 94.27424 121.03989 72.86796
#
# Poissons Ratio (x) = 0.01973 0.29424
# Poissons Ratio (y) = 0.01537 0.26387
# Poissons Ratio (z) = 0.38068 0.43832
#
# Static dielectric constant tensor:
#      x y z
#    x 4.241870 -0.118770 0.106370 
#    y -0.118770 4.572570 0.117480 
#    z 0.106370 0.117480 3.710030 
# 
# 
# High freq. dielectric constant tensor:
#      x y z
#    x 1.869280 -0.005560 0.009390 
#    y -0.005560 1.858060 0.001830 
#    z 0.009390 0.001830 1.819810 
# 
# From -- ./inp_files/428911.got.cif
#   From: 2010.06.25/outbox.cif.g09.slc.cpg/sg2_215_cif.got.tgz:428911.got - 2010.06.27 13:26:56.
