data_PCOD8030625
_publ_section_title
;
Structure prediction by ZEFSAII (Michael W. Deem and Ramdas Pophale) SiO2 
 PCOD8030625
Probable space group: P -1
;
_chemical_formula_sum "Si O2"
_cell_formula_units_Z 14
_cell_length_a 7.420481
_cell_length_b 12.500248
_cell_length_c 6.742657
_cell_angle_alpha 94.888062
_cell_angle_beta 90.431865
_cell_angle_gamma 78.055975
_cell_volume 609.635767
_symmetry_space_group_name_H-M "P -1"
_symmetry_group_IT_number 2
_symmetry_cell_setting 'triclinic'
loop_
_space_group_symop_operation_xyz
x,y,z
-x,-y,-z
loop_
_atom_site_type_symbol
_atom_site_label
_atom_site_fract_x
_atom_site_fract_y
_atom_site_fract_z
Si Si1 0.093468 0.131266 0.193205
Si Si2 0.467859 0.457917 0.207576
Si Si3 0.903460 0.594709 0.164777
Si Si4 0.797250 0.461284 0.473829
Si Si5 0.608534 0.745208 0.956735
Si Si6 0.768828 0.122589 0.895669
Si Si7 0.066620 0.762931 0.413829
O O1 0.066805 0.149011 0.433926
O O2 0.195921 0.007361 0.140432
O O3 0.228732 0.207978 0.133272
O O4 0.900921 0.156330 0.072923
O O5 0.615629 0.500654 0.348109
O O6 0.259209 0.509345 0.292147
O O7 0.500000 0.500000 0.000000
O O8 0.491207 0.325546 0.205560
O O9 0.927135 0.535548 0.376051
O O10 0.697319 0.648418 0.099112
O O11 0.983195 0.704236 0.220730
O O12 0.000000 0.500000 0.000000
O O13 0.852167 0.329714 0.436670
O O14 0.448506 0.839882 0.056256
O O15 0.796414 0.173573 0.688079
#
# Coordination Sequence:
#
# PCOD8030625 Si02
#       7
#     2   2   2   2   2   2   2
#     4  11  25  50  70 101 137 179 237 295 355 400
#     4  11  22  39  63  98 138 175 226 280 331 416
#     4  12  25  42  68 101 146 188 223 279 346 420
#     4  11  24  38  64  99 136 182 225 269 345 417
#     4  12  23  44  73  97 141 183 227 283 353 404
#     4  11  26  46  75 101 133 181 237 298 345 409
#     4  12  24  44  70  99 140 184 229 283 353 407
#
# _framework density 22.964531000000001
#
# number of rings (size 3 to 8) (size 9 to 14) (size 15 to 20)
#    0.000    0.571    2.857    5.571    4.000    0.000 
#    2.571    0.714    0.000    0.000    0.000    0.000 
#    0.000    0.000    0.000    0.000    0.000    0.000 
#
# Total GULP energy -173445.613904 kJ/mol
# GULP energy per Si atom -12388.972422 kJ/mol
# Density = 2.291226 g / cm^3
# Si number density = 22.964531 Si / 1000 Ang^3
#
#
#
# Elastic Constant Matrix: (Units=GPa)
#
#
# Indices 1 2 3 4 5 6 
#
# 1 79.6068 22.8624 35.5955 7.3156 -14.0782 -10.0335
# 2 22.8624 90.7944 28.4952 8.7682 -1.2147 0.0660
# 3 35.5955 28.4952 118.0177 11.9331 -17.5147 -3.2626
# 4 7.3156 8.7682 11.9331 46.9421 0.0513 -4.8322
# 5 -14.0782 -1.2147 -17.5147 0.0513 30.4965 -0.1710
# 6 -10.0335 0.0660 -3.2626 -4.8322 -0.1710 45.6169
#
#
#
# Elastic Compliance Matrix: (Units=1/GPa)
#
#
# Indices 1 2 3 4 5 6 
#
# 1 0.016325 -0.002951 -0.003204 -0.000845 0.005599 0.003297
# 2 -0.002951 0.012606 -0.002371 -0.001392 -0.002225 -0.000993
# 3 -0.003204 -0.002371 0.010891 -0.001842 0.004684 -0.000100
# 4 -0.000845 -0.001392 -0.001842 0.022375 -0.001530 0.002049
# 5 0.005599 -0.002225 0.004684 -0.001530 0.037988 0.001550
# 6 0.003297 -0.000993 -0.000100 0.002049 0.001550 0.022864
#
#
# Mechanical properties :
#
#
# Convention : Reuss Voigt Hill
#
# Bulk Modulus (GPa) = 43.91545 51.36947 47.64246
# Shear Modulus (GPa) = 33.85449 38.04215 35.94832
#
# Velocity S-wave (km/s) = 3.84371 4.07450 3.96079
# Velocity P-wave (km/s) = 6.23406 6.67481 6.45819
#
# Compressibility (1/GPa) = 0.02277103
#
# Stress axis : x y z
#
# Youngs Moduli (GPa) = 61.25502 79.32496 91.82249
#
# Poissons Ratio (x) = 0.23410 0.29418
# Poissons Ratio (y) = 0.18077 0.21767
# Poissons Ratio (z) = 0.19625 0.18805
#
# Static dielectric constant tensor:
#      x y z
#    x 4.513650 0.082810 -0.114750 
#    y 0.082810 4.142860 0.049420 
#    z -0.114750 0.049420 4.623550 
# 
# 
# High freq. dielectric constant tensor:
#      x y z
#    x 1.921600 0.007980 0.003530 
#    y 0.007980 1.915580 -0.000660 
#    z 0.003530 -0.000660 1.915870 
# 
# From -- ./inp_files/27492.got.cif
#   From: 2010.06.25/outbox.cif.g09.slc.cpg/sg2_14_cif.got.tgz:27492.got - 2010.06.27 13:26:56.
