data_PCOD8030845
_publ_section_title
;
Structure prediction by ZEFSAII (Michael W. Deem and Ramdas Pophale) SiO2 
 PCOD8030845
Probable space group: P -1
;
_chemical_formula_sum "Si O2"
_cell_formula_units_Z 16
_cell_length_a 13.454353
_cell_length_b 11.205916
_cell_length_c 19.570886
_cell_angle_alpha 32.521262
_cell_angle_beta 28.403143
_cell_angle_gamma 32.375302
_cell_volume 690.826712
_symmetry_space_group_name_H-M "P -1"
_symmetry_group_IT_number 2
_symmetry_cell_setting 'triclinic'
loop_
_space_group_symop_operation_xyz
x,y,z
-x,-y,-z
loop_
_atom_site_type_symbol
_atom_site_label
_atom_site_fract_x
_atom_site_fract_y
_atom_site_fract_z
Si Si1 0.733091 0.135192 0.025765
Si Si2 0.729411 0.856890 0.734737
Si Si3 0.273558 0.008681 0.599386
Si Si4 0.624373 0.105129 0.819099
Si Si5 0.412214 0.557565 0.808472
Si Si6 0.154969 0.562337 0.304067
Si Si7 0.890676 0.909814 0.477023
Si Si8 0.087045 0.628022 0.083387
O O1 0.462306 0.214294 0.150890
O O2 0.807871 0.251026 0.860628
O O3 0.785019 0.238454 0.014698
O O4 0.852704 0.838810 0.097029
O O5 0.822295 0.996816 0.555147
O O6 0.937813 0.599622 0.753763
O O7 0.602886 0.034132 0.788449
O O8 0.304922 0.940693 0.532244
O O9 0.063679 0.271401 0.598870
O O10 0.500000 0.000000 0.500000
O O11 0.229358 0.812824 0.767016
O O12 0.495919 0.391764 0.770708
O O13 0.891278 0.039407 0.703115
O O14 0.500000 0.000000 0.000000
O O15 0.629024 0.566864 0.714044
O O16 0.258383 0.479261 0.990614
O O17 0.083268 0.369663 0.401110
#
# Coordination Sequence:
#
# PCOD8030845 Si02
#       8
#     2   2   2   2   2   2   2   2
#     4  11  23  40  71 111 137 180 226 286 357 428
#     4  12  25  47  71 100 148 187 231 285 346 414
#     4  12  25  40  68 106 142 175 226 295 358 414
#     4  12  26  48  73  97 138 194 245 280 337 423
#     4  12  23  43  70 103 134 183 236 287 343 413
#     4  12  21  42  71 103 143 173 231 291 354 414
#     4  12  26  46  71 104 143 187 230 294 355 406
#     4  11  22  40  72 107 138 178 229 286 353 411
#
# _framework density 23.160655999999999
#
# number of rings (size 3 to 8) (size 9 to 14) (size 15 to 20)
#    0.000    0.250    7.500    2.625    0.000    0.000 
#    4.500    1.875    0.000    0.000    0.000    0.000 
#    0.000    0.000    0.000    0.000    0.000    0.000 
#
# Total GULP energy -198266.239808 kJ/mol
# GULP energy per Si atom -12391.639988 kJ/mol
# Density = 2.310794 g / cm^3
# Si number density = 23.160656 Si / 1000 Ang^3
#
#
#
# Elastic Constant Matrix: (Units=GPa)
#
#
# Indices 1 2 3 4 5 6 
#
# 1 104.9307 41.6288 47.8551 -4.3502 27.9969 -5.0075
# 2 41.6288 81.6416 21.4735 8.0388 13.0906 -6.4930
# 3 47.8551 21.4735 118.8509 18.8301 14.6037 -5.7913
# 4 -4.3502 8.0388 18.8301 25.5044 6.6817 7.2737
# 5 27.9969 13.0906 14.6037 6.6817 37.6708 0.9808
# 6 -5.0075 -6.4930 -5.7913 7.2737 0.9808 38.0196
#
#
#
# Elastic Compliance Matrix: (Units=1/GPa)
#
#
# Indices 1 2 3 4 5 6 
#
# 1 0.019770 -0.007912 -0.007647 0.015280 -0.011624 -0.002536
# 2 -0.007912 0.016916 0.001672 -0.009247 0.000894 0.003848
# 3 -0.007647 0.001672 0.013196 -0.013233 0.002236 0.003762
# 4 0.015280 -0.009247 -0.013233 0.061794 -0.013634 -0.013053
# 5 -0.011624 0.000894 0.002236 -0.013634 0.036409 0.000631
# 6 -0.002536 0.003848 0.003762 -0.013053 0.000631 0.029679
#
#
# Mechanical properties :
#
#
# Convention : Reuss Voigt Hill
#
# Bulk Modulus (GPa) = 45.23080 58.59312 51.91196
# Shear Modulus (GPa) = 23.48415 33.20334 28.34374
#
# Velocity S-wave (km/s) = 3.18774 3.79041 3.50206
# Velocity P-wave (km/s) = 5.75504 6.67156 6.23018
#
# Compressibility (1/GPa) = 0.02210883
#
# Stress axis : x y z
#
# Youngs Moduli (GPa) = 50.58045 59.11418 75.77984
#
# Poissons Ratio (x) = 0.46771 0.57951
# Poissons Ratio (y) = 0.40019 -0.12672
# Poissons Ratio (z) = 0.38680 -0.09885
#
# Static dielectric constant tensor:
#      x y z
#    x 4.441490 -0.124710 0.429330 
#    y -0.124710 4.433970 -0.256540 
#    z 0.429330 -0.256540 4.404650 
# 
# 
# High freq. dielectric constant tensor:
#      x y z
#    x 1.913560 0.005310 0.021910 
#    y 0.005310 1.903650 0.000280 
#    z 0.021910 0.000280 1.921320 
# 
# From -- ./inp_files/597774.got.cif
#   From: 2010.06.25/outbox.cif.g09.slc.cpg/sg2_299_cif.got.tgz:597774.got - 2010.06.27 13:26:56.
