data_PCOD8030074
_publ_section_title
;
Structure prediction by ZEFSAII (Michael W. Deem and Ramdas Pophale) SiO2 
 PCOD8030074
Probable space group: P -1
;
_chemical_formula_sum "Si O2"
_cell_formula_units_Z 16
_cell_length_a 9.144595
_cell_length_b 11.193134
_cell_length_c 17.732759
_cell_angle_alpha 31.597230
_cell_angle_beta 113.792074
_cell_angle_gamma 126.118767
_cell_volume 747.048859
_symmetry_space_group_name_H-M "P -1"
_symmetry_group_IT_number 2
_symmetry_cell_setting 'triclinic'
loop_
_space_group_symop_operation_xyz
x,y,z
-x,-y,-z
loop_
_atom_site_type_symbol
_atom_site_label
_atom_site_fract_x
_atom_site_fract_y
_atom_site_fract_z
Si Si1 0.612810 0.311026 0.183074
Si Si2 0.951559 0.704463 0.844608
Si Si3 0.934108 0.576085 0.370350
Si Si4 0.339161 0.075128 0.684781
Si Si5 0.774964 0.858564 0.848870
Si Si6 0.564146 0.551575 0.361194
Si Si7 0.778852 0.647992 0.694171
Si Si8 0.879152 0.246266 0.386847
O O1 0.389775 0.162791 0.227634
O O2 0.719858 0.271461 0.295699
O O3 0.628522 0.172785 0.183593
O O4 0.695564 0.622511 0.020080
O O5 0.920037 0.851428 0.826907
O O6 0.783645 0.555738 0.830299
O O7 0.116544 0.940486 0.701234
O O8 0.000000 0.500000 0.000000
O O9 0.744105 0.573127 0.348731
O O10 0.905995 0.378121 0.403409
O O11 0.000000 0.500000 0.500000
O O12 0.106293 0.867780 0.227240
O O13 0.450304 0.283215 0.530414
O O14 0.390286 0.198376 0.711876
O O15 0.430071 0.553093 0.268524
O O16 0.924446 0.613256 0.691584
O O17 0.808352 0.939710 0.545479
#
# Coordination Sequence:
#
# PCOD8030074 Si02
#       8
#     2   2   2   2   2   2   2   2
#     4  11  23  45  69  97 131 178 219 271 332 396
#     4  12  22  44  72  94 131 176 221 274 326 394
#     4  12  27  42  63 100 137 174 217 277 332 388
#     4  11  21  42  67  93 132 170 216 272 330 385
#     4  11  25  42  69  97 133 177 223 263 334 401
#     4  11  25  39  67  99 133 170 222 275 325 396
#     4  11  23  41  66 103 126 173 225 269 330 393
#     4  11  24  43  68  96 135 169 220 281 329 384
#
# _framework density 21.417608000000001
#
# number of rings (size 3 to 8) (size 9 to 14) (size 15 to 20)
#    0.000    0.750    5.000    2.250    7.000    1.000 
#    0.000    0.625    0.000    0.000    0.000    0.000 
#    0.000    0.000    0.000    0.000    0.000    0.000 
#
# Total GULP energy -198348.124748 kJ/mol
# GULP energy per Si atom -12396.757797 kJ/mol
# Density = 2.136886 g / cm^3
# Si number density = 21.417608 Si / 1000 Ang^3
#
#
#
# Elastic Constant Matrix: (Units=GPa)
#
#
# Indices 1 2 3 4 5 6 
#
# 1 91.4584 50.2764 25.3316 -2.0592 8.0438 8.5527
# 2 50.2764 154.0093 48.8543 9.8906 15.6651 -0.3865
# 3 25.3316 48.8543 64.4626 11.7278 12.0123 9.1488
# 4 -2.0592 9.8906 11.7278 37.7963 8.0911 4.9557
# 5 8.0438 15.6651 12.0123 8.0911 30.2510 -0.7339
# 6 8.5527 -0.3865 9.1488 4.9557 -0.7339 48.3095
#
#
#
# Elastic Compliance Matrix: (Units=1/GPa)
#
#
# Indices 1 2 3 4 5 6 
#
# 1 0.014226 -0.003864 -0.002600 0.003270 -0.001683 -0.002418
# 2 -0.003864 0.009785 -0.005727 -0.000931 -0.001470 0.001920
# 3 -0.002600 -0.005727 0.022993 -0.004371 -0.004391 -0.003558
# 4 0.003270 -0.000931 -0.004371 0.030070 -0.006766 -0.002946
# 5 -0.001683 -0.001470 -0.004391 -0.006766 0.037876 0.002387
# 6 -0.002418 0.001920 -0.003558 -0.002946 0.002387 0.022156
#
#
# Mechanical properties :
#
#
# Convention : Reuss Voigt Hill
#
# Bulk Modulus (GPa) = 44.20341 62.09498 53.14920
# Shear Modulus (GPa) = 29.58060 35.63588 32.60824
#
# Velocity S-wave (km/s) = 3.72039 4.08347 3.90615
# Velocity P-wave (km/s) = 6.25610 7.16159 6.72410
#
# Compressibility (1/GPa) = 0.02262269
#
# Stress axis : x y z
#
# Youngs Moduli (GPa) = 70.29341 102.19365 43.49148
#
# Poissons Ratio (x) = 0.39491 0.11308
# Poissons Ratio (y) = 0.27163 0.24906
# Poissons Ratio (z) = 0.18276 0.58522
#
# Static dielectric constant tensor:
#      x y z
#    x 4.143920 0.100920 0.152700 
#    y 0.100920 4.212700 -0.145670 
#    z 0.152700 -0.145670 3.727190 
# 
# 
# High freq. dielectric constant tensor:
#      x y z
#    x 1.855030 0.005900 0.010970 
#    y 0.005900 1.851300 -0.005910 
#    z 0.010970 -0.005910 1.820830 
# 
# From -- ./inp_files/217126.got.cif
#   From: 2010.06.25/outbox.cif.g09.slc.cpg/sg2_109_cif.got.tgz:217126.got - 2010.06.27 13:26:56.
