data_PCOD8030007
_publ_section_title
;
Structure prediction by ZEFSAII (Michael W. Deem and Ramdas Pophale) SiO2 
 PCOD8030007
Probable space group: P -1
;
_chemical_formula_sum "Si O2"
_cell_formula_units_Z 14
_cell_length_a 11.633569
_cell_length_b 8.446314
_cell_length_c 9.466147
_cell_angle_alpha 126.715541
_cell_angle_beta 84.814183
_cell_angle_gamma 117.363099
_cell_volume 639.596493
_symmetry_space_group_name_H-M "P -1"
_symmetry_group_IT_number 2
_symmetry_cell_setting 'triclinic'
loop_
_space_group_symop_operation_xyz
x,y,z
-x,-y,-z
loop_
_atom_site_type_symbol
_atom_site_label
_atom_site_fract_x
_atom_site_fract_y
_atom_site_fract_z
Si Si1 0.861361 0.481742 0.635367
Si Si2 0.344100 0.314401 0.628187
Si Si3 0.427522 0.779053 0.485594
Si Si4 0.884361 0.879454 0.667282
Si Si5 0.129861 0.849616 0.923268
Si Si6 0.841187 0.010431 0.307030
Si Si7 0.623287 0.206420 0.174144
O O1 0.713176 0.385936 0.667225
O O2 0.865373 0.634468 0.583371
O O3 0.873421 0.268930 0.466189
O O4 0.979540 0.628460 0.811513
O O5 0.482886 0.338540 0.575219
O O6 0.222940 0.147919 0.450437
O O7 0.370390 0.567157 0.763552
O O8 0.298730 0.186435 0.716672
O O9 0.395361 0.829080 0.673799
O O10 0.500000 0.000000 0.500000
O O11 0.036591 0.021260 0.665696
O O12 0.861787 0.008074 0.866039
O O13 0.163266 0.020785 0.878270
O O14 0.238697 0.771795 0.879345
O O15 0.500000 0.000000 0.000000
#
# Coordination Sequence:
#
# PCOD8030007 Si02
#       7
#     2   2   2   2   2   2   2
#     4  11  21  41  70  93 131 171 218 261 319 380
#     4  12  24  44  66  96 130 172 210 272 325 385
#     4  12  24  45  69  95 127 174 220 260 320 395
#     4  11  23  41  70  96 132 168 215 271 323 378
#     4  11  23  44  66  98 130 173 217 267 315 385
#     4  11  21  42  68  99 125 169 219 262 322 382
#     4  12  26  46  66  96 133 170 213 270 329 381
#
# _framework density 21.8888
#
# number of rings (size 3 to 8) (size 9 to 14) (size 15 to 20)
#    0.000    0.571    4.286    6.000    2.000    0.000 
#    5.143    2.857    0.000    0.000    0.000    0.000 
#    0.000    0.000    0.000    0.000    0.000    0.000 
#
# Total GULP energy -173585.499596 kJ/mol
# GULP energy per Si atom -12398.964257 kJ/mol
# Density = 2.183898 g / cm^3
# Si number density = 21.888800 Si / 1000 Ang^3
#
#
#
# Elastic Constant Matrix: (Units=GPa)
#
#
# Indices 1 2 3 4 5 6 
#
# 1 191.3707 22.3832 49.8837 6.2874 -6.9938 19.1225
# 2 22.3832 98.9555 42.6330 9.4771 -5.2959 7.0502
# 3 49.8837 42.6330 96.5499 6.4112 -3.6019 7.5278
# 4 6.2874 9.4771 6.4112 15.8305 3.7560 -1.9681
# 5 -6.9938 -5.2959 -3.6019 3.7560 39.7680 5.9380
# 6 19.1225 7.0502 7.5278 -1.9681 5.9380 37.5842
#
#
#
# Elastic Compliance Matrix: (Units=1/GPa)
#
#
# Indices 1 2 3 4 5 6 
#
# 1 0.006414 0.000381 -0.003028 -0.002311 0.001585 -0.003100
# 2 0.000381 0.013257 -0.005331 -0.006774 0.002338 -0.002337
# 3 -0.003028 -0.005331 0.014428 -0.001576 0.000284 -0.000477
# 4 -0.002311 -0.006774 -0.001576 0.072021 -0.009452 0.008027
# 5 0.001585 0.002338 0.000284 -0.009452 0.027573 -0.006154
# 6 -0.003100 -0.002337 -0.000477 0.008027 -0.006154 0.030110
#
#
# Mechanical properties :
#
#
# Convention : Reuss Voigt Hill
#
# Bulk Modulus (GPa) = 55.11987 68.51955 61.81971
# Shear Modulus (GPa) = 26.90975 36.76828 31.83901
#
# Velocity S-wave (km/s) = 3.51006 4.10295 3.81803
# Velocity P-wave (km/s) = 6.45475 7.33601 6.90945
#
# Compressibility (1/GPa) = 0.01814228
#
# Stress axis : x y z
#
# Youngs Moduli (GPa) = 155.91593 75.43420 69.30961
#
# Poissons Ratio (x) = -0.02871 0.20984
# Poissons Ratio (y) = -0.05934 0.36950
# Poissons Ratio (z) = 0.47204 0.40215
#
# Static dielectric constant tensor:
#      x y z
#    x 4.750910 0.240010 0.052650 
#    y 0.240010 3.903930 0.041240 
#    z 0.052650 0.041240 3.762510 
# 
# 
# High freq. dielectric constant tensor:
#      x y z
#    x 1.896070 0.009370 -0.005540 
#    y 0.009370 1.852630 0.006130 
#    z -0.005540 0.006130 1.842040 
# 
# From -- ./inp_files/188823.got.cif
#   From: 2010.06.25/outbox.cif.g09.slc.cpg/sg2_95_cif.got.tgz:188823.got - 2010.06.27 13:26:56.
