data_PCOD8030548
_publ_section_title
;
Structure prediction by ZEFSAII (Michael W. Deem and Ramdas Pophale) SiO2 
 PCOD8030548
Probable space group: P -1
;
_chemical_formula_sum "Si O2"
_cell_formula_units_Z 16
_cell_length_a 11.956212
_cell_length_b 14.065389
_cell_length_c 12.387525
_cell_angle_alpha 85.890585
_cell_angle_beta 86.267237
_cell_angle_gamma 19.543155
_cell_volume 695.053543
_symmetry_space_group_name_H-M "P -1"
_symmetry_group_IT_number 2
_symmetry_cell_setting 'triclinic'
loop_
_space_group_symop_operation_xyz
x,y,z
-x,-y,-z
loop_
_atom_site_type_symbol
_atom_site_label
_atom_site_fract_x
_atom_site_fract_y
_atom_site_fract_z
Si Si1 0.217128 0.757596 0.412159
Si Si2 0.339461 0.394939 0.173733
Si Si3 0.475798 0.360219 0.379909
Si Si4 0.390587 0.692212 0.019436
Si Si5 0.405221 0.999526 0.746798
Si Si6 0.709662 0.951790 0.705664
Si Si7 0.526950 0.661283 0.246754
Si Si8 0.640326 0.744284 0.522977
O O1 0.500000 0.500000 0.500000
O O2 0.221734 0.652841 0.356123
O O3 0.329478 0.757404 0.337327
O O4 0.830603 0.092088 0.445842
O O5 0.590184 0.237020 0.262063
O O6 0.974208 0.709005 0.217403
O O7 0.386617 0.243218 0.174875
O O8 0.418451 0.381925 0.057604
O O9 0.287664 0.424799 0.446142
O O10 0.498306 0.630897 0.138078
O O11 0.500000 0.500000 0.000000
O O12 0.000000 0.000000 0.000000
O O13 0.529281 0.006049 0.767769
O O14 0.461680 0.937420 0.620401
O O15 0.634970 0.104567 0.769789
O O16 0.597893 0.053335 0.581039
O O17 0.102479 0.620449 0.710168
O O18 0.000000 0.500000 0.500000
#
# Coordination Sequence:
#
# PCOD8030548 Si02
#       8
#     2   2   2   2   2   2   2   2
#     4  12  23  39  58  88 128 169 205 254 323 397
#     4  11  23  43  67  96 128 166 223 282 328 385
#     4  11  22  38  60  89 122 163 210 265 319 379
#     4  12  25  47  74 100 128 172 227 285 338 397
#     4  11  24  42  67  99 134 176 222 268 326 394
#     4  12  24  43  64  97 139 176 216 272 327 397
#     4  12  26  43  66  98 132 175 222 273 337 398
#     4  11  23  41  68 101 136 181 225 267 323 397
#
# _framework density 23.019808999999999
#
# number of rings (size 3 to 8) (size 9 to 14) (size 15 to 20)
#    0.000    0.500    0.000   10.500    0.000    3.000 
#    0.000    3.750    0.000    0.000    0.000    0.000 
#    0.000    0.000    0.000    0.000    0.000    0.000 
#
# Total GULP energy -198377.177993 kJ/mol
# GULP energy per Si atom -12398.573625 kJ/mol
# Density = 2.296742 g / cm^3
# Si number density = 23.019809 Si / 1000 Ang^3
#
#
#
# Elastic Constant Matrix: (Units=GPa)
#
#
# Indices 1 2 3 4 5 6 
#
# 1 134.2534 28.3139 29.0706 12.3238 -14.4717 13.3195
# 2 28.3139 126.8771 22.5068 15.6454 -15.9553 -1.7685
# 3 29.0706 22.5068 101.6261 5.3176 -15.3281 -12.3382
# 4 12.3238 15.6454 5.3176 31.1948 -5.2310 -0.9580
# 5 -14.4717 -15.9553 -15.3281 -5.2310 24.0854 -1.9053
# 6 13.3195 -1.7685 -12.3382 -0.9580 -1.9053 52.9741
#
#
#
# Elastic Compliance Matrix: (Units=1/GPa)
#
#
# Indices 1 2 3 4 5 6 
#
# 1 0.008886 -0.001037 -0.002133 -0.002277 0.002586 -0.002714
# 2 -0.001037 0.009220 -0.000876 -0.003341 0.004238 0.000456
# 3 -0.002133 -0.000876 0.011975 0.000375 0.006120 0.003523
# 4 -0.002277 -0.003341 0.000375 0.035354 0.004443 0.001347
# 5 0.002586 0.004238 0.006120 0.004443 0.050963 0.002830
# 6 -0.002714 0.000456 0.003523 0.001347 0.002830 0.020521
#
#
# Mechanical properties :
#
#
# Convention : Reuss Voigt Hill
#
# Bulk Modulus (GPa) = 45.47415 58.05992 51.76704
# Shear Modulus (GPa) = 32.82137 40.50853 36.66495
#
# Velocity S-wave (km/s) = 3.78006 4.19946 3.99526
# Velocity P-wave (km/s) = 6.23290 6.98501 6.61965
#
# Compressibility (1/GPa) = 0.02199051
#
# Stress axis : x y z
#
# Youngs Moduli (GPa) = 112.53672 108.46518 83.50651
#
# Poissons Ratio (x) = 0.11243 0.17808
# Poissons Ratio (y) = 0.11665 0.07315
# Poissons Ratio (z) = 0.23999 0.09501
#
# Static dielectric constant tensor:
#      x y z
#    x 4.562420 -0.290510 0.391120 
#    y -0.290510 3.541280 0.255310 
#    z 0.391120 0.255310 4.066340 
# 
# 
# High freq. dielectric constant tensor:
#      x y z
#    x 1.940560 0.007130 0.001060 
#    y 0.007130 1.928170 -0.000320 
#    z 0.001060 -0.000320 1.887490 
# 
# From -- ./inp_files/434046.got.cif
#   From: 2010.06.25/outbox.cif.g09.slc.cpg/sg2_218_cif.got.tgz:434046.got - 2010.06.27 13:26:56.
