data_PCOD8030692
_publ_section_title
;
Structure prediction by ZEFSAII (Michael W. Deem and Ramdas Pophale) SiO2 
 PCOD8030692
Probable space group: P -1
;
_chemical_formula_sum "Si O2"
_cell_formula_units_Z 12
_cell_length_a 11.443190
_cell_length_b 14.499762
_cell_length_c 11.238128
_cell_angle_alpha 29.567199
_cell_angle_beta 141.381973
_cell_angle_gamma 145.051739
_cell_volume 511.411010
_symmetry_space_group_name_H-M "P -1"
_symmetry_group_IT_number 2
_symmetry_cell_setting 'triclinic'
loop_
_space_group_symop_operation_xyz
x,y,z
-x,-y,-z
loop_
_atom_site_type_symbol
_atom_site_label
_atom_site_fract_x
_atom_site_fract_y
_atom_site_fract_z
Si Si1 0.960436 0.862505 0.833529
Si Si2 0.123201 0.368867 0.734823
Si Si3 0.220581 0.284222 0.666900
Si Si4 0.466247 0.791443 0.849260
Si Si5 0.478516 0.221742 0.364501
Si Si6 0.005310 0.512264 0.130696
O O1 0.726118 0.829793 0.659877
O O2 0.962692 0.794704 0.045473
O O3 0.033563 0.740507 0.934628
O O4 0.125106 0.107258 0.687558
O O5 0.077116 0.235870 0.725793
O O6 0.365526 0.543849 0.735370
O O7 0.000000 0.500000 0.500000
O O8 0.207405 0.485705 0.370645
O O9 0.446128 0.305474 0.867137
O O10 0.556930 0.772449 0.813314
O O11 0.212527 0.666125 0.786664
O O12 0.546790 0.040769 0.654645
O O13 0.000000 0.500000 0.000000
#
# Coordination Sequence:
#
# PCOD8030692 Si02
#       6
#     2   2   2   2   2   2
#     4  12  23  42  69 102 137 174 218 278 344 397
#     4  12  21  36  66 105 139 170 215 274 347 404
#     4  12  25  42  70 103 133 176 225 280 336 399
#     4  11  23  43  68 103 139 175 220 274 341 400
#     4  11  22  39  69 105 143 171 210 281 347 404
#     4  12  28  50  68  93 136 186 233 274 325 398
#
# _framework density 23.464493000000001
#
# number of rings (size 3 to 8) (size 9 to 14) (size 15 to 20)
#    0.000    0.333    6.667    3.000    2.333    1.333 
#    0.000    0.833    0.000    0.000    0.000    0.000 
#    0.000    0.000    0.000    0.000    0.000    0.000 
#
# Total GULP energy -148722.022108 kJ/mol
# GULP energy per Si atom -12393.501842 kJ/mol
# Density = 2.341109 g / cm^3
# Si number density = 23.464493 Si / 1000 Ang^3
#
#
#
# Elastic Constant Matrix: (Units=GPa)
#
#
# Indices 1 2 3 4 5 6 
#
# 1 66.8294 27.1222 35.3555 -6.1534 7.6240 -35.0129
# 2 27.1222 71.6706 21.8317 -4.1672 18.6135 -18.1512
# 3 35.3555 21.8317 119.5864 20.7365 32.1538 -14.7806
# 4 -6.1534 -4.1672 20.7365 43.6815 -8.6479 10.0881
# 5 7.6240 18.6135 32.1538 -8.6479 30.4455 -1.0529
# 6 -35.0129 -18.1512 -14.7806 10.0881 -1.0529 41.0613
#
#
#
# Elastic Compliance Matrix: (Units=1/GPa)
#
#
# Indices 1 2 3 4 5 6 
#
# 1 0.032577 -0.005710 -0.008317 0.004258 0.006065 0.021370
# 2 -0.005710 0.020673 0.004500 -0.006018 -0.017431 0.006921
# 3 -0.008317 0.004500 0.021515 -0.018022 -0.028291 0.006345
# 4 0.004258 -0.006018 -0.018022 0.041416 0.032897 -0.014849
# 5 0.006065 -0.017431 -0.028291 0.032897 0.080558 -0.018734
# 6 0.021370 0.006921 0.006345 -0.014849 -0.018734 0.051087
#
#
# Mechanical properties :
#
#
# Convention : Reuss Voigt Hill
#
# Bulk Modulus (GPa) = 17.94982 47.41169 32.68075
# Shear Modulus (GPa) = 17.51617 34.62280 26.06948
#
# Velocity S-wave (km/s) = 2.73517 3.84544 3.33681
# Velocity P-wave (km/s) = 4.20015 6.32188 5.36691
#
# Compressibility (1/GPa) = 0.05571088
#
# Stress axis : x y z
#
# Youngs Moduli (GPa) = 30.69672 48.37295 46.47814
#
# Poissons Ratio (x) = 0.27622 0.38654
# Poissons Ratio (y) = 0.17528 -0.20914
# Poissons Ratio (z) = 0.25529 -0.21767
#
# Static dielectric constant tensor:
#      x y z
#    x 3.929810 -0.062990 0.390930 
#    y -0.062990 3.664100 0.123080 
#    z 0.390930 0.123080 4.416870 
# 
# 
# High freq. dielectric constant tensor:
#      x y z
#    x 1.895690 -0.019390 0.036850 
#    y -0.019390 1.918610 -0.002110 
#    z 0.036850 -0.002110 1.948370 
# 
# From -- ./inp_files/161950.got.cif
#   From: 2010.06.25/outbox.cif.g09.slc.cpg/sg2_81_cif.got.tgz:161950.got - 2010.06.27 13:26:56.
