data_PCOD8030557
_publ_section_title
;
Structure prediction by ZEFSAII (Michael W. Deem and Ramdas Pophale) SiO2 
 PCOD8030557
Probable space group: P -1
;
_chemical_formula_sum "Si O2"
_cell_formula_units_Z 16
_cell_length_a 12.322479
_cell_length_b 25.692747
_cell_length_c 5.233160
_cell_angle_alpha 112.924576
_cell_angle_beta 110.923716
_cell_angle_gamma 28.615691
_cell_volume 730.394662
_symmetry_space_group_name_H-M "P -1"
_symmetry_group_IT_number 2
_symmetry_cell_setting 'triclinic'
loop_
_space_group_symop_operation_xyz
x,y,z
-x,-y,-z
loop_
_atom_site_type_symbol
_atom_site_label
_atom_site_fract_x
_atom_site_fract_y
_atom_site_fract_z
Si Si1 0.285746 0.081581 0.150243
Si Si2 0.616846 0.323424 0.471286
Si Si3 0.793550 0.010145 0.079647
Si Si4 0.079492 0.719724 0.121775
Si Si5 0.321097 0.548327 0.636509
Si Si6 0.164623 0.239988 0.621500
Si Si7 0.428756 0.851751 0.326974
Si Si8 0.315304 0.776648 0.160446
O O1 0.296262 0.126235 0.455077
O O2 0.049309 0.185381 0.997526
O O3 0.500000 0.000000 0.000000
O O4 0.283775 0.019331 0.142785
O O5 0.831348 0.277274 0.567701
O O6 0.387948 0.455605 0.572824
O O7 0.636350 0.270415 0.613649
O O8 0.612916 0.296054 0.140886
O O9 0.658875 0.081995 0.361801
O O10 0.741519 0.071833 0.911827
O O11 0.056676 0.904410 0.164609
O O12 0.914452 0.737777 0.110793
O O13 0.307904 0.595524 0.961396
O O14 0.500000 0.500000 0.500000
O O15 0.059856 0.656672 0.534662
O O16 0.329137 0.224154 0.699939
O O17 0.467037 0.769591 0.255291
#
# Coordination Sequence:
#
# PCOD8030557 Si02
#       8
#     2   2   2   2   2   2   2   2
#     4  11  22  38  62 102 137 174 212 272 343 403
#     4  12  24  44  71 100 130 172 232 287 329 391
#     4  12  24  43  70  96 139 178 228 271 335 401
#     4  11  23  40  68 100 138 167 216 280 347 408
#     4  11  24  43  69 104 133 172 218 282 355 402
#     4  11  25  41  67 100 142 174 218 275 344 415
#     4  12  27  46  66  98 139 186 222 274 329 402
#     4  12  26  45  70  98 134 181 237 275 319 392
#
# _framework density 21.905967
#
# number of rings (size 3 to 8) (size 9 to 14) (size 15 to 20)
#    0.000    0.500    3.750    4.875    5.250    1.000 
#    0.000    1.250    0.000    0.000    0.000    0.000 
#    0.000    0.000    0.000    0.000    0.000    0.000 
#
# Total GULP energy -198391.048769 kJ/mol
# GULP energy per Si atom -12399.440548 kJ/mol
# Density = 2.185611 g / cm^3
# Si number density = 21.905967 Si / 1000 Ang^3
#
#
#
# Elastic Constant Matrix: (Units=GPa)
#
#
# Indices 1 2 3 4 5 6 
#
# 1 133.3357 26.0084 32.1640 12.3403 3.9008 0.8817
# 2 26.0084 70.1245 19.0547 19.2155 -5.0240 11.7593
# 3 32.1640 19.0547 90.9397 14.5232 -7.5265 -9.9433
# 4 12.3403 19.2155 14.5232 30.4879 3.6050 -8.5782
# 5 3.9008 -5.0240 -7.5265 3.6050 35.2034 -3.9372
# 6 0.8817 11.7593 -9.9433 -8.5782 -3.9372 27.0127
#
#
#
# Elastic Compliance Matrix: (Units=1/GPa)
#
#
# Indices 1 2 3 4 5 6 
#
# 1 0.008738 -0.002269 -0.002732 -0.000818 -0.001886 -0.000838
# 2 -0.002269 0.023693 -0.002903 -0.017617 0.002974 -0.016470
# 3 -0.002732 -0.002903 0.013957 -0.002396 0.003821 0.006287
# 4 -0.000818 -0.017617 -0.002396 0.052423 -0.005774 0.022620
# 5 -0.001886 0.002974 0.003821 -0.005774 0.030764 0.002824
# 6 -0.000838 -0.016470 0.006287 0.022620 0.002824 0.054126
#
#
# Mechanical properties :
#
#
# Convention : Reuss Voigt Hill
#
# Bulk Modulus (GPa) = 32.70115 49.87267 41.28691
# Shear Modulus (GPa) = 23.84330 33.01897 28.43113
#
# Velocity S-wave (km/s) = 3.30273 3.88661 3.60651
# Velocity P-wave (km/s) = 5.43179 6.55417 6.01920
#
# Compressibility (1/GPa) = 0.03057996
#
# Stress axis : x y z
#
# Youngs Moduli (GPa) = 114.44364 42.20627 71.64778
#
# Poissons Ratio (x) = 0.09576 0.19575
# Poissons Ratio (y) = 0.25966 0.20800
# Poissons Ratio (z) = 0.31268 0.12253
#
# Static dielectric constant tensor:
#      x y z
#    x 4.016110 0.129640 -0.035140 
#    y 0.129640 4.208700 0.103940 
#    z -0.035140 0.103940 4.219130 
# 
# 
# High freq. dielectric constant tensor:
#      x y z
#    x 1.858750 0.006790 -0.010950 
#    y 0.006790 1.866970 0.000660 
#    z -0.010950 0.000660 1.866380 
# 
# From -- ./inp_files/75835.got.cif
#   From: 2010.06.25/outbox.cif.g09.slc.cpg/sg2_38_cif.got.tgz:75835.got - 2010.06.27 13:26:56.
