data_PCOD8030196
_publ_section_title
;
Structure prediction by ZEFSAII (Michael W. Deem and Ramdas Pophale) SiO2 
 PCOD8030196
Probable space group: P -1
;
_chemical_formula_sum "Si O2"
_cell_formula_units_Z 16
_cell_length_a 19.542623
_cell_length_b 12.533275
_cell_length_c 8.128497
_cell_angle_alpha 50.457720
_cell_angle_beta 61.935778
_cell_angle_gamma 28.625630
_cell_volume 714.197955
_symmetry_space_group_name_H-M "P -1"
_symmetry_group_IT_number 2
_symmetry_cell_setting 'triclinic'
loop_
_space_group_symop_operation_xyz
x,y,z
-x,-y,-z
loop_
_atom_site_type_symbol
_atom_site_label
_atom_site_fract_x
_atom_site_fract_y
_atom_site_fract_z
Si Si1 0.587257 0.725396 0.650149
Si Si2 0.074374 0.750397 0.231136
Si Si3 0.224179 0.952391 0.188207
Si Si4 0.472632 0.789412 0.050189
Si Si5 0.766374 0.643551 0.139489
Si Si6 0.933480 0.461698 0.823057
Si Si7 0.951203 0.732638 0.614705
Si Si8 0.647772 0.532003 0.438866
O O1 0.762196 0.473996 0.666510
O O2 0.538588 0.728911 0.526641
O O3 0.500000 0.000000 0.500000
O O4 0.566100 0.665352 0.897590
O O5 0.093676 0.588819 0.253467
O O6 0.961220 0.865797 0.383254
O O7 0.000000 0.000000 0.000000
O O8 0.367386 0.819847 0.102105
O O9 0.251931 0.747897 0.347259
O O10 0.186273 0.055467 0.315294
O O11 0.089890 0.183919 0.992906
O O12 0.566035 0.617189 0.277597
O O13 0.386742 0.061934 0.913690
O O14 0.758099 0.491760 0.318663
O O15 0.896725 0.520709 0.211311
O O16 0.795751 0.633584 0.926611
O O17 0.929927 0.631650 0.619122
#
# Coordination Sequence:
#
# PCOD8030196 Si02
#       8
#     2   2   2   2   2   2   2   2
#     4  12  27  46  72 104 141 186 238 289 343 428
#     4  12  27  45  68 108 141 178 237 298 348 409
#     4  11  25  45  67 104 138 178 233 291 356 416
#     4  12  24  47  70  98 144 181 235 286 345 433
#     4  11  21  43  68  97 131 176 240 284 340 420
#     4  11  23  42  73  97 134 189 228 285 356 412
#     4  11  22  44  71  94 138 179 229 289 344 425
#     4  12  26  43  69 104 137 189 228 292 362 398
#
# _framework density 22.402750999999999
#
# number of rings (size 3 to 8) (size 9 to 14) (size 15 to 20)
#    0.000    0.500    5.000    3.375    5.250    1.500 
#    2.250    0.000    0.000    0.000    0.000    0.000 
#    0.000    0.000    0.000    0.000    0.000    0.000 
#
# Total GULP energy -198353.549167 kJ/mol
# GULP energy per Si atom -12397.096823 kJ/mol
# Density = 2.235176 g / cm^3
# Si number density = 22.402751 Si / 1000 Ang^3
#
#
#
# Elastic Constant Matrix: (Units=GPa)
#
#
# Indices 1 2 3 4 5 6 
#
# 1 57.0873 12.6369 10.7594 4.4182 -11.8165 -6.9922
# 2 12.6369 59.0723 26.0930 9.2816 -6.9954 -1.1787
# 3 10.7594 26.0930 97.7791 5.2939 -13.9395 -8.6675
# 4 4.4182 9.2816 5.2939 45.6537 12.5138 -9.0293
# 5 -11.8165 -6.9954 -13.9395 12.5138 45.9214 6.7738
# 6 -6.9922 -1.1787 -8.6675 -9.0293 6.7738 21.3345
#
#
#
# Elastic Compliance Matrix: (Units=1/GPa)
#
#
# Indices 1 2 3 4 5 6 
#
# 1 0.019822 -0.003292 -0.000227 -0.001590 0.004349 0.004169
# 2 -0.003292 0.020888 -0.004955 -0.005178 0.002991 -0.005079
# 3 -0.000227 -0.004955 0.012272 -0.000331 0.002453 0.003719
# 4 -0.001590 -0.005178 -0.000331 0.029292 -0.011509 0.015110
# 5 0.004349 0.002991 0.002453 -0.011509 0.028924 -0.011467
# 6 0.004169 -0.005079 0.003719 0.015110 -0.011467 0.059504
#
#
# Mechanical properties :
#
#
# Convention : Reuss Voigt Hill
#
# Bulk Modulus (GPa) = 27.75245 34.76860 31.26053
# Shear Modulus (GPa) = 25.04228 33.54520 29.29374
#
# Velocity S-wave (km/s) = 3.34701 3.87378 3.61999
# Velocity P-wave (km/s) = 5.22987 5.96337 5.60862
#
# Compressibility (1/GPa) = 0.03603285
#
# Stress axis : x y z
#
# Youngs Moduli (GPa) = 50.44800 47.87465 81.48780
#
# Poissons Ratio (x) = 0.15761 0.01851
# Poissons Ratio (y) = 0.16608 0.40380
# Poissons Ratio (z) = 0.01146 0.23724
#
# Static dielectric constant tensor:
#      x y z
#    x 4.074990 0.082670 -0.018510 
#    y 0.082670 4.083670 0.305340 
#    z -0.018510 0.305340 4.181710 
# 
# 
# High freq. dielectric constant tensor:
#      x y z
#    x 1.886880 0.006310 -0.008100 
#    y 0.006310 1.877120 0.013490 
#    z -0.008100 0.013490 1.890700 
# 
# From -- ./inp_files/261765.got.cif
#   From: 2010.06.25/outbox.cif.g09.slc.cpg/sg2_131_cif.got.tgz:261765.got - 2010.06.27 13:26:56.
