data_PCOD8030015
_publ_section_title
;
Structure prediction by ZEFSAII (Michael W. Deem and Ramdas Pophale) SiO2 
 PCOD8030015
Probable space group: P -1
;
_chemical_formula_sum "Si O2"
_cell_formula_units_Z 16
_cell_length_a 8.614147
_cell_length_b 11.061749
_cell_length_c 17.399018
_cell_angle_alpha 129.963353
_cell_angle_beta 144.503381
_cell_angle_gamma 64.805437
_cell_volume 720.021118
_symmetry_space_group_name_H-M "P -1"
_symmetry_group_IT_number 2
_symmetry_cell_setting 'triclinic'
loop_
_space_group_symop_operation_xyz
x,y,z
-x,-y,-z
loop_
_atom_site_type_symbol
_atom_site_label
_atom_site_fract_x
_atom_site_fract_y
_atom_site_fract_z
Si Si1 0.015525 0.194671 0.282786
Si Si2 0.528311 0.472530 0.589415
Si Si3 0.511363 0.300952 0.857899
Si Si4 0.919642 0.876289 0.485270
Si Si5 0.928024 0.615142 0.172508
Si Si6 0.669317 0.235546 0.303037
Si Si7 0.178462 0.939586 0.335210
Si Si8 0.223927 0.921685 0.018600
O O1 0.820753 0.259743 0.291514
O O2 0.310436 0.312444 0.459398
O O3 0.894830 0.193954 0.148181
O O4 0.065411 0.013073 0.243584
O O5 0.500000 0.500000 0.500000
O O6 0.488641 0.622126 0.687237
O O7 0.832496 0.449929 0.716994
O O8 0.391741 0.223014 0.696353
O O9 0.239406 0.314812 0.800765
O O10 0.673773 0.188344 0.922240
O O11 0.712620 0.469708 0.985989
O O12 0.128231 0.758649 0.538599
O O13 0.956364 0.980917 0.618667
O O14 0.000000 0.000000 0.500000
O O15 0.059699 0.746813 0.214379
O O16 0.465917 0.062304 0.144079
O O17 0.500000 0.000000 0.500000
O O18 0.000000 0.000000 0.000000
#
# Coordination Sequence:
#
# PCOD8030015 Si02
#       8
#     2   2   2   2   2   2   2   2
#     4  11  25  45  69  96 141 180 223 283 347 412
#     4  12  24  42  69 102 134 177 234 284 334 408
#     4  11  23  41  69 100 134 173 225 288 334 391
#     4  11  21  41  70  96 128 180 230 268 324 410
#     4  11  23  42  65  98 137 174 226 279 336 395
#     4  11  24  43  67 101 139 183 222 279 353 399
#     4  11  23  42  68  95 131 177 220 274 338 395
#     4  12  25  43  70 103 133 177 232 283 340 407
#
# _framework density 22.221571000000001
#
# number of rings (size 3 to 8) (size 9 to 14) (size 15 to 20)
#    0.000    0.750    3.750    4.500    1.750    1.000 
#    0.000    3.125    0.000    0.000    0.000    0.000 
#    0.000    0.000    0.000    0.000    0.000    0.000 
#
# Total GULP energy -198386.939217 kJ/mol
# GULP energy per Si atom -12399.183701 kJ/mol
# Density = 2.217099 g / cm^3
# Si number density = 22.221571 Si / 1000 Ang^3
#
#
#
# Elastic Constant Matrix: (Units=GPa)
#
#
# Indices 1 2 3 4 5 6 
#
# 1 79.0984 24.6255 16.2821 -0.9115 12.8248 -8.9900
# 2 24.6255 119.2061 35.4071 -3.7609 10.0837 -10.0815
# 3 16.2821 35.4071 124.0819 9.6073 10.6537 -1.5106
# 4 -0.9115 -3.7609 9.6073 45.0311 5.2176 14.9584
# 5 12.8248 10.0837 10.6537 5.2176 42.1292 3.9854
# 6 -8.9900 -10.0815 -1.5106 14.9584 3.9854 31.0650
#
#
#
# Elastic Compliance Matrix: (Units=1/GPa)
#
#
# Indices 1 2 3 4 5 6 
#
# 1 0.014612 -0.002068 -0.000874 -0.000667 -0.004062 0.004358
# 2 -0.002068 0.009885 -0.002452 0.000695 -0.001423 0.002338
# 3 -0.000874 -0.002452 0.009162 -0.002245 -0.001246 0.000637
# 4 -0.000667 0.000695 -0.002245 0.027223 -0.001538 -0.012988
# 5 -0.004062 -0.001423 -0.001246 -0.001538 0.026228 -0.004322
# 6 0.004358 0.002338 0.000637 -0.012988 -0.004322 0.041050
#
#
# Mechanical properties :
#
#
# Convention : Reuss Voigt Hill
#
# Bulk Modulus (GPa) = 43.72416 52.77954 48.25185
# Shear Modulus (GPa) = 34.11299 40.04982 37.08141
#
# Velocity S-wave (km/s) = 3.92232 4.24995 4.08942
# Velocity P-wave (km/s) = 6.34287 6.91996 6.63769
#
# Compressibility (1/GPa) = 0.02287065
#
# Stress axis : x y z
#
# Youngs Moduli (GPa) = 68.43537 101.16834 109.14404
#
# Poissons Ratio (x) = 0.20921 0.09538
# Poissons Ratio (y) = 0.14152 0.26766
# Poissons Ratio (z) = 0.05980 0.24810
#
# Static dielectric constant tensor:
#      x y z
#    x 3.838960 -0.270970 0.254320 
#    y -0.270970 4.079090 0.203150 
#    z 0.254320 0.203150 4.463210 
# 
# 
# High freq. dielectric constant tensor:
#      x y z
#    x 1.868720 -0.000620 0.016430 
#    y -0.000620 1.885470 -0.001830 
#    z 0.016430 -0.001830 1.886190 
# 
# From -- ./inp_files/274620.got.cif
#   From: 2010.06.25/outbox.cif.g09.slc.cpg/sg2_138_cif.got.tgz:274620.got - 2010.06.27 13:26:56.
