data_PCOD8030740
_publ_section_title
;
Structure prediction by ZEFSAII (Michael W. Deem and Ramdas Pophale) SiO2 
 PCOD8030740
Probable space group: P -1
;
_chemical_formula_sum "Si O2"
_cell_formula_units_Z 16
_cell_length_a 14.034325
_cell_length_b 11.381492
_cell_length_c 8.653731
_cell_angle_alpha 55.560439
_cell_angle_beta 82.090747
_cell_angle_gamma 43.934439
_cell_volume 697.634008
_symmetry_space_group_name_H-M "P -1"
_symmetry_group_IT_number 2
_symmetry_cell_setting 'triclinic'
loop_
_space_group_symop_operation_xyz
x,y,z
-x,-y,-z
loop_
_atom_site_type_symbol
_atom_site_label
_atom_site_fract_x
_atom_site_fract_y
_atom_site_fract_z
Si Si1 0.367638 0.663382 0.080824
Si Si2 0.399719 0.939978 0.897700
Si Si3 0.118347 0.826916 0.803416
Si Si4 0.214507 0.706329 0.359185
Si Si5 0.657499 0.996559 0.771637
Si Si6 0.672050 0.698521 0.510704
Si Si7 0.702930 0.233958 0.427875
Si Si8 0.271956 0.369921 0.087471
O O1 0.308520 0.707843 0.233256
O O2 0.551636 0.407933 0.221038
O O3 0.339428 0.861362 0.898020
O O4 0.271249 0.668116 0.993651
O O5 0.578281 0.752064 0.950760
O O6 0.296489 0.185932 0.663082
O O7 0.381195 0.960654 0.070931
O O8 0.138835 0.917407 0.592219
O O9 0.131707 0.645580 0.883767
O O10 0.963253 0.035500 0.777620
O O11 0.210786 0.551013 0.408967
O O12 0.307724 0.615897 0.567296
O O13 0.501009 0.156451 0.589102
O O14 0.731699 0.058338 0.651386
O O15 0.774214 0.730999 0.897883
O O16 0.695808 0.685007 0.697108
#
# Coordination Sequence:
#
# PCOD8030740 Si02
#       8
#     2   2   2   2   2   2   2   2
#     4  12  23  42  72  96 130 171 234 268 320 385
#     4  11  23  39  65  99 127 171 221 277 319 383
#     4  12  27  42  68  99 140 173 214 272 342 388
#     4  12  25  46  65  98 139 177 211 274 339 392
#     4  11  22  40  65  97 129 170 222 277 318 382
#     4  11  23  38  66  94 135 170 216 271 335 383
#     4  12  24  43  70 101 126 176 230 274 311 391
#     4  11  23  39  64  97 134 168 217 272 333 385
#
# _framework density 22.934660999999998
#
# number of rings (size 3 to 8) (size 9 to 14) (size 15 to 20)
#    0.000    0.500    5.000    5.250    5.250    0.000 
#    0.000    2.500    0.000    0.000    0.000    0.000 
#    0.000    0.000    0.000    0.000    0.000    0.000 
#
# Total GULP energy -198346.763571 kJ/mol
# GULP energy per Si atom -12396.672723 kJ/mol
# Density = 2.288246 g / cm^3
# Si number density = 22.934661 Si / 1000 Ang^3
#
#
#
# Elastic Constant Matrix: (Units=GPa)
#
#
# Indices 1 2 3 4 5 6 
#
# 1 43.8710 -15.0018 -7.3162 -41.8799 -5.5256 19.5915
# 2 -15.0018 34.1621 -32.3965 -77.1589 23.9975 24.9969
# 3 -7.3162 -32.3965 36.0846 -39.7699 -7.2059 13.2612
# 4 -41.8799 -77.1589 -39.7699 7.5336 37.0761 3.4164
# 5 -5.5256 23.9975 -7.2059 37.0761 7.9748 -7.0433
# 6 19.5915 24.9969 13.2612 3.4164 -7.0433 39.2451
#
#
#
# Elastic Compliance Matrix: (Units=1/GPa)
#
#
# Indices 1 2 3 4 5 6 
#
# 1 0.032286 -0.003096 0.014214 -0.002438 0.046721 -0.010351
# 2 -0.003096 0.005951 -0.000550 -0.006440 0.009586 0.000222
# 3 0.014214 -0.000550 0.040777 -0.004359 0.060395 -0.009306
# 4 -0.002438 -0.006440 -0.004359 0.003326 0.004786 0.007361
# 5 0.046721 0.009586 0.060395 0.004786 0.138868 -0.025331
# 6 -0.010351 0.000222 -0.009306 0.007361 -0.025331 0.028464
#
#
# Mechanical properties :
#
#
# Convention : Reuss Voigt Hill
#
# Bulk Modulus (GPa) = 9.98503 0.52098 5.25300
# Shear Modulus (GPa) = 19.08982 22.20618 20.64800
#
# Velocity S-wave (km/s) = 2.88819 3.11503 3.00375
# Velocity P-wave (km/s) = 3.93514 3.62843 3.78489
#
# Compressibility (1/GPa) = 0.10014993
#
# Stress axis : x y z
#
# Youngs Moduli (GPa) = 30.97363 168.04252 24.52351
#
# Poissons Ratio (x) = 0.52023 -0.34857
# Poissons Ratio (y) = 0.09589 0.01348
# Poissons Ratio (z) = -0.44025 0.09236
#
# Static dielectric constant tensor:
#      x y z
#    x 4.275250 0.323460 -0.447260 
#    y 0.323460 4.300020 0.175790 
#    z -0.447260 0.175790 4.275890 
# 
# 
# High freq. dielectric constant tensor:
#      x y z
#    x 1.895370 0.021070 -0.024260 
#    y 0.021070 1.912220 0.022940 
#    z -0.024260 0.022940 1.907520 
# 
# From -- ./inp_files/306744.got.cif
#   From: 2010.06.25/outbox.cif.g09.slc.cpg/sg2_154_cif.got.tgz:306744.got - 2010.06.27 13:26:56.
