data_PCOD8030350
_publ_section_title
;
Structure prediction by ZEFSAII (Michael W. Deem and Ramdas Pophale) SiO2 
 PCOD8030350
Probable space group: P -1
;
_chemical_formula_sum "Si O2"
_cell_formula_units_Z 16
_cell_length_a 11.676816
_cell_length_b 8.482873
_cell_length_c 14.175293
_cell_angle_alpha 51.199166
_cell_angle_beta 53.340155
_cell_angle_gamma 40.620701
_cell_volume 691.708973
_symmetry_space_group_name_H-M "P -1"
_symmetry_group_IT_number 2
_symmetry_cell_setting 'triclinic'
loop_
_space_group_symop_operation_xyz
x,y,z
-x,-y,-z
loop_
_atom_site_type_symbol
_atom_site_label
_atom_site_fract_x
_atom_site_fract_y
_atom_site_fract_z
Si Si1 0.273295 0.609528 0.291132
Si Si2 0.654055 0.702510 0.052840
Si Si3 0.888219 0.860346 0.888685
Si Si4 0.603828 0.107947 0.371523
Si Si5 0.985823 0.622337 0.308561
Si Si6 0.923248 0.279267 0.963590
Si Si7 0.740636 0.368828 0.304094
Si Si8 0.140022 0.702168 0.524291
O O1 0.468398 0.337012 0.278284
O O2 0.265793 0.643836 0.395443
O O3 0.111691 0.609650 0.331979
O O4 0.274306 0.831525 0.159505
O O5 0.630774 0.628471 0.196690
O O6 0.832889 0.683893 0.953223
O O7 0.713507 0.470358 0.037422
O O8 0.500000 0.000000 0.000000
O O9 0.050674 0.809597 0.765447
O O10 0.932388 0.792801 0.000800
O O11 0.659164 0.214744 0.388507
O O12 0.500000 0.000000 0.500000
O O13 0.784841 0.891631 0.308209
O O14 0.975480 0.392431 0.413396
O O15 0.072906 0.576261 0.181081
O O16 0.000000 0.000000 0.000000
O O17 0.733968 0.437143 0.392147
O O18 0.000000 0.000000 0.500000
#
# Coordination Sequence:
#
# PCOD8030350 Si02
#       8
#     2   2   2   2   2   2   2   2
#     4  12  25  44  71 102 143 189 240 293 362 430
#     4  11  24  45  73 109 147 183 239 305 369 436
#     4  11  21  44  72 101 142 191 227 297 370 428
#     4  12  26  46  70 101 143 195 236 299 362 417
#     4  12  24  49  69 100 149 188 239 299 360 437
#     4  11  22  43  73 102 135 193 236 289 370 429
#     4  11  23  46  69 103 146 187 243 294 355 440
#     4  12  24  40  72 100 136 196 238 291 357 425
#
# _framework density 23.131115999999999
#
# number of rings (size 3 to 8) (size 9 to 14) (size 15 to 20)
#    0.000    0.500    5.000    4.875    1.750    0.500 
#    4.500    1.250    0.000    0.000    0.000    0.000 
#    0.000    0.000    0.000    0.000    0.000    0.000 
#
# Total GULP energy -198251.707195 kJ/mol
# GULP energy per Si atom -12390.731700 kJ/mol
# Density = 2.307847 g / cm^3
# Si number density = 23.131116 Si / 1000 Ang^3
#
#
#
# Elastic Constant Matrix: (Units=GPa)
#
#
# Indices 1 2 3 4 5 6 
#
# 1 90.6784 28.4902 51.0662 3.6981 8.3628 16.4721
# 2 28.4902 146.9095 31.0376 -11.9466 24.5496 -0.2098
# 3 51.0662 31.0376 99.2179 -7.4049 14.3198 6.6737
# 4 3.6981 -11.9466 -7.4049 38.6335 4.9454 -4.5939
# 5 8.3628 24.5496 14.3198 4.9454 48.0283 -12.6690
# 6 16.4721 -0.2098 6.6737 -4.5939 -12.6690 33.5428
#
#
#
# Elastic Compliance Matrix: (Units=1/GPa)
#
#
# Indices 1 2 3 4 5 6 
#
# 1 0.018199 -0.001925 -0.008340 -0.004760 -0.001447 -0.008488
# 2 -0.001925 0.008260 -0.000799 0.003101 -0.003944 0.000091
# 3 -0.008340 -0.000799 0.015315 0.003923 -0.002991 0.000451
# 4 -0.004760 0.003101 0.003923 0.029030 -0.003833 0.004104
# 5 -0.001447 -0.003944 -0.002991 -0.003833 0.027294 0.011065
# 6 -0.008488 0.000091 0.000451 0.004104 0.011065 0.038633
#
#
# Mechanical properties :
#
#
# Convention : Reuss Voigt Hill
#
# Bulk Modulus (GPa) = 50.89671 61.99931 56.44801
# Shear Modulus (GPa) = 30.22819 39.12169 34.67494
#
# Velocity S-wave (km/s) = 3.61892 4.11701 3.87597
# Velocity P-wave (km/s) = 6.28597 7.03287 6.66988
#
# Compressibility (1/GPa) = 0.01964764
#
# Stress axis : x y z
#
# Youngs Moduli (GPa) = 54.94796 121.06002 65.29382
#
# Poissons Ratio (x) = 0.23300 0.54456
# Poissons Ratio (y) = 0.10576 0.05216
# Poissons Ratio (z) = 0.45827 0.09670
#
# Static dielectric constant tensor:
#      x y z
#    x 4.484170 -0.103420 -0.249980 
#    y -0.103420 4.317750 -0.341780 
#    z -0.249980 -0.341780 4.221220 
# 
# 
# High freq. dielectric constant tensor:
#      x y z
#    x 1.909720 0.004090 -0.005790 
#    y 0.004090 1.925560 -0.021680 
#    z -0.005790 -0.021680 1.915390 
# 
# From -- ./inp_files/515026.got.cif
#   From: 2010.06.25/outbox.cif.g09.slc.cpg/sg2_258_cif.got.tgz:515026.got - 2010.06.27 13:26:56.
