data_PCOD8030460
_publ_section_title
;
Structure prediction by ZEFSAII (Michael W. Deem and Ramdas Pophale) SiO2 
 PCOD8030460
Probable space group: P -1
;
_chemical_formula_sum "Si O2"
_cell_formula_units_Z 14
_cell_length_a 9.698629
_cell_length_b 18.355255
_cell_length_c 21.826335
_cell_angle_alpha 19.428818
_cell_angle_beta 31.122091
_cell_angle_gamma 41.955997
_cell_volume 620.546884
_symmetry_space_group_name_H-M "P -1"
_symmetry_group_IT_number 2
_symmetry_cell_setting 'triclinic'
loop_
_space_group_symop_operation_xyz
x,y,z
-x,-y,-z
loop_
_atom_site_type_symbol
_atom_site_label
_atom_site_fract_x
_atom_site_fract_y
_atom_site_fract_z
Si Si1 0.863360 0.587933 0.132028
Si Si2 0.782279 0.673558 0.541072
Si Si3 0.889781 0.976810 0.382843
Si Si4 0.505436 0.092209 0.629826
Si Si5 0.371699 0.774939 0.185634
Si Si6 0.452038 0.739765 0.834564
Si Si7 0.506031 0.857128 0.934111
O O1 0.792633 0.318597 0.353685
O O2 0.571067 0.619928 0.238634
O O3 0.107833 0.669655 0.026478
O O4 0.010400 0.749454 0.889988
O O5 0.853931 0.814796 0.465084
O O6 0.705562 0.829928 0.394496
O O7 0.055850 0.622843 0.451028
O O8 0.537262 0.415729 0.848554
O O9 0.593628 0.898937 0.594975
O O10 0.155556 0.972454 0.326827
O O11 0.369684 0.971313 0.842432
O O12 0.591011 0.893554 0.719512
O O13 0.500000 0.000000 0.000000
O O14 0.360052 0.859880 0.053044
O O15 0.500000 0.500000 0.000000
#
# Coordination Sequence:
#
# PCOD8030460 Si02
#       7
#     2   2   2   2   2   2   2
#     4  11  24  44  69 104 137 183 236 283 350 416
#     4  12  23  46  74 102 143 188 227 288 347 418
#     4  11  23  45  71  99 139 188 233 279 350 413
#     4  12  26  44  70 107 145 176 237 291 346 416
#     4  11  21  46  73  99 143 182 231 286 343 423
#     4  12  26  45  71 101 143 184 236 293 347 413
#     4  11  25  43  69 106 138 183 233 282 350 415
#
# _framework density 22.560746000000002
#
# number of rings (size 3 to 8) (size 9 to 14) (size 15 to 20)
#    0.000    0.571    7.143    2.571    0.000    4.571 
#    0.000    0.714    0.000    0.000    0.000    0.000 
#    0.000    0.000    0.000    0.000    0.000    0.000 
#
# Total GULP energy -173508.065266 kJ/mol
# GULP energy per Si atom -12393.433233 kJ/mol
# Density = 2.250940 g / cm^3
# Si number density = 22.560746 Si / 1000 Ang^3
#
#
#
# Elastic Constant Matrix: (Units=GPa)
#
#
# Indices 1 2 3 4 5 6 
#
# 1 124.3624 48.5134 63.7898 -8.8158 0.9530 16.6476
# 2 48.5134 97.5727 57.6534 -1.9605 -9.1320 19.5631
# 3 63.7898 57.6534 133.3483 -23.3304 -11.0827 21.5171
# 4 -8.8158 -1.9605 -23.3304 41.6320 -1.8468 -6.1251
# 5 0.9530 -9.1320 -11.0827 -1.8468 39.2128 -0.8651
# 6 16.6476 19.5631 21.5171 -6.1251 -0.8651 36.4446
#
#
#
# Elastic Compliance Matrix: (Units=1/GPa)
#
#
# Indices 1 2 3 4 5 6 
#
# 1 0.011628 -0.003284 -0.004197 -0.000319 -0.002275 -0.001178
# 2 -0.003284 0.015857 -0.004944 -0.003302 0.002118 -0.004597
# 3 -0.004197 -0.004944 0.013320 0.006152 0.002957 -0.002189
# 4 -0.000319 -0.003302 0.006152 0.027792 0.002353 0.003013
# 5 -0.002275 0.002118 0.002957 0.002353 0.026979 -0.000808
# 6 -0.001178 -0.004597 -0.002189 0.003013 -0.000808 0.032224
#
#
# Mechanical properties :
#
#
# Convention : Reuss Voigt Hill
#
# Bulk Modulus (GPa) = 62.68595 77.24405 69.96500
# Shear Modulus (GPa) = 31.65177 35.81300 33.73238
#
# Velocity S-wave (km/s) = 3.74967 3.98854 3.87095
# Velocity P-wave (km/s) = 6.82587 7.45144 7.14550
#
# Compressibility (1/GPa) = 0.01595254
#
# Stress axis : x y z
#
# Youngs Moduli (GPa) = 86.00241 63.06363 75.07596
#
# Poissons Ratio (x) = 0.20713 0.31509
# Poissons Ratio (y) = 0.28247 0.37121
# Poissons Ratio (z) = 0.36095 0.31182
#
# Static dielectric constant tensor:
#      x y z
#    x 4.363210 -0.081420 -0.345840 
#    y -0.081420 4.643380 0.387600 
#    z -0.345840 0.387600 4.530230 
# 
# 
# High freq. dielectric constant tensor:
#      x y z
#    x 1.898810 0.008550 -0.017930 
#    y 0.008550 1.867240 -0.010460 
#    z -0.017930 -0.010460 1.903650 
# 
# From -- ./inp_files/590837.got.cif
#   From: 2010.06.25/outbox.cif.g09.slc.cpg/sg2_296_cif.got.tgz:590837.got - 2010.06.27 13:26:56.
