data_PCOD8030515
_publ_section_title
;
Structure prediction by ZEFSAII (Michael W. Deem and Ramdas Pophale) SiO2 
 PCOD8030515
Probable space group: P -1
;
_chemical_formula_sum "Si O2"
_cell_formula_units_Z 12
_cell_length_a 13.948677
_cell_length_b 7.164824
_cell_length_c 8.402224
_cell_angle_alpha 112.558690
_cell_angle_beta 94.903799
_cell_angle_gamma 45.522411
_cell_volume 531.475638
_symmetry_space_group_name_H-M "P -1"
_symmetry_group_IT_number 2
_symmetry_cell_setting 'triclinic'
loop_
_space_group_symop_operation_xyz
x,y,z
-x,-y,-z
loop_
_atom_site_type_symbol
_atom_site_label
_atom_site_fract_x
_atom_site_fract_y
_atom_site_fract_z
Si Si1 0.958089 0.188496 0.829559
Si Si2 0.290667 0.490501 0.319063
Si Si3 0.837335 0.421952 0.212123
Si Si4 0.627258 0.936760 0.561006
Si Si5 0.515095 0.529335 0.828174
Si Si6 0.256517 0.805672 0.721040
O O1 0.867017 0.301391 0.695933
O O2 0.862398 0.434183 0.034748
O O3 0.014110 0.878097 0.786700
O O4 0.093555 0.128208 0.797724
O O5 0.336598 0.204928 0.304568
O O6 0.391852 0.410827 0.164351
O O7 0.297440 0.654290 0.506426
O O8 0.764120 0.719537 0.391923
O O9 0.730727 0.395918 0.212376
O O10 0.500000 0.000000 0.500000
O O11 0.590638 0.226519 0.654881
O O12 0.367309 0.799152 0.803084
O O13 0.500000 0.500000 0.000000
#
# Coordination Sequence:
#
# PCOD8030515 Si02
#       6
#     2   2   2   2   2   2
#     4   9  17  36  64  91 119 169 202 242 316 365
#     4  11  22  36  69  91 122 164 208 252 308 363
#     4   8  17  33  64  83 122 159 205 237 304 362
#     4  11  22  41  63  91 127 163 206 251 311 367
#     4  12  25  41  62  95 125 159 208 263 306 360
#     4   9  18  36  61  86 121 164 201 243 308 366
#
# _framework density 22.578645999999999
#
# number of rings (size 3 to 8) (size 9 to 14) (size 15 to 20)
#    1.000    1.000    3.333    2.000    0.000    0.667 
#    0.000    0.833    0.000    2.000    0.000    0.000 
#    0.000    0.000    0.000    0.000    0.000    0.000 
#
# Total GULP energy -148664.235784 kJ/mol
# GULP energy per Si atom -12388.686315 kJ/mol
# Density = 2.252726 g / cm^3
# Si number density = 22.578646 Si / 1000 Ang^3
#
#
#
# Elastic Constant Matrix: (Units=GPa)
#
#
# Indices 1 2 3 4 5 6 
#
# 1 61.9875 37.0745 16.9606 4.8058 -11.8106 -22.6692
# 2 37.0745 108.8611 28.4300 -10.8786 2.9519 -37.1646
# 3 16.9606 28.4300 87.4138 5.2785 -19.6580 -8.4790
# 4 4.8058 -10.8786 5.2785 32.1906 -3.2264 5.0696
# 5 -11.8106 2.9519 -19.6580 -3.2264 28.9742 -0.4785
# 6 -22.6692 -37.1646 -8.4790 5.0696 -0.4785 34.2394
#
#
#
# Elastic Compliance Matrix: (Units=1/GPa)
#
#
# Indices 1 2 3 4 5 6 
#
# 1 0.026933 -0.006178 0.001079 -0.007093 0.011758 0.012608
# 2 -0.006178 0.017832 -0.005229 0.005026 -0.007106 0.013127
# 3 0.001079 -0.005229 0.015601 -0.003294 0.011183 -0.000454
# 4 -0.007093 0.005026 -0.003294 0.035009 -0.001827 -0.005265
# 5 0.011758 -0.007106 0.011183 -0.001827 0.047477 0.003775
# 6 0.012608 0.013127 -0.000454 -0.005265 0.003775 0.052522
#
#
# Mechanical properties :
#
#
# Convention : Reuss Voigt Hill
#
# Bulk Modulus (GPa) = 25.18240 47.02139 36.10190
# Shear Modulus (GPa) = 21.80874 30.80065 26.30470
#
# Velocity S-wave (km/s) = 3.11127 3.69745 3.41695
# Velocity P-wave (km/s) = 4.90755 6.25292 5.62063
#
# Compressibility (1/GPa) = 0.03971027
#
# Stress axis : x y z
#
# Youngs Moduli (GPa) = 37.12926 56.07880 64.09856
#
# Poissons Ratio (x) = 0.34643 -0.06916
# Poissons Ratio (y) = 0.22937 0.33519
# Poissons Ratio (z) = -0.04006 0.29325
#
# Static dielectric constant tensor:
#      x y z
#    x 3.660310 -0.141420 -0.243950 
#    y -0.141420 4.118480 0.153150 
#    z -0.243950 0.153150 4.072820 
# 
# 
# High freq. dielectric constant tensor:
#      x y z
#    x 1.848590 -0.017950 -0.025840 
#    y -0.017950 1.886510 -0.001230 
#    z -0.025840 -0.001230 1.891920 
# 
# From -- ./inp_files/292973.got.cif
#   From: 2010.06.25/outbox.cif.g09.slc.cpg/sg2_147_cif.got.tgz:292973.got - 2010.06.27 13:26:56.
