data_PCOD8030017
_publ_section_title
;
Structure prediction by ZEFSAII (Michael W. Deem and Ramdas Pophale) SiO2 
 PCOD8030017
Probable space group: P -1
;
_chemical_formula_sum "Si O2"
_cell_formula_units_Z 16
_cell_length_a 24.482894
_cell_length_b 9.848138
_cell_length_c 8.781723
_cell_angle_alpha 149.201407
_cell_angle_beta 49.044169
_cell_angle_gamma 131.693051
_cell_volume 789.700614
_symmetry_space_group_name_H-M "P -1"
_symmetry_group_IT_number 2
_symmetry_cell_setting 'triclinic'
loop_
_space_group_symop_operation_xyz
x,y,z
-x,-y,-z
loop_
_atom_site_type_symbol
_atom_site_label
_atom_site_fract_x
_atom_site_fract_y
_atom_site_fract_z
Si Si1 0.917910 0.453578 0.174190
Si Si2 0.155118 0.180882 0.814598
Si Si3 0.319535 0.087426 0.151688
Si Si4 0.683387 0.465172 0.199665
Si Si5 0.081753 0.596002 0.512838
Si Si6 0.842907 0.899319 0.612435
Si Si7 0.525775 0.784569 0.145817
Si Si8 0.535386 0.290458 0.146117
O O1 0.922306 0.446478 0.340686
O O2 0.874834 0.681852 0.435690
O O3 0.000000 0.500000 0.000000
O O4 0.870236 0.181111 0.921518
O O5 0.244203 0.308967 0.778262
O O6 0.127072 0.099699 0.614896
O O7 0.125869 0.912083 0.711190
O O8 0.125431 0.417465 0.169903
O O9 0.356048 0.353663 0.445804
O O10 0.247071 0.157093 0.275175
O O11 0.384264 0.092503 0.916134
O O12 0.296913 0.793292 0.998923
O O13 0.625515 0.358405 0.066349
O O14 0.000000 0.500000 0.500000
O O15 0.500000 0.000000 0.500000
O O16 0.500000 0.500000 0.000000
O O17 0.481178 0.732090 0.021137
O O18 0.500000 0.500000 0.500000
O O19 0.500000 0.000000 0.000000
#
# Coordination Sequence:
#
# PCOD8030017 Si02
#       8
#     2   2   2   2   2   2   2   2
#     4  12  25  44  68  98 132 171 219 258 319 400
#     4  11  23  42  68  98 130 168 217 268 331 381
#     4  11  22  42  69  93 133 176 223 270 332 397
#     4  11  21  41  70  97 124 174 229 276 318 396
#     4  12  25  44  67  97 135 168 208 272 328 382
#     4  11  23  43  69  96 126 176 219 263 321 399
#     4  12  25  42  63  99 135 174 221 279 340 384
#     4  12  22  42  70  94 127 175 234 270 321 393
#
# _framework density 20.260843999999999
#
# number of rings (size 3 to 8) (size 9 to 14) (size 15 to 20)
#    0.000    0.500    2.500    8.250    0.000    0.000 
#    6.750    0.000    0.000    0.000    0.000    0.000 
#    0.000    0.000    0.000    0.000    0.000    0.000 
#
# Total GULP energy -198330.304292 kJ/mol
# GULP energy per Si atom -12395.644018 kJ/mol
# Density = 2.021473 g / cm^3
# Si number density = 20.260844 Si / 1000 Ang^3
#
#
#
# Elastic Constant Matrix: (Units=GPa)
#
#
# Indices 1 2 3 4 5 6 
#
# 1 171.1903 82.2996 88.1761 -6.7324 0.7673 -8.3803
# 2 82.2996 128.1567 63.3863 0.1300 -17.9064 -4.9392
# 3 88.1761 63.3863 221.1707 -5.9883 -8.8945 -15.4180
# 4 -6.7324 0.1300 -5.9883 50.2810 -5.5014 2.8687
# 5 0.7673 -17.9064 -8.8945 -5.5014 38.5415 -2.0237
# 6 -8.3803 -4.9392 -15.4180 2.8687 -2.0237 42.7623
#
#
#
# Elastic Compliance Matrix: (Units=1/GPa)
#
#
# Indices 1 2 3 4 5 6 
#
# 1 0.009801 -0.005542 -0.002416 0.000675 -0.003220 0.000212
# 2 -0.005542 0.012772 -0.001212 -0.000306 0.005734 0.000244
# 3 -0.002416 -0.001212 0.005993 0.000414 0.001010 0.001567
# 4 0.000675 -0.000306 0.000414 0.020391 0.002799 -0.000989
# 5 -0.003220 0.005734 0.001010 0.002799 0.029390 0.001598
# 6 0.000212 0.000244 0.001567 -0.000989 0.001598 0.024162
#
#
# Mechanical properties :
#
#
# Convention : Reuss Voigt Hill
#
# Bulk Modulus (GPa) = 97.77409 109.80464 103.78936
# Shear Modulus (GPa) = 40.23905 45.42732 42.83318
#
# Velocity S-wave (km/s) = 4.46135 4.74024 4.60291
# Velocity P-wave (km/s) = 8.65451 9.18003 8.92114
#
# Compressibility (1/GPa) = 0.01022766
#
# Stress axis : x y z
#
# Youngs Moduli (GPa) = 102.02732 78.29712 166.86544
#
# Poissons Ratio (x) = 0.43390 0.40311
# Poissons Ratio (y) = 0.56541 0.20218
# Poissons Ratio (z) = 0.24648 0.09487
#
# Static dielectric constant tensor:
#      x y z
#    x 3.363180 -0.357210 0.188580 
#    y -0.357210 3.537770 -0.018860 
#    z 0.188580 -0.018860 4.082560 
# 
# 
# High freq. dielectric constant tensor:
#      x y z
#    x 1.801000 0.010770 -0.000040 
#    y 0.010770 1.792340 0.007590 
#    z -0.000040 0.007590 1.821860 
# 
# From -- ./inp_files/328282.got.cif
#   From: 2010.06.25/outbox.cif.g09.slc.cpg/sg2_165_cif.got.tgz:328282.got - 2010.06.27 13:26:56.
