data_PCOD8030638
_publ_section_title
;
Structure prediction by ZEFSAII (Michael W. Deem and Ramdas Pophale) SiO2 
 PCOD8030638
Probable space group: P -1
;
_chemical_formula_sum "Si O2"
_cell_formula_units_Z 16
_cell_length_a 11.045271
_cell_length_b 11.367930
_cell_length_c 12.645593
_cell_angle_alpha 75.098250
_cell_angle_beta 49.219091
_cell_angle_gamma 115.687083
_cell_volume 661.829126
_symmetry_space_group_name_H-M "P -1"
_symmetry_group_IT_number 2
_symmetry_cell_setting 'triclinic'
loop_
_space_group_symop_operation_xyz
x,y,z
-x,-y,-z
loop_
_atom_site_type_symbol
_atom_site_label
_atom_site_fract_x
_atom_site_fract_y
_atom_site_fract_z
Si Si1 0.819818 0.913062 0.223780
Si Si2 0.174478 0.320767 0.601077
Si Si3 0.643741 0.648229 0.090345
Si Si4 0.771636 0.465604 0.058500
Si Si5 0.364684 0.855015 0.712212
Si Si6 0.449336 0.838274 0.315310
Si Si7 0.391696 0.124900 0.018821
Si Si8 0.913362 0.400137 0.788456
O O1 0.716984 0.722479 0.378814
O O2 0.550002 0.820443 0.363065
O O3 0.000000 0.000000 0.000000
O O4 0.025898 0.121265 0.131945
O O5 0.438622 0.537396 0.334110
O O6 0.052316 0.354252 0.734854
O O7 0.922789 0.114814 0.714201
O O8 0.610896 0.487412 0.106822
O O9 0.558211 0.696992 0.040575
O O10 0.569200 0.249791 0.293752
O O11 0.880330 0.451647 0.903598
O O12 0.030199 0.665516 0.939371
O O13 0.500000 0.000000 0.500000
O O14 0.475818 0.977955 0.732621
O O15 0.597146 0.900323 0.106721
O O16 0.115091 0.608317 0.549840
O O17 0.616811 0.195783 0.944844
#
# Coordination Sequence:
#
# PCOD8030638 Si02
#       8
#     2   2   2   2   2   2   2   2
#     4  11  22  39  65 100 140 163 218 287 344 392
#     4  11  24  42  70  99 131 177 226 280 336 391
#     4  11  24  42  66 101 132 175 222 279 340 399
#     4  11  26  42  67 101 138 176 223 272 337 412
#     4  11  24  42  66  99 142 176 218 274 346 403
#     4  12  22  42  71 101 132 180 219 282 339 390
#     4  11  25  47  69  97 138 176 234 281 322 392
#     4  12  25  46  71  98 136 186 226 273 332 401
#
# _framework density 24.175425000000001
#
# number of rings (size 3 to 8) (size 9 to 14) (size 15 to 20)
#    0.000    0.750    6.250    1.500    1.750    2.500 
#    0.000    0.625    0.000    0.000    0.000    0.000 
#    0.000    0.000    0.000    0.000    0.000    0.000 
#
# Total GULP energy -198310.091273 kJ/mol
# GULP energy per Si atom -12394.380705 kJ/mol
# Density = 2.412040 g / cm^3
# Si number density = 24.175425 Si / 1000 Ang^3
#
#
#
# Elastic Constant Matrix: (Units=GPa)
#
#
# Indices 1 2 3 4 5 6 
#
# 1 65.5784 31.3064 5.7702 2.5631 0.4936 -14.6585
# 2 31.3064 102.9084 19.1489 -3.8077 0.5879 -26.8343
# 3 5.7702 19.1489 68.5974 -17.7667 6.1844 -6.5221
# 4 2.5631 -3.8077 -17.7667 37.5215 -7.2760 -5.8232
# 5 0.4936 0.5879 6.1844 -7.2760 26.2547 -8.7912
# 6 -14.6585 -26.8343 -6.5221 -5.8232 -8.7912 51.0139
#
#
#
# Elastic Compliance Matrix: (Units=1/GPa)
#
#
# Indices 1 2 3 4 5 6 
#
# 1 0.018225 -0.004884 -0.000333 -0.001455 0.000282 0.002508
# 2 -0.004884 0.013287 -0.002471 0.002016 0.002947 0.006008
# 3 -0.000333 -0.002471 0.017667 0.008123 -0.001326 0.001562
# 4 -0.001455 0.002016 0.008123 0.033841 0.009873 0.007245
# 5 0.000282 0.002947 -0.001326 0.009873 0.044500 0.010257
# 6 0.002508 0.006008 0.001562 0.007245 0.010257 0.026278
#
#
# Mechanical properties :
#
#
# Convention : Reuss Voigt Hill
#
# Bulk Modulus (GPa) = 29.58227 38.83724 34.20976
# Shear Modulus (GPa) = 27.70974 35.01528 31.36251
#
# Velocity S-wave (km/s) = 3.38922 3.80989 3.60570
# Velocity P-wave (km/s) = 5.25156 5.95427 5.61392
#
# Compressibility (1/GPa) = 0.03380403
#
# Stress axis : x y z
#
# Youngs Moduli (GPa) = 54.86964 75.26014 56.60127
#
# Poissons Ratio (x) = 0.36756 0.01887
# Poissons Ratio (y) = 0.26797 0.13984
# Poissons Ratio (z) = 0.01830 0.18594
#
# Static dielectric constant tensor:
#      x y z
#    x 5.089900 -0.353510 -0.301230 
#    y -0.353510 4.599220 -0.559960 
#    z -0.301230 -0.559960 4.552510 
# 
# 
# High freq. dielectric constant tensor:
#      x y z
#    x 1.943330 -0.028680 0.002970 
#    y -0.028680 1.962460 -0.029550 
#    z 0.002970 -0.029550 1.955210 
# 
# From -- ./inp_files/428106.got.cif
#   From: 2010.06.25/outbox.cif.g09.slc.cpg/sg2_215_cif.got.tgz:428106.got - 2010.06.27 13:26:56.
