data_PCOD8030285
_publ_section_title
;
Structure prediction by ZEFSAII (Michael W. Deem and Ramdas Pophale) SiO2 
 PCOD8030285
Probable space group: P -1
;
_chemical_formula_sum "Si O2"
_cell_formula_units_Z 16
_cell_length_a 5.528799
_cell_length_b 9.207269
_cell_length_c 29.816595
_cell_angle_alpha 28.049535
_cell_angle_beta 85.934455
_cell_angle_gamma 95.782830
_cell_volume 667.379453
_symmetry_space_group_name_H-M "P -1"
_symmetry_group_IT_number 2
_symmetry_cell_setting 'triclinic'
loop_
_space_group_symop_operation_xyz
x,y,z
-x,-y,-z
loop_
_atom_site_type_symbol
_atom_site_label
_atom_site_fract_x
_atom_site_fract_y
_atom_site_fract_z
Si Si1 0.448784 0.289960 0.135535
Si Si2 0.274320 0.979072 0.686683
Si Si3 0.158645 0.882380 0.400448
Si Si4 0.058698 0.837410 0.207759
Si Si5 0.906267 0.926013 0.951216
Si Si6 0.809428 0.789953 0.596667
Si Si7 0.611724 0.707568 0.314571
Si Si8 0.124074 0.614880 0.104240
O O1 0.310869 0.424738 0.139449
O O2 0.304994 0.165176 0.124217
O O3 0.454475 0.956195 0.249000
O O4 0.709220 0.565541 0.040862
O O5 0.166007 0.647575 0.809433
O O6 0.548703 0.005753 0.653611
O O7 0.323567 0.304246 0.629778
O O8 0.034632 0.944759 0.665314
O O9 0.000000 0.500000 0.500000
O O10 0.207760 0.972062 0.427916
O O11 0.108067 0.496074 0.304516
O O12 0.868697 0.872834 0.238504
O O13 0.957980 0.875468 0.149071
O O14 0.769973 0.154651 0.916291
O O15 0.122996 0.868550 0.995339
O O16 0.542541 0.638533 0.613168
O O17 0.000000 0.000000 0.500000
#
# Coordination Sequence:
#
# PCOD8030285 Si02
#       8
#     2   2   2   2   2   2   2   2
#     4  11  21  44  64 102 138 198 242 298 364 436
#     4  12  25  50  77 109 155 195 255 303 378 450
#     4  12  29  50  81 113 148 197 250 314 376 450
#     4  11  25  44  69 102 142 189 244 301 375 437
#     4  11  24  41  64 104 141 189 249 300 369 442
#     4  11  28  49  75 108 144 191 247 309 377 447
#     4  11  25  44  76 102 146 196 243 308 373 442
#     4  11  24  40  69 100 145 191 241 303 368 435
#
# _framework density 23.974367000000001
#
# number of rings (size 3 to 8) (size 9 to 14) (size 15 to 20)
#    0.000    0.750    2.500    3.375    7.000    4.500 
#    2.250    0.000    0.000    0.000    0.000    0.000 
#    0.000    0.000    0.000    0.000    0.000    0.000 
#
# Total GULP energy -198266.929322 kJ/mol
# GULP energy per Si atom -12391.683083 kJ/mol
# Density = 2.391980 g / cm^3
# Si number density = 23.974367 Si / 1000 Ang^3
#
#
#
# Elastic Constant Matrix: (Units=GPa)
#
#
# Indices 1 2 3 4 5 6 
#
# 1 77.3262 15.0780 3.7748 4.3573 -9.6800 -4.8248
# 2 15.0780 154.2840 18.2192 -1.3196 -6.0988 6.2432
# 3 3.7748 18.2192 67.3174 -3.6326 -16.3857 0.4062
# 4 4.3573 -1.3196 -3.6326 45.0826 -5.3215 -5.1360
# 5 -9.6800 -6.0988 -16.3857 -5.3215 21.3333 -5.5948
# 6 -4.8248 6.2432 0.4062 -5.1360 -5.5948 43.0990
#
#
#
# Elastic Compliance Matrix: (Units=1/GPa)
#
#
# Indices 1 2 3 4 5 6 
#
# 1 0.014303 -0.001373 0.001490 -0.000041 0.007971 0.002816
# 2 -0.001373 0.006869 -0.001875 -0.000001 -0.000410 -0.001184
# 3 0.001490 -0.001875 0.019560 0.003693 0.016840 0.002880
# 4 -0.000041 -0.000001 0.003693 0.024123 0.009917 0.004123
# 5 0.007971 -0.000410 0.016840 0.009917 0.068637 0.010885
# 6 0.002816 -0.001184 0.002880 0.004123 0.010885 0.025566
#
#
# Mechanical properties :
#
#
# Convention : Reuss Voigt Hill
#
# Bulk Modulus (GPa) = 26.86939 41.45240 34.16089
# Shear Modulus (GPa) = 28.57487 39.36003 33.96745
#
# Velocity S-wave (km/s) = 3.45613 4.05625 3.76816
# Velocity P-wave (km/s) = 5.21136 6.26621 5.76297
#
# Compressibility (1/GPa) = 0.03721707
#
# Stress axis : x y z
#
# Youngs Moduli (GPa) = 69.91552 145.58513 51.12516
#
# Poissons Ratio (x) = 0.19989 -0.07620
# Poissons Ratio (y) = 0.09600 0.09585
# Poissons Ratio (z) = -0.10421 0.27293
#
# Static dielectric constant tensor:
#      x y z
#    x 4.646940 0.673250 0.040220 
#    y 0.673250 5.149480 -0.037490 
#    z 0.040220 -0.037490 4.340070 
# 
# 
# High freq. dielectric constant tensor:
#      x y z
#    x 1.939280 0.009910 -0.003250 
#    y 0.009910 1.974230 -0.008540 
#    z -0.003250 -0.008540 1.949760 
# 
# From -- ./inp_files/90793.got.cif
#   From: 2010.06.25/outbox.cif.g09.slc.cpg/sg2_46_cif.got.tgz:90793.got - 2010.06.27 13:26:56.
