data_PCOD8030588
_publ_section_title
;
Structure prediction by ZEFSAII (Michael W. Deem and Ramdas Pophale) SiO2 
 PCOD8030588
Probable space group: P -1
;
_chemical_formula_sum "Si O2"
_cell_formula_units_Z 16
_cell_length_a 11.128286
_cell_length_b 7.814037
_cell_length_c 8.587135
_cell_angle_alpha 74.964384
_cell_angle_beta 103.940094
_cell_angle_gamma 77.628947
_cell_volume 668.706794
_symmetry_space_group_name_H-M "P -1"
_symmetry_group_IT_number 2
_symmetry_cell_setting 'triclinic'
loop_
_space_group_symop_operation_xyz
x,y,z
-x,-y,-z
loop_
_atom_site_type_symbol
_atom_site_label
_atom_site_fract_x
_atom_site_fract_y
_atom_site_fract_z
Si Si1 0.202977 0.242884 0.559313
Si Si2 0.937124 0.898332 0.881614
Si Si3 0.342436 0.446853 0.875633
Si Si4 0.199050 0.890154 0.492228
Si Si5 0.066387 0.681918 0.696474
Si Si6 0.726335 0.887740 0.042334
Si Si7 0.650655 0.457802 0.541255
Si Si8 0.614446 0.324621 0.877211
O O1 0.210692 0.171536 0.754997
O O2 0.295505 0.370233 0.521758
O O3 0.055181 0.347026 0.431879
O O4 0.258176 0.054802 0.519552
O O5 0.033266 0.723542 0.859770
O O6 0.873451 0.060266 0.703932
O O7 0.834948 0.822963 0.959456
O O8 0.000000 0.000000 0.000000
O O9 0.193341 0.504940 0.748820
O O10 0.368896 0.237307 0.999186
O O11 0.456869 0.420946 0.787038
O O12 0.346369 0.599470 0.967245
O O13 0.099325 0.863550 0.598586
O O14 0.307835 0.694619 0.547263
O O15 0.648311 0.103560 0.955358
O O16 0.500000 0.500000 0.500000
O O17 0.696144 0.375070 0.748722
#
# Coordination Sequence:
#
# PCOD8030588 Si02
#       8
#     2   2   2   2   2   2   2   2
#     4  11  26  45  74 107 144 189 239 297 359 429
#     4  11  22  38  68 102 142 185 227 288 352 427
#     4  11  26  45  74 102 144 189 236 301 354 423
#     4  11  23  44  68 102 147 183 232 296 353 419
#     4  11  24  45  71 108 148 189 239 294 368 422
#     4  12  24  45  72 107 138 189 240 289 361 421
#     4  12  27  46  73 105 141 192 244 292 356 432
#     4  11  25  48  72 102 146 185 241 296 357 420
#
# _framework density 23.926779
#
# number of rings (size 3 to 8) (size 9 to 14) (size 15 to 20)
#    0.000    0.750    1.250    7.125    3.500    5.000 
#    0.000    0.000    0.000    0.000    0.000    0.000 
#    0.000    0.000    0.000    0.000    0.000    0.000 
#
# Total GULP energy -198259.548024 kJ/mol
# GULP energy per Si atom -12391.221751 kJ/mol
# Density = 2.387232 g / cm^3
# Si number density = 23.926779 Si / 1000 Ang^3
#
#
#
# Elastic Constant Matrix: (Units=GPa)
#
#
# Indices 1 2 3 4 5 6 
#
# 1 136.6508 57.2530 50.0038 1.1685 -11.4736 -3.7074
# 2 57.2530 151.1823 46.7930 -2.0146 -9.5705 5.5035
# 3 50.0038 46.7930 108.6339 -2.0896 -24.9035 -13.0136
# 4 1.1685 -2.0146 -2.0896 33.8081 -5.4627 -10.0288
# 5 -11.4736 -9.5705 -24.9035 -5.4627 46.9512 0.4691
# 6 -3.7074 5.5035 -13.0136 -10.0288 0.4691 39.6583
#
#
#
# Elastic Compliance Matrix: (Units=1/GPa)
#
#
# Indices 1 2 3 4 5 6 
#
# 1 0.009641 -0.002634 -0.003322 -0.000699 -0.000024 0.000000
# 2 -0.002634 0.008560 -0.002881 -0.000382 -0.000446 -0.002471
# 3 -0.003322 -0.002881 0.014195 0.003518 0.006484 0.005560
# 4 -0.000699 -0.000382 0.003518 0.033507 0.005420 0.009551
# 5 -0.000024 -0.000446 0.006484 0.005420 0.025239 0.003259
# 6 0.000000 -0.002471 0.005560 0.009551 0.003259 0.029759
#
#
# Mechanical properties :
#
#
# Convention : Reuss Voigt Hill
#
# Bulk Modulus (GPa) = 67.91910 78.28517 73.10213
# Shear Modulus (GPa) = 34.84748 40.24465 37.54606
#
# Velocity S-wave (km/s) = 3.82045 4.10566 3.96562
# Velocity P-wave (km/s) = 6.92163 7.43404 7.18240
#
# Compressibility (1/GPa) = 0.01472340
#
# Stress axis : x y z
#
# Youngs Moduli (GPa) = 103.72364 116.82186 70.44515
#
# Poissons Ratio (x) = 0.30766 0.23405
# Poissons Ratio (y) = 0.27317 0.20292
# Poissons Ratio (z) = 0.34461 0.33651
#
# Static dielectric constant tensor:
#      x y z
#    x 5.036300 -0.109290 -0.481170 
#    y -0.109290 4.527650 0.026910 
#    z -0.481170 0.026910 4.913400 
# 
# 
# High freq. dielectric constant tensor:
#      x y z
#    x 1.947030 -0.005840 -0.012670 
#    y -0.005840 1.964890 0.002390 
#    z -0.012670 0.002390 1.965990 
# 
# From -- ./inp_files/243020.got.cif
#   From: 2010.06.25/outbox.cif.g09.slc.cpg/sg2_122_cif.got.tgz:243020.got - 2010.06.27 13:26:56.
