data_PCOD8030049
_publ_section_title
;
Structure prediction by ZEFSAII (Michael W. Deem and Ramdas Pophale) SiO2 
 PCOD8030049
Probable space group: P -1
;
_chemical_formula_sum "Si O2"
_cell_formula_units_Z 14
_cell_length_a 19.401167
_cell_length_b 9.186924
_cell_length_c 8.194975
_cell_angle_alpha 147.429678
_cell_angle_beta 58.258726
_cell_angle_gamma 116.270134
_cell_volume 668.708582
_symmetry_space_group_name_H-M "P -1"
_symmetry_group_IT_number 2
_symmetry_cell_setting 'triclinic'
loop_
_space_group_symop_operation_xyz
x,y,z
-x,-y,-z
loop_
_atom_site_type_symbol
_atom_site_label
_atom_site_fract_x
_atom_site_fract_y
_atom_site_fract_z
Si Si1 0.557313 0.247065 0.693420
Si Si2 0.752312 0.908511 0.697918
Si Si3 0.312202 0.898033 0.367235
Si Si4 0.938745 0.538160 0.756865
Si Si5 0.712594 0.382333 0.426383
Si Si6 0.933580 0.982320 0.426196
Si Si7 0.770176 0.608840 0.901192
O O1 0.599355 0.199561 0.773016
O O2 0.623813 0.295982 0.516122
O O3 0.500000 0.000000 0.500000
O O4 0.500000 0.500000 0.000000
O O5 0.712960 0.621678 0.521041
O O6 0.845643 0.876668 0.496009
O O7 0.690852 0.992350 0.708649
O O8 0.752257 0.117274 0.045810
O O9 0.256886 0.633595 0.177262
O O10 0.282452 0.120226 0.747791
O O11 0.860997 0.675520 0.899975
O O12 0.000000 0.500000 0.500000
O O13 0.920725 0.262661 0.614169
O O14 0.972651 0.758806 0.048105
O O15 0.765864 0.499573 0.619107
O O16 0.000000 0.000000 0.500000
#
# Coordination Sequence:
#
# PCOD8030049 Si02
#       7
#     2   2   2   2   2   2   2
#     4  11  23  45  69  98 132 168 213 268 326 398
#     4  12  23  43  64  97 136 170 220 269 323 397
#     4  11  22  42  69  92 128 175 213 261 328 389
#     4  12  25  43  65  94 131 172 233 274 324 384
#     4  11  25  39  69  98 128 170 221 262 327 389
#     4  12  27  44  64  96 139 178 216 278 342 371
#     4  11  21  42  63  93 125 176 225 266 310 388
#
# _framework density 20.935877000000001
#
# number of rings (size 3 to 8) (size 9 to 14) (size 15 to 20)
#    0.000    0.571    2.857    6.857    4.000    0.000 
#    0.000    4.286    0.000    0.000    0.000    0.000 
#    0.000    0.000    0.000    0.000    0.000    0.000 
#
# Total GULP energy -173581.474951 kJ/mol
# GULP energy per Si atom -12398.676782 kJ/mol
# Density = 2.088823 g / cm^3
# Si number density = 20.935877 Si / 1000 Ang^3
#
#
#
# Elastic Constant Matrix: (Units=GPa)
#
#
# Indices 1 2 3 4 5 6 
#
# 1 145.5694 34.3639 54.8500 -5.9048 -0.1181 -29.5623
# 2 34.3639 149.6422 -10.1641 6.1979 -15.2307 67.7155
# 3 54.8500 -10.1641 150.0027 -3.3838 6.7736 -28.9081
# 4 -5.9048 6.1979 -3.3838 38.9346 -6.3794 9.2678
# 5 -0.1181 -15.2307 6.7736 -6.3794 34.2154 3.5099
# 6 -29.5623 67.7155 -28.9081 9.2678 3.5099 98.8886
#
#
#
# Elastic Compliance Matrix: (Units=1/GPa)
#
#
# Indices 1 2 3 4 5 6 
#
# 1 0.010644 -0.005787 -0.002939 0.000354 -0.002542 0.006343
# 2 -0.005787 0.013965 0.000534 0.000898 0.007436 -0.011485
# 3 -0.002939 0.000534 0.008072 -0.000372 -0.001564 0.001206
# 4 0.000354 0.000898 -0.000372 0.027339 0.005920 -0.003390
# 5 -0.002542 0.007436 -0.001564 0.005920 0.034772 -0.008098
# 6 0.006343 -0.011485 0.001206 -0.003390 -0.008098 0.020831
#
#
# Mechanical properties :
#
#
# Convention : Reuss Voigt Hill
#
# Bulk Modulus (GPa) = 61.36996 67.03490 64.20243
# Shear Modulus (GPa) = 36.37978 58.81870 47.59924
#
# Velocity S-wave (km/s) = 4.17307 5.30619 4.77337
# Velocity P-wave (km/s) = 7.25233 8.34443 7.81747
#
# Compressibility (1/GPa) = 0.01629462
#
# Stress axis : x y z
#
# Youngs Moduli (GPa) = 93.95348 71.61007 123.88507
#
# Poissons Ratio (x) = 0.41444 0.36409
# Poissons Ratio (y) = 0.54375 -0.06611
# Poissons Ratio (z) = 0.27612 -0.03822
#
# Static dielectric constant tensor:
#      x y z
#    x 4.217860 0.128680 -0.331260 
#    y 0.128680 4.042440 -0.065950 
#    z -0.331260 -0.065950 4.316630 
# 
# 
# High freq. dielectric constant tensor:
#      x y z
#    x 1.824320 -0.008780 0.008980 
#    y -0.008780 1.824280 0.016830 
#    z 0.008980 0.016830 1.835960 
# 
# From -- ./inp_files/218455.got.cif
#   From: 2010.06.25/outbox.cif.g09.slc.cpg/sg2_110_cif.got.tgz:218455.got - 2010.06.27 13:26:56.
