data_PCOD8030012
_publ_section_title
;
Structure prediction by ZEFSAII (Michael W. Deem and Ramdas Pophale) SiO2 
 PCOD8030012
Probable space group: P -1
;
_chemical_formula_sum "Si O2"
_cell_formula_units_Z 16
_cell_length_a 20.133237
_cell_length_b 9.377023
_cell_length_c 13.067970
_cell_angle_alpha 144.407301
_cell_angle_beta 34.322833
_cell_angle_gamma 141.695515
_cell_volume 759.995315
_symmetry_space_group_name_H-M "P -1"
_symmetry_group_IT_number 2
_symmetry_cell_setting 'triclinic'
loop_
_space_group_symop_operation_xyz
x,y,z
-x,-y,-z
loop_
_atom_site_type_symbol
_atom_site_label
_atom_site_fract_x
_atom_site_fract_y
_atom_site_fract_z
Si Si1 0.384103 0.482512 0.706529
Si Si2 0.242745 0.224331 0.126502
Si Si3 0.138418 0.047867 0.711275
Si Si4 0.620201 0.401104 0.996768
Si Si5 0.180048 0.836182 0.327066
Si Si6 0.053630 0.710691 0.965287
Si Si7 0.083928 0.538173 0.616053
Si Si8 0.361649 0.019693 0.034301
O O1 0.500000 0.500000 0.500000
O O2 0.277240 0.204692 0.664888
O O3 0.424901 0.502720 0.785132
O O4 0.333000 0.712705 0.874184
O O5 0.343586 0.371489 0.999121
O O6 0.177794 0.410626 0.371013
O O7 0.330050 0.145106 0.047588
O O8 0.142415 0.972891 0.057437
O O9 0.137015 0.986338 0.557565
O O10 0.085517 0.789273 0.695532
O O11 0.051991 0.226105 0.930962
O O12 0.745837 0.336513 0.818112
O O13 0.507514 0.150927 0.953998
O O14 0.057757 0.661296 0.320006
O O15 0.271157 0.047741 0.257115
O O16 0.123112 0.605018 0.724980
O O17 0.000000 0.500000 0.000000
#
# Coordination Sequence:
#
# PCOD8030012 Si02
#       8
#     2   2   2   2   2   2   2   2
#     4  11  23  42  68  97 129 170 228 278 323 390
#     4  12  25  45  67  98 141 174 218 271 333 402
#     4  12  22  41  66  98 134 169 222 276 328 393
#     4  11  22  44  67  95 128 174 225 270 328 391
#     4  11  21  41  70  95 126 172 224 270 326 389
#     4  12  26  42  65 101 139 172 219 273 334 397
#     4  12  25  43  69 101 133 178 218 272 336 392
#     4  11  25  43  66  95 133 176 221 273 332 389
#
# _framework density 21.052762000000001
#
# number of rings (size 3 to 8) (size 9 to 14) (size 15 to 20)
#    0.000    0.500    2.500    8.625    1.750    1.000 
#    2.250    0.625    0.000    0.000    0.000    0.000 
#    0.000    0.000    0.000    0.000    0.000    0.000 
#
# Total GULP energy -198453.826506 kJ/mol
# GULP energy per Si atom -12403.364157 kJ/mol
# Density = 2.100485 g / cm^3
# Si number density = 21.052762 Si / 1000 Ang^3
#
#
#
# Elastic Constant Matrix: (Units=GPa)
#
#
# Indices 1 2 3 4 5 6 
#
# 1 104.5759 30.7316 41.8142 -1.2004 12.2319 -19.5712
# 2 30.7316 108.4825 35.6059 -2.8255 8.4608 -11.5661
# 3 41.8142 35.6059 107.6375 -6.0742 24.7047 -9.2572
# 4 -1.2004 -2.8255 -6.0742 30.4243 3.2049 4.9385
# 5 12.2319 8.4608 24.7047 3.2049 30.9352 -1.9127
# 6 -19.5712 -11.5661 -9.2572 4.9385 -1.9127 45.1267
#
#
#
# Elastic Compliance Matrix: (Units=1/GPa)
#
#
# Indices 1 2 3 4 5 6 
#
# 1 0.012484 -0.001812 -0.003678 -0.000981 -0.001138 0.004254
# 2 -0.001812 0.010782 -0.002740 0.000153 0.000026 0.001400
# 3 -0.003678 -0.002740 0.013931 0.003393 -0.009285 -0.000205
# 4 -0.000981 0.000153 0.003393 0.034785 -0.006200 -0.003760
# 5 -0.001138 0.000026 -0.009285 -0.006200 0.040827 0.000017
# 6 0.004254 0.001400 -0.000205 -0.003760 0.000017 0.024734
#
#
# Mechanical properties :
#
#
# Convention : Reuss Voigt Hill
#
# Bulk Modulus (GPa) = 48.22565 59.66659 53.94612
# Shear Modulus (GPa) = 31.07241 35.46686 33.26963
#
# Velocity S-wave (km/s) = 3.84595 4.10892 3.97961
# Velocity P-wave (km/s) = 6.53288 7.13540 6.84078
#
# Compressibility (1/GPa) = 0.02073585
#
# Stress axis : x y z
#
# Youngs Moduli (GPa) = 80.10352 92.74855 71.78434
#
# Poissons Ratio (x) = 0.16810 0.26404
# Poissons Ratio (y) = 0.14518 0.19665
# Poissons Ratio (z) = 0.29464 0.25409
#
# Static dielectric constant tensor:
#      x y z
#    x 3.840690 -0.038400 0.268680 
#    y -0.038400 3.925180 -0.070160 
#    z 0.268680 -0.070160 4.102430 
# 
# 
# High freq. dielectric constant tensor:
#      x y z
#    x 1.826650 -0.000570 0.016900 
#    y -0.000570 1.838410 -0.006110 
#    z 0.016900 -0.006110 1.829810 
# 
# From -- ./inp_files/272479.got.cif
#   From: 2010.06.25/outbox.cif.g09.slc.cpg/sg2_137_cif.got.tgz:272479.got - 2010.06.27 13:26:56.
