data_PCOD8030712
_publ_section_title
;
Structure prediction by ZEFSAII (Michael W. Deem and Ramdas Pophale) SiO2 
 PCOD8030712
Probable space group: P -1
;
_chemical_formula_sum "Si O2"
_cell_formula_units_Z 14
_cell_length_a 8.628099
_cell_length_b 17.985829
_cell_length_c 9.410731
_cell_angle_alpha 57.625236
_cell_angle_beta 31.334159
_cell_angle_gamma 69.300361
_cell_volume 623.197018
_symmetry_space_group_name_H-M "P -1"
_symmetry_group_IT_number 2
_symmetry_cell_setting 'triclinic'
loop_
_space_group_symop_operation_xyz
x,y,z
-x,-y,-z
loop_
_atom_site_type_symbol
_atom_site_label
_atom_site_fract_x
_atom_site_fract_y
_atom_site_fract_z
Si Si1 0.272442 0.836917 0.649047
Si Si2 0.589606 0.453331 0.110116
Si Si3 0.010693 0.097863 0.950848
Si Si4 0.078208 0.242188 0.261930
Si Si5 0.264275 0.769637 0.164000
Si Si6 0.258376 0.445900 0.852025
Si Si7 0.021567 0.661888 0.205717
O O1 0.637095 0.848187 0.353603
O O2 0.143243 0.829975 0.595699
O O3 0.093140 0.750258 0.964957
O O4 0.172667 0.915508 0.740387
O O5 0.615474 0.538406 0.105060
O O6 0.339955 0.365671 0.451153
O O7 0.500000 0.500000 0.000000
O O8 0.893620 0.418825 0.869701
O O9 0.846191 0.148922 0.910673
O O10 0.000000 0.000000 0.000000
O O11 0.906117 0.255369 0.527744
O O12 0.374031 0.204407 0.109505
O O13 0.162161 0.337954 0.012081
O O14 0.196459 0.682694 0.199859
O O15 0.500000 0.500000 0.500000
O O16 0.000000 0.500000 0.000000
#
# Coordination Sequence:
#
# PCOD8030712 Si02
#       7
#     2   2   2   2   2   2   2
#     4  11  23  42  68  93 125 169 208 254 316 391
#     4  12  23  37  57  86 120 163 216 270 307 348
#     4  11  24  46  71  98 126 162 208 257 320 398
#     4  12  24  42  63  96 131 167 216 263 315 379
#     4  11  23  41  66  93 127 168 208 265 320 374
#     4  12  25  40  59  87 127 173 214 266 318 360
#     4  11  22  40  60  85 120 168 217 253 305 378
#
# _framework density 22.464804000000001
#
# number of rings (size 3 to 8) (size 9 to 14) (size 15 to 20)
#    0.000    0.571    0.000   11.143    0.000    0.000 
#    0.000    4.286    0.000    0.000    0.000    0.000 
#    0.000    0.000    0.000    0.000    0.000    0.000 
#
# Total GULP energy -173498.272459 kJ/mol
# GULP energy per Si atom -12392.733747 kJ/mol
# Density = 2.241367 g / cm^3
# Si number density = 22.464804 Si / 1000 Ang^3
#
#
#
# Elastic Constant Matrix: (Units=GPa)
#
#
# Indices 1 2 3 4 5 6 
#
# 1 126.2837 30.4875 34.2058 11.8782 -10.2040 7.7082
# 2 30.4875 104.9178 14.9846 14.9296 -1.5304 4.8286
# 3 34.2058 14.9846 98.9815 25.9318 -3.0610 -3.4522
# 4 11.8782 14.9296 25.9318 38.7006 3.4699 1.8001
# 5 -10.2040 -1.5304 -3.0610 3.4699 41.0321 15.7656
# 6 7.7082 4.8286 -3.4522 1.8001 15.7656 35.7386
#
#
#
# Elastic Compliance Matrix: (Units=1/GPa)
#
#
# Indices 1 2 3 4 5 6 
#
# 1 0.009791 -0.002151 -0.002992 -0.000320 0.003568 -0.003668
# 2 -0.002151 0.010706 0.000016 -0.003482 0.000565 -0.001055
# 3 -0.002992 0.000016 0.013351 -0.008146 0.000050 0.002321
# 4 -0.000320 -0.003482 -0.008146 0.033068 -0.003466 -0.000384
# 5 0.003568 0.000565 0.000050 -0.003466 0.031104 -0.014388
# 6 -0.003668 -0.001055 0.002321 -0.000384 -0.014388 0.035505
#
#
# Mechanical properties :
#
#
# Convention : Reuss Voigt Hill
#
# Bulk Modulus (GPa) = 42.38474 54.39319 48.38896
# Shear Modulus (GPa) = 32.97182 39.79461 36.38322
#
# Velocity S-wave (km/s) = 3.83523 4.21339 4.02875
# Velocity P-wave (km/s) = 6.20646 6.92354 6.57478
#
# Compressibility (1/GPa) = 0.02359340
#
# Stress axis : x y z
#
# Youngs Moduli (GPa) = 102.13892 93.40133 74.90055
#
# Poissons Ratio (x) = 0.20094 0.22407
# Poissons Ratio (y) = 0.21974 -0.00117
# Poissons Ratio (z) = 0.30555 -0.00145
#
# Static dielectric constant tensor:
#      x y z
#    x 4.372160 0.315200 0.039350 
#    y 0.315200 3.692120 0.255900 
#    z 0.039350 0.255900 4.070480 
# 
# 
# High freq. dielectric constant tensor:
#      x y z
#    x 1.901880 0.014230 0.002640 
#    y 0.014230 1.878930 0.026780 
#    z 0.002640 0.026780 1.892080 
# 
# From -- ./inp_files/216875.got.cif
#   From: 2010.06.25/outbox.cif.g09.slc.cpg/sg2_109_cif.got.tgz:216875.got - 2010.06.27 13:26:56.
