data_PCOD8030403
_publ_section_title
;
Structure prediction by ZEFSAII (Michael W. Deem and Ramdas Pophale) SiO2 
 PCOD8030403
Probable space group: P -1
;
_chemical_formula_sum "Si O2"
_cell_formula_units_Z 16
_cell_length_a 13.183184
_cell_length_b 11.819039
_cell_length_c 8.956234
_cell_angle_alpha 115.936918
_cell_angle_beta 48.511058
_cell_angle_gamma 83.889305
_cell_volume 760.260809
_symmetry_space_group_name_H-M "P -1"
_symmetry_group_IT_number 2
_symmetry_cell_setting 'triclinic'
loop_
_space_group_symop_operation_xyz
x,y,z
-x,-y,-z
loop_
_atom_site_type_symbol
_atom_site_label
_atom_site_fract_x
_atom_site_fract_y
_atom_site_fract_z
Si Si1 0.606571 0.154220 0.613047
Si Si2 0.417989 0.224299 0.309020
Si Si3 0.293502 0.487576 0.038246
Si Si4 0.522667 0.529616 0.662652
Si Si5 0.378685 0.113918 0.998260
Si Si6 0.839180 0.845214 0.030682
Si Si7 0.204838 0.703324 0.516788
Si Si8 0.857019 0.605691 0.084487
O O1 0.435417 0.303072 0.799798
O O2 0.549662 0.093506 0.768149
O O3 0.727232 0.204483 0.572397
O O4 0.700264 0.021220 0.319071
O O5 0.482975 0.318386 0.232671
O O6 0.314987 0.302562 0.604412
O O7 0.576968 0.053282 0.100062
O O8 0.311491 0.216967 0.274609
O O9 0.363753 0.571699 0.936188
O O10 0.143183 0.506214 0.102510
O O11 0.232197 0.566990 0.305460
O O12 0.500000 0.500000 0.500000
O O13 0.694840 0.378236 0.474833
O O14 0.234554 0.193235 0.059352
O O15 0.885789 0.724232 0.047720
O O16 0.007920 0.826600 0.810815
O O17 0.000000 0.500000 0.000000
#
# Coordination Sequence:
#
# PCOD8030403 Si02
#       8
#     2   2   2   2   2   2   2   2
#     4  11  21  45  69  94 126 173 224 260 320 395
#     4  11  23  42  62  99 126 169 218 265 319 395
#     4  11  23  43  69  94 127 177 222 265 318 399
#     4  11  22  40  66  93 129 173 217 262 322 389
#     4  11  23  40  72  92 128 170 219 267 320 391
#     4  12  25  42  68  99 131 173 216 275 330 384
#     4  11  26  42  66 100 132 171 221 272 323 385
#     4  12  25  40  64  94 137 167 213 276 336 384
#
# _framework density 21.045407999999998
#
# number of rings (size 3 to 8) (size 9 to 14) (size 15 to 20)
#    0.000    0.750    3.750    5.250    3.500    0.500 
#    0.000    0.000    0.000    3.000    0.000    0.000 
#    0.000    0.000    0.000    0.000    0.000    0.000 
#
# Total GULP energy -198416.223690 kJ/mol
# GULP energy per Si atom -12401.013981 kJ/mol
# Density = 2.099751 g / cm^3
# Si number density = 21.045408 Si / 1000 Ang^3
#
#
#
# Elastic Constant Matrix: (Units=GPa)
#
#
# Indices 1 2 3 4 5 6 
#
# 1 116.3954 12.8370 25.7800 9.9656 9.0040 -5.8538
# 2 12.8370 96.7571 0.4144 5.1561 -9.1243 5.3583
# 3 25.7800 0.4144 55.0451 -0.6169 4.4787 -2.6320
# 4 9.9656 5.1561 -0.6169 27.9174 6.9829 0.2823
# 5 9.0040 -9.1243 4.4787 6.9829 36.3107 -6.7088
# 6 -5.8538 5.3583 -2.6320 0.2823 -6.7088 33.4374
#
#
#
# Elastic Compliance Matrix: (Units=1/GPa)
#
#
# Indices 1 2 3 4 5 6 
#
# 1 0.010220 -0.001382 -0.004627 -0.003146 -0.001450 0.001382
# 2 -0.001382 0.011026 0.000207 -0.002350 0.003298 -0.001311
# 3 -0.004627 0.000207 0.020521 0.002498 -0.001738 0.000402
# 4 -0.003146 -0.002350 0.002498 0.039469 -0.008065 -0.001929
# 5 -0.001450 0.003298 -0.001738 -0.008065 0.031504 0.005470
# 6 0.001382 -0.001311 0.000402 -0.001929 0.005470 0.031504
#
#
# Mechanical properties :
#
#
# Convention : Reuss Voigt Hill
#
# Bulk Modulus (GPa) = 33.15313 38.47339 35.81326
# Shear Modulus (GPa) = 30.13803 34.81082 32.47443
#
# Velocity S-wave (km/s) = 3.78835 4.07145 3.93245
# Velocity P-wave (km/s) = 5.90955 6.35792 6.13783
#
# Compressibility (1/GPa) = 0.03016307
#
# Stress axis : x y z
#
# Youngs Moduli (GPa) = 97.85017 90.69141 48.73046
#
# Poissons Ratio (x) = 0.12531 0.22548
# Poissons Ratio (y) = 0.13520 -0.01007
# Poissons Ratio (z) = 0.45276 -0.01875
#
# Static dielectric constant tensor:
#      x y z
#    x 3.868120 0.274220 0.259070 
#    y 0.274220 4.407270 -0.022590 
#    z 0.259070 -0.022590 3.916000 
# 
# 
# High freq. dielectric constant tensor:
#      x y z
#    x 1.825690 0.008220 0.018020 
#    y 0.008220 1.837320 -0.006450 
#    z 0.018020 -0.006450 1.811050 
# 
# From -- ./inp_files/205077.got.cif
#   From: 2010.06.25/outbox.cif.g09.slc.cpg/sg2_103_cif.got.tgz:205077.got - 2010.06.27 13:26:56.
