data_PCOD8030675
_publ_section_title
;
Structure prediction by ZEFSAII (Michael W. Deem and Ramdas Pophale) SiO2 
 PCOD8030675
Probable space group: P -1
;
_chemical_formula_sum "Si O2"
_cell_formula_units_Z 16
_cell_length_a 10.276087
_cell_length_b 11.284271
_cell_length_c 11.966256
_cell_angle_alpha 121.893416
_cell_angle_beta 74.548531
_cell_angle_gamma 61.243127
_cell_volume 738.144049
_symmetry_space_group_name_H-M "P -1"
_symmetry_group_IT_number 2
_symmetry_cell_setting 'triclinic'
loop_
_space_group_symop_operation_xyz
x,y,z
-x,-y,-z
loop_
_atom_site_type_symbol
_atom_site_label
_atom_site_fract_x
_atom_site_fract_y
_atom_site_fract_z
Si Si1 0.879020 0.745241 0.529232
Si Si2 0.545482 0.805965 0.134301
Si Si3 0.545724 0.365777 0.097034
Si Si4 0.480231 0.371492 0.375437
Si Si5 0.198268 0.124822 0.936006
Si Si6 0.027251 0.629817 0.677274
Si Si7 0.890239 0.229214 0.650822
Si Si8 0.153650 0.634462 0.039425
O O1 0.937413 0.550214 0.366312
O O2 0.871429 0.742717 0.664386
O O3 0.055948 0.713646 0.436102
O O4 0.655013 0.970543 0.647399
O O5 0.679060 0.825953 0.060155
O O6 0.458961 0.776738 0.039177
O O7 0.672672 0.621391 0.107782
O O8 0.519864 0.360452 0.230698
O O9 0.355436 0.607051 0.212588
O O10 0.751675 0.293934 0.991681
O O11 0.500000 0.500000 0.500000
O O12 0.248066 0.507782 0.522447
O O13 0.647874 0.123837 0.254241
O O14 0.020577 0.282009 0.962654
O O15 0.082061 0.188011 0.112940
O O16 0.960210 0.247383 0.758400
O O17 0.000000 0.000000 0.500000
#
# Coordination Sequence:
#
# PCOD8030675 Si02
#       8
#     2   2   2   2   2   2   2   2
#     4  11  22  41  71 102 133 174 232 289 343 397
#     4  11  23  44  72 103 137 182 233 285 346 414
#     4  11  23  43  69  98 134 180 237 285 338 408
#     4  12  27  45  69 101 140 183 233 287 348 420
#     4  12  27  46  70 102 146 186 221 290 358 407
#     4  11  24  44  69 101 136 175 230 287 343 410
#     4  11  22  39  67  99 134 176 230 286 329 403
#     4  11  25  44  66 101 142 186 228 277 353 418
#
# _framework density 21.675986999999999
#
# number of rings (size 3 to 8) (size 9 to 14) (size 15 to 20)
#    0.000    0.750    2.500    6.375    3.500    4.000 
#    2.250    1.250    0.000    0.000    0.000    0.000 
#    0.000    0.000    0.000    0.000    0.000    0.000 
#
# Total GULP energy -198416.964008 kJ/mol
# GULP energy per Si atom -12401.060250 kJ/mol
# Density = 2.162665 g / cm^3
# Si number density = 21.675987 Si / 1000 Ang^3
#
#
#
# Elastic Constant Matrix: (Units=GPa)
#
#
# Indices 1 2 3 4 5 6 
#
# 1 98.2056 37.9339 33.7583 10.2624 3.8862 11.2206
# 2 37.9339 64.4336 33.8011 5.0773 5.6994 9.7584
# 3 33.7583 33.8011 93.4884 18.0550 -1.3536 1.7662
# 4 10.2624 5.0773 18.0550 40.4408 3.0096 3.2631
# 5 3.8862 5.6994 -1.3536 3.0096 32.9159 0.3792
# 6 11.2206 9.7584 1.7662 3.2631 0.3792 37.8774
#
#
#
# Elastic Compliance Matrix: (Units=1/GPa)
#
#
# Indices 1 2 3 4 5 6 
#
# 1 0.013916 -0.006455 -0.002377 -0.001446 -0.000465 -0.002219
# 2 -0.006455 0.023537 -0.006587 0.002225 -0.003742 -0.003999
# 3 -0.002377 -0.006587 0.015021 -0.005639 0.002530 0.002161
# 4 -0.001446 0.002225 -0.005639 0.027733 -0.002956 -0.002241
# 5 -0.000465 -0.003742 0.002530 -0.002956 0.031447 0.000924
# 6 -0.002219 -0.003999 0.002161 -0.002241 0.000924 0.028172
#
#
# Mechanical properties :
#
#
# Convention : Reuss Voigt Hill
#
# Bulk Modulus (GPa) = 46.21858 51.90157 49.06008
# Shear Modulus (GPa) = 28.10941 32.28911 30.19926
#
# Velocity S-wave (km/s) = 3.60502 3.86375 3.73663
# Velocity P-wave (km/s) = 6.22069 6.62579 6.42643
#
# Compressibility (1/GPa) = 0.02163632
#
# Stress axis : x y z
#
# Youngs Moduli (GPa) = 71.85897 42.48663 66.57224
#
# Poissons Ratio (x) = 0.27424 0.15823
# Poissons Ratio (y) = 0.46383 0.43854
# Poissons Ratio (z) = 0.17080 0.27988
#
# Static dielectric constant tensor:
#      x y z
#    x 2.976360 -0.129900 0.010820 
#    y -0.129900 3.900450 0.163430 
#    z 0.010820 0.163430 4.075590 
# 
# 
# High freq. dielectric constant tensor:
#      x y z
#    x 1.853400 0.007180 -0.007250 
#    y 0.007180 1.856490 0.009970 
#    z -0.007250 0.009970 1.858650 
# 
# From -- ./inp_files/393097.got.cif
#   From: 2010.06.25/outbox.cif.g09.slc.cpg/sg2_197_cif.got.tgz:393097.got - 2010.06.27 13:26:56.
