data_PCOD8030886
_publ_section_title
;
Structure prediction by ZEFSAII (Michael W. Deem and Ramdas Pophale) SiO2 
 PCOD8030886
Probable space group: P -1
;
_chemical_formula_sum "Si O2"
_cell_formula_units_Z 14
_cell_length_a 21.904997
_cell_length_b 8.255913
_cell_length_c 26.867284
_cell_angle_alpha 40.857037
_cell_angle_beta 11.179811
_cell_angle_gamma 41.970745
_cell_volume 616.236694
_symmetry_space_group_name_H-M "P -1"
_symmetry_group_IT_number 2
_symmetry_cell_setting 'triclinic'
loop_
_space_group_symop_operation_xyz
x,y,z
-x,-y,-z
loop_
_atom_site_type_symbol
_atom_site_label
_atom_site_fract_x
_atom_site_fract_y
_atom_site_fract_z
Si Si1 0.083908 0.790942 0.071917
Si Si2 0.234642 0.081495 0.515942
Si Si3 0.103496 0.139697 0.334188
Si Si4 0.741031 0.601104 0.483488
Si Si5 0.298611 0.508622 0.609663
Si Si6 0.760070 0.319031 0.208361
Si Si7 0.819797 0.258097 0.720289
O O1 0.975840 0.637131 0.241664
O O2 0.036080 0.631679 0.094940
O O3 0.450809 0.809938 0.783801
O O4 0.924587 0.057678 0.131804
O O5 0.205847 0.165841 0.576552
O O6 0.948596 0.184790 0.688468
O O7 0.252385 0.786908 0.565036
O O8 0.827613 0.344129 0.500728
O O9 0.098750 0.950960 0.336289
O O10 0.443856 0.277397 0.028193
O O11 0.000000 0.000000 0.500000
O O12 0.378831 0.591879 0.754711
O O13 0.500000 0.500000 0.500000
O O14 0.469546 0.318649 0.478550
O O15 0.000000 0.500000 0.000000
O O16 0.000000 0.500000 0.500000
#
# Coordination Sequence:
#
# PCOD8030886 Si02
#       7
#     2   2   2   2   2   2   2
#     4  11  24  43  64  96 139 175 227 279 334 413
#     4  12  25  42  68  99 132 182 224 277 344 404
#     4  11  26  48  72 104 140 179 234 293 346 415
#     4  11  25  44  66  99 136 177 226 280 340 408
#     4  11  23  40  63  95 132 177 226 275 334 403
#     4  11  22  41  65  95 134 177 223 277 339 403
#     4  11  25  47  73 102 138 179 234 290 349 412
#
# _framework density 22.718541999999999
#
# number of rings (size 3 to 8) (size 9 to 14) (size 15 to 20)
#    0.000    0.857    1.429    6.857    2.000    8.000 
#    0.000    0.000    0.000    0.000    0.000    0.000 
#    0.000    0.000    0.000    0.000    0.000    0.000 
#
# Total GULP energy -173446.968511 kJ/mol
# GULP energy per Si atom -12389.069179 kJ/mol
# Density = 2.266683 g / cm^3
# Si number density = 22.718542 Si / 1000 Ang^3
#
#
#
# Elastic Constant Matrix: (Units=GPa)
#
#
# Indices 1 2 3 4 5 6 
#
# 1 130.7364 17.6048 44.5723 -7.7354 -24.4985 1.4858
# 2 17.6048 -54.9703 68.8531 -50.0673 -5.9836 -4.9839
# 3 44.5723 68.8531 81.8247 -11.3901 -18.3535 -2.3897
# 4 -7.7354 -50.0673 -11.3901 33.1898 6.7717 -5.6656
# 5 -24.4985 -5.9836 -18.3535 6.7717 46.2637 -0.4956
# 6 1.4858 -4.9839 -2.3897 -5.6656 -0.4956 48.6798
#
#
#
# Elastic Compliance Matrix: (Units=1/GPa)
#
#
# Indices 1 2 3 4 5 6 
#
# 1 0.009721 -0.000914 -0.003908 -0.001322 0.003665 -0.000699
# 2 -0.000914 -0.005713 0.004567 -0.007825 0.001721 -0.001226
# 3 -0.003908 0.004567 0.012451 0.010258 0.001985 0.002412
# 4 -0.001322 -0.007825 0.010258 0.022105 -0.000853 0.002307
# 5 0.003665 0.001721 0.001985 -0.000853 0.024694 0.000314
# 6 -0.000699 -0.001226 0.002412 0.002307 0.000314 0.020828
#
#
# Mechanical properties :
#
#
# Convention : Reuss Voigt Hill
#
# Bulk Modulus (GPa) = 62.70859 46.62793 54.66826
# Shear Modulus (GPa) = 55.60839 27.39737 41.50288
#
# Velocity S-wave (km/s) = 4.95280 3.47644 4.27878
# Velocity P-wave (km/s) = 7.76977 6.05664 6.96607
#
# Compressibility (1/GPa) = 0.01594678
#
# Stress axis : x y z
#
# Youngs Moduli (GPa) = 102.86888 -175.02492 80.31347
#
# Poissons Ratio (x) = -0.15999 0.31391
# Poissons Ratio (y) = 0.09403 -0.36676
# Poissons Ratio (z) = 0.40206 0.79927
#
# Static dielectric constant tensor:
#      x y z
#    x 4.449100 0.144130 -0.493210 
#    y 0.144130 4.301060 0.036890 
#    z -0.493210 0.036890 4.711790 
# 
# 
# High freq. dielectric constant tensor:
#      x y z
#    x 1.912080 0.012160 -0.016210 
#    y 0.012160 1.903620 -0.002710 
#    z -0.016210 -0.002710 1.909520 
# 
# From -- ./inp_files/624123.got.cif
#   From: 2010.06.25/outbox.cif.g09.slc.cpg/sg2_313_cif.got.tgz:624123.got - 2010.06.27 13:26:56.
