data_PCOD8030954
_publ_section_title
;
Structure prediction by ZEFSAII (Michael W. Deem and Ramdas Pophale) SiO2 
 PCOD8030954
Probable space group: P -1
;
_chemical_formula_sum "Si O2"
_cell_formula_units_Z 16
_cell_length_a 19.781594
_cell_length_b 25.824055
_cell_length_c 9.065964
_cell_angle_alpha 151.752488
_cell_angle_beta 147.085674
_cell_angle_gamma 19.270358
_cell_volume 722.448973
_symmetry_space_group_name_H-M "P -1"
_symmetry_group_IT_number 2
_symmetry_cell_setting 'triclinic'
loop_
_space_group_symop_operation_xyz
x,y,z
-x,-y,-z
loop_
_atom_site_type_symbol
_atom_site_label
_atom_site_fract_x
_atom_site_fract_y
_atom_site_fract_z
Si Si1 0.012847 0.916502 0.670839
Si Si2 0.269834 0.528801 0.269336
Si Si3 0.003707 0.372400 0.740753
Si Si4 0.396363 0.813022 0.577359
Si Si5 0.300933 0.749017 0.515094
Si Si6 0.826204 0.541175 0.343275
Si Si7 0.801213 0.402890 0.191255
Si Si8 0.612672 0.848842 0.943935
O O1 0.110957 0.731633 0.432293
O O2 0.144351 0.881885 0.694760
O O3 0.782595 0.066084 0.567401
O O4 0.000000 0.000000 0.000000
O O5 0.481885 0.435384 0.474945
O O6 0.181402 0.517391 0.209988
O O7 0.310891 0.410710 0.919777
O O8 0.972542 0.307406 0.389628
O O9 0.217285 0.198768 0.779199
O O10 0.000000 0.500000 0.000000
O O11 0.319948 0.840884 0.673688
O O12 0.579475 0.603206 0.339223
O O13 0.470184 0.888531 0.903497
O O14 0.222639 0.708630 0.161447
O O15 0.901845 0.382163 0.173874
O O16 0.698456 0.690862 0.607973
O O17 0.000000 0.500000 0.500000
O O18 0.500000 0.000000 0.000000
#
# Coordination Sequence:
#
# PCOD8030954 Si02
#       8
#     2   2   2   2   2   2   2   2
#     4  12  28  43  66 100 139 179 227 282 349 402
#     4  12  24  44  72  99 133 183 234 280 334 415
#     4  12  21  43  71 102 132 177 230 275 337 407
#     4  11  24  44  66  99 141 175 220 287 345 395
#     4  12  25  46  68  99 138 180 235 277 343 416
#     4  11  22  41  69 100 135 179 234 275 336 404
#     4  11  23  41  73  98 133 181 229 280 337 410
#     4  11  24  43  71 104 140 176 225 287 341 398
#
# _framework density 22.146892000000001
#
# number of rings (size 3 to 8) (size 9 to 14) (size 15 to 20)
#    0.000    0.500    6.250    2.625    5.250    0.000 
#    0.000    0.000    0.000    3.000    0.000    0.000 
#    0.000    0.000    0.000    0.000    0.000    0.000 
#
# Total GULP energy -198327.887891 kJ/mol
# GULP energy per Si atom -12395.492993 kJ/mol
# Density = 2.209648 g / cm^3
# Si number density = 22.146892 Si / 1000 Ang^3
#
#
#
# Elastic Constant Matrix: (Units=GPa)
#
#
# Indices 1 2 3 4 5 6 
#
# 1 151.0437 13.5406 49.3418 -5.2686 2.0227 -4.2711
# 2 13.5406 93.5819 47.1982 -30.9903 -1.3169 5.2224
# 3 49.3418 47.1982 133.6817 -41.9765 -12.4955 -0.8895
# 4 -5.2686 -30.9903 -41.9765 34.8315 8.1627 -1.9107
# 5 2.0227 -1.3169 -12.4955 8.1627 36.4661 -3.9357
# 6 -4.2711 5.2224 -0.8895 -1.9107 -3.9357 32.5076
#
#
#
# Elastic Compliance Matrix: (Units=1/GPa)
#
#
# Indices 1 2 3 4 5 6 
#
# 1 0.007872 -0.000407 -0.004029 -0.003776 -0.000916 0.000657
# 2 -0.000407 0.015880 -0.001858 0.012421 -0.003069 -0.002297
# 3 -0.004029 -0.001858 0.014450 0.014766 0.001939 0.001267
# 4 -0.003776 0.012421 0.014766 0.058740 -0.007380 0.000471
# 5 -0.000916 -0.003069 0.001939 -0.007380 0.030071 0.003633
# 6 0.000657 -0.002297 0.001267 0.000471 0.003633 0.031720
#
#
# Mechanical properties :
#
#
# Convention : Reuss Voigt Hill
#
# Bulk Modulus (GPa) = 39.04134 66.49653 52.76894
# Shear Modulus (GPa) = 27.79929 38.64282 33.22106
#
# Velocity S-wave (km/s) = 3.54676 4.18166 3.87723
# Velocity P-wave (km/s) = 5.86850 7.30790 6.62740
#
# Compressibility (1/GPa) = 0.02561388
#
# Stress axis : x y z
#
# Youngs Moduli (GPa) = 127.02703 62.97094 69.20391
#
# Poissons Ratio (x) = 0.02564 0.27882
# Poissons Ratio (y) = 0.05172 0.12861
# Poissons Ratio (z) = 0.51178 0.11703
#
# Static dielectric constant tensor:
#      x y z
#    x 9.108160 -0.026450 -0.522740 
#    y -0.026450 3.927420 -0.402090 
#    z -0.522740 -0.402090 3.989480 
# 
# 
# High freq. dielectric constant tensor:
#      x y z
#    x 1.902660 0.007750 0.004040 
#    y 0.007750 1.856590 -0.025840 
#    z 0.004040 -0.025840 1.867540 
# 
# From -- ./inp_files/350216.got.cif
#   From: 2010.06.25/outbox.cif.g09.slc.cpg/sg2_176_cif.got.tgz:350216.got - 2010.06.27 13:26:56.
