data_PCOD8030286
_publ_section_title
;
Structure prediction by ZEFSAII (Michael W. Deem and Ramdas Pophale) SiO2 
 PCOD8030286
Probable space group: P -1
;
_chemical_formula_sum "Si O2"
_cell_formula_units_Z 16
_cell_length_a 13.196570
_cell_length_b 15.860266
_cell_length_c 8.760872
_cell_angle_alpha 95.132608
_cell_angle_beta 86.079052
_cell_angle_gamma 26.573378
_cell_volume 770.344393
_symmetry_space_group_name_H-M "P -1"
_symmetry_group_IT_number 2
_symmetry_cell_setting 'triclinic'
loop_
_space_group_symop_operation_xyz
x,y,z
-x,-y,-z
loop_
_atom_site_type_symbol
_atom_site_label
_atom_site_fract_x
_atom_site_fract_y
_atom_site_fract_z
Si Si1 0.528166 0.707851 0.870578
Si Si2 0.291159 0.219894 0.519970
Si Si3 0.089359 0.438730 0.146955
Si Si4 0.447285 0.286674 0.475474
Si Si5 0.186407 0.914041 0.373623
Si Si6 0.584662 0.520944 0.074252
Si Si7 0.051759 0.306012 0.294244
Si Si8 0.933400 0.882095 0.853174
O O1 0.684000 0.672707 0.879414
O O2 0.531717 0.681560 0.685628
O O3 0.632403 0.553308 0.939700
O O4 0.255284 0.935334 0.980372
O O5 0.397741 0.224818 0.434368
O O6 0.112015 0.301896 0.448586
O O7 0.141428 0.355831 0.704654
O O8 0.500000 0.000000 0.500000
O O9 0.156930 0.291772 0.158341
O O10 0.000000 0.500000 0.000000
O O11 0.687274 0.117166 0.524290
O O12 0.237441 0.485392 0.634714
O O13 0.382188 0.705884 0.241059
O O14 0.034985 0.078599 0.286910
O O15 0.000000 0.000000 0.500000
O O16 0.824523 0.319283 0.111890
O O17 0.500000 0.500000 0.000000
O O18 0.168091 0.128184 0.212475
#
# Coordination Sequence:
#
# PCOD8030286 Si02
#       8
#     2   2   2   2   2   2   2   2
#     4  11  25  44  68  98 136 177 219 275 333 395
#     4  11  23  39  64  97 137 180 221 267 326 394
#     4  11  23  39  63  94 136 174 217 266 321 393
#     4  11  22  45  65  98 137 175 223 278 329 391
#     4  11  27  46  73  98 129 174 226 283 333 392
#     4  11  27  48  68  97 133 174 221 282 339 393
#     4  11  21  44  64  95 138 178 219 266 327 389
#     4  11  26  45  69  98 137 175 217 275 337 396
#
# _framework density 20.769929999999999
#
# number of rings (size 3 to 8) (size 9 to 14) (size 15 to 20)
#    0.000    1.000    3.750    2.250   10.500    5.000 
#    0.000    0.000    0.000    0.000    0.000    0.000 
#    0.000    0.000    0.000    0.000    0.000    0.000 
#
# Total GULP energy -198363.602585 kJ/mol
# GULP energy per Si atom -12397.725162 kJ/mol
# Density = 2.072266 g / cm^3
# Si number density = 20.769930 Si / 1000 Ang^3
#
#
#
# Elastic Constant Matrix: (Units=GPa)
#
#
# Indices 1 2 3 4 5 6 
#
# 1 116.6925 46.7181 49.0988 -6.5141 -5.5397 2.1197
# 2 46.7181 131.5816 48.2777 -22.0505 -13.6043 6.3047
# 3 49.0988 48.2777 108.0718 -29.8821 -14.2876 -1.2986
# 4 -6.5141 -22.0505 -29.8821 27.4625 -0.7620 0.3702
# 5 -5.5397 -13.6043 -14.2876 -0.7620 41.1680 -5.0569
# 6 2.1197 6.3047 -1.2986 0.3702 -5.0569 33.9619
#
#
#
# Elastic Compliance Matrix: (Units=1/GPa)
#
#
# Indices 1 2 3 4 5 6 
#
# 1 0.011959 -0.003271 -0.005949 -0.006303 -0.001721 -0.000554
# 2 -0.003271 0.010620 -0.001085 0.006663 0.002633 -0.001489
# 3 -0.005949 -0.001085 0.018047 0.017486 0.005663 0.001916
# 4 -0.006303 0.006663 0.017486 0.059527 0.008580 0.000454
# 5 -0.001721 0.002633 0.005663 0.008580 0.027525 0.003840
# 6 -0.000554 -0.001489 0.001916 0.000454 0.003840 0.030396
#
#
# Mechanical properties :
#
#
# Convention : Reuss Voigt Hill
#
# Bulk Modulus (GPa) = 49.96182 71.61500 60.78841
# Shear Modulus (GPa) = 26.97526 34.66857 30.82192
#
# Velocity S-wave (km/s) = 3.60775 4.08998 3.85641
# Velocity P-wave (km/s) = 6.43907 7.54049 7.01144
#
# Compressibility (1/GPa) = 0.02001528
#
# Stress axis : x y z
#
# Youngs Moduli (GPa) = 83.62249 94.16560 55.41009
#
# Poissons Ratio (x) = 0.30801 0.32962
# Poissons Ratio (y) = 0.27352 0.06014
# Poissons Ratio (z) = 0.49745 0.10221
#
# Static dielectric constant tensor:
#      x y z
#    x 5.661680 -3.817160 0.648480 
#    y -3.817160 12.449760 -1.620830 
#    z 0.648480 -1.620830 4.161710 
# 
# 
# High freq. dielectric constant tensor:
#      x y z
#    x 1.819350 -0.001560 0.003340 
#    y -0.001560 1.815460 -0.010290 
#    z 0.003340 -0.010290 1.824030 
# 
# From -- ./inp_files/215328.got.cif
#   From: 2010.06.25/outbox.cif.g09.slc.cpg/sg2_108_cif.got.tgz:215328.got - 2010.06.27 13:26:56.
