data_PCOD8030507
_publ_section_title
;
Structure prediction by ZEFSAII (Michael W. Deem and Ramdas Pophale) SiO2 
 PCOD8030507
Probable space group: P -1
;
_chemical_formula_sum "Si O2"
_cell_formula_units_Z 14
_cell_length_a 9.206207
_cell_length_b 8.351915
_cell_length_c 23.579918
_cell_angle_alpha 43.872709
_cell_angle_beta 141.603971
_cell_angle_gamma 109.239664
_cell_volume 653.323749
_symmetry_space_group_name_H-M "P -1"
_symmetry_group_IT_number 2
_symmetry_cell_setting 'triclinic'
loop_
_space_group_symop_operation_xyz
x,y,z
-x,-y,-z
loop_
_atom_site_type_symbol
_atom_site_label
_atom_site_fract_x
_atom_site_fract_y
_atom_site_fract_z
Si Si1 0.934941 0.267613 0.482733
Si Si2 0.296829 0.086121 0.538017
Si Si3 0.751999 0.797157 0.670831
Si Si4 0.107279 0.037757 0.712666
Si Si5 0.184475 0.637362 0.349099
Si Si6 0.441506 0.884295 0.160934
Si Si7 0.933061 0.186279 0.854317
O O1 0.703915 0.571649 0.312754
O O2 0.228986 0.143645 0.570099
O O3 0.973604 0.265089 0.562958
O O4 0.840341 0.060546 0.494432
O O5 0.148451 0.386934 0.385959
O O6 0.629053 0.905567 0.669787
O O7 0.830604 0.489352 0.767876
O O8 0.500000 0.000000 0.500000
O O9 0.023349 0.813716 0.739159
O O10 0.439821 0.917385 0.843025
O O11 0.013058 0.186024 0.705793
O O12 0.500000 0.500000 0.500000
O O13 0.102555 0.827248 0.220143
O O14 0.252522 0.913338 0.148747
O O15 0.256677 0.977773 0.023367
#
# Coordination Sequence:
#
# PCOD8030507 Si02
#       7
#     2   2   2   2   2   2   2
#     4  11  22  40  64  97 121 162 208 258 301 378
#     4  11  22  36  65  94 123 159 207 256 315 351
#     4  12  20  41  64  93 122 164 202 260 304 372
#     4  12  24  37  68  95 125 156 217 261 303 352
#     4  12  22  37  64  98 115 160 205 266 302 364
#     4  11  24  41  63  91 127 170 199 260 310 368
#     4  11  25  43  64  85 133 166 208 243 325 373
#
# _framework density 21.428885999999999
#
# number of rings (size 3 to 8) (size 9 to 14) (size 15 to 20)
#    0.000    0.571    7.143    1.286    2.000    1.143 
#    0.000    0.000    3.143    3.429    0.000    0.000 
#    0.000    0.000    0.000    0.000    0.000    0.000 
#
# Total GULP energy -173498.720995 kJ/mol
# GULP energy per Si atom -12392.765785 kJ/mol
# Density = 2.138011 g / cm^3
# Si number density = 21.428886 Si / 1000 Ang^3
#
#
#
# Elastic Constant Matrix: (Units=GPa)
#
#
# Indices 1 2 3 4 5 6 
#
# 1 145.4771 43.9796 55.2155 24.5653 -6.9219 -0.3928
# 2 43.9796 76.5516 33.5647 17.7860 3.2485 15.1114
# 3 55.2155 33.5647 92.8518 23.7020 -9.5128 -8.3641
# 4 24.5653 17.7860 23.7020 29.9278 -2.2226 6.0155
# 5 -6.9219 3.2485 -9.5128 -2.2226 30.2424 9.7871
# 6 -0.3928 15.1114 -8.3641 6.0155 9.7871 51.8991
#
#
#
# Elastic Compliance Matrix: (Units=1/GPa)
#
#
# Indices 1 2 3 4 5 6 
#
# 1 0.009916 -0.003541 -0.003622 -0.003229 0.001047 0.000699
# 2 -0.003541 0.019226 -0.004597 -0.004016 -0.002883 -0.005356
# 3 -0.003622 -0.004597 0.017592 -0.008926 0.003052 0.004605
# 4 -0.003229 -0.004016 -0.008926 0.046934 0.002332 -0.006173
# 5 0.001047 -0.002883 0.003052 0.002332 0.036637 -0.005840
# 6 0.000699 -0.005356 0.004605 -0.006173 -0.005840 0.023392
#
#
# Mechanical properties :
#
#
# Convention : Reuss Voigt Hill
#
# Bulk Modulus (GPa) = 43.07863 64.48891 53.78377
# Shear Modulus (GPa) = 27.03366 34.55522 30.79444
#
# Velocity S-wave (km/s) = 3.55569 4.02002 3.79496
# Velocity P-wave (km/s) = 6.08309 7.19076 6.65999
#
# Compressibility (1/GPa) = 0.02321336
#
# Stress axis : x y z
#
# Youngs Moduli (GPa) = 100.84518 52.01352 56.84531
#
# Poissons Ratio (x) = 0.18418 0.20591
# Poissons Ratio (y) = 0.35708 0.26131
# Poissons Ratio (z) = 0.36529 0.23910
#
# Static dielectric constant tensor:
#      x y z
#    x 4.697930 0.282970 0.083910 
#    y 0.282970 4.059150 0.017680 
#    z 0.083910 0.017680 3.751530 
# 
# 
# High freq. dielectric constant tensor:
#      x y z
#    x 1.869520 0.018530 -0.005440 
#    y 0.018530 1.847320 0.001450 
#    z -0.005440 0.001450 1.794370 
# 
# From -- ./inp_files/216372.got.cif
#   From: 2010.06.25/outbox.cif.g09.slc.cpg/sg2_109_cif.got.tgz:216372.got - 2010.06.27 13:26:56.
