data_PCOD8030404
_publ_section_title
;
Structure prediction by ZEFSAII (Michael W. Deem and Ramdas Pophale) SiO2 
 PCOD8030404
Probable space group: P -1
;
_chemical_formula_sum "Si O2"
_cell_formula_units_Z 16
_cell_length_a 11.741370
_cell_length_b 9.916388
_cell_length_c 20.545197
_cell_angle_alpha 140.649230
_cell_angle_beta 149.472555
_cell_angle_gamma 55.145968
_cell_volume 736.454685
_symmetry_space_group_name_H-M "P -1"
_symmetry_group_IT_number 2
_symmetry_cell_setting 'triclinic'
loop_
_space_group_symop_operation_xyz
x,y,z
-x,-y,-z
loop_
_atom_site_type_symbol
_atom_site_label
_atom_site_fract_x
_atom_site_fract_y
_atom_site_fract_z
Si Si1 0.610357 0.427743 0.300539
Si Si2 0.743108 0.813366 0.722071
Si Si3 0.141558 0.244460 0.679212
Si Si4 0.381765 0.847043 0.125372
Si Si5 0.081263 0.554071 0.657218
Si Si6 0.226379 0.972647 0.966945
Si Si7 0.062184 0.524363 0.231705
Si Si8 0.463977 0.772709 0.435922
O O1 0.702237 0.467314 0.287136
O O2 0.510586 0.623534 0.345442
O O3 0.833311 0.432719 0.456583
O O4 0.394901 0.204932 0.112897
O O5 0.768767 0.579976 0.677909
O O6 0.629581 0.777875 0.581463
O O7 0.001654 0.989425 0.904712
O O8 0.588377 0.920064 0.734077
O O9 0.410791 0.263173 0.805651
O O10 0.070379 0.424542 0.669301
O O11 0.061812 0.304724 0.732870
O O12 0.000000 0.000000 0.500000
O O13 0.376055 0.874419 0.054779
O O14 0.144579 0.679128 0.974216
O O15 0.130541 0.813579 0.797976
O O16 0.200900 0.664540 0.291853
O O17 0.500000 0.000000 0.500000
#
# Coordination Sequence:
#
# PCOD8030404 Si02
#       8
#     2   2   2   2   2   2   2   2
#     4  11  24  44  68  94 139 183 225 274 342 413
#     4  11  22  44  73  96 135 181 236 277 335 413
#     4  12  24  41  66 102 136 174 222 285 350 396
#     4  11  23  40  70 103 135 166 234 290 338 401
#     4  11  24  44  67 100 134 180 229 279 336 418
#     4  11  21  45  70 100 128 180 236 281 332 412
#     4  11  23  44  70  95 135 181 226 283 338 405
#     4  12  26  44  65 102 141 180 227 284 345 410
#
# _framework density 21.725708000000001
#
# number of rings (size 3 to 8) (size 9 to 14) (size 15 to 20)
#    0.000    0.750    3.750    5.625    3.500    0.000 
#    2.250    1.250    0.000    0.000    0.000    0.000 
#    0.000    0.000    0.000    0.000    0.000    0.000 
#
# Total GULP energy -198294.257178 kJ/mol
# GULP energy per Si atom -12393.391074 kJ/mol
# Density = 2.167626 g / cm^3
# Si number density = 21.725708 Si / 1000 Ang^3
#
#
#
# Elastic Constant Matrix: (Units=GPa)
#
#
# Indices 1 2 3 4 5 6 
#
# 1 131.8637 38.7401 14.4898 14.5991 8.7055 -24.1691
# 2 38.7401 87.8066 26.4607 15.4882 10.2304 -14.1621
# 3 14.4898 26.4607 63.2801 16.8379 2.6705 -3.0627
# 4 14.5991 15.4882 16.8379 32.0718 -1.2871 -3.1723
# 5 8.7055 10.2304 2.6705 -1.2871 40.0089 8.8819
# 6 -24.1691 -14.1621 -3.0627 -3.1723 8.8819 40.6060
#
#
#
# Elastic Compliance Matrix: (Units=1/GPa)
#
#
# Indices 1 2 3 4 5 6 
#
# 1 0.009826 -0.002670 -0.000030 -0.002753 -0.002717 0.005294
# 2 -0.002670 0.015781 -0.004613 -0.003738 -0.004198 0.004193
# 3 -0.000030 -0.004613 0.019923 -0.008299 -0.000251 -0.000717
# 4 -0.002753 -0.003738 -0.008299 0.038608 0.003651 -0.001350
# 5 -0.002717 -0.004198 -0.000251 0.003651 0.028817 -0.009118
# 6 0.005294 0.004193 -0.000717 -0.001350 -0.009118 0.031075
#
#
# Mechanical properties :
#
#
# Convention : Reuss Voigt Hill
#
# Bulk Modulus (GPa) = 32.35841 49.14795 40.75318
# Shear Modulus (GPa) = 29.59305 36.08801 32.84053
#
# Velocity S-wave (km/s) = 3.69470 4.08005 3.89214
# Velocity P-wave (km/s) = 5.75564 6.69827 6.24477
#
# Compressibility (1/GPa) = 0.03090387
#
# Stress axis : x y z
#
# Youngs Moduli (GPa) = 101.77235 63.36544 50.19388
#
# Poissons Ratio (x) = 0.16919 0.00151
# Poissons Ratio (y) = 0.27174 0.23155
# Poissons Ratio (z) = 0.00305 0.29231
#
# Static dielectric constant tensor:
#      x y z
#    x 4.086780 -0.168620 0.112400 
#    y -0.168620 3.830050 -0.087460 
#    z 0.112400 -0.087460 4.102030 
# 
# 
# High freq. dielectric constant tensor:
#      x y z
#    x 1.867230 -0.018300 0.006370 
#    y -0.018300 1.833500 0.009140 
#    z 0.006370 0.009140 1.864040 
# 
# From -- ./inp_files/594287.got.cif
#   From: 2010.06.25/outbox.cif.g09.slc.cpg/sg2_298_cif.got.tgz:594287.got - 2010.06.27 13:26:56.
