data_PCOD8030858
_publ_section_title
;
Structure prediction by ZEFSAII (Michael W. Deem and Ramdas Pophale) SiO2 
 PCOD8030858
Probable space group: P -1
;
_chemical_formula_sum "Si O2"
_cell_formula_units_Z 12
_cell_length_a 8.710916
_cell_length_b 9.329570
_cell_length_c 9.642317
_cell_angle_alpha 72.605266
_cell_angle_beta 79.326193
_cell_angle_gamma 50.954691
_cell_volume 580.761188
_symmetry_space_group_name_H-M "P -1"
_symmetry_group_IT_number 2
_symmetry_cell_setting 'triclinic'
loop_
_space_group_symop_operation_xyz
x,y,z
-x,-y,-z
loop_
_atom_site_type_symbol
_atom_site_label
_atom_site_fract_x
_atom_site_fract_y
_atom_site_fract_z
Si Si1 0.127330 0.506738 0.590620
Si Si2 0.462466 0.846974 0.425798
Si Si3 0.128312 0.840269 0.412203
Si Si4 0.079609 0.082596 0.863015
Si Si5 0.918589 0.497912 0.867102
Si Si6 0.507287 0.836941 0.738214
O O1 0.321745 0.293276 0.633471
O O2 0.185500 0.640889 0.507563
O O3 0.000000 0.500000 0.500000
O O4 0.007124 0.574557 0.732561
O O5 0.327827 0.816059 0.366438
O O6 0.451606 0.805965 0.603053
O O7 0.400704 0.053874 0.343992
O O8 0.009878 0.900448 0.274514
O O9 0.000000 0.000000 0.500000
O O10 0.002405 0.285417 0.876323
O O11 0.318173 0.944791 0.841967
O O12 0.000000 0.000000 0.000000
O O13 0.679548 0.640611 0.845020
O O14 0.000000 0.500000 0.000000
#
# Coordination Sequence:
#
# PCOD8030858 Si02
#       6
#     2   2   2   2   2   2
#     4  12  22  45  71 102 143 181 239 291 345 416
#     4  11  22  40  76 108 135 180 238 297 348 410
#     4  12  24  41  71 107 138 181 236 290 349 413
#     4  12  28  48  68 105 149 183 232 294 349 423
#     4  12  28  45  72 102 143 193 231 284 354 421
#     4  11  23  46  73 103 141 186 234 288 356 413
#
# _framework density 20.662538999999999
#
# number of rings (size 3 to 8) (size 9 to 14) (size 15 to 20)
#    0.000    0.333    6.667    1.500    4.667    2.667 
#    0.000    0.000    0.000    0.000    0.000    0.000 
#    0.000    0.000    0.000    0.000    0.000    0.000 
#
# Total GULP energy -148776.505067 kJ/mol
# GULP energy per Si atom -12398.042089 kJ/mol
# Density = 2.061551 g / cm^3
# Si number density = 20.662539 Si / 1000 Ang^3
#
#
#
# Elastic Constant Matrix: (Units=GPa)
#
#
# Indices 1 2 3 4 5 6 
#
# 1 130.3868 56.1896 41.0255 7.0486 5.5129 -6.3381
# 2 56.1896 130.6555 42.4511 4.3897 10.3001 -14.6796
# 3 41.0255 42.4511 115.9109 11.9049 4.5275 -3.0568
# 4 7.0486 4.3897 11.9049 28.8452 5.8536 1.1565
# 5 5.5129 10.3001 4.5275 5.8536 40.2134 2.8904
# 6 -6.3381 -14.6796 -3.0568 1.1565 2.8904 45.5530
#
#
#
# Elastic Compliance Matrix: (Units=1/GPa)
#
#
# Indices 1 2 3 4 5 6 
#
# 1 0.009916 -0.003524 -0.002109 -0.001005 -0.000083 0.000133
# 2 -0.003524 0.010447 -0.002483 0.000630 -0.002209 0.002834
# 3 -0.002109 -0.002483 0.010628 -0.003534 0.000265 -0.000307
# 4 -0.001005 0.000630 -0.003534 0.037323 -0.005001 -0.000804
# 5 -0.000083 -0.002209 0.000265 -0.005001 0.026304 -0.002248
# 6 0.000133 0.002834 -0.000307 -0.000804 -0.002248 0.023027
#
#
# Mechanical properties :
#
#
# Convention : Reuss Voigt Hill
#
# Bulk Modulus (GPa) = 67.75342 72.92064 70.33703
# Shear Modulus (GPa) = 36.02408 38.74145 37.38276
#
# Velocity S-wave (km/s) = 4.17999 4.33478 4.25809
# Velocity P-wave (km/s) = 7.49387 7.77313 7.63478
#
# Compressibility (1/GPa) = 0.01475940
#
# Stress axis : x y z
#
# Youngs Moduli (GPa) = 100.84671 95.71946 94.09449
#
# Poissons Ratio (x) = 0.33731 0.19846
# Poissons Ratio (y) = 0.35538 0.23360
# Poissons Ratio (z) = 0.21270 0.23764
#
# Static dielectric constant tensor:
#      x y z
#    x 3.482940 0.062660 -0.278040 
#    y 0.062660 4.009430 -0.011320 
#    z -0.278040 -0.011320 3.445730 
# 
# 
# High freq. dielectric constant tensor:
#      x y z
#    x 1.821370 -0.004660 0.001130 
#    y -0.004660 1.824640 0.000860 
#    z 0.001130 0.000860 1.798200 
# 
# From -- ./inp_files/148715.got.cif
#   From: 2010.06.25/outbox.cif.g09.slc.cpg/sg2_75_cif.got.tgz:148715.got - 2010.06.27 13:26:56.
