data_PCOD8030823
_publ_section_title
;
Structure prediction by ZEFSAII (Michael W. Deem and Ramdas Pophale) SiO2 
 PCOD8030823
Probable space group: P -1
;
_chemical_formula_sum "Si O2"
_cell_formula_units_Z 16
_cell_length_a 9.919691
_cell_length_b 11.283092
_cell_length_c 12.111392
_cell_angle_alpha 93.530117
_cell_angle_beta 134.376246
_cell_angle_gamma 60.120053
_cell_volume 744.713301
_symmetry_space_group_name_H-M "P -1"
_symmetry_group_IT_number 2
_symmetry_cell_setting 'triclinic'
loop_
_space_group_symop_operation_xyz
x,y,z
-x,-y,-z
loop_
_atom_site_type_symbol
_atom_site_label
_atom_site_fract_x
_atom_site_fract_y
_atom_site_fract_z
Si Si1 0.986127 0.677967 0.578421
Si Si2 0.034172 0.062385 0.698964
Si Si3 0.727664 0.205153 0.324614
Si Si4 0.260129 0.166528 0.330181
Si Si5 0.715220 0.822388 0.081062
Si Si6 0.653751 0.680946 0.227303
Si Si7 0.755143 0.672595 0.877272
Si Si8 0.077419 0.903765 0.929934
O O1 0.872281 0.717890 0.636457
O O2 0.761336 0.741844 0.370646
O O3 0.109697 0.754680 0.628838
O O4 0.203081 0.497178 0.678589
O O5 0.826721 0.119085 0.493777
O O6 0.051710 0.195793 0.741131
O O7 0.276263 0.902799 0.772734
O O8 0.974551 0.020218 0.775535
O O9 0.444051 0.345318 0.195902
O O10 0.326013 0.240666 0.282306
O O11 0.057504 0.167403 0.154501
O O12 0.500000 0.000000 0.500000
O O13 0.693459 0.706910 0.126108
O O14 0.762858 0.777430 0.976608
O O15 0.500000 0.000000 0.000000
O O16 0.369490 0.771010 0.090890
O O17 0.000000 0.500000 0.000000
O O18 0.000000 0.000000 0.000000
#
# Coordination Sequence:
#
# PCOD8030823 Si02
#       8
#     2   2   2   2   2   2   2   2
#     4  11  25  46  69  97 140 184 228 285 345 421
#     4  11  22  40  70 103 124 174 233 284 332 406
#     4  11  23  43  72  98 133 178 232 280 341 410
#     4  12  27  44  70 101 141 180 225 287 351 411
#     4  12  22  42  71  99 134 174 230 282 333 407
#     4  11  25  43  69 100 134 184 235 280 345 414
#     4  12  28  46  67 104 144 183 227 288 354 411
#     4  12  24  40  65  99 135 174 223 284 344 403
#
# _framework density 21.484779
#
# number of rings (size 3 to 8) (size 9 to 14) (size 15 to 20)
#    0.000    0.500    5.000    3.000    5.250    0.500 
#    0.000    0.625    0.000    0.000    0.000    0.000 
#    0.000    0.000    0.000    0.000    0.000    0.000 
#
# Total GULP energy -198354.808005 kJ/mol
# GULP energy per Si atom -12397.175500 kJ/mol
# Density = 2.143588 g / cm^3
# Si number density = 21.484779 Si / 1000 Ang^3
#
#
#
# Elastic Constant Matrix: (Units=GPa)
#
#
# Indices 1 2 3 4 5 6 
#
# 1 112.7213 40.4990 46.0091 7.9272 -3.4203 -13.3015
# 2 40.4990 97.0701 38.9752 7.0387 -0.8629 -16.1717
# 3 46.0091 38.9752 91.4456 5.2340 -5.7904 -8.8250
# 4 7.9272 7.0387 5.2340 34.9414 -2.1053 -6.9168
# 5 -3.4203 -0.8629 -5.7904 -2.1053 46.1099 5.8954
# 6 -13.3015 -16.1717 -8.8250 -6.9168 5.8954 36.4614
#
#
#
# Elastic Compliance Matrix: (Units=1/GPa)
#
#
# Indices 1 2 3 4 5 6 
#
# 1 0.012060 -0.002781 -0.004643 -0.001119 -0.000026 0.001834
# 2 -0.002781 0.013858 -0.004127 -0.000783 -0.001032 0.004151
# 3 -0.004643 -0.004127 0.015127 -0.000324 0.001484 -0.000165
# 4 -0.001119 -0.000783 -0.000324 0.030061 0.000625 0.004768
# 5 -0.000026 -0.001032 0.001484 0.000625 0.022342 -0.003602
# 6 0.001834 0.004151 -0.000165 0.004768 -0.003602 0.031384
#
#
# Mechanical properties :
#
#
# Convention : Reuss Voigt Hill
#
# Bulk Modulus (GPa) = 55.73158 61.35598 58.54378
# Shear Modulus (GPa) = 32.48525 35.21943 33.85234
#
# Velocity S-wave (km/s) = 3.89268 4.05319 3.97374
# Velocity P-wave (km/s) = 6.79708 7.10805 6.95430
#
# Compressibility (1/GPa) = 0.01794315
#
# Stress axis : x y z
#
# Youngs Moduli (GPa) = 82.91807 72.15799 66.10520
#
# Poissons Ratio (x) = 0.20066 0.30694
# Poissons Ratio (y) = 0.23058 0.27284
# Poissons Ratio (z) = 0.38500 0.29783
#
# Static dielectric constant tensor:
#      x y z
#    x 3.996140 -0.051540 0.084210 
#    y -0.051540 4.085560 0.065630 
#    z 0.084210 0.065630 4.273790 
# 
# 
# High freq. dielectric constant tensor:
#      x y z
#    x 1.853020 -0.005020 -0.002060 
#    y -0.005020 1.833920 0.016800 
#    z -0.002060 0.016800 1.860660 
# 
# From -- ./inp_files/392648.got.cif
#   From: 2010.06.25/outbox.cif.g09.slc.cpg/sg2_197_cif.got.tgz:392648.got - 2010.06.27 13:26:56.
