data_PCOD8030787
_publ_section_title
;
Structure prediction by ZEFSAII (Michael W. Deem and Ramdas Pophale) SiO2 
 PCOD8030787
Probable space group: P -1
;
_chemical_formula_sum "Si O2"
_cell_formula_units_Z 16
_cell_length_a 19.446057
_cell_length_b 11.106599
_cell_length_c 16.174055
_cell_angle_alpha 146.145614
_cell_angle_beta 21.920579
_cell_angle_gamma 136.479189
_cell_volume 709.061386
_symmetry_space_group_name_H-M "P -1"
_symmetry_group_IT_number 2
_symmetry_cell_setting 'triclinic'
loop_
_space_group_symop_operation_xyz
x,y,z
-x,-y,-z
loop_
_atom_site_type_symbol
_atom_site_label
_atom_site_fract_x
_atom_site_fract_y
_atom_site_fract_z
Si Si1 0.957409 0.214076 0.772455
Si Si2 0.099127 0.705464 0.304180
Si Si3 0.710069 0.204302 0.192025
Si Si4 0.484636 0.631850 0.908579
Si Si5 0.039821 0.042125 0.846586
Si Si6 0.134474 0.650596 0.637063
Si Si7 0.588478 0.970570 0.668609
Si Si8 0.651284 0.673145 0.583044
O O1 0.858079 0.272635 0.828205
O O2 0.125247 0.342550 0.668122
O O3 0.801098 0.296434 0.062859
O O4 0.035754 0.952515 0.551434
O O5 0.933601 0.576609 0.432691
O O6 0.286022 0.577077 0.070778
O O7 0.558264 0.061408 0.256448
O O8 0.614587 0.425703 0.474244
O O9 0.861169 0.042666 0.988236
O O10 0.642700 0.408990 0.623314
O O11 0.553900 0.766750 0.831821
O O12 0.455717 0.776920 0.107018
O O13 0.108436 0.797410 0.667538
O O14 0.203201 0.104387 0.643954
O O15 0.989819 0.222028 0.077416
O O16 0.560602 0.821694 0.692917
#
# Coordination Sequence:
#
# PCOD8030787 Si02
#       8
#     2   2   2   2   2   2   2   2
#     4  11  22  40  68 104 141 176 218 278 341 409
#     4  11  23  40  69 100 138 180 219 274 342 405
#     4  12  24  42  69 102 135 179 221 277 342 400
#     4  12  24  44  67 105 135 181 220 278 334 404
#     4  11  26  49  66  99 133 182 229 290 323 398
#     4  11  26  46  73  93 135 180 236 275 340 393
#     4  12  27  42  69 102 143 171 224 279 340 403
#     4  12  23  41  68 102 140 177 214 273 340 410
#
# _framework density 22.565042999999999
#
# number of rings (size 3 to 8) (size 9 to 14) (size 15 to 20)
#    0.000    0.500    5.000    2.625    5.250    1.500 
#    0.000    6.875    0.000    0.000    0.000    0.000 
#    0.000    0.000    0.000    0.000    0.000    0.000 
#
# Total GULP energy -198493.278136 kJ/mol
# GULP energy per Si atom -12405.829883 kJ/mol
# Density = 2.251368 g / cm^3
# Si number density = 22.565043 Si / 1000 Ang^3
#
#
#
# Elastic Constant Matrix: (Units=GPa)
#
#
# Indices 1 2 3 4 5 6 
#
# 1 107.8954 34.0142 30.5413 4.5783 -18.4050 11.5912
# 2 34.0142 51.0334 12.9093 2.9340 -11.5126 7.5114
# 3 30.5413 12.9093 74.2235 -1.3621 -11.7533 10.5828
# 4 4.5783 2.9340 -1.3621 28.1137 -1.6036 -7.5027
# 5 -18.4050 -11.5126 -11.7533 -1.6036 44.9085 0.9193
# 6 11.5912 7.5114 10.5828 -7.5027 0.9193 33.5577
#
#
#
# Elastic Compliance Matrix: (Units=1/GPa)
#
#
# Indices 1 2 3 4 5 6 
#
# 1 0.013239 -0.006832 -0.003511 -0.002121 0.002730 -0.002485
# 2 -0.006832 0.025836 -0.000594 -0.002440 0.003660 -0.003882
# 3 -0.003511 -0.000594 0.015975 0.000591 0.002685 -0.003633
# 4 -0.002121 -0.002440 0.000591 0.038797 -0.000154 0.009770
# 5 0.002730 0.003660 0.002685 -0.000154 0.025090 -0.003331
# 6 -0.002485 -0.003882 -0.003633 0.009770 -0.003331 0.034948
#
#
# Mechanical properties :
#
#
# Convention : Reuss Voigt Hill
#
# Bulk Modulus (GPa) = 30.14307 43.12021 36.63164
# Shear Modulus (GPa) = 26.76397 31.69515 29.22956
#
# Velocity S-wave (km/s) = 3.44769 3.75188 3.60300
# Velocity P-wave (km/s) = 5.40704 6.15789 5.79464
#
# Compressibility (1/GPa) = 0.03317512
#
# Stress axis : x y z
#
# Youngs Moduli (GPa) = 75.53635 38.70563 62.59735
#
# Poissons Ratio (x) = 0.26443 0.21981
# Poissons Ratio (y) = 0.51605 0.03719
# Poissons Ratio (z) = 0.26524 0.02300
#
# Static dielectric constant tensor:
#      x y z
#    x 4.265030 0.063570 0.018530 
#    y 0.063570 3.734760 -0.036390 
#    z 0.018530 -0.036390 4.026510 
# 
# 
# High freq. dielectric constant tensor:
#      x y z
#    x 1.903320 0.010450 -0.001240 
#    y 0.010450 1.860220 -0.003140 
#    z -0.001240 -0.003140 1.895490 
# 
# From -- ./inp_files/272193.got.cif
#   From: 2010.06.25/outbox.cif.g09.slc.cpg/sg2_137_cif.got.tgz:272193.got - 2010.06.27 13:26:56.
