data_PCOD8030221
_publ_section_title
;
Structure prediction by ZEFSAII (Michael W. Deem and Ramdas Pophale) SiO2 
 PCOD8030221
Probable space group: P -1
;
_chemical_formula_sum "Si O2"
_cell_formula_units_Z 16
_cell_length_a 8.742416
_cell_length_b 10.775381
_cell_length_c 14.448663
_cell_angle_alpha 104.172612
_cell_angle_beta 55.284152
_cell_angle_gamma 137.517247
_cell_volume 717.012808
_symmetry_space_group_name_H-M "P -1"
_symmetry_group_IT_number 2
_symmetry_cell_setting 'triclinic'
loop_
_space_group_symop_operation_xyz
x,y,z
-x,-y,-z
loop_
_atom_site_type_symbol
_atom_site_label
_atom_site_fract_x
_atom_site_fract_y
_atom_site_fract_z
Si Si1 0.972339 0.125425 0.213329
Si Si2 0.313633 0.276761 0.808999
Si Si3 0.515539 0.305094 0.413288
Si Si4 0.890091 0.331677 0.170395
Si Si5 0.231016 0.927801 0.535306
Si Si6 0.726447 0.561451 0.554964
Si Si7 0.474937 0.293440 0.953801
Si Si8 0.270720 0.915110 0.987512
O O1 0.858648 0.203523 0.233095
O O2 0.976364 0.125337 0.323084
O O3 0.754239 0.906825 0.214267
O O4 0.283257 0.261221 0.091732
O O5 0.530438 0.435008 0.687014
O O6 0.447970 0.360755 0.880513
O O7 0.032168 0.216851 0.885243
O O8 0.722274 0.368070 0.271526
O O9 0.694375 0.434401 0.466540
O O10 0.336964 0.332891 0.446584
O O11 0.305833 0.082447 0.470191
O O12 0.757110 0.216342 0.098422
O O13 0.211255 0.541289 0.084360
O O14 0.053512 0.730695 0.503316
O O15 0.500000 0.000000 0.500000
O O16 0.369650 0.094911 0.934083
O O17 0.500000 0.000000 0.000000
#
# Coordination Sequence:
#
# PCOD8030221 Si02
#       8
#     2   2   2   2   2   2   2   2
#     4  11  21  43  70 107 139 178 228 294 341 407
#     4  11  22  45  74  98 141 186 229 282 353 408
#     4  11  27  48  68 103 140 187 231 288 344 413
#     4  12  24  43  74 104 138 179 238 282 346 413
#     4  12  25  44  73 105 135 181 241 291 341 403
#     4  11  27  48  70  98 144 186 231 284 355 412
#     4  11  24  43  73 104 142 183 228 286 352 409
#     4  11  26  44  65 106 146 180 223 288 345 416
#
# _framework density 22.314803999999999
#
# number of rings (size 3 to 8) (size 9 to 14) (size 15 to 20)
#    0.000    0.750    5.000    2.250    3.500    5.000 
#    2.250    0.000    0.000    0.000    0.000    0.000 
#    0.000    0.000    0.000    0.000    0.000    0.000 
#
# Total GULP energy -198480.973526 kJ/mol
# GULP energy per Si atom -12405.060845 kJ/mol
# Density = 2.226401 g / cm^3
# Si number density = 22.314804 Si / 1000 Ang^3
#
#
#
# Elastic Constant Matrix: (Units=GPa)
#
#
# Indices 1 2 3 4 5 6 
#
# 1 67.6805 26.8164 26.3205 -4.8673 -0.2297 16.6527
# 2 26.8164 131.9973 57.3605 -2.8511 -0.1172 24.3772
# 3 26.3205 57.3605 109.2919 11.5694 6.6461 12.0537
# 4 -4.8673 -2.8511 11.5694 26.4135 -7.7333 3.5889
# 5 -0.2297 -0.1172 6.6461 -7.7333 28.9648 -1.1657
# 6 16.6527 24.3772 12.0537 3.5889 -1.1657 43.7556
#
#
#
# Elastic Compliance Matrix: (Units=1/GPa)
#
#
# Indices 1 2 3 4 5 6 
#
# 1 0.018744 -0.000608 -0.004432 0.006969 0.002779 -0.006072
# 2 -0.000608 0.011274 -0.005943 0.005110 0.002577 -0.004763
# 3 -0.004432 -0.005943 0.014555 -0.009797 -0.005949 0.001633
# 4 0.006969 0.005110 -0.009797 0.049321 0.015233 -0.006440
# 5 0.002779 0.002577 -0.005949 0.015233 0.039947 -0.001040
# 6 -0.006072 -0.004763 0.001633 -0.006440 -0.001040 0.027869
#
#
# Mechanical properties :
#
#
# Convention : Reuss Voigt Hill
#
# Bulk Modulus (GPa) = 44.23295 58.88495 51.55895
# Shear Modulus (GPa) = 26.14877 33.05827 29.60352
#
# Velocity S-wave (km/s) = 3.42689 3.85314 3.64625
# Velocity P-wave (km/s) = 5.96015 6.80008 6.39392
#
# Compressibility (1/GPa) = 0.02260758
#
# Stress axis : x y z
#
# Youngs Moduli (GPa) = 53.34957 88.69711 68.70436
#
# Poissons Ratio (x) = 0.05390 0.30452
# Poissons Ratio (y) = 0.03242 0.40832
# Poissons Ratio (z) = 0.23646 0.52714
#
# Static dielectric constant tensor:
#      x y z
#    x 3.917440 -0.068610 0.108650 
#    y -0.068610 4.217140 0.056570 
#    z 0.108650 0.056570 4.058440 
# 
# 
# High freq. dielectric constant tensor:
#      x y z
#    x 1.867570 -0.002630 0.006270 
#    y -0.002630 1.898440 0.000460 
#    z 0.006270 0.000460 1.882000 
# 
# From -- ./inp_files/271992.got.cif
#   From: 2010.06.25/outbox.cif.g09.slc.cpg/sg2_136_cif.got.tgz:271992.got - 2010.06.27 13:26:56.
