data_PCOD8030824
_publ_section_title
;
Structure prediction by ZEFSAII (Michael W. Deem and Ramdas Pophale) SiO2 
 PCOD8030824
Probable space group: P -1
;
_chemical_formula_sum "Si O2"
_cell_formula_units_Z 14
_cell_length_a 16.317979
_cell_length_b 11.017626
_cell_length_c 10.781194
_cell_angle_alpha 143.424277
_cell_angle_beta 31.928339
_cell_angle_gamma 131.062251
_cell_volume 608.954906
_symmetry_space_group_name_H-M "P -1"
_symmetry_group_IT_number 2
_symmetry_cell_setting 'triclinic'
loop_
_space_group_symop_operation_xyz
x,y,z
-x,-y,-z
loop_
_atom_site_type_symbol
_atom_site_label
_atom_site_fract_x
_atom_site_fract_y
_atom_site_fract_z
Si Si1 0.817565 0.069117 0.773370
Si Si2 0.260989 0.117844 0.528494
Si Si3 0.904846 0.181388 0.341995
Si Si4 0.528679 0.719543 0.189414
Si Si5 0.140052 0.414156 0.387783
Si Si6 0.939260 0.476118 0.920748
Si Si7 0.538363 0.087245 0.317846
O O1 0.811372 0.308973 0.944042
O O2 0.736135 0.937376 0.665774
O O3 0.715777 0.041947 0.005865
O O4 0.000000 0.000000 0.500000
O O5 0.430132 0.162996 0.402086
O O6 0.212049 0.919956 0.500504
O O7 0.141437 0.316311 0.864499
O O8 0.821104 0.348316 0.492474
O O9 0.002639 0.329453 0.417839
O O10 0.000000 0.000000 0.000000
O O11 0.463071 0.742202 0.432190
O O12 0.461982 0.895801 0.325063
O O13 0.500000 0.500000 0.000000
O O14 0.713562 0.738543 0.961848
O O15 0.091882 0.403691 0.585377
O O16 0.000000 0.500000 0.000000
#
# Coordination Sequence:
#
# PCOD8030824 Si02
#       7
#     2   2   2   2   2   2   2
#     4  12  26  48  73 100 139 189 237 294 353 426
#     4  12  25  45  71 106 145 183 235 296 358 416
#     4  11  22  40  70 103 141 177 231 296 353 410
#     4  11  26  45  72 100 146 191 237 290 356 423
#     4  11  24  42  70 106 137 184 241 288 345 427
#     4  12  26  42  70 107 137 186 241 285 348 423
#     4  11  28  47  69 106 145 186 238 293 361 419
#
# _framework density 22.990209
#
# number of rings (size 3 to 8) (size 9 to 14) (size 15 to 20)
#    0.000    0.571    4.286    3.000    4.000    2.857 
#    0.000    0.000    0.000    0.000    0.000    0.000 
#    0.000    0.000    0.000    0.000    0.000    0.000 
#
# Total GULP energy -173566.224939 kJ/mol
# GULP energy per Si atom -12397.587496 kJ/mol
# Density = 2.293788 g / cm^3
# Si number density = 22.990209 Si / 1000 Ang^3
#
#
#
# Elastic Constant Matrix: (Units=GPa)
#
#
# Indices 1 2 3 4 5 6 
#
# 1 118.5447 21.0589 58.5499 -5.2745 14.3728 -1.8195
# 2 21.0589 94.9669 31.9537 3.2573 16.3728 -6.0475
# 3 58.5499 31.9537 143.4715 -14.6246 27.6881 -0.2990
# 4 -5.2745 3.2573 -14.6246 48.6994 -3.8642 6.2920
# 5 14.3728 16.3728 27.6881 -3.8642 45.5994 -1.8364
# 6 -1.8195 -6.0475 -0.2990 6.2920 -1.8364 26.8426
#
#
#
# Elastic Compliance Matrix: (Units=1/GPa)
#
#
# Indices 1 2 3 4 5 6 
#
# 1 0.010667 -0.000866 -0.004059 -0.000112 -0.000577 0.000469
# 2 -0.000866 0.012162 -0.001998 -0.002123 -0.002942 0.002955
# 3 -0.004059 -0.001998 0.010101 0.002605 -0.003976 -0.001495
# 4 -0.000112 -0.002123 0.002605 0.022241 0.000874 -0.005610
# 5 -0.000577 -0.002942 -0.003976 0.000874 0.025689 0.000806
# 6 0.000469 0.002955 -0.001495 -0.005610 0.000806 0.039305
#
#
# Mechanical properties :
#
#
# Convention : Reuss Voigt Hill
#
# Bulk Modulus (GPa) = 52.40025 64.45645 58.42835
# Shear Modulus (GPa) = 35.61939 40.58966 38.10453
#
# Velocity S-wave (km/s) = 3.94042 4.20637 4.07556
# Velocity P-wave (km/s) = 6.59882 7.18949 6.90048
#
# Compressibility (1/GPa) = 0.01908388
#
# Stress axis : x y z
#
# Youngs Moduli (GPa) = 93.75131 82.22030 98.99749
#
# Poissons Ratio (x) = 0.07123 0.40184
# Poissons Ratio (y) = 0.08122 0.19777
# Poissons Ratio (z) = 0.38055 0.16425
#
# Static dielectric constant tensor:
#      x y z
#    x 4.232980 -0.106080 -0.204690 
#    y -0.106080 4.279920 0.131290 
#    z -0.204690 0.131290 4.590600 
# 
# 
# High freq. dielectric constant tensor:
#      x y z
#    x 1.906700 -0.004850 0.007920 
#    y -0.004850 1.912030 0.008790 
#    z 0.007920 0.008790 1.915730 
# 
# From -- ./inp_files/465168.got.cif
#   From: 2010.06.25/outbox.cif.g09.slc.cpg/sg2_233_cif.got.tgz:465168.got - 2010.06.27 13:26:56.
