data_PCOD8030635
_publ_section_title
;
Structure prediction by ZEFSAII (Michael W. Deem and Ramdas Pophale) SiO2 
 PCOD8030635
Probable space group: P -1
;
_chemical_formula_sum "Si O2"
_cell_formula_units_Z 14
_cell_length_a 9.125885
_cell_length_b 24.415097
_cell_length_c 9.194597
_cell_angle_alpha 41.119688
_cell_angle_beta 131.070482
_cell_angle_gamma 152.378539
_cell_volume 624.256084
_symmetry_space_group_name_H-M "P -1"
_symmetry_group_IT_number 2
_symmetry_cell_setting 'triclinic'
loop_
_space_group_symop_operation_xyz
x,y,z
-x,-y,-z
loop_
_atom_site_type_symbol
_atom_site_label
_atom_site_fract_x
_atom_site_fract_y
_atom_site_fract_z
Si Si1 0.692312 0.991520 0.715228
Si Si2 0.661180 0.134795 0.770930
Si Si3 0.351718 0.287093 0.641318
Si Si4 0.678935 0.243756 0.825340
Si Si5 0.576950 0.523122 0.170555
Si Si6 0.359362 0.308951 0.921692
Si Si7 0.279159 0.095641 0.377058
O O1 0.995186 0.128439 0.728172
O O2 0.500000 0.000000 0.500000
O O3 0.816064 0.970006 0.713715
O O4 0.455345 0.862934 0.924464
O O5 0.548140 0.171540 0.728229
O O6 0.555163 0.127323 0.554844
O O7 0.027556 0.238494 0.804312
O O8 0.500000 0.000000 0.000000
O O9 0.580083 0.304386 0.665539
O O10 0.359157 0.377996 0.386581
O O11 0.512792 0.351241 0.777484
O O12 0.052492 0.366334 0.804982
O O13 0.473595 0.571735 0.094647
O O14 0.500000 0.500000 0.000000
O O15 0.374942 0.224306 0.174937
O O16 0.000000 0.000000 0.500000
#
# Coordination Sequence:
#
# PCOD8030635 Si02
#       7
#     2   2   2   2   2   2   2
#     4  12  25  41  71 105 138 173 226 286 339 400
#     4  11  22  39  64  97 140 177 220 281 342 401
#     4  12  24  46  69  98 142 179 224 282 346 405
#     4  11  24  44  68 101 133 179 227 279 347 402
#     4  11  27  46  72  96 136 183 228 281 341 411
#     4  11  25  45  67  97 137 182 228 277 344 408
#     4  12  24  39  68 104 136 178 228 281 339 404
#
# _framework density 22.426694999999999
#
# number of rings (size 3 to 8) (size 9 to 14) (size 15 to 20)
#    0.000    0.571    2.857    5.571    6.000    0.000 
#    0.000    0.714    0.000    0.000    0.000    0.000 
#    0.000    0.000    0.000    0.000    0.000    0.000 
#
# Total GULP energy -173547.135829 kJ/mol
# GULP energy per Si atom -12396.223988 kJ/mol
# Density = 2.237565 g / cm^3
# Si number density = 22.426695 Si / 1000 Ang^3
#
#
#
# Elastic Constant Matrix: (Units=GPa)
#
#
# Indices 1 2 3 4 5 6 
#
# 1 100.2184 26.1375 10.6627 -6.2098 8.5607 -34.2400
# 2 26.1375 65.9724 20.7142 -1.9142 4.7580 -25.8686
# 3 10.6627 20.7142 131.7831 -5.7831 13.7203 -20.6673
# 4 -6.2098 -1.9142 -5.7831 37.4109 -5.3960 -1.3300
# 5 8.5607 4.7580 13.7203 -5.3960 40.3591 0.3179
# 6 -34.2400 -25.8686 -20.6673 -1.3300 0.3179 49.3776
#
#
#
# Elastic Compliance Matrix: (Units=1/GPa)
#
#
# Indices 1 2 3 4 5 6 
#
# 1 0.013873 -0.001982 0.001007 0.002273 -0.002819 0.009082
# 2 -0.001982 0.019823 -0.001463 0.000555 -0.001411 0.008422
# 3 0.001007 -0.001463 0.008649 0.001145 -0.002857 0.003601
# 4 0.002273 0.000555 0.001145 0.027820 0.002758 0.003078
# 5 -0.002819 -0.001411 -0.002857 0.002758 0.026913 -0.003989
# 6 0.009082 0.008422 0.003601 0.003078 -0.003989 0.032578
#
#
# Mechanical properties :
#
#
# Convention : Reuss Voigt Hill
#
# Bulk Modulus (GPa) = 26.68965 45.88917 36.28941
# Shear Modulus (GPa) = 34.00847 41.46015 37.73431
#
# Velocity S-wave (km/s) = 3.89836 4.30431 4.10635
# Velocity P-wave (km/s) = 5.67359 6.72377 6.22088
#
# Compressibility (1/GPa) = 0.03746771
#
# Stress axis : x y z
#
# Youngs Moduli (GPa) = 72.08487 50.44675 115.61817
#
# Poissons Ratio (x) = 0.09997 -0.11638
# Poissons Ratio (y) = 0.14285 0.16919
# Poissons Ratio (z) = -0.07256 0.07382
#
# Static dielectric constant tensor:
#      x y z
#    x 4.802360 -0.689980 -0.213180 
#    y -0.689980 3.299510 0.377440 
#    z -0.213180 0.377440 4.127130 
# 
# 
# High freq. dielectric constant tensor:
#      x y z
#    x 1.912550 -0.018910 0.000030 
#    y -0.018910 1.869640 0.003030 
#    z 0.000030 0.003030 1.890650 
# 
# From -- ./inp_files/163491.got.cif
#   From: 2010.06.25/outbox.cif.g09.slc.cpg/sg2_82_cif.got.tgz:163491.got - 2010.06.27 13:26:56.
