data_PCOD8030210
_publ_section_title
;
Structure prediction by ZEFSAII (Michael W. Deem and Ramdas Pophale) SiO2 
 PCOD8030210
Probable space group: P -1
;
_chemical_formula_sum "Si O2"
_cell_formula_units_Z 16
_cell_length_a 12.550405
_cell_length_b 13.900329
_cell_length_c 13.926784
_cell_angle_alpha 147.332008
_cell_angle_beta 40.009638
_cell_angle_gamma 117.070993
_cell_volume 706.043015
_symmetry_space_group_name_H-M "P -1"
_symmetry_group_IT_number 2
_symmetry_cell_setting 'triclinic'
loop_
_space_group_symop_operation_xyz
x,y,z
-x,-y,-z
loop_
_atom_site_type_symbol
_atom_site_label
_atom_site_fract_x
_atom_site_fract_y
_atom_site_fract_z
Si Si1 0.420098 0.255082 0.110403
Si Si2 0.168687 0.497838 0.321542
Si Si3 0.987998 0.516542 0.908936
Si Si4 0.024256 0.977166 0.850857
Si Si5 0.270874 0.182809 0.809459
Si Si6 0.362925 0.430141 0.494789
Si Si7 0.292687 0.960619 0.005540
Si Si8 0.146394 0.044010 0.381494
O O1 0.369602 0.368150 0.137092
O O2 0.368810 0.429226 0.374454
O O3 0.269320 0.178835 0.172345
O O4 0.650399 0.065931 0.790460
O O5 0.120302 0.736281 0.541323
O O6 0.000000 0.500000 0.500000
O O7 0.207310 0.369898 0.088251
O O8 0.142560 0.569820 0.804748
O O9 0.040521 0.292779 0.646677
O O10 0.000000 0.500000 0.000000
O O11 0.778201 0.704080 0.167038
O O12 0.154077 0.067861 0.806783
O O13 0.801979 0.114853 0.073565
O O14 0.000000 0.000000 0.000000
O O15 0.500000 0.000000 0.500000
O O16 0.500000 0.500000 0.500000
O O17 0.470629 0.191706 0.265449
O O18 0.185288 0.958118 0.174482
O O19 0.000000 0.000000 0.500000
#
# Coordination Sequence:
#
# PCOD8030210 Si02
#       8
#     2   2   2   2   2   2   2   2
#     4  11  22  43  71 100 137 184 238 299 362 424
#     4  12  24  46  79 105 146 194 243 307 368 435
#     4  12  27  45  70 100 146 190 235 298 365 432
#     4  12  26  44  78 111 142 194 252 301 367 445
#     4  12  30  51  72 111 155 196 246 306 370 442
#     4  11  23  40  68 103 137 176 236 296 359 428
#     4  11  21  43  69  95 138 180 232 305 351 417
#     4  11  25  42  67 101 137 185 239 290 365 436
#
# _framework density 22.661508000000001
#
# number of rings (size 3 to 8) (size 9 to 14) (size 15 to 20)
#    0.000    0.500    5.000    3.000    8.750    2.500 
#    0.000    0.000    0.000    0.000    0.000    0.000 
#    0.000    0.000    0.000    0.000    0.000    0.000 
#
# Total GULP energy -198325.463373 kJ/mol
# GULP energy per Si atom -12395.341461 kJ/mol
# Density = 2.260993 g / cm^3
# Si number density = 22.661508 Si / 1000 Ang^3
#
#
#
# Elastic Constant Matrix: (Units=GPa)
#
#
# Indices 1 2 3 4 5 6 
#
# 1 152.0633 40.5709 42.8277 2.7814 -6.1504 -12.4059
# 2 40.5709 92.8147 30.0410 -3.1434 -2.1714 5.1575
# 3 42.8277 30.0410 100.1332 1.4735 -6.6248 -4.1381
# 4 2.7814 -3.1434 1.4735 32.6591 4.4891 -0.6911
# 5 -6.1504 -2.1714 -6.6248 4.4891 45.4940 9.1834
# 6 -12.4059 5.1575 -4.1381 -0.6911 9.1834 45.2206
#
#
#
# Elastic Compliance Matrix: (Units=1/GPa)
#
#
# Indices 1 2 3 4 5 6 
#
# 1 0.008294 -0.002957 -0.002537 -0.000859 0.000227 0.002321
# 2 -0.002957 0.013176 -0.002806 0.001566 0.000188 -0.002585
# 3 -0.002537 -0.002806 0.012027 -0.000760 0.001257 0.000458
# 4 -0.000859 0.001566 -0.000760 0.031357 -0.003384 0.000683
# 5 0.000227 0.000188 0.001257 -0.003384 0.023479 -0.004664
# 6 0.002321 -0.002585 0.000458 0.000683 -0.004664 0.024045
#
#
# Mechanical properties :
#
#
# Convention : Reuss Voigt Hill
#
# Bulk Modulus (GPa) = 59.17950 63.54339 61.36144
# Shear Modulus (GPa) = 37.14474 40.11283 38.62879
#
# Velocity S-wave (km/s) = 4.05299 4.21180 4.13316
# Velocity P-wave (km/s) = 6.93351 7.19399 7.06495
#
# Compressibility (1/GPa) = 0.01689774
#
# Stress axis : x y z
#
# Youngs Moduli (GPa) = 120.57115 75.89611 83.14917
#
# Poissons Ratio (x) = 0.22443 0.21092
# Poissons Ratio (y) = 0.35654 0.23328
# Poissons Ratio (z) = 0.30584 0.21293
#
# Static dielectric constant tensor:
#      x y z
#    x 4.161040 0.617910 0.758580 
#    y 0.617910 2.972530 -1.259400 
#    z 0.758580 -1.259400 1.833950 
# 
# 
# High freq. dielectric constant tensor:
#      x y z
#    x 1.915860 -0.000250 -0.011370 
#    y -0.000250 1.888460 0.021630 
#    z -0.011370 0.021630 1.893100 
# 
# From -- ./inp_files/522572.got.cif
#   From: 2010.06.25/outbox.cif.g09.slc.cpg/sg2_262_cif.got.tgz:522572.got - 2010.06.27 13:26:56.
