data_PCOD8030901
_publ_section_title
;
Structure prediction by ZEFSAII (Michael W. Deem and Ramdas Pophale) SiO2 
 PCOD8030901
Probable space group: P -1
;
_chemical_formula_sum "Si O2"
_cell_formula_units_Z 16
_cell_length_a 17.807379
_cell_length_b 8.426638
_cell_length_c 12.346870
_cell_angle_alpha 103.803803
_cell_angle_beta 133.393709
_cell_angle_gamma 42.241864
_cell_volume 754.242826
_symmetry_space_group_name_H-M "P -1"
_symmetry_group_IT_number 2
_symmetry_cell_setting 'triclinic'
loop_
_space_group_symop_operation_xyz
x,y,z
-x,-y,-z
loop_
_atom_site_type_symbol
_atom_site_label
_atom_site_fract_x
_atom_site_fract_y
_atom_site_fract_z
Si Si1 0.038687 0.158127 0.222390
Si Si2 0.340442 0.608271 0.303886
Si Si3 0.591994 0.046939 0.135123
Si Si4 0.732276 0.327361 0.002422
Si Si5 0.835364 0.899672 0.184429
Si Si6 0.481161 0.065314 0.368597
Si Si7 0.176741 0.312540 0.492297
Si Si8 0.126967 0.387374 0.011834
O O1 0.122827 0.199674 0.380064
O O2 0.893173 0.248541 0.162844
O O3 0.180021 0.844693 0.267177
O O4 0.936063 0.352950 0.045795
O O5 0.500000 0.500000 0.500000
O O6 0.391344 0.354983 0.308834
O O7 0.287259 0.729996 0.146718
O O8 0.666966 0.042058 0.103347
O O9 0.753436 0.796133 0.334523
O O10 0.454543 0.342260 0.107583
O O11 0.500000 0.000000 0.000000
O O12 0.773233 0.149079 0.111296
O O13 0.016258 0.655743 0.397832
O O14 0.912179 0.689091 0.131985
O O15 0.340133 0.110654 0.197074
O O16 0.500000 0.000000 0.500000
O O17 0.668589 0.810627 0.450822
O O18 0.000000 0.500000 0.000000
#
# Coordination Sequence:
#
# PCOD8030901 Si02
#       8
#     2   2   2   2   2   2   2   2
#     4  11  22  41  66  94 133 175 217 267 344 397
#     4  12  24  41  64 100 137 182 216 274 340 397
#     4  12  24  49  72  94 130 177 229 276 337 399
#     4  12  25  44  67 100 135 173 228 279 334 398
#     4  11  26  41  71  98 130 175 224 279 334 390
#     4  12  24  38  62  96 138 172 228 263 335 399
#     4  11  23  47  66  98 133 177 221 277 334 400
#     4  11  23  42  63  97 131 177 219 272 330 404
#
# _framework density 21.213328000000001
#
# number of rings (size 3 to 8) (size 9 to 14) (size 15 to 20)
#    0.000    0.500    3.750    5.625    5.250    0.000 
#    0.000    3.750    0.000    0.000    0.000    0.000 
#    0.000    0.000    0.000    0.000    0.000    0.000 
#
# Total GULP energy -198311.231129 kJ/mol
# GULP energy per Si atom -12394.451946 kJ/mol
# Density = 2.116505 g / cm^3
# Si number density = 21.213328 Si / 1000 Ang^3
#
#
#
# Elastic Constant Matrix: (Units=GPa)
#
#
# Indices 1 2 3 4 5 6 
#
# 1 162.9868 18.1899 53.8929 0.4110 3.1946 -4.1973
# 2 18.1899 59.0552 24.9052 -7.7830 -2.5499 -2.7808
# 3 53.8929 24.9052 129.5892 -2.7089 3.4033 5.9389
# 4 0.4110 -7.7830 -2.7089 33.7727 -0.7894 -4.5335
# 5 3.1946 -2.5499 3.4033 -0.7894 43.9566 -7.9364
# 6 -4.1973 -2.7808 5.9389 -4.5335 -7.9364 30.5454
#
#
#
# Elastic Compliance Matrix: (Units=1/GPa)
#
#
# Indices 1 2 3 4 5 6 
#
# 1 0.007240 -0.001002 -0.002886 -0.000368 -0.000118 0.001380
# 2 -0.001002 0.019604 -0.003475 0.004788 0.002217 0.003609
# 3 -0.002886 -0.003475 0.009748 -0.000418 -0.001297 -0.003007
# 4 -0.000368 0.004788 -0.000418 0.031486 0.001920 0.005638
# 5 -0.000118 0.002217 -0.001297 0.001920 0.024292 0.007034
# 6 0.001380 0.003609 -0.003007 0.005638 0.007034 0.036506
#
#
# Mechanical properties :
#
#
# Convention : Reuss Voigt Hill
#
# Bulk Modulus (GPa) = 45.73085 60.62301 53.17693
# Shear Modulus (GPa) = 33.13685 38.63115 35.88400
#
# Velocity S-wave (km/s) = 3.95660 4.27204 4.11734
# Velocity P-wave (km/s) = 6.51746 7.27830 6.90836
#
# Compressibility (1/GPa) = 0.02186708
#
# Stress axis : x y z
#
# Youngs Moduli (GPa) = 138.11307 51.01070 102.58504
#
# Poissons Ratio (x) = 0.05109 0.29611
# Poissons Ratio (y) = 0.13832 0.35644
# Poissons Ratio (z) = 0.39866 0.17724
#
# Static dielectric constant tensor:
#      x y z
#    x 4.046310 0.088650 -0.019190 
#    y 0.088650 3.825360 -0.201400 
#    z -0.019190 -0.201400 4.200880 
# 
# 
# High freq. dielectric constant tensor:
#      x y z
#    x 1.840100 -0.009550 0.002460 
#    y -0.009550 1.821900 -0.011550 
#    z 0.002460 -0.011550 1.852110 
# 
# From -- ./inp_files/280111.got.cif
#   From: 2010.06.25/outbox.cif.g09.slc.cpg/sg2_141_cif.got.tgz:280111.got - 2010.06.27 13:26:56.
