data_PCOD8030796
_publ_section_title
;
Structure prediction by ZEFSAII (Michael W. Deem and Ramdas Pophale) SiO2 
 PCOD8030796
Probable space group: P -1
;
_chemical_formula_sum "Si O2"
_cell_formula_units_Z 16
_cell_length_a 13.614478
_cell_length_b 9.273417
_cell_length_c 21.740932
_cell_angle_alpha 137.759635
_cell_angle_beta 24.487247
_cell_angle_gamma 136.762404
_cell_volume 749.895287
_symmetry_space_group_name_H-M "P -1"
_symmetry_group_IT_number 2
_symmetry_cell_setting 'triclinic'
loop_
_space_group_symop_operation_xyz
x,y,z
-x,-y,-z
loop_
_atom_site_type_symbol
_atom_site_label
_atom_site_fract_x
_atom_site_fract_y
_atom_site_fract_z
Si Si1 0.506733 0.174399 0.238414
Si Si2 0.210729 0.424069 0.426524
Si Si3 0.200398 0.005187 0.473018
Si Si4 0.962557 0.407578 0.762302
Si Si5 0.504870 0.900030 0.032776
Si Si6 0.474018 0.678784 0.246620
Si Si7 0.174036 0.424582 0.238227
Si Si8 0.987302 0.235183 0.056496
O O1 0.427617 0.407685 0.345400
O O2 0.312488 0.028385 0.347857
O O3 0.780196 0.215256 0.117653
O O4 0.483510 0.071712 0.151534
O O5 0.313984 0.499443 0.324947
O O6 0.065098 0.601062 0.591434
O O7 0.040354 0.181442 0.445466
O O8 0.147011 0.238814 0.598802
O O9 0.405394 0.920163 0.371406
O O10 0.720950 0.298589 0.900314
O O11 0.887193 0.495327 0.768278
O O12 0.081431 0.612259 0.801669
O O13 0.749182 0.810030 0.879550
O O14 0.500000 0.000000 0.000000
O O15 0.391274 0.605702 0.200983
O O16 0.755198 0.676125 0.095087
O O17 0.000000 0.000000 0.000000
#
# Coordination Sequence:
#
# PCOD8030796 Si02
#       8
#     2   2   2   2   2   2   2   2
#     4  12  24  45  70  97 142 179 224 272 344 405
#     4  11  23  41  69 104 135 172 226 286 344 385
#     4  11  22  42  71 102 132 177 228 284 330 393
#     4  12  25  42  70  99 136 175 234 277 328 400
#     4  12  25  41  69 106 135 170 228 285 333 395
#     4  11  24  42  68 102 137 180 222 280 344 396
#     4  11  22  40  68  99 132 169 227 285 326 386
#     4  12  27  46  67  98 139 187 220 271 340 415
#
# _framework density 21.336314000000002
#
# number of rings (size 3 to 8) (size 9 to 14) (size 15 to 20)
#    0.000    0.500    5.000    5.250    1.750    1.000 
#    0.000    0.000    0.000    3.750    0.000    0.000 
#    0.000    0.000    0.000    0.000    0.000    0.000 
#
# Total GULP energy -198318.060377 kJ/mol
# GULP energy per Si atom -12394.878774 kJ/mol
# Density = 2.128775 g / cm^3
# Si number density = 21.336314 Si / 1000 Ang^3
#
#
#
# Elastic Constant Matrix: (Units=GPa)
#
#
# Indices 1 2 3 4 5 6 
#
# 1 110.2665 52.2709 57.6510 1.0265 -5.3860 -14.8209
# 2 52.2709 75.8626 60.0707 3.4759 10.5460 -13.7123
# 3 57.6510 60.0707 148.2039 5.9023 -10.2650 -9.5172
# 4 1.0265 3.4759 5.9023 30.7336 -14.9057 -2.2677
# 5 -5.3860 10.5460 -10.2650 -14.9057 40.0657 4.9383
# 6 -14.8209 -13.7123 -9.5172 -2.2677 4.9383 31.6962
#
#
#
# Elastic Compliance Matrix: (Units=1/GPa)
#
#
# Indices 1 2 3 4 5 6 
#
# 1 0.014898 -0.009583 -0.001576 0.003554 0.005223 0.001788
# 2 -0.009583 0.031093 -0.009120 -0.008613 -0.016013 0.008111
# 3 -0.001576 -0.009120 0.011268 0.001650 0.005949 -0.002108
# 4 0.003554 -0.008613 0.001650 0.042207 0.019057 -0.001518
# 5 0.005223 -0.016013 0.005949 0.019057 0.039411 -0.007476
# 6 0.001788 0.008111 -0.002108 -0.001518 -0.007476 0.036317
#
#
# Mechanical properties :
#
#
# Convention : Reuss Voigt Hill
#
# Bulk Modulus (GPa) = 59.87763 74.92422 67.40092
# Shear Modulus (GPa) = 22.59179 31.45512 27.02345
#
# Velocity S-wave (km/s) = 3.25752 3.84377 3.56272
# Velocity P-wave (km/s) = 6.50178 7.40888 6.97010
#
# Compressibility (1/GPa) = 0.01670073
#
# Stress axis : x y z
#
# Youngs Moduli (GPa) = 67.12345 32.16183 88.74514
#
# Poissons Ratio (x) = 0.30820 0.13987
# Poissons Ratio (y) = 0.64322 0.80938
# Poissons Ratio (z) = 0.10579 0.29332
#
# Static dielectric constant tensor:
#      x y z
#    x 3.933480 -0.265620 -0.340100 
#    y -0.265620 3.763070 0.199010 
#    z -0.340100 0.199010 4.401170 
# 
# 
# High freq. dielectric constant tensor:
#      x y z
#    x 1.828590 -0.031510 -0.013230 
#    y -0.031510 1.814910 0.011930 
#    z -0.013230 0.011930 1.864570 
# 
# From -- ./inp_files/566897.got.cif
#   From: 2010.06.25/outbox.cif.g09.slc.cpg/sg2_284_cif.got.tgz:566897.got - 2010.06.27 13:26:56.
