data_PCOD8030179
_publ_section_title
;
Structure prediction by ZEFSAII (Michael W. Deem and Ramdas Pophale) SiO2 
 PCOD8030179
Probable space group: P -1
;
_chemical_formula_sum "Si O2"
_cell_formula_units_Z 16
_cell_length_a 20.221656
_cell_length_b 11.751029
_cell_length_c 10.412053
_cell_angle_alpha 64.465034
_cell_angle_beta 45.160014
_cell_angle_gamma 29.711750
_cell_volume 744.806745
_symmetry_space_group_name_H-M "P -1"
_symmetry_group_IT_number 2
_symmetry_cell_setting 'triclinic'
loop_
_space_group_symop_operation_xyz
x,y,z
-x,-y,-z
loop_
_atom_site_type_symbol
_atom_site_label
_atom_site_fract_x
_atom_site_fract_y
_atom_site_fract_z
Si Si1 0.024803 0.935146 0.143403
Si Si2 0.325678 0.525714 0.482155
Si Si3 0.998828 0.405687 0.931574
Si Si4 0.208071 0.244215 0.475456
Si Si5 0.006211 0.140681 0.398564
Si Si6 0.738940 0.125332 0.054340
Si Si7 0.009048 0.279369 0.588217
Si Si8 0.436109 0.153623 0.640060
O O1 0.826448 0.203946 0.364841
O O2 0.069234 0.732959 0.197765
O O3 0.000000 0.000000 0.000000
O O4 0.210553 0.793971 0.007480
O O5 0.500813 0.399112 0.241084
O O6 0.438489 0.297891 0.533577
O O7 0.207583 0.579323 0.513146
O O8 0.052814 0.414922 0.722874
O O9 0.775616 0.625535 0.118799
O O10 0.152171 0.108002 0.891101
O O11 0.000000 0.500000 0.000000
O O12 0.201472 0.120068 0.464380
O O13 0.154126 0.419407 0.364041
O O14 0.416910 0.035640 0.349530
O O15 0.053331 0.157009 0.454928
O O16 0.000000 0.000000 0.500000
O O17 0.182282 0.980765 0.146160
O O18 0.500000 0.000000 0.500000
#
# Coordination Sequence:
#
# PCOD8030179 Si02
#       8
#     2   2   2   2   2   2   2   2
#     4  11  24  45  69  95 140 183 226 286 341 405
#     4  11  23  41  71 107 130 173 240 283 337 412
#     4  12  21  40  70 101 134 176 226 282 342 402
#     4  11  25  43  70  97 142 178 224 282 349 408
#     4  11  21  43  66  95 143 176 223 284 337 404
#     4  11  22  41  68 102 132 176 234 282 341 400
#     4  11  24  47  65  98 142 185 220 286 346 409
#     4  12  22  41  70 104 133 172 231 284 333 409
#
# _framework density 21.482084
#
# number of rings (size 3 to 8) (size 9 to 14) (size 15 to 20)
#    0.000    0.750    7.500    2.250    0.000    1.000 
#    0.000    5.000    0.000    0.000    0.000    0.000 
#    0.000    0.000    0.000    0.000    0.000    0.000 
#
# Total GULP energy -198309.034184 kJ/mol
# GULP energy per Si atom -12394.314636 kJ/mol
# Density = 2.143319 g / cm^3
# Si number density = 21.482084 Si / 1000 Ang^3
#
#
#
# Elastic Constant Matrix: (Units=GPa)
#
#
# Indices 1 2 3 4 5 6 
#
# 1 160.6920 34.4171 48.2295 1.0640 -10.1664 -8.6679
# 2 34.4171 93.9136 36.5803 -23.1688 -6.7638 -0.3901
# 3 48.2295 36.5803 155.2301 7.3752 -15.2103 -12.6770
# 4 1.0640 -23.1688 7.3752 41.5747 -6.5142 -5.4221
# 5 -10.1664 -6.7638 -15.2103 -6.5142 30.2932 -7.3606
# 6 -8.6679 -0.3901 -12.6770 -5.4221 -7.3606 35.3042
#
#
#
# Elastic Compliance Matrix: (Units=1/GPa)
#
#
# Indices 1 2 3 4 5 6 
#
# 1 0.007301 -0.002178 -0.001465 -0.000733 0.001417 0.001425
# 2 -0.002178 0.015260 -0.002979 0.009733 0.003464 0.000781
# 3 -0.001465 -0.002979 0.008257 -0.002204 0.003221 0.002905
# 4 -0.000733 0.009733 -0.002204 0.032105 0.009178 0.005981
# 5 0.001417 0.003464 0.003221 0.009178 0.040626 0.011422
# 6 0.001425 0.000781 0.002905 0.005981 0.011422 0.033027
#
#
# Mechanical properties :
#
#
# Convention : Reuss Voigt Hill
#
# Bulk Modulus (GPa) = 56.89977 72.03216 64.46597
# Shear Modulus (GPa) = 32.11787 40.80833 36.46310
#
# Velocity S-wave (km/s) = 3.87085 4.36322 4.12439
# Velocity P-wave (km/s) = 6.82074 7.68034 7.26327
#
# Compressibility (1/GPa) = 0.01757476
#
# Stress axis : x y z
#
# Youngs Moduli (GPa) = 136.97535 65.52966 121.11256
#
# Poissons Ratio (x) = 0.14270 0.17744
# Poissons Ratio (y) = 0.29827 0.36077
# Poissons Ratio (z) = 0.20068 0.19520
#
# Static dielectric constant tensor:
#      x y z
#    x 3.925030 -0.152740 0.064970 
#    y -0.152740 3.873660 -0.436210 
#    z 0.064970 -0.436210 3.709990 
# 
# 
# High freq. dielectric constant tensor:
#      x y z
#    x 1.854130 -0.005850 -0.009800 
#    y -0.005850 1.842670 -0.022530 
#    z -0.009800 -0.022530 1.836720 
# 
# From -- ./inp_files/432621.got.cif
#   From: 2010.06.25/outbox.cif.g09.slc.cpg/sg2_217_cif.got.tgz:432621.got - 2010.06.27 13:26:56.
