data_PCOD8030293
_publ_section_title
;
Structure prediction by ZEFSAII (Michael W. Deem and Ramdas Pophale) SiO2 
 PCOD8030293
Probable space group: P -1
;
_chemical_formula_sum "Si O2"
_cell_formula_units_Z 16
_cell_length_a 13.067992
_cell_length_b 9.221420
_cell_length_c 19.210182
_cell_angle_alpha 123.651802
_cell_angle_beta 153.312891
_cell_angle_gamma 48.082664
_cell_volume 767.278898
_symmetry_space_group_name_H-M "P -1"
_symmetry_group_IT_number 2
_symmetry_cell_setting 'triclinic'
loop_
_space_group_symop_operation_xyz
x,y,z
-x,-y,-z
loop_
_atom_site_type_symbol
_atom_site_label
_atom_site_fract_x
_atom_site_fract_y
_atom_site_fract_z
Si Si1 0.554731 0.227157 0.907026
Si Si2 0.361461 0.519612 0.676073
Si Si3 0.994975 0.312736 0.151767
Si Si4 0.845336 0.569294 0.994290
Si Si5 0.272936 0.021563 0.916846
Si Si6 0.969979 0.536556 0.648452
Si Si7 0.037610 0.169405 0.382354
Si Si8 0.559057 0.080168 0.728264
O O1 0.612791 0.062054 0.839057
O O2 0.257394 0.378240 0.763882
O O3 0.722022 0.340007 0.022055
O O4 0.620553 0.134272 0.998145
O O5 0.227800 0.533091 0.523593
O O6 0.516122 0.294021 0.734430
O O7 0.142988 0.642454 0.631427
O O8 0.553188 0.614992 0.813072
O O9 0.086156 0.426211 0.293235
O O10 0.969133 0.407984 0.086408
O O11 0.196335 0.083124 0.207149
O O12 0.868034 0.760795 0.081390
O O13 0.000000 0.500000 0.000000
O O14 0.074475 0.981818 0.739162
O O15 0.500000 0.000000 0.000000
O O16 0.917355 0.746219 0.640198
O O17 0.310926 0.048242 0.554242
#
# Coordination Sequence:
#
# PCOD8030293 Si02
#       8
#     2   2   2   2   2   2   2   2
#     4  12  22  42  69  99 128 172 228 270 316 391
#     4  11  22  43  68  98 135 171 217 273 339 385
#     4  12  25  42  67 104 130 169 231 274 317 391
#     4  12  27  46  66  95 141 178 209 270 343 395
#     4  12  26  42  67  99 135 174 218 267 332 395
#     4  11  22  40  71 100 129 169 223 281 320 378
#     4  11  21  44  67 101 133 171 218 275 334 384
#     4  11  23  40  71 100 129 168 226 277 325 384
#
# _framework density 20.852913000000001
#
# number of rings (size 3 to 8) (size 9 to 14) (size 15 to 20)
#    0.000    0.500    6.250    3.000    1.750    3.000 
#    0.000    7.500    0.000    0.000    0.000    0.000 
#    0.000    0.000    0.000    0.000    0.000    0.000 
#
# Total GULP energy -198463.970930 kJ/mol
# GULP energy per Si atom -12403.998183 kJ/mol
# Density = 2.080545 g / cm^3
# Si number density = 20.852913 Si / 1000 Ang^3
#
#
#
# Elastic Constant Matrix: (Units=GPa)
#
#
# Indices 1 2 3 4 5 6 
#
# 1 112.6180 20.7908 29.5925 4.2175 -21.9252 -3.5361
# 2 20.7908 92.0781 32.4288 14.1100 -5.8814 -12.0043
# 3 29.5925 32.4288 117.4820 24.5888 -17.2632 0.6937
# 4 4.2175 14.1100 24.5888 37.9558 -3.3521 0.0981
# 5 -21.9252 -5.8814 -17.2632 -3.3521 28.6958 4.3670
# 6 -3.5361 -12.0043 0.6937 0.0981 4.3670 38.8615
#
#
#
# Elastic Compliance Matrix: (Units=1/GPa)
#
#
# Indices 1 2 3 4 5 6 
#
# 1 0.010944 -0.001698 -0.001414 0.000979 0.007328 -0.000329
# 2 -0.001698 0.013139 -0.002775 -0.003019 -0.001251 0.004102
# 3 -0.001414 -0.002775 0.011597 -0.005887 0.004903 -0.001729
# 4 0.000979 -0.003019 -0.005887 0.031208 0.000364 -0.000858
# 5 0.007328 -0.001251 0.004903 0.000364 0.043904 -0.004742
# 6 -0.000329 0.004102 -0.001729 -0.000858 -0.004742 0.027535
#
#
# Mechanical properties :
#
#
# Convention : Reuss Voigt Hill
#
# Bulk Modulus (GPa) = 41.83266 54.20023 48.01645
# Shear Modulus (GPa) = 31.63149 37.06035 34.34592
#
# Velocity S-wave (km/s) = 3.89895 4.22029 4.06280
# Velocity P-wave (km/s) = 6.35401 7.05662 6.71451
#
# Compressibility (1/GPa) = 0.02390477
#
# Stress axis : x y z
#
# Youngs Moduli (GPa) = 91.37198 76.11180 86.23002
#
# Poissons Ratio (x) = 0.12924 0.12196
# Poissons Ratio (y) = 0.15515 0.23930
# Poissons Ratio (z) = 0.12923 0.21122
#
# Static dielectric constant tensor:
#      x y z
#    x 3.765300 -0.158060 -0.199430 
#    y -0.158060 3.599620 0.078960 
#    z -0.199430 0.078960 4.103790 
# 
# 
# High freq. dielectric constant tensor:
#      x y z
#    x 1.811490 -0.019560 -0.012730 
#    y -0.019560 1.806280 0.007880 
#    z -0.012730 0.007880 1.833360 
# 
# From -- ./inp_files/184318.got.cif
#   From: 2010.06.25/outbox.cif.g09.slc.cpg/sg2_93_cif.got.tgz:184318.got - 2010.06.27 13:26:56.
