data_PCOD8030907
_publ_section_title
;
Structure prediction by ZEFSAII (Michael W. Deem and Ramdas Pophale) SiO2 
 PCOD8030907
Probable space group: P -1
;
_chemical_formula_sum "Si O2"
_cell_formula_units_Z 16
_cell_length_a 30.580498
_cell_length_b 27.606938
_cell_length_c 5.432950
_cell_angle_alpha 66.342950
_cell_angle_beta 112.526544
_cell_angle_gamma 171.024542
_cell_volume 652.622297
_symmetry_space_group_name_H-M "P -1"
_symmetry_group_IT_number 2
_symmetry_cell_setting 'triclinic'
loop_
_space_group_symop_operation_xyz
x,y,z
-x,-y,-z
loop_
_atom_site_type_symbol
_atom_site_label
_atom_site_fract_x
_atom_site_fract_y
_atom_site_fract_z
Si Si1 0.056372 0.292295 0.512234
Si Si2 0.011049 0.350840 0.461031
Si Si3 0.820204 0.659996 0.651881
Si Si4 0.511215 0.632354 0.767938
Si Si5 0.544074 0.808150 0.887317
Si Si6 0.598080 0.667614 0.366261
Si Si7 0.355603 0.786069 0.680050
Si Si8 0.252497 0.873637 0.026666
O O1 0.075483 0.284079 0.308366
O O2 0.326044 0.576042 0.673956
O O3 0.057164 0.357037 0.335688
O O4 0.779630 0.965039 0.718968
O O5 0.297814 0.691858 0.489759
O O6 0.857249 0.148652 0.758899
O O7 0.811352 0.178240 0.284498
O O8 0.752066 0.618957 0.343795
O O9 0.535180 0.335053 0.857666
O O10 0.065944 0.959988 0.721640
O O11 0.537200 0.625350 0.589877
O O12 0.443528 0.525407 0.089900
O O13 0.539389 0.853978 0.961999
O O14 0.500000 0.500000 0.500000
O O15 0.057522 0.469371 0.815397
O O16 0.500000 0.000000 0.500000
O O17 0.582580 0.000698 0.883985
#
# Coordination Sequence:
#
# PCOD8030907 Si02
#       8
#     2   2   2   2   2   2   2   2
#     4  11  22  41  66  99 142 175 236 294 375 440
#     4  11  26  42  70 102 142 184 237 299 375 449
#     4  11  26  42  70 102 142 184 237 299 375 449
#     4  11  25  43  73 101 141 190 241 302 378 437
#     4  11  22  41  66  99 142 175 236 294 375 440
#     4  11  26  47  70 104 144 191 249 307 366 449
#     4  11  26  47  70 104 144 191 249 307 366 449
#     4  11  25  43  73 101 141 190 241 302 378 437
#
# _framework density 24.516476000000001
#
# number of rings (size 3 to 8) (size 9 to 14) (size 15 to 20)
#    0.000    1.000    2.500    3.000    7.000    2.000 
#    0.000    0.000    0.000    0.000    0.000    0.000 
#    0.000    0.000    0.000    0.000    0.000    0.000 
#
# Total GULP energy -198302.122815 kJ/mol
# GULP energy per Si atom -12393.882676 kJ/mol
# Density = 2.446068 g / cm^3
# Si number density = 24.516476 Si / 1000 Ang^3
#
#
#
# Elastic Constant Matrix: (Units=GPa)
#
#
# Indices 1 2 3 4 5 6 
#
# 1 112.3481 57.4133 45.8387 -3.0515 23.4132 -23.9537
# 2 57.4133 118.9029 48.2560 -5.4970 20.9001 -18.0271
# 3 45.8387 48.2560 131.5246 8.1323 23.2626 -16.4450
# 4 -3.0515 -5.4970 8.1323 36.7377 0.3073 10.1271
# 5 23.4132 20.9001 23.2626 0.3073 39.7474 -0.0771
# 6 -23.9537 -18.0271 -16.4450 10.1271 -0.0771 40.3257
#
#
#
# Elastic Compliance Matrix: (Units=1/GPa)
#
#
# Indices 1 2 3 4 5 6 
#
# 1 0.014104 -0.004403 -0.001628 -0.000716 -0.005023 0.005916
# 2 -0.004403 0.012252 -0.002452 0.001632 -0.002424 0.001448
# 3 -0.001628 -0.002452 0.010341 -0.003601 -0.003770 0.003051
# 4 -0.000716 0.001632 -0.003601 0.030631 0.001417 -0.008854
# 5 -0.005023 -0.002424 -0.003770 0.001417 0.031576 -0.005900
# 6 0.005916 0.001448 0.003051 -0.008854 -0.005900 0.032416
#
#
# Mechanical properties :
#
#
# Convention : Reuss Voigt Hill
#
# Bulk Modulus (GPa) = 50.67923 73.97685 62.32804
# Shear Modulus (GPa) = 32.28687 37.44668 34.86678
#
# Velocity S-wave (km/s) = 3.63291 3.91245 3.77527
# Velocity P-wave (km/s) = 6.18981 7.11685 6.66946
#
# Compressibility (1/GPa) = 0.01973195
#
# Stress axis : x y z
#
# Youngs Moduli (GPa) = 70.90394 81.61793 96.70195
#
# Poissons Ratio (x) = 0.35934 0.15740
# Poissons Ratio (y) = 0.31217 0.23712
# Poissons Ratio (z) = 0.11541 0.20013
#
# Static dielectric constant tensor:
#      x y z
#    x 4.446880 -0.114220 0.079330 
#    y -0.114220 4.514650 0.010260 
#    z 0.079330 0.010260 4.439630 
# 
# 
# High freq. dielectric constant tensor:
#      x y z
#    x 1.966700 -0.006200 0.003760 
#    y -0.006200 1.979700 0.008350 
#    z 0.003760 0.008350 1.972730 
# 
# From -- ./inp_files/11025.got.cif
#   From: 2010.06.25/outbox.cif.g09.slc.cpg/sg2_6_cif.got.tgz:11025.got - 2010.06.27 13:26:56.
