data_PCOD8030970
_publ_section_title
;
Structure prediction by ZEFSAII (Michael W. Deem and Ramdas Pophale) SiO2 
 PCOD8030970
Probable space group: P -1
;
_chemical_formula_sum "Si O2"
_cell_formula_units_Z 14
_cell_length_a 7.950092
_cell_length_b 12.917761
_cell_length_c 8.327474
_cell_angle_alpha 82.803939
_cell_angle_beta 50.892716
_cell_angle_gamma 71.251222
_cell_volume 624.897521
_symmetry_space_group_name_H-M "P -1"
_symmetry_group_IT_number 2
_symmetry_cell_setting 'triclinic'
loop_
_space_group_symop_operation_xyz
x,y,z
-x,-y,-z
loop_
_atom_site_type_symbol
_atom_site_label
_atom_site_fract_x
_atom_site_fract_y
_atom_site_fract_z
Si Si1 0.498054 0.887010 0.596604
Si Si2 0.566750 0.668286 0.102096
Si Si3 0.307475 0.605077 0.531788
Si Si4 0.908649 0.188046 0.195321
Si Si5 0.154124 0.289996 0.791047
Si Si6 0.370372 0.120576 0.115292
Si Si7 0.073181 0.490492 0.275479
O O1 0.229753 0.895224 0.752379
O O2 0.647003 0.783523 0.426140
O O3 0.606558 0.873208 0.710066
O O4 0.500000 0.000000 0.500000
O O5 0.350321 0.638888 0.314668
O O6 0.743097 0.649593 0.147428
O O7 0.513381 0.793952 0.050288
O O8 0.667753 0.582812 0.911311
O O9 0.500000 0.500000 0.500000
O O10 0.288717 0.706001 0.640959
O O11 0.072064 0.580239 0.701552
O O12 0.104641 0.145528 0.221586
O O13 0.020716 0.212191 0.959676
O O14 0.973873 0.386864 0.784041
O O15 0.500000 0.000000 0.000000
O O16 0.000000 0.500000 0.500000
#
# Coordination Sequence:
#
# PCOD8030970 Si02
#       7
#     2   2   2   2   2   2   2
#     4  12  26  47  72 103 137 180 240 293 346 420
#     4  11  22  42  67  95 139 179 227 286 342 409
#     4  12  22  40  71  98 136 185 226 277 351 412
#     4  11  25  46  72 101 139 186 231 284 362 406
#     4  11  22  41  69  99 136 180 228 286 345 416
#     4  11  26  47  71 102 141 181 237 292 345 419
#     4  12  24  39  65 102 139 177 228 283 344 414
#
# _framework density 22.403673999999999
#
# number of rings (size 3 to 8) (size 9 to 14) (size 15 to 20)
#    0.000    0.571    5.714    3.857    0.000    4.571 
#    0.000    0.000    0.000    0.000    0.000    0.000 
#    0.000    0.000    0.000    0.000    0.000    0.000 
#
# Total GULP energy -173568.778696 kJ/mol
# GULP energy per Si atom -12397.769907 kJ/mol
# Density = 2.235268 g / cm^3
# Si number density = 22.403674 Si / 1000 Ang^3
#
#
#
# Elastic Constant Matrix: (Units=GPa)
#
#
# Indices 1 2 3 4 5 6 
#
# 1 98.9249 37.2658 38.5678 -17.4759 4.0478 -2.0180
# 2 37.2658 122.2792 37.9256 -6.6043 -2.2121 -14.4683
# 3 38.5678 37.9256 133.0658 -4.7125 7.2144 0.0312
# 4 -17.4759 -6.6043 -4.7125 52.1272 2.6026 -0.1957
# 5 4.0478 -2.2121 7.2144 2.6026 40.2759 -7.7268
# 6 -2.0180 -14.4683 0.0312 -0.1957 -7.7268 30.1379
#
#
#
# Elastic Compliance Matrix: (Units=1/GPa)
#
#
# Indices 1 2 3 4 5 6 
#
# 1 0.013023 -0.003066 -0.002689 0.003802 -0.001421 -0.000937
# 2 -0.003066 0.010488 -0.002228 0.000004 0.002324 0.005428
# 3 -0.002689 -0.002228 0.009016 -0.000286 -0.001778 -0.001717
# 4 0.003802 0.000004 -0.000286 0.020516 -0.001663 -0.000037
# 5 -0.001421 0.002324 -0.001778 -0.001663 0.027050 0.007947
# 6 -0.000937 0.005428 -0.001717 -0.000037 0.007947 0.037763
#
#
# Mechanical properties :
#
#
# Convention : Reuss Voigt Hill
#
# Bulk Modulus (GPa) = 60.38098 64.64315 62.51207
# Shear Modulus (GPa) = 35.88341 40.54225 38.21283
#
# Velocity S-wave (km/s) = 4.00644 4.25858 4.13443
# Velocity P-wave (km/s) = 6.95787 7.28678 7.12422
#
# Compressibility (1/GPa) = 0.01656151
#
# Stress axis : x y z
#
# Youngs Moduli (GPa) = 76.78973 95.34867 110.91456
#
# Poissons Ratio (x) = 0.29234 0.29822
# Poissons Ratio (y) = 0.23544 0.24708
# Poissons Ratio (z) = 0.20646 0.21241
#
# Static dielectric constant tensor:
#      x y z
#    x 5.683250 0.407040 -1.207340 
#    y 0.407040 4.214230 -0.396780 
#    z -1.207340 -0.396780 5.375670 
# 
# 
# High freq. dielectric constant tensor:
#      x y z
#    x 1.866070 0.007140 0.000720 
#    y 0.007140 1.893470 -0.004890 
#    z 0.000720 -0.004890 1.900890 
# 
# From -- ./inp_files/177146.got.cif
#   From: 2010.06.25/outbox.cif.g09.slc.cpg/sg2_89_cif.got.tgz:177146.got - 2010.06.27 13:26:56.
