data_PCOD8030610
_publ_section_title
;
Structure prediction by ZEFSAII (Michael W. Deem and Ramdas Pophale) SiO2 
 PCOD8030610
Probable space group: P -1
;
_chemical_formula_sum "Si O2"
_cell_formula_units_Z 16
_cell_length_a 12.055735
_cell_length_b 14.305890
_cell_length_c 13.001475
_cell_angle_alpha 63.430685
_cell_angle_beta 92.376628
_cell_angle_gamma 147.305192
_cell_volume 780.695654
_symmetry_space_group_name_H-M "P -1"
_symmetry_group_IT_number 2
_symmetry_cell_setting 'triclinic'
loop_
_space_group_symop_operation_xyz
x,y,z
-x,-y,-z
loop_
_atom_site_type_symbol
_atom_site_label
_atom_site_fract_x
_atom_site_fract_y
_atom_site_fract_z
Si Si1 0.968991 0.659524 0.555991
Si Si2 0.526432 0.407337 0.326467
Si Si3 0.542552 0.255001 0.245163
Si Si4 0.910232 0.705025 0.900369
Si Si5 0.508638 0.232228 0.583987
Si Si6 0.749492 0.291784 0.398940
Si Si7 0.328424 0.464050 0.239425
Si Si8 0.929111 0.053997 0.002251
O O1 0.976708 0.545159 0.652209
O O2 0.700092 0.441736 0.580204
O O3 0.935327 0.709232 0.627055
O O4 0.264647 0.941990 0.367547
O O5 0.417147 0.248660 0.301097
O O6 0.430755 0.266318 0.495785
O O7 0.394596 0.409139 0.319692
O O8 0.874748 0.706872 0.184409
O O9 0.778596 0.401247 0.254395
O O10 0.712722 0.435977 0.060229
O O11 0.746811 0.619115 0.842087
O O12 0.216791 0.928757 0.764427
O O13 0.968132 0.836482 0.930461
O O14 0.677914 0.289862 0.502067
O O15 0.500000 0.000000 0.500000
O O16 0.591497 0.774625 0.109888
O O17 0.000000 0.000000 0.000000
#
# Coordination Sequence:
#
# PCOD8030610 Si02
#       8
#     2   2   2   2   2   2   2   2
#     4  11  22  39  62  91 120 161 202 247 303 362
#     4   9  21  39  59  85 124 162 199 247 297 361
#     4   9  21  39  61  88 119 159 202 245 303 358
#     4  11  22  39  62  90 122 160 201 252 297 356
#     4  11  22  39  63  90 121 158 205 250 297 357
#     4   9  19  41  64  84 119 159 200 248 303 362
#     4  11  22  39  61  90 124 162 204 246 301 353
#     4   9  20  39  56  87 122 157 198 252 296 351
#
# _framework density 20.494541999999999
#
# number of rings (size 3 to 8) (size 9 to 14) (size 15 to 20)
#    0.000    2.000    1.250    2.625    1.750    7.000 
#    2.250    6.250    0.000    0.000    0.000    0.000 
#    0.000    0.000    0.000    0.000    0.000    0.000 
#
# Total GULP energy -198277.334970 kJ/mol
# GULP energy per Si atom -12392.333436 kJ/mol
# Density = 2.044790 g / cm^3
# Si number density = 20.494542 Si / 1000 Ang^3
#
#
#
# Elastic Constant Matrix: (Units=GPa)
#
#
# Indices 1 2 3 4 5 6 
#
# 1 113.7074 17.1527 37.5326 11.9385 1.2530 7.6128
# 2 17.1527 98.8578 38.0475 4.3637 -0.5470 1.6538
# 3 37.5326 38.0475 120.0775 -2.0270 1.5144 13.6174
# 4 11.9385 4.3637 -2.0270 33.0859 -2.8652 -2.3819
# 5 1.2530 -0.5470 1.5144 -2.8652 17.2386 -1.6544
# 6 7.6128 1.6538 13.6174 -2.3819 -1.6544 26.4725
#
#
#
# Elastic Compliance Matrix: (Units=1/GPa)
#
#
# Indices 1 2 3 4 5 6 
#
# 1 0.010413 -0.000468 -0.002942 -0.004133 -0.001384 -0.001910
# 2 -0.000468 0.011678 -0.003726 -0.001459 0.000607 0.001228
# 3 -0.002942 -0.003726 0.010978 0.001818 -0.000995 -0.004467
# 4 -0.004133 -0.001459 0.001818 0.032794 0.005897 0.003664
# 5 -0.001384 0.000607 -0.000995 0.005897 0.059689 0.005133
# 6 -0.001910 0.001228 -0.004467 0.003664 0.005133 0.041196
#
#
# Mechanical properties :
#
#
# Convention : Reuss Voigt Hill
#
# Bulk Modulus (GPa) = 53.19764 57.56759 55.38262
# Shear Modulus (GPa) = 26.69726 31.35340 29.02533
#
# Velocity S-wave (km/s) = 3.61314 3.91556 3.76739
# Velocity P-wave (km/s) = 6.58936 6.97082 6.78278
#
# Compressibility (1/GPa) = 0.01879782
#
# Stress axis : x y z
#
# Youngs Moduli (GPa) = 96.03011 85.63296 91.09168
#
# Poissons Ratio (x) = 0.04004 0.26803
# Poissons Ratio (y) = 0.04490 0.33937
# Poissons Ratio (z) = 0.28256 0.31903
#
# Static dielectric constant tensor:
#      x y z
#    x 4.900510 0.258350 0.298170 
#    y 0.258350 4.091700 -0.372610 
#    z 0.298170 -0.372610 4.247430 
# 
# 
# High freq. dielectric constant tensor:
#      x y z
#    x 1.787820 -0.008100 0.000980 
#    y -0.008100 1.800370 -0.006530 
#    z 0.000980 -0.006530 1.798490 
# 
# From -- ./inp_files/349857.got.cif
#   From: 2010.06.25/outbox.cif.g09.slc.cpg/sg2_175_cif.got.tgz:349857.got - 2010.06.27 13:26:56.
