data_PCOD8030953
_publ_section_title
;
Structure prediction by ZEFSAII (Michael W. Deem and Ramdas Pophale) SiO2 
 PCOD8030953
Probable space group: P -1
;
_chemical_formula_sum "Si O2"
_cell_formula_units_Z 14
_cell_length_a 12.757686
_cell_length_b 16.002662
_cell_length_c 9.917738
_cell_angle_alpha 54.032866
_cell_angle_beta 45.832013
_cell_angle_gamma 25.389251
_cell_volume 616.851843
_symmetry_space_group_name_H-M "P -1"
_symmetry_group_IT_number 2
_symmetry_cell_setting 'triclinic'
loop_
_space_group_symop_operation_xyz
x,y,z
-x,-y,-z
loop_
_atom_site_type_symbol
_atom_site_label
_atom_site_fract_x
_atom_site_fract_y
_atom_site_fract_z
Si Si1 0.858435 0.573729 0.915255
Si Si2 0.557363 0.027267 0.221622
Si Si3 0.772196 0.224872 0.487152
Si Si4 0.747809 0.333876 0.702561
Si Si5 0.339209 0.952260 0.603939
Si Si6 0.334343 0.395727 0.527452
Si Si7 0.840458 0.352984 0.081898
O O1 0.599375 0.809131 0.905459
O O2 0.098503 0.452309 0.707004
O O3 0.764617 0.513344 0.044473
O O4 0.000000 0.500000 0.000000
O O5 0.412140 0.002376 0.388103
O O6 0.534084 0.102238 0.312045
O O7 0.882082 0.818463 0.093154
O O8 0.715838 0.308878 0.603043
O O9 0.496111 0.333843 0.576526
O O10 0.875722 0.254068 0.269068
O O11 0.000000 0.000000 0.500000
O O12 0.824581 0.408412 0.569826
O O13 0.441725 0.506244 0.882737
O O14 0.007316 0.127312 0.743285
O O15 0.460639 0.772742 0.609202
#
# Coordination Sequence:
#
# PCOD8030953 Si02
#       7
#     2   2   2   2   2   2   2
#     4  12  25  41  69 102 137 173 226 288 343 397
#     4  11  27  45  67 102 139 178 234 284 329 400
#     4  11  23  42  71  98 141 177 221 277 346 408
#     4  11  23  44  68 100 137 179 221 278 345 407
#     4  11  24  46  70  97 137 187 230 275 336 408
#     4  11  22  41  69 100 130 188 222 271 345 406
#     4  11  26  42  67 104 138 171 225 291 337 393
#
# _framework density 22.695888
#
# number of rings (size 3 to 8) (size 9 to 14) (size 15 to 20)
#    0.000    0.857    4.286    3.429    4.000    2.857 
#    0.000    5.000    0.000    0.000    0.000    0.000 
#    0.000    0.000    0.000    0.000    0.000    0.000 
#
# Total GULP energy -173546.173543 kJ/mol
# GULP energy per Si atom -12396.155253 kJ/mol
# Density = 2.264423 g / cm^3
# Si number density = 22.695888 Si / 1000 Ang^3
#
#
#
# Elastic Constant Matrix: (Units=GPa)
#
#
# Indices 1 2 3 4 5 6 
#
# 1 81.0082 21.2371 16.7718 -0.7006 -0.1794 8.9971
# 2 21.2371 125.3432 34.8154 19.7317 -1.3188 9.8552
# 3 16.7718 34.8154 62.8201 3.9729 -21.5632 -5.2213
# 4 -0.7006 19.7317 3.9729 32.3242 -1.7416 -12.9557
# 5 -0.1794 -1.3188 -21.5632 -1.7416 31.8045 0.5109
# 6 8.9971 9.8552 -5.2213 -12.9557 0.5109 41.2719
#
#
#
# Elastic Compliance Matrix: (Units=1/GPa)
#
#
# Indices 1 2 3 4 5 6 
#
# 1 0.013874 -0.000823 -0.004549 -0.000170 -0.002995 -0.003420
# 2 -0.000823 0.012525 -0.008665 -0.009663 -0.005779 -0.006869
# 3 -0.004549 -0.008665 0.028913 0.006040 0.019414 0.008374
# 4 -0.000170 -0.009663 0.006040 0.043032 0.005784 0.016545
# 5 -0.002995 -0.005779 0.019414 0.005784 0.044573 0.005753
# 6 -0.003420 -0.006869 0.008374 0.016545 0.005753 0.032797
#
#
# Mechanical properties :
#
#
# Convention : Reuss Voigt Hill
#
# Bulk Modulus (GPa) = 36.71453 46.09109 41.40281
# Shear Modulus (GPa) = 23.48873 34.16994 28.82933
#
# Velocity S-wave (km/s) = 3.22053 3.88436 3.56792
# Velocity P-wave (km/s) = 5.48096 6.36159 5.93763
#
# Compressibility (1/GPa) = 0.02723717
#
# Stress axis : x y z
#
# Youngs Moduli (GPa) = 72.07845 79.84145 34.58597
#
# Poissons Ratio (x) = 0.06570 0.15735
# Poissons Ratio (y) = 0.05931 0.29969
# Poissons Ratio (z) = 0.32791 0.69184
#
# Static dielectric constant tensor:
#      x y z
#    x 3.828190 -0.088980 0.077700 
#    y -0.088980 4.248040 0.153510 
#    z 0.077700 0.153510 3.671590 
# 
# 
# High freq. dielectric constant tensor:
#      x y z
#    x 1.895700 0.002700 -0.022560 
#    y 0.002700 1.917370 0.008660 
#    z -0.022560 0.008660 1.878080 
# 
# From -- ./inp_files/269846.got.cif
#   From: 2010.06.25/outbox.cif.g09.slc.cpg/sg2_135_cif.got.tgz:269846.got - 2010.06.27 13:26:56.
