data_PCOD8030181
_publ_section_title
;
Structure prediction by ZEFSAII (Michael W. Deem and Ramdas Pophale) SiO2 
 PCOD8030181
Probable space group: P -1
;
_chemical_formula_sum "Si O2"
_cell_formula_units_Z 16
_cell_length_a 14.066236
_cell_length_b 9.950237
_cell_length_c 9.014877
_cell_angle_alpha 82.940835
_cell_angle_beta 84.845117
_cell_angle_gamma 143.286106
_cell_volume 709.846656
_symmetry_space_group_name_H-M "P -1"
_symmetry_group_IT_number 2
_symmetry_cell_setting 'triclinic'
loop_
_space_group_symop_operation_xyz
x,y,z
-x,-y,-z
loop_
_atom_site_type_symbol
_atom_site_label
_atom_site_fract_x
_atom_site_fract_y
_atom_site_fract_z
Si Si1 0.265459 0.700353 0.922354
Si Si2 0.812024 0.314126 0.754257
Si Si3 0.944590 0.212631 0.907037
Si Si4 0.296779 0.032256 0.782301
Si Si5 0.470721 0.079328 0.368695
Si Si6 0.956207 0.159942 0.381785
Si Si7 0.034018 0.114945 0.664644
Si Si8 0.429311 0.567443 0.491739
O O1 0.085944 0.415704 0.980793
O O2 0.248001 0.819190 0.819106
O O3 0.405045 0.776956 0.809172
O O4 0.308098 0.781116 0.077909
O O5 0.922096 0.312482 0.785202
O O6 0.713024 0.157747 0.641310
O O7 0.922328 0.571311 0.662683
O O8 0.004340 0.148509 0.822742
O O9 0.774746 0.981449 0.055342
O O10 0.497569 0.287630 0.696163
O O11 0.217672 0.003057 0.648156
O O12 0.500000 0.000000 0.500000
O O13 0.491145 0.250885 0.411546
O O14 0.924622 0.070045 0.565786
O O15 0.029819 0.115034 0.286924
O O16 0.229276 0.345013 0.555225
O O17 0.500000 0.500000 0.500000
#
# Coordination Sequence:
#
# PCOD8030181 Si02
#       8
#     2   2   2   2   2   2   2   2
#     4  11  21  43  67 100 134 173 222 277 334 387
#     4  11  24  42  68 100 138 169 217 285 331 387
#     4  11  23  43  69 100 130 176 225 273 329 397
#     4  11  22  42  68  95 134 172 216 271 336 383
#     4  12  25  41  68 100 132 179 224 266 333 398
#     4  11  23  42  66  98 131 174 217 282 327 383
#     4  11  26  42  67  97 134 173 227 270 327 397
#     4  12  25  44  67  95 135 176 215 273 328 390
#
# _framework density 22.54008
#
# number of rings (size 3 to 8) (size 9 to 14) (size 15 to 20)
#    0.000    0.750    6.250    1.875    1.750    1.000 
#    2.250    0.000    0.000    4.500    0.000    0.000 
#    0.000    0.000    0.000    0.000    0.000    0.000 
#
# Total GULP energy -198321.688543 kJ/mol
# GULP energy per Si atom -12395.105534 kJ/mol
# Density = 2.248878 g / cm^3
# Si number density = 22.540080 Si / 1000 Ang^3
#
#
#
# Elastic Constant Matrix: (Units=GPa)
#
#
# Indices 1 2 3 4 5 6 
#
# 1 60.4897 24.2478 19.8091 11.8351 -7.5055 -4.4541
# 2 24.2478 95.5823 24.1239 21.1449 -4.3199 -7.5549
# 3 19.8091 24.1239 70.3435 8.4806 -17.9526 1.3228
# 4 11.8351 21.1449 8.4806 31.6595 5.1825 -9.0402
# 5 -7.5055 -4.3199 -17.9526 5.1825 50.2779 5.7319
# 6 -4.4541 -7.5549 1.3228 -9.0402 5.7319 30.2705
#
#
#
# Elastic Compliance Matrix: (Units=1/GPa)
#
#
# Indices 1 2 3 4 5 6 
#
# 1 0.020114 -0.003030 -0.003598 -0.004662 0.001868 0.000615
# 2 -0.003030 0.013589 -0.002917 -0.006937 0.000281 0.000948
# 3 -0.003598 -0.002917 0.018537 -0.004086 0.006773 -0.004570
# 4 -0.004662 -0.006937 -0.004086 0.044077 -0.008728 0.012577
# 5 0.001868 0.000281 0.006773 -0.008728 0.024327 -0.007164
# 6 0.000615 0.000948 -0.004570 0.012577 -0.007164 0.038675
#
#
# Mechanical properties :
#
#
# Convention : Reuss Voigt Hill
#
# Bulk Modulus (GPa) = 30.16593 40.30857 35.23725
# Shear Modulus (GPa) = 26.39096 32.99056 29.69076
#
# Velocity S-wave (km/s) = 3.42547 3.82990 3.63332
# Velocity P-wave (km/s) = 5.39050 6.12205 5.76788
#
# Compressibility (1/GPa) = 0.03314998
#
# Stress axis : x y z
#
# Youngs Moduli (GPa) = 49.71730 73.58667 53.94717
#
# Poissons Ratio (x) = 0.22299 0.19409
# Poissons Ratio (y) = 0.15066 0.15736
# Poissons Ratio (z) = 0.17887 0.21465
#
# Static dielectric constant tensor:
#      x y z
#    x 4.114370 -0.064950 -0.183530 
#    y -0.064950 4.244970 -0.050220 
#    z -0.183530 -0.050220 4.269120 
# 
# 
# High freq. dielectric constant tensor:
#      x y z
#    x 1.886560 -0.011900 -0.008470 
#    y -0.011900 1.885070 0.001920 
#    z -0.008470 0.001920 1.888960 
# 
# From -- ./inp_files/298548.got.cif
#   From: 2010.06.25/outbox.cif.g09.slc.cpg/sg2_150_cif.got.tgz:298548.got - 2010.06.27 13:26:56.
