data_PCOD8030614
_publ_section_title
;
Structure prediction by ZEFSAII (Michael W. Deem and Ramdas Pophale) SiO2 
 PCOD8030614
Probable space group: P -1
;
_chemical_formula_sum "Si O2"
_cell_formula_units_Z 16
_cell_length_a 14.013900
_cell_length_b 9.582798
_cell_length_c 11.600521
_cell_angle_alpha 112.720785
_cell_angle_beta 63.631260
_cell_angle_gamma 59.444462
_cell_volume 731.844131
_symmetry_space_group_name_H-M "P -1"
_symmetry_group_IT_number 2
_symmetry_cell_setting 'triclinic'
loop_
_space_group_symop_operation_xyz
x,y,z
-x,-y,-z
loop_
_atom_site_type_symbol
_atom_site_label
_atom_site_fract_x
_atom_site_fract_y
_atom_site_fract_z
Si Si1 0.651638 0.409215 0.317059
Si Si2 0.198978 0.061362 0.986058
Si Si3 0.040457 0.996675 0.609721
Si Si4 0.215099 0.235368 0.807103
Si Si5 0.315878 0.384487 0.939829
Si Si6 0.373469 0.842189 0.416133
Si Si7 0.474777 0.958419 0.878932
Si Si8 0.160446 0.601498 0.600300
O O1 0.500000 0.500000 0.500000
O O2 0.547444 0.604045 0.328982
O O3 0.761088 0.397740 0.333899
O O4 0.800059 0.119562 0.090368
O O5 0.999067 0.324779 0.238979
O O6 0.253420 0.073893 0.838768
O O7 0.365459 0.925593 0.937390
O O8 0.228600 0.877683 0.479049
O O9 0.076762 0.806519 0.608741
O O10 0.000000 0.000000 0.500000
O O11 0.862937 0.297979 0.847486
O O12 0.298768 0.305234 0.805705
O O13 0.275385 0.101840 0.608121
O O14 0.000000 0.500000 0.000000
O O15 0.514042 0.244018 0.788073
O O16 0.331183 0.242635 0.986120
O O17 0.676676 0.698310 0.629144
O O18 0.500000 0.000000 0.000000
#
# Coordination Sequence:
#
# PCOD8030614 Si02
#       8
#     2   2   2   2   2   2   2   2
#     4  12  20  41  67  95 129 164 205 262 327 380
#     4  11  24  40  65  97 128 164 211 263 316 383
#     4  12  26  45  65  94 131 171 219 269 314 374
#     4  11  22  39  62  93 131 161 199 260 321 379
#     4  11  26  41  66  99 126 170 215 260 327 382
#     4  12  24  42  67  95 135 167 207 265 325 386
#     4  11  25  46  65  91 130 173 222 266 308 375
#     4  12  25  42  70  96 127 172 216 262 325 383
#
# _framework density 21.862579
#
# number of rings (size 3 to 8) (size 9 to 14) (size 15 to 20)
#    0.000    0.500    5.000    3.000    3.500    2.000 
#    0.000    0.000    0.000    0.000    0.000    0.000 
#    0.000    0.000    0.000    0.000    0.000    0.000 
#
# Total GULP energy -198284.568173 kJ/mol
# GULP energy per Si atom -12392.785511 kJ/mol
# Density = 2.181282 g / cm^3
# Si number density = 21.862579 Si / 1000 Ang^3
#
#
#
# Elastic Constant Matrix: (Units=GPa)
#
#
# Indices 1 2 3 4 5 6 
#
# 1 101.9256 19.4431 48.7895 -14.8411 5.0357 -16.3526
# 2 19.4431 57.6841 13.8661 14.0475 2.9837 -8.2947
# 3 48.7895 13.8661 117.6350 8.1990 -14.4106 2.9852
# 4 -14.8411 14.0475 8.1990 37.6279 6.1604 -3.6931
# 5 5.0357 2.9837 -14.4106 6.1604 41.5563 -6.5421
# 6 -16.3526 -8.2947 2.9852 -3.6931 -6.5421 32.3763
#
#
#
# Elastic Compliance Matrix: (Units=1/GPa)
#
#
# Indices 1 2 3 4 5 6 
#
# 1 0.018997 -0.005884 -0.009041 0.013483 -0.005543 0.009339
# 2 -0.005884 0.021922 0.000712 -0.010703 0.001225 0.001606
# 3 -0.009041 0.000712 0.013639 -0.008338 0.006169 -0.005347
# 4 0.013483 -0.010703 -0.008338 0.039844 -0.008456 0.007673
# 5 -0.005543 0.001225 0.006169 -0.008456 0.028308 0.001701
# 6 0.009339 0.001606 -0.005347 0.007673 0.001701 0.037727
#
#
# Mechanical properties :
#
#
# Convention : Reuss Voigt Hill
#
# Bulk Modulus (GPa) = 38.26843 49.04913 43.65878
# Shear Modulus (GPa) = 25.30694 35.32183 30.31439
#
# Velocity S-wave (km/s) = 3.40596 4.02385 3.72773
# Velocity P-wave (km/s) = 5.74539 6.63870 6.20814
#
# Compressibility (1/GPa) = 0.02613120
#
# Stress axis : x y z
#
# Youngs Moduli (GPa) = 52.64048 45.61672 73.31682
#
# Poissons Ratio (x) = 0.26839 0.66288
# Poissons Ratio (y) = 0.30972 -0.05217
# Poissons Ratio (z) = 0.47594 -0.03246
#
# Static dielectric constant tensor:
#      x y z
#    x 5.542640 -0.290340 -1.387120 
#    y -0.290340 3.319890 -0.165170 
#    z -1.387120 -0.165170 4.380170 
# 
# 
# High freq. dielectric constant tensor:
#      x y z
#    x 1.862410 0.002430 -0.010320 
#    y 0.002430 1.854840 0.010210 
#    z -0.010320 0.010210 1.873750 
# 
# From -- ./inp_files/447822.got.cif
#   From: 2010.06.25/outbox.cif.g09.slc.cpg/sg2_224_cif.got.tgz:447822.got - 2010.06.27 13:26:56.
