data_PCOD8030525
_publ_section_title
;
Structure prediction by ZEFSAII (Michael W. Deem and Ramdas Pophale) SiO2 
 PCOD8030525
Probable space group: P -1
;
_chemical_formula_sum "Si O2"
_cell_formula_units_Z 12
_cell_length_a 21.264394
_cell_length_b 12.564121
_cell_length_c 18.717320
_cell_angle_alpha 159.818954
_cell_angle_beta 161.005557
_cell_angle_gamma 31.577016
_cell_volume 532.596044
_symmetry_space_group_name_H-M "P -1"
_symmetry_group_IT_number 2
_symmetry_cell_setting 'triclinic'
loop_
_space_group_symop_operation_xyz
x,y,z
-x,-y,-z
loop_
_atom_site_type_symbol
_atom_site_label
_atom_site_fract_x
_atom_site_fract_y
_atom_site_fract_z
Si Si1 0.274680 0.344466 0.687284
Si Si2 0.231885 0.270173 0.131458
Si Si3 0.081540 0.356629 0.751298
Si Si4 0.739821 0.177370 0.379139
Si Si5 0.977294 0.519840 0.385104
Si Si6 0.306691 0.676736 0.332469
O O1 0.219964 0.571847 0.832414
O O2 0.124024 0.317475 0.440864
O O3 0.243303 0.999310 0.472792
O O4 0.500000 0.500000 0.000000
O O5 0.213091 0.487185 0.315860
O O6 0.186441 0.435217 0.113539
O O7 0.455232 0.239173 0.348021
O O8 0.083693 0.907167 0.750874
O O9 0.088900 0.580197 0.830563
O O10 0.849685 0.250355 0.465363
O O11 0.151153 0.051960 0.607617
O O12 0.244917 0.530848 0.095957
O O13 0.500000 0.000000 0.000000
#
# Coordination Sequence:
#
# PCOD8030525 Si02
#       6
#     2   2   2   2   2   2
#     4  11  24  46  68  93 126 175 217 264 319 391
#     4  11  22  41  69  97 126 174 214 262 319 386
#     4  11  24  40  61  99 131 167 213 270 318 376
#     4  11  22  37  62  97 137 165 209 268 324 372
#     4  11  25  43  70  94 129 171 218 263 324 381
#     4  11  23  41  68  96 132 168 217 262 321 380
#
# _framework density 22.531148999999999
#
# number of rings (size 3 to 8) (size 9 to 14) (size 15 to 20)
#    0.000    1.000    3.333    4.000    2.333    4.000 
#    0.000    0.833    0.000    0.000    0.000    0.000 
#    0.000    0.000    0.000    0.000    0.000    0.000 
#
# Total GULP energy -148780.726281 kJ/mol
# GULP energy per Si atom -12398.393857 kJ/mol
# Density = 2.247987 g / cm^3
# Si number density = 22.531149 Si / 1000 Ang^3
#
#
#
# Elastic Constant Matrix: (Units=GPa)
#
#
# Indices 1 2 3 4 5 6 
#
# 1 113.5437 52.7384 15.7743 -27.7311 1.3590 14.2238
# 2 52.7384 138.4813 12.0221 -8.9308 1.1095 8.4068
# 3 15.7743 12.0221 66.9158 -13.3683 0.9795 -4.7275
# 4 -27.7311 -8.9308 -13.3683 27.4045 -4.2567 -4.4827
# 5 1.3590 1.1095 0.9795 -4.2567 36.8879 -8.2847
# 6 14.2238 8.4068 -4.7275 -4.4827 -8.2847 44.4871
#
#
#
# Elastic Compliance Matrix: (Units=1/GPa)
#
#
# Indices 1 2 3 4 5 6 
#
# 1 0.014275 -0.004466 -0.000227 0.012573 0.000531 -0.002379
# 2 -0.004466 0.008910 -0.001053 -0.002320 -0.000499 -0.000695
# 3 -0.000227 -0.001053 0.017087 0.008482 0.001279 0.003180
# 4 0.012573 -0.002320 0.008482 0.054266 0.006543 0.004006
# 5 0.000531 -0.000499 0.001279 0.006543 0.029209 0.006159
# 6 -0.002379 -0.000695 0.003180 0.004006 0.006159 0.025259
#
#
# Mechanical properties :
#
#
# Convention : Reuss Voigt Hill
#
# Bulk Modulus (GPa) = 34.74596 53.33450 44.04023
# Shear Modulus (GPa) = 29.39585 37.64963 33.52274
#
# Velocity S-wave (km/s) = 3.61595 4.09223 3.86144
# Velocity P-wave (km/s) = 5.73483 6.78611 6.28249
#
# Compressibility (1/GPa) = 0.02878032
#
# Stress axis : x y z
#
# Youngs Moduli (GPa) = 70.05104 112.23468 58.52315
#
# Poissons Ratio (x) = 0.50122 0.01328
# Poissons Ratio (y) = 0.31284 0.06164
# Poissons Ratio (z) = 0.01589 0.11822
#
# Static dielectric constant tensor:
#      x y z
#    x 4.171590 0.063270 0.096420 
#    y 0.063270 4.468860 0.016380 
#    z 0.096420 0.016380 3.963380 
# 
# 
# High freq. dielectric constant tensor:
#      x y z
#    x 1.895000 -0.006680 0.007300 
#    y -0.006680 1.907370 -0.014230 
#    z 0.007300 -0.014230 1.867230 
# 
# From -- ./inp_files/171035.got.cif
#   From: 2010.06.25/outbox.cif.g09.slc.cpg/sg2_86_cif.got.tgz:171035.got - 2010.06.27 13:26:56.
