data_PCOD8030253
_publ_section_title
;
Structure prediction by ZEFSAII (Michael W. Deem and Ramdas Pophale) SiO2 
 PCOD8030253
Probable space group: P -1
;
_chemical_formula_sum "Si O2"
_cell_formula_units_Z 16
_cell_length_a 17.691673
_cell_length_b 9.161380
_cell_length_c 11.482307
_cell_angle_alpha 55.182733
_cell_angle_beta 31.838190
_cell_angle_gamma 52.320315
_cell_volume 771.018165
_symmetry_space_group_name_H-M "P -1"
_symmetry_group_IT_number 2
_symmetry_cell_setting 'triclinic'
loop_
_space_group_symop_operation_xyz
x,y,z
-x,-y,-z
loop_
_atom_site_type_symbol
_atom_site_label
_atom_site_fract_x
_atom_site_fract_y
_atom_site_fract_z
Si Si1 0.298290 0.236449 0.444748
Si Si2 0.873338 0.986145 0.082955
Si Si3 0.345700 0.556075 0.381920
Si Si4 0.963277 0.319479 0.174372
Si Si5 0.375718 0.814458 0.024122
Si Si6 0.104693 0.130756 0.292891
Si Si7 0.327429 0.636798 0.937839
Si Si8 0.844529 0.644038 0.663438
O O1 0.242529 0.105437 0.664412
O O2 0.272491 0.435686 0.448025
O O3 0.212503 0.252013 0.428829
O O4 0.472671 0.145725 0.231872
O O5 0.774702 0.190540 0.079630
O O6 0.955981 0.863005 0.922439
O O7 0.000000 0.000000 0.000000
O O8 0.217243 0.649847 0.602253
O O9 0.389709 0.712960 0.176808
O O10 0.497808 0.428966 0.303299
O O11 0.024973 0.297354 0.235370
O O12 0.000000 0.500000 0.000000
O O13 0.262111 0.017979 0.083784
O O14 0.324011 0.686459 0.056309
O O15 0.131906 0.202153 0.350651
O O16 0.000000 0.000000 0.500000
O O17 0.265231 0.460269 0.086943
O O18 0.000000 0.500000 0.500000
#
# Coordination Sequence:
#
# PCOD8030253 Si02
#       8
#     2   2   2   2   2   2   2   2
#     4  11  23  42  68 102 132 179 224 280 338 401
#     4  12  28  45  68  99 142 182 228 281 336 411
#     4  11  21  43  74 100 139 175 230 283 339 406
#     4  12  26  45  68  99 138 182 227 277 343 405
#     4  11  21  43  72 102 134 174 233 283 340 402
#     4  12  26  42  69 101 135 180 232 283 335 402
#     4  11  23  44  68 100 135 183 223 276 350 403
#     4  12  24  40  69  98 134 177 231 283 332 399
#
# _framework density 20.75178
#
# number of rings (size 3 to 8) (size 9 to 14) (size 15 to 20)
#    0.000    0.500    6.250    3.000    3.500    3.500 
#    2.250    0.625    0.000    0.000    0.000    0.000 
#    0.000    0.000    0.000    0.000    0.000    0.000 
#
# Total GULP energy -198445.730677 kJ/mol
# GULP energy per Si atom -12402.858167 kJ/mol
# Density = 2.070455 g / cm^3
# Si number density = 20.751780 Si / 1000 Ang^3
#
#
#
# Elastic Constant Matrix: (Units=GPa)
#
#
# Indices 1 2 3 4 5 6 
#
# 1 111.0386 38.9316 39.3781 2.3737 -11.3080 -6.1721
# 2 38.9316 96.1964 50.9244 18.0045 -6.1242 -13.4683
# 3 39.3781 50.9244 145.3691 15.0053 -2.1545 -5.6613
# 4 2.3737 18.0045 15.0053 40.3730 -7.3094 -2.6114
# 5 -11.3080 -6.1242 -2.1545 -7.3094 27.9906 -4.3826
# 6 -6.1721 -13.4683 -5.6613 -2.6114 -4.3826 43.2029
#
#
#
# Elastic Compliance Matrix: (Units=1/GPa)
#
#
# Indices 1 2 3 4 5 6 
#
# 1 0.011438 -0.003656 -0.001983 0.002558 0.004468 0.000842
# 2 -0.003656 0.015304 -0.003720 -0.004838 0.000879 0.003558
# 3 -0.001983 -0.003720 0.008864 -0.001825 -0.001494 -0.000543
# 4 0.002558 -0.004838 -0.001825 0.028896 0.007557 0.001131
# 5 0.004468 0.000879 -0.001494 0.007557 0.040408 0.005272
# 6 0.000842 0.003558 -0.000543 0.001131 0.005272 0.024908
#
#
# Mechanical properties :
#
#
# Convention : Reuss Voigt Hill
#
# Bulk Modulus (GPa) = 59.20904 67.89689 63.55297
# Shear Modulus (GPa) = 32.43295 37.20463 34.81879
#
# Velocity S-wave (km/s) = 3.95764 4.23879 4.10063
# Velocity P-wave (km/s) = 7.03405 7.53300 7.28780
#
# Compressibility (1/GPa) = 0.01688931
#
# Stress axis : x y z
#
# Youngs Moduli (GPa) = 87.42788 65.34364 112.81253
#
# Poissons Ratio (x) = 0.23889 0.22368
# Poissons Ratio (y) = 0.31962 0.41964
# Poissons Ratio (z) = 0.17334 0.24306
#
# Static dielectric constant tensor:
#      x y z
#    x 3.677230 -0.070680 -0.053410 
#    y -0.070680 3.649630 0.274030 
#    z -0.053410 0.274030 3.897920 
# 
# 
# High freq. dielectric constant tensor:
#      x y z
#    x 1.804170 -0.011540 -0.008890 
#    y -0.011540 1.817960 0.009210 
#    z -0.008890 0.009210 1.824580 
# 
# From -- ./inp_files/299044.got.cif
#   From: 2010.06.25/outbox.cif.g09.slc.cpg/sg2_150_cif.got.tgz:299044.got - 2010.06.27 13:26:56.
