data_PCOD8030761
_publ_section_title
;
Structure prediction by ZEFSAII (Michael W. Deem and Ramdas Pophale) SiO2 
 PCOD8030761
Probable space group: P -1
;
_chemical_formula_sum "Si O2"
_cell_formula_units_Z 12
_cell_length_a 16.053569
_cell_length_b 9.981147
_cell_length_c 11.280164
_cell_angle_alpha 131.874349
_cell_angle_beta 150.762323
_cell_angle_gamma 34.555213
_cell_volume 492.125338
_symmetry_space_group_name_H-M "P -1"
_symmetry_group_IT_number 2
_symmetry_cell_setting 'triclinic'
loop_
_space_group_symop_operation_xyz
x,y,z
-x,-y,-z
loop_
_atom_site_type_symbol
_atom_site_label
_atom_site_fract_x
_atom_site_fract_y
_atom_site_fract_z
Si Si1 0.203456 0.767532 0.045632
Si Si2 0.769372 0.191897 0.169228
Si Si3 0.857560 0.585663 0.206280
Si Si4 0.959632 0.304415 0.675527
Si Si5 0.434039 0.195234 0.437733
Si Si6 0.362976 0.219107 0.712064
O O1 0.166399 0.774671 0.861238
O O2 0.232296 0.551136 0.011126
O O3 0.427702 0.719987 0.322668
O O4 0.000000 0.000000 0.000000
O O5 0.807970 0.309582 0.390141
O O6 0.506395 0.305158 0.919543
O O7 0.939115 0.904621 0.227652
O O8 0.709611 0.768025 0.236699
O O9 0.826643 0.744097 0.151725
O O10 0.132179 0.390780 0.450788
O O11 0.824074 0.556193 0.725736
O O12 0.500000 0.000000 0.500000
O O13 0.484507 0.062037 0.297607
#
# Coordination Sequence:
#
# PCOD8030761 Si02
#       6
#     2   2   2   2   2   2
#     4  12  23  41  68  99 127 170 220 274 317 380
#     4  11  25  44  68  93 138 175 217 262 335 394
#     4  11  23  41  68  97 133 169 224 268 319 386
#     4  11  25  45  67  97 132 178 214 268 331 391
#     4  12  22  42  67 101 129 170 224 269 323 387
#     4  11  22  40  66  99 128 174 215 274 315 387
#
# _framework density 24.384032000000001
#
# number of rings (size 3 to 8) (size 9 to 14) (size 15 to 20)
#    0.000    0.667    5.000    3.000    0.000    3.333 
#    0.000    2.500    0.000    0.000    0.000    0.000 
#    0.000    0.000    0.000    0.000    0.000    0.000 
#
# Total GULP energy -148787.515582 kJ/mol
# GULP energy per Si atom -12398.959632 kJ/mol
# Density = 2.432853 g / cm^3
# Si number density = 24.384032 Si / 1000 Ang^3
#
#
#
# Elastic Constant Matrix: (Units=GPa)
#
#
# Indices 1 2 3 4 5 6 
#
# 1 101.3129 42.6280 19.7409 5.3086 20.3448 -19.4494
# 2 42.6280 103.8867 0.9210 21.7878 9.6947 -19.0054
# 3 19.7409 0.9210 92.9724 23.9956 22.6751 10.6313
# 4 5.3086 21.7878 23.9956 38.8477 5.6048 9.9827
# 5 20.3448 9.6947 22.6751 5.6048 33.8733 10.0289
# 6 -19.4494 -19.0054 10.6313 9.9827 10.0289 49.6727
#
#
#
# Elastic Compliance Matrix: (Units=1/GPa)
#
#
# Indices 1 2 3 4 5 6 
#
# 1 0.014924 -0.004590 -0.002207 0.001562 -0.008177 0.005896
# 2 -0.004590 0.015534 0.004190 -0.011698 -0.004484 0.006506
# 3 -0.002207 0.004190 0.016129 -0.011028 -0.009252 0.001371
# 4 0.001562 -0.011698 -0.011028 0.040814 0.006288 -0.010976
# 5 -0.008177 -0.004484 -0.009252 0.006288 0.044790 -0.013244
# 6 0.005896 0.006506 0.001371 -0.010976 -0.013244 0.029516
#
#
# Mechanical properties :
#
#
# Convention : Reuss Voigt Hill
#
# Bulk Modulus (GPa) = 24.17038 47.19465 35.68251
# Shear Modulus (GPa) = 27.66831 40.13754 33.90292
#
# Velocity S-wave (km/s) = 3.37217 4.06157 3.73282
# Velocity P-wave (km/s) = 5.00958 6.43365 5.76575
#
# Compressibility (1/GPa) = 0.04137295
#
# Stress axis : x y z
#
# Youngs Moduli (GPa) = 67.00735 64.37408 62.00062
#
# Poissons Ratio (x) = 0.29548 0.13681
# Poissons Ratio (y) = 0.30756 -0.25976
# Poissons Ratio (z) = 0.14785 -0.26970
#
# Static dielectric constant tensor:
#      x y z
#    x 4.738670 -0.141610 0.173400 
#    y -0.141610 2.779940 0.966770 
#    z 0.173400 0.966770 4.595490 
# 
# 
# High freq. dielectric constant tensor:
#      x y z
#    x 1.973380 -0.014200 0.018360 
#    y -0.014200 1.981600 0.018790 
#    z 0.018360 0.018790 1.962440 
# 
# From -- ./inp_files/448262.got.cif
#   From: 2010.06.25/outbox.cif.g09.slc.cpg/sg2_225_cif.got.tgz:448262.got - 2010.06.27 13:26:56.
