data_PCOD8030081
_publ_section_title
;
Structure prediction by ZEFSAII (Michael W. Deem and Ramdas Pophale) SiO2 
 PCOD8030081
Probable space group: P -1
;
_chemical_formula_sum "Si O2"
_cell_formula_units_Z 16
_cell_length_a 8.938088
_cell_length_b 25.522246
_cell_length_c 11.018146
_cell_angle_alpha 34.492760
_cell_angle_beta 135.223520
_cell_angle_gamma 149.078772
_cell_volume 731.381810
_symmetry_space_group_name_H-M "P -1"
_symmetry_group_IT_number 2
_symmetry_cell_setting 'triclinic'
loop_
_space_group_symop_operation_xyz
x,y,z
-x,-y,-z
loop_
_atom_site_type_symbol
_atom_site_label
_atom_site_fract_x
_atom_site_fract_y
_atom_site_fract_z
Si Si1 0.731891 0.734298 0.321893
Si Si2 0.584903 0.746419 0.599671
Si Si3 0.072352 0.053125 0.784875
Si Si4 0.711726 0.464898 0.363598
Si Si5 0.544357 0.200071 0.120501
Si Si6 0.485297 0.023153 0.085842
Si Si7 0.973300 0.261634 0.044859
Si Si8 0.700126 0.208121 0.467206
O O1 0.858344 0.855667 0.242855
O O2 0.511032 0.607435 0.515847
O O3 0.978918 0.734844 0.424937
O O4 0.562124 0.729252 0.118477
O O5 0.727148 0.867173 0.367627
O O6 0.416858 0.618005 0.673671
O O7 0.362055 0.725688 0.605113
O O8 0.856207 0.782388 0.755791
O O9 0.173946 0.979278 0.021631
O O10 0.728031 0.952210 0.752464
O O11 0.000000 0.500000 0.500000
O O12 0.788809 0.593663 0.136474
O O13 0.809024 0.243719 0.106856
O O14 0.666008 0.236543 0.257386
O O15 0.736914 0.172979 0.972934
O O16 0.519687 0.942954 0.344342
O O17 0.500000 0.000000 0.000000
#
# Coordination Sequence:
#
# PCOD8030081 Si02
#       8
#     2   2   2   2   2   2   2   2
#     4  11  23  45  70 101 134 180 234 290 335 408
#     4  11  26  44  68 102 141 178 228 286 343 411
#     4  11  21  42  68 100 137 182 232 280 339 412
#     4  11  23  48  77  94 126 184 247 278 332 410
#     4  12  23  41  67 104 138 178 228 281 345 410
#     4  12  24  41  72 103 141 180 228 285 344 408
#     4  12  25  45  73 100 134 187 235 281 339 412
#     4  12  27  42  68 107 147 176 219 289 356 407
#
# _framework density 21.876397999999998
#
# number of rings (size 3 to 8) (size 9 to 14) (size 15 to 20)
#    0.000    0.500    5.000    4.500    1.750    2.500 
#    0.000    3.125    0.000    0.000    0.000    0.000 
#    0.000    0.000    0.000    0.000    0.000    0.000 
#
# Total GULP energy -198435.070835 kJ/mol
# GULP energy per Si atom -12402.191927 kJ/mol
# Density = 2.182661 g / cm^3
# Si number density = 21.876398 Si / 1000 Ang^3
#
#
#
# Elastic Constant Matrix: (Units=GPa)
#
#
# Indices 1 2 3 4 5 6 
#
# 1 133.0686 38.0611 75.8956 5.8992 -9.3816 21.0409
# 2 38.0611 56.3274 46.6137 -6.8570 -1.6666 11.9442
# 3 75.8956 46.6137 118.3469 14.4115 -6.9258 -4.2075
# 4 5.8992 -6.8570 14.4115 39.7889 8.8457 6.1480
# 5 -9.3816 -1.6666 -6.9258 8.8457 35.4232 14.0826
# 6 21.0409 11.9442 -4.2075 6.1480 14.0826 28.2929
#
#
#
# Elastic Compliance Matrix: (Units=1/GPa)
#
#
# Indices 1 2 3 4 5 6 
#
# 1 0.019738 0.007120 -0.016460 0.005868 0.011706 -0.027234
# 2 0.007120 0.043742 -0.024901 0.019143 0.008561 -0.035886
# 3 -0.016460 -0.024901 0.031571 -0.016722 -0.009399 0.035760
# 4 0.005868 0.019143 -0.016722 0.037357 -0.001221 -0.022442
# 5 0.011706 0.008561 -0.009399 -0.001221 0.044318 -0.035511
# 6 -0.027234 -0.035886 0.035760 -0.022442 -0.035511 0.098617
#
#
# Mechanical properties :
#
#
# Convention : Reuss Voigt Hill
#
# Bulk Modulus (GPa) = 37.63764 69.87599 53.75682
# Shear Modulus (GPa) = 14.17711 30.51251 22.34481
#
# Velocity S-wave (km/s) = 2.54845 3.73871 3.19942
# Velocity P-wave (km/s) = 5.08935 7.11673 6.18666
#
# Compressibility (1/GPa) = 0.02656915
#
# Stress axis : x y z
#
# Youngs Moduli (GPa) = 50.66470 22.86115 31.67485
#
# Poissons Ratio (x) = -0.16277 0.52136
# Poissons Ratio (y) = -0.36073 0.78873
# Poissons Ratio (z) = 0.83393 0.56926
#
# Static dielectric constant tensor:
#      x y z
#    x 3.821780 0.075300 0.147650 
#    y 0.075300 3.591420 0.336670 
#    z 0.147650 0.336670 3.590640 
# 
# 
# High freq. dielectric constant tensor:
#      x y z
#    x 1.861720 0.019660 -0.009090 
#    y 0.019660 1.851280 0.009170 
#    z -0.009090 0.009170 1.873330 
# 
# From -- ./inp_files/306964.got.cif
#   From: 2010.06.25/outbox.cif.g09.slc.cpg/sg2_154_cif.got.tgz:306964.got - 2010.06.27 13:26:56.
