data_PCOD8030797
_publ_section_title
;
Structure prediction by ZEFSAII (Michael W. Deem and Ramdas Pophale) SiO2 
 PCOD8030797
Probable space group: P -1
;
_chemical_formula_sum "Si O2"
_cell_formula_units_Z 16
_cell_length_a 18.066838
_cell_length_b 7.780866
_cell_length_c 11.612952
_cell_angle_alpha 59.866183
_cell_angle_beta 48.833043
_cell_angle_gamma 30.959337
_cell_volume 623.925512
_symmetry_space_group_name_H-M "P -1"
_symmetry_group_IT_number 2
_symmetry_cell_setting 'triclinic'
loop_
_space_group_symop_operation_xyz
x,y,z
-x,-y,-z
loop_
_atom_site_type_symbol
_atom_site_label
_atom_site_fract_x
_atom_site_fract_y
_atom_site_fract_z
Si Si1 0.327732 0.213113 0.336454
Si Si2 0.852700 0.815758 0.829160
Si Si3 0.806611 0.567850 0.362416
Si Si4 0.531287 0.508531 0.335386
Si Si5 0.359322 0.089088 0.815530
Si Si6 0.755468 0.197219 0.591429
Si Si7 0.156505 0.805348 0.834209
Si Si8 0.028428 0.667036 0.330906
O O1 0.247486 0.246244 0.522786
O O2 0.184251 0.509620 0.292589
O O3 0.441402 0.862939 0.276401
O O4 0.440667 0.220537 0.258084
O O5 0.913953 0.543985 0.770649
O O6 0.011750 0.648427 0.788101
O O7 0.764214 0.133907 0.738762
O O8 0.723529 0.953460 0.012731
O O9 0.674767 0.862471 0.303273
O O10 0.818829 0.313098 0.461189
O O11 0.500000 0.500000 0.500000
O O12 0.440375 0.500284 0.346699
O O13 0.732928 0.199350 0.215736
O O14 0.282468 0.419502 0.825471
O O15 0.886485 0.818082 0.519748
O O16 0.091431 0.962212 0.721077
O O17 0.000000 0.000000 0.000000
#
# Coordination Sequence:
#
# PCOD8030797 Si02
#       8
#     2   2   2   2   2   2   2   2
#     4  11  25  43  70  99 135 180 224 280 335 405
#     4  12  25  41  72 101 135 174 229 283 336 397
#     4  12  25  45  69  94 140 186 227 271 334 408
#     4  11  22  40  68  99 134 170 228 279 326 398
#     4  11  25  46  66 103 139 177 222 279 344 400
#     4  12  23  42  68 105 132 179 229 279 333 399
#     4  11  23  41  69 102 136 174 218 281 343 399
#     4  12  22  43  73 101 131 172 234 273 339 393
#
# _framework density 25.644088
#
# number of rings (size 3 to 8) (size 9 to 14) (size 15 to 20)
#    0.000    0.500    6.250    3.000    0.000    1.500 
#    0.000    0.625    0.000    0.000    0.000    0.000 
#    0.000    0.000    0.000    0.000    0.000    0.000 
#
# Total GULP energy -198297.116363 kJ/mol
# GULP energy per Si atom -12393.569773 kJ/mol
# Density = 2.558572 g / cm^3
# Si number density = 25.644088 Si / 1000 Ang^3
#
#
#
# Elastic Constant Matrix: (Units=GPa)
#
#
# Indices 1 2 3 4 5 6 
#
# 1 106.6912 39.1095 25.9102 -6.2340 -21.3256 -54.2028
# 2 39.1095 104.7158 31.3986 1.0706 -12.4861 -50.3074
# 3 25.9102 31.3986 117.6096 4.2199 -20.7985 -31.7694
# 4 -6.2340 1.0706 4.2199 34.9808 -14.3460 -6.4875
# 5 -21.3256 -12.4861 -20.7985 -14.3460 40.0414 15.6830
# 6 -54.2028 -50.3074 -31.7694 -6.4875 15.6830 54.1554
#
#
#
# Elastic Compliance Matrix: (Units=1/GPa)
#
#
# Indices 1 2 3 4 5 6 
#
# 1 0.024702 0.005521 0.002366 0.013251 0.009019 0.030216
# 2 0.005521 0.018711 0.000151 0.005391 0.001720 0.023143
# 3 0.002366 0.000151 0.010791 0.002511 0.004774 0.007756
# 4 0.013251 0.005391 0.002511 0.041133 0.017051 0.019733
# 5 0.009019 0.001720 0.004774 0.017051 0.037046 0.004740
# 6 0.030216 0.023143 0.007756 0.019733 0.004740 0.075748
#
#
# Mechanical properties :
#
#
# Convention : Reuss Voigt Hill
#
# Bulk Modulus (GPa) = 14.22913 57.98368 36.10641
# Shear Modulus (GPa) = 23.20382 41.34208 32.27295
#
# Velocity S-wave (km/s) = 3.01132 4.01951 3.55138
# Velocity P-wave (km/s) = 4.20137 6.64846 5.56118
#
# Compressibility (1/GPa) = 0.07027834
#
# Stress axis : x y z
#
# Youngs Moduli (GPa) = 40.48234 53.44464 92.67370
#
# Poissons Ratio (x) = -0.29507 -0.21923
# Poissons Ratio (y) = -0.22350 -0.01397
# Poissons Ratio (z) = -0.09576 -0.00806
#
# Static dielectric constant tensor:
#      x y z
#    x 4.103980 -0.037790 -0.893030 
#    y -0.037790 4.804000 0.103880 
#    z -0.893030 0.103880 3.782780 
# 
# 
# High freq. dielectric constant tensor:
#      x y z
#    x 2.026930 -0.011700 -0.006120 
#    y -0.011700 2.046720 0.001860 
#    z -0.006120 0.001860 2.008670 
# 
# From -- ./inp_files/393179.got.cif
#   From: 2010.06.25/outbox.cif.g09.slc.cpg/sg2_197_cif.got.tgz:393179.got - 2010.06.27 13:26:56.
