data_PCOD8030493
_publ_section_title
;
Structure prediction by ZEFSAII (Michael W. Deem and Ramdas Pophale) SiO2 
 PCOD8030493
Probable space group: P -1
;
_chemical_formula_sum "Si O2"
_cell_formula_units_Z 12
_cell_length_a 14.034469
_cell_length_b 7.365529
_cell_length_c 8.149986
_cell_angle_alpha 144.207996
_cell_angle_beta 76.425373
_cell_angle_gamma 104.179715
_cell_volume 476.740272
_symmetry_space_group_name_H-M "P -1"
_symmetry_group_IT_number 2
_symmetry_cell_setting 'triclinic'
loop_
_space_group_symop_operation_xyz
x,y,z
-x,-y,-z
loop_
_atom_site_type_symbol
_atom_site_label
_atom_site_fract_x
_atom_site_fract_y
_atom_site_fract_z
Si Si1 0.846758 0.651608 0.126005
Si Si2 0.945211 0.087013 0.831886
Si Si3 0.388012 0.063440 0.103541
Si Si4 0.285012 0.868378 0.340686
Si Si5 0.899270 0.426015 0.390378
Si Si6 0.681778 0.288292 0.443672
O O1 0.935149 0.893990 0.199573
O O2 0.783073 0.845799 0.415951
O O3 0.899719 0.369074 0.971295
O O4 0.774413 0.477825 0.892867
O O5 0.899890 0.756851 0.530052
O O6 0.908143 0.116248 0.054464
O O7 0.381192 0.431867 0.374590
O O8 0.347328 0.911387 0.179116
O O9 0.500000 0.000000 0.000000
O O10 0.328233 0.937040 0.874567
O O11 0.352104 0.868969 0.481688
O O12 0.798237 0.379205 0.497128
O O13 0.000000 0.500000 0.500000
#
# Coordination Sequence:
#
# PCOD8030493 Si02
#       6
#     2   2   2   2   2   2
#     4  11  22  39  63  97 137 186 234 282 336 405
#     4  11  22  36  59  91 138 190 236 274 327 399
#     4  12  28  50  76 104 136 180 236 298 360 418
#     4  12  25  45  71 101 140 178 231 292 353 418
#     4  12  23  38  61  97 143 186 228 276 333 408
#     4  12  26  46  74 106 142 186 232 286 352 414
#
# _framework density 25.170940000000002
#
# number of rings (size 3 to 8) (size 9 to 14) (size 15 to 20)
#    0.000    0.333    0.000   11.000    0.000    4.000 
#    0.000    0.000    0.000    0.000    0.000    0.000 
#    0.000    0.000    0.000    0.000    0.000    0.000 
#
# Total GULP energy -148663.763512 kJ/mol
# GULP energy per Si atom -12388.646959 kJ/mol
# Density = 2.511365 g / cm^3
# Si number density = 25.170940 Si / 1000 Ang^3
#
#
#
# Elastic Constant Matrix: (Units=GPa)
#
#
# Indices 1 2 3 4 5 6 
#
# 1 113.9800 33.1407 21.4423 -20.5939 -16.0207 4.6317
# 2 33.1407 103.4498 30.3551 -34.1679 11.6720 -5.0592
# 3 21.4423 30.3551 114.5619 -13.2582 -1.8545 15.5576
# 4 -20.5939 -34.1679 -13.2582 44.0319 -2.1894 3.0540
# 5 -16.0207 11.6720 -1.8545 -2.1894 35.1218 -7.1027
# 6 4.6317 -5.0592 15.5576 3.0540 -7.1027 29.4569
#
#
#
# Elastic Compliance Matrix: (Units=1/GPa)
#
#
# Indices 1 2 3 4 5 6 
#
# 1 0.011260 -0.003148 -0.000730 0.002963 0.006178 -0.000743
# 2 -0.003148 0.015239 -0.002802 0.009071 -0.005618 0.002297
# 3 -0.000730 -0.002802 0.010555 0.001083 -0.000001 -0.006054
# 4 0.002963 0.009071 0.001083 0.031646 -0.000201 -0.002809
# 5 0.006178 -0.005618 -0.000001 -0.000201 0.034437 0.006389
# 6 -0.000743 0.002297 -0.006054 -0.002809 0.006389 0.039488
#
#
# Mechanical properties :
#
#
# Convention : Reuss Voigt Hill
#
# Bulk Modulus (GPa) = 42.20187 55.76309 48.98248
# Shear Modulus (GPa) = 30.50957 38.19236 34.35096
#
# Velocity S-wave (km/s) = 3.48529 3.89950 3.69820
# Velocity P-wave (km/s) = 5.74446 6.51741 6.14311
#
# Compressibility (1/GPa) = 0.02369563
#
# Stress axis : x y z
#
# Youngs Moduli (GPa) = 88.81076 65.61966 94.73980
#
# Poissons Ratio (x) = 0.20657 0.06912
# Poissons Ratio (y) = 0.27958 0.26544
# Poissons Ratio (z) = 0.06479 0.18385
#
# Static dielectric constant tensor:
#      x y z
#    x 4.483470 -0.028100 0.210370 
#    y -0.028100 4.937210 0.607020 
#    z 0.210370 0.607020 6.369180 
# 
# 
# High freq. dielectric constant tensor:
#      x y z
#    x 1.992710 -0.023230 -0.007590 
#    y -0.023230 2.000630 0.002310 
#    z -0.007590 0.002310 2.031500 
# 
# From -- ./inp_files/34809.got.cif
#   From: 2010.06.25/outbox.cif.g09.slc.cpg/sg2_18_cif.got.tgz:34809.got - 2010.06.27 13:26:56.
