data_PCOD8030520
_publ_section_title
;
Structure prediction by ZEFSAII (Michael W. Deem and Ramdas Pophale) SiO2 
 PCOD8030520
Probable space group: P -1
;
_chemical_formula_sum "Si O2"
_cell_formula_units_Z 14
_cell_length_a 14.916761
_cell_length_b 13.861329
_cell_length_c 15.344397
_cell_angle_alpha 136.771590
_cell_angle_beta 161.340826
_cell_angle_gamma 50.867448
_cell_volume 669.363406
_symmetry_space_group_name_H-M "P -1"
_symmetry_group_IT_number 2
_symmetry_cell_setting 'triclinic'
loop_
_space_group_symop_operation_xyz
x,y,z
-x,-y,-z
loop_
_atom_site_type_symbol
_atom_site_label
_atom_site_fract_x
_atom_site_fract_y
_atom_site_fract_z
Si Si1 0.708426 0.817380 0.433751
Si Si2 0.984998 0.601800 0.189963
Si Si3 0.613013 0.431046 0.315841
Si Si4 0.183728 0.375870 0.129316
Si Si5 0.169104 0.655020 0.719673
Si Si6 0.342620 0.239048 0.446875
Si Si7 0.901089 0.146598 0.845204
O O1 0.674617 0.788502 0.485521
O O2 0.971874 0.765339 0.601924
O O3 0.751238 0.987263 0.562948
O O4 0.420043 0.721369 0.061660
O O5 0.280982 0.637116 0.543091
O O6 0.946938 0.447901 0.003139
O O7 0.735097 0.605726 0.031083
O O8 0.944362 0.697647 0.130877
O O9 0.710697 0.360085 0.275064
O O10 0.725703 0.606213 0.535961
O O11 0.500000 0.500000 0.500000
O O12 0.159463 0.236040 0.076981
O O13 0.000000 0.500000 0.500000
O O14 0.653016 0.228417 0.690533
O O15 0.073089 0.123264 0.075844
#
# Coordination Sequence:
#
# PCOD8030520 Si02
#       7
#     2   2   2   2   2   2   2
#     4  12  26  44  63  96 134 177 214 255 323 383
#     4  11  22  37  60  98 123 161 207 264 323 371
#     4  12  22  39  65  92 130 161 218 266 313 363
#     4  11  22  39  64  99 131 162 211 260 334 383
#     4  12  26  44  67  91 127 178 226 265 297 372
#     4  12  22  39  65  98 132 172 204 257 333 389
#     4  12  25  41  65  97 140 168 202 266 332 399
#
# _framework density 20.915393999999999
#
# number of rings (size 3 to 8) (size 9 to 14) (size 15 to 20)
#    0.000    0.286    5.714    3.857    4.000    0.000 
#    0.000    0.000    0.000    5.143    0.000    0.000 
#    0.000    0.000    0.000    0.000    0.000    0.000 
#
# Total GULP energy -173462.274204 kJ/mol
# GULP energy per Si atom -12390.162443 kJ/mol
# Density = 2.086779 g / cm^3
# Si number density = 20.915394 Si / 1000 Ang^3
#
#
#
# Elastic Constant Matrix: (Units=GPa)
#
#
# Indices 1 2 3 4 5 6 
#
# 1 129.6080 59.9256 45.4900 0.8668 -7.6492 -8.7176
# 2 59.9256 88.7464 47.2152 -4.8089 2.3105 -7.2549
# 3 45.4900 47.2152 129.9746 -5.2959 -5.3964 7.6052
# 4 0.8668 -4.8089 -5.2959 30.7793 -2.6742 -1.8235
# 5 -7.6492 2.3105 -5.3964 -2.6742 32.2478 -14.9638
# 6 -8.7176 -7.2549 7.6052 -1.8235 -14.9638 29.2817
#
#
#
# Elastic Compliance Matrix: (Units=1/GPa)
#
#
# Indices 1 2 3 4 5 6 
#
# 1 0.012320 -0.007121 -0.001839 -0.001006 0.005397 0.005077
# 2 -0.007121 0.018893 -0.004531 0.002325 -0.002368 0.002673
# 3 -0.001839 -0.004531 0.010262 0.000807 -0.000414 -0.004497
# 4 -0.001006 0.002325 0.000807 0.033690 0.004625 0.004528
# 5 0.005397 -0.002368 -0.000414 0.004625 0.043822 0.023810
# 6 0.005077 0.002673 -0.004497 0.004528 0.023810 0.049942
#
#
# Mechanical properties :
#
#
# Convention : Reuss Voigt Hill
#
# Bulk Modulus (GPa) = 68.99524 72.62119 70.80821
# Shear Modulus (GPa) = 24.90751 31.50830 28.20790
#
# Velocity S-wave (km/s) = 3.45464 3.88553 3.67640
# Velocity P-wave (km/s) = 6.99801 7.41125 7.20759
#
# Compressibility (1/GPa) = 0.01449375
#
# Stress axis : x y z
#
# Youngs Moduli (GPa) = 81.16806 52.92992 97.44411
#
# Poissons Ratio (x) = 0.37689 0.17922
# Poissons Ratio (y) = 0.57797 0.44151
# Poissons Ratio (z) = 0.14929 0.23982
#
# Static dielectric constant tensor:
#      x y z
#    x 4.096880 0.009480 -0.058570 
#    y 0.009480 3.903640 -0.186700 
#    z -0.058570 -0.186700 3.699970 
# 
# 
# High freq. dielectric constant tensor:
#      x y z
#    x 1.833990 -0.002590 -0.004830 
#    y -0.002590 1.802940 -0.033460 
#    z -0.004830 -0.033460 1.813320 
# 
# From -- ./inp_files/533877.got.cif
#   From: 2010.06.25/outbox.cif.g09.slc.cpg/sg2_267_cif.got.tgz:533877.got - 2010.06.27 13:26:56.
