data_PCOD8030916
_publ_section_title
;
Structure prediction by ZEFSAII (Michael W. Deem and Ramdas Pophale) SiO2 
 PCOD8030916
Probable space group: P -1
;
_chemical_formula_sum "Si O2"
_cell_formula_units_Z 16
_cell_length_a 12.103931
_cell_length_b 9.645323
_cell_length_c 11.730257
_cell_angle_alpha 47.940291
_cell_angle_beta 53.018351
_cell_angle_gamma 80.360995
_cell_volume 745.409481
_symmetry_space_group_name_H-M "P -1"
_symmetry_group_IT_number 2
_symmetry_cell_setting 'triclinic'
loop_
_space_group_symop_operation_xyz
x,y,z
-x,-y,-z
loop_
_atom_site_type_symbol
_atom_site_label
_atom_site_fract_x
_atom_site_fract_y
_atom_site_fract_z
Si Si1 0.690434 0.029563 0.261216
Si Si2 0.620273 0.337200 0.283389
Si Si3 0.152497 0.236706 0.672867
Si Si4 0.340518 0.895320 0.211717
Si Si5 0.174631 0.779046 0.147463
Si Si6 0.345110 0.535489 0.565075
Si Si7 0.714911 0.536897 0.756740
Si Si8 0.378756 0.297181 0.073056
O O1 0.544434 0.829982 0.492258
O O2 0.837377 0.982481 0.223849
O O3 0.704845 0.228327 0.214308
O O4 0.695476 0.068385 0.100282
O O5 0.707327 0.424390 0.299230
O O6 0.615699 0.530057 0.114392
O O7 0.217182 0.333994 0.702139
O O8 0.262177 0.377189 0.431361
O O9 0.981047 0.200476 0.785109
O O10 0.216739 0.805472 0.239615
O O11 0.351993 0.724436 0.380457
O O12 0.500000 0.000000 0.000000
O O13 0.299675 0.066904 0.205463
O O14 0.158133 0.551669 0.247840
O O15 0.500000 0.500000 0.500000
O O16 0.551480 0.347630 0.972426
O O17 0.721311 0.704619 0.753200
#
# Coordination Sequence:
#
# PCOD8030916 Si02
#       8
#     2   2   2   2   2   2   2   2
#     4  11  24  42  67  98 128 176 219 268 327 386
#     4  11  23  41  67  96 134 165 219 276 326 377
#     4  12  25  44  68  94 136 176 214 265 330 390
#     4  12  24  40  67  99 129 169 223 271 320 381
#     4  12  25  45  66  96 133 175 221 264 320 399
#     4  12  24  41  65 100 131 170 217 272 325 383
#     4  11  22  41  67  94 128 173 218 264 328 382
#     4  11  23  40  68  99 131 167 218 279 320 377
#
# _framework density 21.46471
#
# number of rings (size 3 to 8) (size 9 to 14) (size 15 to 20)
#    0.000    0.500    6.250    2.250    3.500    0.000 
#    0.000    2.500    0.000    0.000    0.000    0.000 
#    0.000    0.000    0.000    0.000    0.000    0.000 
#
# Total GULP energy -198324.706693 kJ/mol
# GULP energy per Si atom -12395.294168 kJ/mol
# Density = 2.141586 g / cm^3
# Si number density = 21.464710 Si / 1000 Ang^3
#
#
#
# Elastic Constant Matrix: (Units=GPa)
#
#
# Indices 1 2 3 4 5 6 
#
# 1 132.3789 74.1166 34.8738 5.8837 13.2749 -10.0652
# 2 74.1166 181.0408 45.5710 2.8374 10.5945 -11.9022
# 3 34.8738 45.5710 57.5839 2.6583 17.1108 2.3522
# 4 5.8837 2.8374 2.6583 31.8613 -1.4539 14.2192
# 5 13.2749 10.5945 17.1108 -1.4539 28.7800 -3.1882
# 6 -10.0652 -11.9022 2.3522 14.2192 -3.1882 38.2903
#
#
#
# Elastic Compliance Matrix: (Units=1/GPa)
#
#
# Indices 1 2 3 4 5 6 
#
# 1 0.010777 -0.003192 -0.003547 -0.002807 -0.001499 0.002976
# 2 -0.003192 0.008192 -0.005134 -0.000719 0.001742 0.002435
# 3 -0.003547 -0.005134 0.027817 0.000680 -0.013600 -0.005622
# 4 -0.002807 -0.000719 0.000680 0.038802 0.001421 -0.015294
# 5 -0.001499 0.001742 -0.013600 0.001421 0.043405 0.004069
# 6 0.002976 0.002435 -0.005622 -0.015294 0.004069 0.034019
#
#
# Mechanical properties :
#
#
# Convention : Reuss Voigt Hill
#
# Bulk Modulus (GPa) = 43.40374 75.56961 59.48667
# Shear Modulus (GPa) = 25.71518 34.21580 29.96549
#
# Velocity S-wave (km/s) = 3.46500 3.99689 3.74041
# Velocity P-wave (km/s) = 6.02272 7.52217 6.81382
#
# Compressibility (1/GPa) = 0.02303949
#
# Stress axis : x y z
#
# Youngs Moduli (GPa) = 92.79102 122.07065 35.94928
#
# Poissons Ratio (x) = 0.38961 0.12753
# Poissons Ratio (y) = 0.29616 0.18457
# Poissons Ratio (z) = 0.32917 0.62672
#
# Static dielectric constant tensor:
#      x y z
#    x 4.105890 0.205870 0.459420 
#    y 0.205870 4.626050 0.145320 
#    z 0.459420 0.145320 3.779100 
# 
# 
# High freq. dielectric constant tensor:
#      x y z
#    x 1.828830 -0.013350 0.036970 
#    y -0.013350 1.866960 0.002350 
#    z 0.036970 0.002350 1.828360 
# 
# From -- ./inp_files/261645.got.cif
#   From: 2010.06.25/outbox.cif.g09.slc.cpg/sg2_131_cif.got.tgz:261645.got - 2010.06.27 13:26:56.
