data_PCOD8030811
_publ_section_title
;
Structure prediction by ZEFSAII (Michael W. Deem and Ramdas Pophale) SiO2 
 PCOD8030811
Probable space group: P -1
;
_chemical_formula_sum "Si O2"
_cell_formula_units_Z 16
_cell_length_a 11.373222
_cell_length_b 17.114797
_cell_length_c 5.175362
_cell_angle_alpha 118.928227
_cell_angle_beta 126.460615
_cell_angle_gamma 54.820346
_cell_volume 646.735750
_symmetry_space_group_name_H-M "P -1"
_symmetry_group_IT_number 2
_symmetry_cell_setting 'triclinic'
loop_
_space_group_symop_operation_xyz
x,y,z
-x,-y,-z
loop_
_atom_site_type_symbol
_atom_site_label
_atom_site_fract_x
_atom_site_fract_y
_atom_site_fract_z
Si Si1 0.339187 0.766436 0.527058
Si Si2 0.409007 0.257570 0.811102
Si Si3 0.610745 0.049799 0.621435
Si Si4 0.022626 0.816299 0.393017
Si Si5 0.201935 0.976267 0.652055
Si Si6 0.939863 0.732901 0.637484
Si Si7 0.086310 0.517450 0.389001
Si Si8 0.551560 0.588677 0.218341
O O1 0.223156 0.868796 0.397057
O O2 0.397697 0.669034 0.284465
O O3 0.215835 0.758939 0.572069
O O4 0.499173 0.776424 0.851712
O O5 0.503362 0.165349 0.597826
O O6 0.225063 0.279390 0.623543
O O7 0.431496 0.357446 0.934972
O O8 0.690353 0.995648 0.371476
O O9 0.500000 0.000000 0.500000
O O10 0.740569 0.035107 0.994081
O O11 0.946253 0.808683 0.554010
O O12 0.973681 0.932977 0.455232
O O13 0.955715 0.769256 0.002041
O O14 0.077556 0.626911 0.577560
O O15 0.273203 0.445214 0.477871
O O16 0.000000 0.500000 0.500000
O O17 0.000000 0.500000 0.000000
O O18 0.500000 0.500000 0.000000
#
# Coordination Sequence:
#
# PCOD8030811 Si02
#       8
#     2   2   2   2   2   2   2   2
#     4  11  27  47  72 105 151 188 246 298 363 436
#     4  11  25  46  71 106 147 191 237 304 363 429
#     4  11  22  40  69 105 146 185 240 290 358 429
#     4  12  27  46  75 108 148 193 242 295 363 436
#     4  11  23  43  68 104 142 194 233 293 357 431
#     4  12  27  48  74 108 148 186 246 301 360 436
#     4  12  26  49  77 106 143 192 244 300 366 428
#     4  12  27  48  75 105 146 194 244 304 368 430
#
# _framework density 24.739626000000001
#
# number of rings (size 3 to 8) (size 9 to 14) (size 15 to 20)
#    0.000    0.500    2.500    5.250    5.250    1.500 
#    0.000    3.125    0.000    0.000    0.000    0.000 
#    0.000    0.000    0.000    0.000    0.000    0.000 
#
# Total GULP energy -198233.303135 kJ/mol
# GULP energy per Si atom -12389.581446 kJ/mol
# Density = 2.468332 g / cm^3
# Si number density = 24.739626 Si / 1000 Ang^3
#
#
#
# Elastic Constant Matrix: (Units=GPa)
#
#
# Indices 1 2 3 4 5 6 
#
# 1 106.0452 30.5147 26.2334 -11.6932 4.1088 -16.2706
# 2 30.5147 165.2069 20.9902 7.1866 9.2361 -8.3407
# 3 26.2334 20.9902 87.6950 -3.6947 2.2980 -1.9617
# 4 -11.6932 7.1866 -3.6947 36.4494 0.6091 3.1636
# 5 4.1088 9.2361 2.2980 0.6091 43.0731 -2.1716
# 6 -16.2706 -8.3407 -1.9617 3.1636 -2.1716 40.8467
#
#
#
# Elastic Compliance Matrix: (Units=1/GPa)
#
#
# Indices 1 2 3 4 5 6 
#
# 1 0.011609 -0.001717 -0.002819 0.003451 -0.000444 0.003848
# 2 -0.001717 0.006703 -0.001130 -0.002031 -0.001148 0.000727
# 3 -0.002819 -0.001130 0.012532 0.000663 -0.000208 -0.000814
# 4 0.003451 -0.002031 0.000663 0.029128 -0.000406 -0.001286
# 5 -0.000444 -0.001148 -0.000208 -0.000406 0.023565 0.000863
# 6 0.003848 0.000727 -0.000814 -0.001286 0.000863 0.026269
#
#
# Mechanical properties :
#
#
# Convention : Reuss Voigt Hill
#
# Bulk Modulus (GPa) = 51.24921 57.15820 54.20370
# Shear Modulus (GPa) = 39.17175 42.82110 40.99642
#
# Velocity S-wave (km/s) = 3.98346 4.16489 4.07518
# Velocity P-wave (km/s) = 6.47439 6.80312 6.64079
#
# Compressibility (1/GPa) = 0.01951250
#
# Stress axis : x y z
#
# Youngs Moduli (GPa) = 86.13705 149.18769 79.79575
#
# Poissons Ratio (x) = 0.25619 0.22493
# Poissons Ratio (y) = 0.14792 0.09016
# Poissons Ratio (z) = 0.24280 0.16857
#
# Static dielectric constant tensor:
#      x y z
#    x 5.127050 -0.404980 0.336670 
#    y -0.404980 5.224010 -0.139810 
#    z 0.336670 -0.139810 4.351150 
# 
# 
# High freq. dielectric constant tensor:
#      x y z
#    x 2.001040 -0.008340 0.008970 
#    y -0.008340 2.012640 -0.000740 
#    z 0.008970 -0.000740 1.962060 
# 
# From -- ./inp_files/81641.got.cif
#   From: 2010.06.25/outbox.cif.g09.slc.cpg/sg2_41_cif.got.tgz:81641.got - 2010.06.27 13:26:56.
