data_PCOD8030201
_publ_section_title
;
Structure prediction by ZEFSAII (Michael W. Deem and Ramdas Pophale) SiO2 
 PCOD8030201
Probable space group: P -1
;
_chemical_formula_sum "Si O2"
_cell_formula_units_Z 16
_cell_length_a 11.906956
_cell_length_b 9.017262
_cell_length_c 14.772738
_cell_angle_alpha 79.593368
_cell_angle_beta 29.718633
_cell_angle_gamma 67.291951
_cell_volume 682.632628
_symmetry_space_group_name_H-M "P -1"
_symmetry_group_IT_number 2
_symmetry_cell_setting 'triclinic'
loop_
_space_group_symop_operation_xyz
x,y,z
-x,-y,-z
loop_
_atom_site_type_symbol
_atom_site_label
_atom_site_fract_x
_atom_site_fract_y
_atom_site_fract_z
Si Si1 0.722014 0.081886 0.923820
Si Si2 0.614051 0.832456 0.119937
Si Si3 0.947285 0.171139 0.066760
Si Si4 0.500159 0.818820 0.509321
Si Si5 0.267910 0.799482 0.501369
Si Si6 0.375105 0.666353 0.884556
Si Si7 0.201200 0.473229 0.537598
Si Si8 0.339189 0.386698 0.044278
O O1 0.741231 0.152740 0.001913
O O2 0.587428 0.228466 0.928522
O O3 0.000070 0.950734 0.706197
O O4 0.554278 0.984994 0.073072
O O5 0.346711 0.855304 0.345791
O O6 0.743938 0.660816 0.988043
O O7 0.808989 0.822391 0.062982
O O8 0.749908 0.192834 0.280994
O O9 0.819853 0.318622 0.062018
O O10 0.000000 0.000000 0.000000
O O11 0.500310 0.774809 0.408606
O O12 0.739478 0.672371 0.411480
O O13 0.500000 0.000000 0.500000
O O14 0.265919 0.620738 0.510186
O O15 0.650678 0.613028 0.649711
O O16 0.413831 0.533900 0.952116
O O17 0.895782 0.552055 0.726800
#
# Coordination Sequence:
#
# PCOD8030201 Si02
#       8
#     2   2   2   2   2   2   2   2
#     4  12  27  48  72 103 146 187 244 289 342 433
#     4  12  25  43  74 105 138 191 235 293 353 411
#     4  11  21  43  69 103 146 171 235 296 347 426
#     4  11  24  41  70 106 143 183 232 290 360 421
#     4  12  25  45  70 104 141 189 233 292 357 413
#     4  11  26  47  70 106 142 185 231 297 362 414
#     4  11  26  45  70 104 146 179 236 296 350 425
#     4  12  27  47  72 103 144 191 237 290 354 419
#
# _framework density 23.438668
#
# number of rings (size 3 to 8) (size 9 to 14) (size 15 to 20)
#    0.000    0.500    5.000    1.875    7.000    3.500 
#    0.000    0.000    0.000    0.000    0.000    0.000 
#    0.000    0.000    0.000    0.000    0.000    0.000 
#
# Total GULP energy -198337.033864 kJ/mol
# GULP energy per Si atom -12396.064617 kJ/mol
# Density = 2.338532 g / cm^3
# Si number density = 23.438668 Si / 1000 Ang^3
#
#
#
# Elastic Constant Matrix: (Units=GPa)
#
#
# Indices 1 2 3 4 5 6 
#
# 1 46.7195 11.3319 31.0913 2.6140 4.6280 -3.5369
# 2 11.3319 114.7540 52.7997 -8.5962 4.4536 -10.8853
# 3 31.0913 52.7997 122.6077 2.1109 19.7350 -6.9972
# 4 2.6140 -8.5962 2.1109 42.2609 -0.9391 7.6501
# 5 4.6280 4.4536 19.7350 -0.9391 27.7918 2.8465
# 6 -3.5369 -10.8853 -6.9972 7.6501 2.8465 42.7363
#
#
#
# Elastic Compliance Matrix: (Units=1/GPa)
#
#
# Indices 1 2 3 4 5 6 
#
# 1 0.025921 0.000564 -0.006741 -0.001406 0.000186 0.001425
# 2 0.000564 0.011326 -0.005251 0.002290 0.001739 0.001546
# 3 -0.006741 -0.005251 0.013473 -0.001702 -0.007776 0.001133
# 4 -0.001406 0.002290 -0.001702 0.025163 0.002384 -0.004475
# 5 0.000186 0.001739 -0.007776 0.002384 0.041686 -0.004018
# 6 0.001425 0.001546 0.001133 -0.004475 -0.004018 0.025165
#
#
# Mechanical properties :
#
#
# Convention : Reuss Voigt Hill
#
# Bulk Modulus (GPa) = 35.88891 52.72523 44.30707
# Shear Modulus (GPa) = 28.59138 35.14835 31.86987
#
# Velocity S-wave (km/s) = 3.49641 3.87665 3.69143
# Velocity P-wave (km/s) = 5.62538 6.52547 6.09207
#
# Compressibility (1/GPa) = 0.02786376
#
# Stress axis : x y z
#
# Youngs Moduli (GPa) = 38.57821 88.29626 74.22469
#
# Poissons Ratio (x) = -0.04983 0.50033
# Poissons Ratio (y) = -0.02177 0.38979
# Poissons Ratio (z) = 0.26005 0.46369
#
# Static dielectric constant tensor:
#      x y z
#    x 4.170280 -0.006980 0.308180 
#    y -0.006980 4.400640 0.054230 
#    z 0.308180 0.054230 4.208620 
# 
# 
# High freq. dielectric constant tensor:
#      x y z
#    x 1.923500 -0.001930 0.019010 
#    y -0.001930 1.939650 -0.003060 
#    z 0.019010 -0.003060 1.931270 
# 
# From -- ./inp_files/515489.got.cif
#   From: 2010.06.25/outbox.cif.g09.slc.cpg/sg2_258_cif.got.tgz:515489.got - 2010.06.27 13:26:56.
