data_PCOD8030206
_publ_section_title
;
Structure prediction by ZEFSAII (Michael W. Deem and Ramdas Pophale) SiO2 
 PCOD8030206
Probable space group: P -1
;
_chemical_formula_sum "Si O2"
_cell_formula_units_Z 14
_cell_length_a 13.788467
_cell_length_b 26.008432
_cell_length_c 14.855512
_cell_angle_alpha 20.441271
_cell_angle_beta 28.968088
_cell_angle_gamma 20.238005
_cell_volume 643.209976
_symmetry_space_group_name_H-M "P -1"
_symmetry_group_IT_number 2
_symmetry_cell_setting 'triclinic'
loop_
_space_group_symop_operation_xyz
x,y,z
-x,-y,-z
loop_
_atom_site_type_symbol
_atom_site_label
_atom_site_fract_x
_atom_site_fract_y
_atom_site_fract_z
Si Si1 0.930273 0.810403 0.244911
Si Si2 0.370370 0.927493 0.771945
Si Si3 0.249331 0.879895 0.608960
Si Si4 0.509032 0.532949 0.333001
Si Si5 0.858128 0.549361 0.631256
Si Si6 0.994355 0.063781 0.691816
Si Si7 0.209202 0.105375 0.110239
O O1 0.228468 0.635339 0.339391
O O2 0.840142 0.704688 0.448885
O O3 0.701780 0.984107 0.215480
O O4 0.909088 0.935685 0.973238
O O5 0.500000 0.000000 0.500000
O O6 0.095442 0.033928 0.761788
O O7 0.564739 0.679898 0.029320
O O8 0.540055 0.648117 0.726542
O O9 0.977096 0.915572 0.760794
O O10 0.238325 0.948691 0.607125
O O11 0.253745 0.019652 0.313084
O O12 0.500000 0.500000 0.500000
O O13 0.755400 0.305350 0.464056
O O14 0.000000 0.500000 0.500000
O O15 0.041009 0.339878 0.880377
O O16 0.500000 0.000000 0.000000
#
# Coordination Sequence:
#
# PCOD8030206 Si02
#       7
#     2   2   2   2   2   2   2
#     4  11  24  40  69  99 136 181 236 285 345 427
#     4  11  23  42  63  99 141 173 234 287 341 430
#     4  11  26  44  72 103 139 181 232 296 348 420
#     4  11  21  43  69  94 133 189 228 282 354 412
#     4  12  25  45  72 100 139 187 230 289 361 408
#     4  11  23  42  68 101 135 177 232 285 351 417
#     4  11  25  47  70 102 139 178 240 289 347 426
#
# _framework density 21.765832
#
# number of rings (size 3 to 8) (size 9 to 14) (size 15 to 20)
#    0.000    0.857    4.286    3.000    2.000    4.000 
#    2.571    0.000    0.000    0.000    0.000    0.000 
#    0.000    0.000    0.000    0.000    0.000    0.000 
#
# Total GULP energy -173488.013583 kJ/mol
# GULP energy per Si atom -12392.000970 kJ/mol
# Density = 2.171629 g / cm^3
# Si number density = 21.765832 Si / 1000 Ang^3
#
#
#
# Elastic Constant Matrix: (Units=GPa)
#
#
# Indices 1 2 3 4 5 6 
#
# 1 72.4429 34.3786 34.2555 4.1982 3.3795 11.4856
# 2 34.3786 150.5611 63.9138 -1.5884 9.0080 4.4169
# 3 34.2555 63.9138 178.0245 -9.8203 1.9927 -5.9389
# 4 4.1982 -1.5884 -9.8203 46.6366 -1.9911 4.4878
# 5 3.3795 9.0080 1.9927 -1.9911 28.4805 3.8463
# 6 11.4856 4.4169 -5.9389 4.4878 3.8463 35.2770
#
#
#
# Elastic Compliance Matrix: (Units=1/GPa)
#
#
# Indices 1 2 3 4 5 6 
#
# 1 0.017305 -0.002661 -0.002647 -0.001695 -0.000404 -0.005487
# 2 -0.002661 0.008455 -0.002515 -0.000057 -0.002136 -0.000376
# 3 -0.002647 -0.002515 0.007178 0.001475 0.000420 0.002152
# 4 -0.001695 -0.000057 0.001475 0.022202 0.001970 -0.002232
# 5 -0.000404 -0.002136 0.000420 0.001970 0.036451 -0.003755
# 6 -0.005487 -0.000376 0.002152 -0.002232 -0.003755 0.031236
#
#
# Mechanical properties :
#
#
# Convention : Reuss Voigt Hill
#
# Bulk Modulus (GPa) = 57.82669 74.01383 65.92026
# Shear Modulus (GPa) = 34.66501 39.97753 37.32127
#
# Velocity S-wave (km/s) = 3.99511 4.29034 4.14535
# Velocity P-wave (km/s) = 6.92146 7.65644 7.29821
#
# Compressibility (1/GPa) = 0.01729305
#
# Stress axis : x y z
#
# Youngs Moduli (GPa) = 57.78627 118.26814 139.31442
#
# Poissons Ratio (x) = 0.31466 0.36872
# Poissons Ratio (y) = 0.15375 0.35044
# Poissons Ratio (z) = 0.15294 0.29750
#
# Static dielectric constant tensor:
#      x y z
#    x 2.672980 -2.078360 -1.162200 
#    y -2.078360 1.664620 -1.161210 
#    z -1.162200 -1.161210 4.045610 
# 
# 
# High freq. dielectric constant tensor:
#      x y z
#    x 1.851770 0.006490 0.005490 
#    y 0.006490 1.854760 -0.000960 
#    z 0.005490 -0.000960 1.878640 
# 
# From -- ./inp_files/535592.got.cif
#   From: 2010.06.25/outbox.cif.g09.slc.cpg/sg2_268_cif.got.tgz:535592.got - 2010.06.27 13:26:56.
