data_PCOD8030687
_publ_section_title
;
Structure prediction by ZEFSAII (Michael W. Deem and Ramdas Pophale) SiO2 
 PCOD8030687
Probable space group: P -1
;
_chemical_formula_sum "Si O2"
_cell_formula_units_Z 16
_cell_length_a 16.928981
_cell_length_b 21.049376
_cell_length_c 9.583437
_cell_angle_alpha 42.879360
_cell_angle_beta 42.391933
_cell_angle_gamma 18.630817
_cell_volume 726.889698
_symmetry_space_group_name_H-M "P -1"
_symmetry_group_IT_number 2
_symmetry_cell_setting 'triclinic'
loop_
_space_group_symop_operation_xyz
x,y,z
-x,-y,-z
loop_
_atom_site_type_symbol
_atom_site_label
_atom_site_fract_x
_atom_site_fract_y
_atom_site_fract_z
Si Si1 0.478054 0.749885 0.067521
Si Si2 0.781728 0.723525 0.973416
Si Si3 0.668192 0.189269 0.255598
Si Si4 0.019258 0.107850 0.906622
Si Si5 0.906639 0.389486 0.717367
Si Si6 0.685845 0.807207 0.660057
Si Si7 0.343866 0.898961 0.300928
Si Si8 0.973593 0.312416 0.065888
O O1 0.604667 0.757085 0.839800
O O2 0.213061 0.921880 0.060318
O O3 0.432806 0.778500 0.244916
O O4 0.672026 0.529382 0.133668
O O5 0.686772 0.841611 0.764788
O O6 0.883783 0.721526 0.958029
O O7 0.548591 0.834775 0.170310
O O8 0.000000 0.500000 0.000000
O O9 0.387265 0.380310 0.252691
O O10 0.672599 0.163039 0.454523
O O11 0.848026 0.988940 0.262596
O O12 0.764653 0.226764 0.047819
O O13 0.950778 0.261137 0.786604
O O14 0.036275 0.378753 0.472154
O O15 0.038211 0.293310 0.852238
O O16 0.500000 0.000000 0.500000
O O17 0.070564 0.138894 0.244446
#
# Coordination Sequence:
#
# PCOD8030687 Si02
#       8
#     2   2   2   2   2   2   2   2
#     4  11  23  44  65  95 143 167 209 277 326 391
#     4  11  22  42  63  94 142 174 206 269 325 389
#     4  11  27  43  72  97 123 178 225 276 331 381
#     4  11  24  49  66  94 137 165 225 285 322 384
#     4  12  24  43  70  98 132 176 221 263 336 399
#     4  11  22  39  69 100 134 175 208 268 329 385
#     4  11  24  43  65  98 129 174 221 265 326 396
#     4  12  24  41  66  95 134 180 211 260 337 386
#
# _framework density 22.011593000000001
#
# number of rings (size 3 to 8) (size 9 to 14) (size 15 to 20)
#    0.000    0.750    6.250    2.250    1.750    2.000 
#    0.000    0.625    0.000    0.000    0.000    0.000 
#    0.000    0.000    0.000    0.000    0.000    0.000 
#
# Total GULP energy -198450.204355 kJ/mol
# GULP energy per Si atom -12403.137772 kJ/mol
# Density = 2.196149 g / cm^3
# Si number density = 22.011593 Si / 1000 Ang^3
#
#
#
# Elastic Constant Matrix: (Units=GPa)
#
#
# Indices 1 2 3 4 5 6 
#
# 1 82.0315 8.6785 34.2287 13.6794 15.0400 3.1663
# 2 8.6785 104.2593 38.3502 3.7782 -3.4526 0.4470
# 3 34.2287 38.3502 101.5042 12.2425 23.7419 0.4002
# 4 13.6794 3.7782 12.2425 30.5999 -2.2891 0.7549
# 5 15.0400 -3.4526 23.7419 -2.2891 23.7183 3.9128
# 6 3.1663 0.4470 0.4002 0.7549 3.9128 43.0279
#
#
#
# Elastic Compliance Matrix: (Units=1/GPa)
#
#
# Indices 1 2 3 4 5 6 
#
# 1 0.015907 -0.000459 -0.002437 -0.006695 -0.008316 -0.000269
# 2 -0.000459 0.012460 -0.007045 0.002221 0.009526 -0.000935
# 3 -0.002437 -0.007045 0.018646 -0.006981 -0.019139 0.001942
# 4 -0.006695 0.002221 -0.006981 0.039399 0.015619 -0.001577
# 5 -0.008316 0.009526 -0.019139 0.015619 0.070476 -0.005992
# 6 -0.000269 -0.000935 0.001942 -0.001577 -0.005992 0.023825
#
#
# Mechanical properties :
#
#
# Convention : Reuss Voigt Hill
#
# Bulk Modulus (GPa) = 36.85804 50.03442 43.44623
# Shear Modulus (GPa) = 23.85047 33.23840 28.54443
#
# Velocity S-wave (km/s) = 3.29529 3.89014 3.60501
# Velocity P-wave (km/s) = 5.59104 6.55423 6.09170
#
# Compressibility (1/GPa) = 0.02713112
#
# Stress axis : x y z
#
# Youngs Moduli (GPa) = 62.86356 80.25616 53.63000
#
# Poissons Ratio (x) = 0.03687 0.13069
# Poissons Ratio (y) = 0.02888 0.37783
# Poissons Ratio (z) = 0.15319 0.56541
#
# Static dielectric constant tensor:
#      x y z
#    x 4.153330 -0.039180 0.332860 
#    y -0.039180 4.382610 0.144420 
#    z 0.332860 0.144420 3.996680 
# 
# 
# High freq. dielectric constant tensor:
#      x y z
#    x 1.867050 -0.004190 0.026080 
#    y -0.004190 1.881520 0.009560 
#    z 0.026080 0.009560 1.848040 
# 
# From -- ./inp_files/338080.got.cif
#   From: 2010.06.25/outbox.cif.g09.slc.cpg/sg2_170_cif.got.tgz:338080.got - 2010.06.27 13:26:56.
