data_PCOD8030551
_publ_section_title
;
Structure prediction by ZEFSAII (Michael W. Deem and Ramdas Pophale) SiO2 
 PCOD8030551
Probable space group: P -1
;
_chemical_formula_sum "Si O2"
_cell_formula_units_Z 16
_cell_length_a 15.052462
_cell_length_b 11.962463
_cell_length_c 9.275820
_cell_angle_alpha 141.049481
_cell_angle_beta 129.743657
_cell_angle_gamma 53.370702
_cell_volume 790.096695
_symmetry_space_group_name_H-M "P -1"
_symmetry_group_IT_number 2
_symmetry_cell_setting 'triclinic'
loop_
_space_group_symop_operation_xyz
x,y,z
-x,-y,-z
loop_
_atom_site_type_symbol
_atom_site_label
_atom_site_fract_x
_atom_site_fract_y
_atom_site_fract_z
Si Si1 0.338689 0.330131 0.513236
Si Si2 0.864990 0.499451 0.332540
Si Si3 0.306215 0.937671 0.029065
Si Si4 0.369438 0.964890 0.800317
Si Si5 0.519816 0.402746 0.572951
Si Si6 0.739459 0.835511 0.371688
Si Si7 0.864780 0.093109 0.945197
Si Si8 0.533940 0.681624 0.092467
O O1 0.208266 0.434502 0.529875
O O2 0.386767 0.382973 0.462799
O O3 0.436651 0.384668 0.779465
O O4 0.342011 0.117499 0.306084
O O5 0.819100 0.635525 0.288125
O O6 0.000000 0.500000 0.500000
O O7 0.849421 0.297957 0.076580
O O8 0.182420 0.916870 0.949610
O O9 0.397195 0.762471 0.006792
O O10 0.302787 0.936542 0.850831
O O11 0.388646 0.787607 0.541033
O O12 0.281223 0.124180 0.780673
O O13 0.500000 0.000000 0.000000
O O14 0.500000 0.500000 0.500000
O O15 0.579115 0.519743 0.863965
O O16 0.609244 0.838934 0.303604
O O17 0.795194 0.989637 0.659038
O O18 0.000000 0.000000 0.000000
#
# Coordination Sequence:
#
# PCOD8030551 Si02
#       8
#     2   2   2   2   2   2   2   2
#     4  11  23  37  64  97 136 175 222 286 330 401
#     4  11  23  45  71  99 128 171 234 286 334 386
#     4  12  22  42  66  97 139 180 220 274 346 400
#     4  12  24  42  64  97 149 185 212 272 340 422
#     4  12  23  38  59  98 144 182 219 262 347 414
#     4  11  24  43  67 104 132 180 221 279 338 403
#     4  12  25  46  74  97 132 178 232 291 334 389
#     4  11  22  38  61 102 137 168 228 279 335 402
#
# _framework density 20.250685000000001
#
# number of rings (size 3 to 8) (size 9 to 14) (size 15 to 20)
#    0.000    0.500    7.500    1.500    5.250    0.000 
#    0.000    0.625    0.000    1.500    0.000    0.000 
#    0.000    0.000    0.000    0.000    0.000    0.000 
#
# Total GULP energy -198347.552684 kJ/mol
# GULP energy per Si atom -12396.722043 kJ/mol
# Density = 2.020459 g / cm^3
# Si number density = 20.250685 Si / 1000 Ang^3
#
#
#
# Elastic Constant Matrix: (Units=GPa)
#
#
# Indices 1 2 3 4 5 6 
#
# 1 141.6840 71.1430 42.7532 -17.6560 -6.4790 -0.5921
# 2 71.1430 143.6643 45.1531 0.4708 -7.8274 7.8161
# 3 42.7532 45.1531 117.2764 16.6384 -3.0755 1.8889
# 4 -17.6560 0.4708 16.6384 36.3252 0.9658 -1.1157
# 5 -6.4790 -7.8274 -3.0755 0.9658 28.6854 1.0172
# 6 -0.5921 7.8161 1.8889 -1.1157 1.0172 33.2446
#
#
#
# Elastic Compliance Matrix: (Units=1/GPa)
#
#
# Indices 1 2 3 4 5 6 
#
# 1 0.011327 -0.004631 -0.003371 0.007145 0.000632 0.001703
# 2 -0.004631 0.010071 -0.001874 -0.001642 0.001643 -0.002449
# 3 -0.003371 -0.001874 0.011468 -0.006888 0.000207 -0.000509
# 4 0.007145 -0.001642 -0.006888 0.034263 -0.000800 0.002079
# 5 0.000632 0.001643 0.000207 -0.000800 0.035555 -0.001502
# 6 0.001703 -0.002449 -0.000509 0.002079 -0.001502 0.030831
#
#
# Mechanical properties :
#
#
# Convention : Reuss Voigt Hill
#
# Bulk Modulus (GPa) = 76.25018 80.08037 78.16527
# Shear Modulus (GPa) = 31.71837 35.88940 33.80388
#
# Velocity S-wave (km/s) = 3.96193 4.21438 4.09010
# Velocity P-wave (km/s) = 7.65924 7.95687 7.80947
#
# Compressibility (1/GPa) = 0.01311472
#
# Stress axis : x y z
#
# Youngs Moduli (GPa) = 88.28499 99.29324 87.20051
#
# Poissons Ratio (x) = 0.45986 0.29392
# Poissons Ratio (y) = 0.40888 0.16338
# Poissons Ratio (z) = 0.29758 0.18604
#
# Static dielectric constant tensor:
#      x y z
#    x 3.885990 0.086410 -0.156530 
#    y 0.086410 3.873250 0.314850 
#    z -0.156530 0.314850 4.150870 
# 
# 
# High freq. dielectric constant tensor:
#      x y z
#    x 1.786940 0.016650 0.004320 
#    y 0.016650 1.789070 0.022630 
#    z 0.004320 0.022630 1.794860 
# 
# From -- ./inp_files/308896.got.cif
#   From: 2010.06.25/outbox.cif.g09.slc.cpg/sg2_155_cif.got.tgz:308896.got - 2010.06.27 13:26:56.
