data_PCOD8030733
_publ_section_title
;
Structure prediction by ZEFSAII (Michael W. Deem and Ramdas Pophale) SiO2 
 PCOD8030733
Probable space group: P -1
;
_chemical_formula_sum "Si O2"
_cell_formula_units_Z 14
_cell_length_a 9.205345
_cell_length_b 21.797221
_cell_length_c 18.545864
_cell_angle_alpha 17.190475
_cell_angle_beta 46.830364
_cell_angle_gamma 37.964485
_cell_volume 625.939745
_symmetry_space_group_name_H-M "P -1"
_symmetry_group_IT_number 2
_symmetry_cell_setting 'triclinic'
loop_
_space_group_symop_operation_xyz
x,y,z
-x,-y,-z
loop_
_atom_site_type_symbol
_atom_site_label
_atom_site_fract_x
_atom_site_fract_y
_atom_site_fract_z
Si Si1 0.186906 0.034109 0.073264
Si Si2 0.683833 0.658535 0.241946
Si Si3 0.729621 0.456488 0.930037
Si Si4 0.202110 0.849621 0.421529
Si Si5 0.030172 0.100306 0.803737
Si Si6 0.850273 0.574074 0.115603
Si Si7 0.466106 0.146355 0.581250
O O1 0.399501 0.912813 0.074258
O O2 0.290119 0.817814 0.344670
O O3 0.934625 0.097020 0.050251
O O4 0.123252 0.299530 0.832020
O O5 0.714475 0.651553 0.153468
O O6 0.759808 0.384970 0.554916
O O7 0.622424 0.643353 0.687059
O O8 0.857028 0.546439 0.837693
O O9 0.500000 0.500000 0.000000
O O10 0.938955 0.145925 0.188928
O O11 0.154429 0.637003 0.689702
O O12 0.434287 0.776840 0.473315
O O13 0.246906 0.130693 0.698287
O O14 0.000000 0.000000 0.000000
O O15 0.700467 0.844778 0.815302
#
# Coordination Sequence:
#
# PCOD8030733 Si02
#       7
#     2   2   2   2   2   2   2
#     4  11  22  40  65  88 135 184 224 265 333 386
#     4  11  22  41  62  92 140 182 221 273 321 394
#     4  11  25  49  73  98 136 174 221 288 347 404
#     4  11  24  43  72  99 136 182 220 281 342 397
#     4  12  25  38  62 100 138 184 227 266 325 397
#     4  11  23  45  69 100 140 178 221 279 341 393
#     4  11  24  45  67 103 135 173 232 279 328 410
#
# _framework density 22.36637
#
# number of rings (size 3 to 8) (size 9 to 14) (size 15 to 20)
#    0.000    0.857    5.714    1.286    4.000    6.857 
#    0.000    1.429    0.000    0.000    0.000    0.000 
#    0.000    0.000    0.000    0.000    0.000    0.000 
#
# Total GULP energy -173526.584881 kJ/mol
# GULP energy per Si atom -12394.756063 kJ/mol
# Density = 2.231546 g / cm^3
# Si number density = 22.366370 Si / 1000 Ang^3
#
#
#
# Elastic Constant Matrix: (Units=GPa)
#
#
# Indices 1 2 3 4 5 6 
#
# 1 181.4763 40.7347 65.1843 6.5793 -17.8781 -8.8035
# 2 40.7347 88.3667 25.9239 16.5027 2.5865 -21.4900
# 3 65.1843 25.9239 108.3344 3.9546 -2.7840 3.0565
# 4 6.5793 16.5027 3.9546 26.3460 -0.9185 -6.5583
# 5 -17.8781 2.5865 -2.7840 -0.9185 46.4632 -2.3796
# 6 -8.8035 -21.4900 3.0565 -6.5583 -2.3796 20.6748
#
#
#
# Elastic Compliance Matrix: (Units=1/GPa)
#
#
# Indices 1 2 3 4 5 6 
#
# 1 0.007892 -0.001984 -0.004290 0.000640 0.003030 0.002485
# 2 -0.001984 0.018602 -0.003528 -0.006488 -0.001278 0.016808
# 3 -0.004290 -0.003528 0.012868 -0.000609 -0.001090 -0.007715
# 4 0.000640 -0.006488 -0.000609 0.043951 0.001838 0.007772
# 5 0.003030 -0.001278 -0.001090 0.001838 0.022902 0.003342
# 6 0.002485 0.016808 -0.007715 0.007772 0.003342 0.070887
#
#
# Mechanical properties :
#
#
# Convention : Reuss Voigt Hill
#
# Bulk Modulus (GPa) = 50.60786 71.31811 60.96299
# Shear Modulus (GPa) = 24.59523 35.11908 29.85716
#
# Velocity S-wave (km/s) = 3.31970 3.96684 3.65761
# Velocity P-wave (km/s) = 6.11308 7.27576 6.71961
#
# Compressibility (1/GPa) = 0.01975978
#
# Stress axis : x y z
#
# Youngs Moduli (GPa) = 126.70664 53.75634 77.71284
#
# Poissons Ratio (x) = 0.10663 0.33336
# Poissons Ratio (y) = 0.25133 0.27418
# Poissons Ratio (z) = 0.54353 0.18966
#
# Static dielectric constant tensor:
#      x y z
#    x 4.493410 -0.115130 -0.165390 
#    y -0.115130 3.261070 -0.154850 
#    z -0.165390 -0.154850 4.228620 
# 
# 
# High freq. dielectric constant tensor:
#      x y z
#    x 1.904760 -0.011270 -0.013310 
#    y -0.011270 1.839290 0.005430 
#    z -0.013310 0.005430 1.894300 
# 
# From -- ./inp_files/315633.got.cif
#   From: 2010.06.25/outbox.cif.g09.slc.cpg/sg2_158_cif.got.tgz:315633.got - 2010.06.27 13:26:56.
