data_PCOD8030344
_publ_section_title
;
Structure prediction by ZEFSAII (Michael W. Deem and Ramdas Pophale) SiO2 
 PCOD8030344
Probable space group: P -1
;
_chemical_formula_sum "Si O2"
_cell_formula_units_Z 16
_cell_length_a 17.679911
_cell_length_b 5.867497
_cell_length_c 12.314698
_cell_angle_alpha 90.833401
_cell_angle_beta 49.046216
_cell_angle_gamma 122.704619
_cell_volume 686.217694
_symmetry_space_group_name_H-M "P -1"
_symmetry_group_IT_number 2
_symmetry_cell_setting 'triclinic'
loop_
_space_group_symop_operation_xyz
x,y,z
-x,-y,-z
loop_
_atom_site_type_symbol
_atom_site_label
_atom_site_fract_x
_atom_site_fract_y
_atom_site_fract_z
Si Si1 0.491767 0.681737 0.923127
Si Si2 0.262400 0.640353 0.204543
Si Si3 0.090254 0.426687 0.172037
Si Si4 0.567922 0.359202 0.463721
Si Si5 0.631959 0.670325 0.610309
Si Si6 0.851518 0.643699 0.115897
Si Si7 0.843874 0.342884 0.323961
Si Si8 0.137459 0.245749 0.520132
O O1 0.506595 0.603133 0.787758
O O2 0.623219 0.057055 0.824908
O O3 0.500000 0.500000 0.000000
O O4 0.340152 0.556324 0.070698
O O5 0.199601 0.691185 0.163987
O O6 0.136358 0.361454 0.403144
O O7 0.988542 0.464361 0.230679
O O8 0.167013 0.453834 0.993187
O O9 0.012082 0.098050 0.308368
O O10 0.500000 0.500000 0.500000
O O11 0.571506 0.367984 0.591959
O O12 0.724085 0.608998 0.266174
O O13 0.500000 0.000000 0.500000
O O14 0.741678 0.755714 0.598278
O O15 0.712470 0.964550 0.453057
O O16 0.850431 0.418585 0.191747
O O17 0.000000 0.000000 0.000000
O O18 0.814949 0.513469 0.426450
#
# Coordination Sequence:
#
# PCOD8030344 Si02
#       8
#     2   2   2   2   2   2   2   2
#     4  11  24  43  70  97 141 197 238 299 370 463
#     4  11  25  43  67 107 144 183 250 305 376 445
#     4  11  26  41  70 108 141 186 244 323 368 447
#     4  12  29  48  76 116 154 199 257 329 387 457
#     4  11  23  45  72 100 142 199 244 297 392 461
#     4  12  24  50  76 107 148 202 260 309 390 465
#     4  11  22  44  74 100 141 201 244 309 383 462
#     4  11  21  44  71  98 140 191 241 296 381 451
#
# _framework density 23.316215
#
# number of rings (size 3 to 8) (size 9 to 14) (size 15 to 20)
#    0.000    0.750    5.000    2.250    1.750    3.500 
#    0.000    0.000    0.000    0.000    0.000    0.000 
#    0.000    0.000    0.000    0.000    0.000    0.000 
#
# Total GULP energy -198292.728864 kJ/mol
# GULP energy per Si atom -12393.295554 kJ/mol
# Density = 2.326315 g / cm^3
# Si number density = 23.316215 Si / 1000 Ang^3
#
#
#
# Elastic Constant Matrix: (Units=GPa)
#
#
# Indices 1 2 3 4 5 6 
#
# 1 109.7851 14.7034 48.5693 1.2672 13.9076 -7.7448
# 2 14.7034 81.7232 34.9179 11.7060 1.4529 -0.5755
# 3 48.5693 34.9179 150.4626 21.0798 8.1615 1.1597
# 4 1.2672 11.7060 21.0798 34.8846 0.2332 7.4062
# 5 13.9076 1.4529 8.1615 0.2332 44.7865 7.0019
# 6 -7.7448 -0.5755 1.1597 7.4062 7.0019 37.1042
#
#
#
# Elastic Compliance Matrix: (Units=1/GPa)
#
#
# Indices 1 2 3 4 5 6 
#
# 1 0.011371 -0.000645 -0.003556 0.001374 -0.003311 0.002825
# 2 -0.000645 0.013925 -0.002579 -0.003260 0.000112 0.000792
# 3 -0.003556 -0.002579 0.009039 -0.004444 -0.000421 -0.000098
# 4 0.001374 -0.003260 -0.004444 0.033792 0.001348 -0.006624
# 5 -0.003311 0.000112 -0.000421 0.001348 0.024287 -0.005529
# 6 0.002825 0.000792 -0.000098 -0.006624 -0.005529 0.029922
#
#
# Mechanical properties :
#
#
# Convention : Reuss Voigt Hill
#
# Bulk Modulus (GPa) = 48.13278 59.81687 53.97482
# Shear Modulus (GPa) = 35.00939 39.60707 37.30823
#
# Velocity S-wave (km/s) = 3.87913 4.12599 4.00446
# Velocity P-wave (km/s) = 6.38371 6.95764 6.67685
#
# Compressibility (1/GPa) = 0.02077586
#
# Stress axis : x y z
#
# Youngs Moduli (GPa) = 87.94341 71.81422 110.63745
#
# Poissons Ratio (x) = 0.04630 0.39339
# Poissons Ratio (y) = 0.05670 0.28532
# Poissons Ratio (z) = 0.31269 0.18520
#
# Static dielectric constant tensor:
#      x y z
#    x 4.357050 0.261350 -0.064210 
#    y 0.261350 5.283820 0.469950 
#    z -0.064210 0.469950 4.956450 
# 
# 
# High freq. dielectric constant tensor:
#      x y z
#    x 1.924070 -0.001690 0.004060 
#    y -0.001690 1.914910 0.010560 
#    z 0.004060 0.010560 1.934690 
# 
# From -- ./inp_files/109705.got.cif
#   From: 2010.06.25/outbox.cif.g09.slc.cpg/sg2_55_cif.got.tgz:109705.got - 2010.06.27 13:26:56.
