data_PCOD8030612
_publ_section_title
;
Structure prediction by ZEFSAII (Michael W. Deem and Ramdas Pophale) SiO2 
 PCOD8030612
Probable space group: P -1
;
_chemical_formula_sum "Si O2"
_cell_formula_units_Z 14
_cell_length_a 14.294624
_cell_length_b 9.084124
_cell_length_c 14.451683
_cell_angle_alpha 124.869319
_cell_angle_beta 29.847817
_cell_angle_gamma 104.450411
_cell_volume 611.165752
_symmetry_space_group_name_H-M "P -1"
_symmetry_group_IT_number 2
_symmetry_cell_setting 'triclinic'
loop_
_space_group_symop_operation_xyz
x,y,z
-x,-y,-z
loop_
_atom_site_type_symbol
_atom_site_label
_atom_site_fract_x
_atom_site_fract_y
_atom_site_fract_z
Si Si1 0.252952 0.018123 0.050453
Si Si2 0.059037 0.935064 0.820162
Si Si3 0.760100 0.543981 0.253083
Si Si4 0.407163 0.002839 0.480792
Si Si5 0.573779 0.518152 0.585899
Si Si6 0.600570 0.695463 0.040370
Si Si7 0.873889 0.183952 0.593033
O O1 0.167282 0.005576 0.017862
O O2 0.053432 0.103337 0.327099
O O3 0.310953 0.194530 0.061395
O O4 0.478760 0.764497 0.792344
O O5 0.144914 0.069803 0.745601
O O6 0.273263 0.666440 0.532056
O O7 0.000000 0.000000 0.000000
O O8 0.755973 0.435317 0.313047
O O9 0.649119 0.480912 0.246541
O O10 0.595573 0.812592 0.509594
O O11 0.000000 0.500000 0.000000
O O12 0.570893 0.772400 0.200388
O O13 0.500000 0.000000 0.500000
O O14 0.352109 0.787479 0.242006
O O15 0.791301 0.427157 0.785784
O O16 0.000000 0.000000 0.500000
#
# Coordination Sequence:
#
# PCOD8030612 Si02
#       7
#     2   2   2   2   2   2   2
#     4  12  25  46  73 104 144 184 236 296 358 422
#     4  12  24  42  66 104 148 191 231 281 357 424
#     4  11  22  39  61  94 140 189 231 279 337 415
#     4  12  22  42  68 101 147 190 225 286 354 420
#     4  11  24  40  63  98 142 183 234 282 337 423
#     4  11  26  50  71 106 146 179 241 299 353 423
#     4  11  28  49  79 103 135 187 244 302 356 418
#
# _framework density 22.907043999999999
#
# number of rings (size 3 to 8) (size 9 to 14) (size 15 to 20)
#    0.000    0.571    4.286    4.714    2.000    1.714 
#    0.000    0.000    0.000    0.000    0.000    0.000 
#    0.000    0.000    0.000    0.000    0.000    0.000 
#
# Total GULP energy -173588.857342 kJ/mol
# GULP energy per Si atom -12399.204096 kJ/mol
# Density = 2.285491 g / cm^3
# Si number density = 22.907044 Si / 1000 Ang^3
#
#
#
# Elastic Constant Matrix: (Units=GPa)
#
#
# Indices 1 2 3 4 5 6 
#
# 1 77.7078 32.6050 31.3670 11.1414 6.0411 -3.1250
# 2 32.6050 165.0822 44.1022 7.7141 -5.8539 4.5286
# 3 31.3670 44.1022 94.0450 3.1691 3.8358 3.1134
# 4 11.1414 7.7141 3.1691 54.3361 2.0609 -3.2869
# 5 6.0411 -5.8539 3.8358 2.0609 35.0785 1.6650
# 6 -3.1250 4.5286 3.1134 -3.2869 1.6650 30.7169
#
#
#
# Elastic Compliance Matrix: (Units=1/GPa)
#
#
# Indices 1 2 3 4 5 6 
#
# 1 0.016127 -0.002076 -0.004288 -0.002526 -0.002613 0.002253
# 2 -0.002076 0.007338 -0.002770 -0.000601 0.001977 -0.001184
# 3 -0.004288 -0.002770 0.013437 0.000455 -0.001159 -0.001278
# 4 -0.002526 -0.000601 0.000455 0.019130 -0.000928 0.001883
# 5 -0.002613 0.001977 -0.001159 -0.000928 0.029570 -0.002142
# 6 0.002253 -0.001184 -0.001278 0.001883 -0.002142 0.033406
#
#
# Mechanical properties :
#
#
# Convention : Reuss Voigt Hill
#
# Bulk Modulus (GPa) = 53.66698 61.44257 57.55477
# Shear Modulus (GPa) = 34.84630 39.27705 37.06167
#
# Velocity S-wave (km/s) = 3.90449 4.14530 4.02670
# Velocity P-wave (km/s) = 6.61859 7.05635 6.84098
#
# Compressibility (1/GPa) = 0.01863343
#
# Stress axis : x y z
#
# Youngs Moduli (GPa) = 62.00922 136.27163 74.42323
#
# Poissons Ratio (x) = 0.28289 0.31913
# Poissons Ratio (y) = 0.12873 0.20616
# Poissons Ratio (z) = 0.26590 0.37748
#
# Static dielectric constant tensor:
#      x y z
#    x 3.888010 -0.043720 -0.202990 
#    y -0.043720 5.431600 0.397110 
#    z -0.202990 0.397110 4.419520 
# 
# 
# High freq. dielectric constant tensor:
#      x y z
#    x 1.871970 0.000070 -0.005350 
#    y 0.000070 1.937910 0.002290 
#    z -0.005350 0.002290 1.919570 
# 
# From -- ./inp_files/530096.got.cif
#   From: 2010.06.25/outbox.cif.g09.slc.cpg/sg2_266_cif.got.tgz:530096.got - 2010.06.27 13:26:56.
