data_PCOD8030433
_publ_section_title
;
Structure prediction by ZEFSAII (Michael W. Deem and Ramdas Pophale) SiO2 
 PCOD8030433
Probable space group: P -1
;
_chemical_formula_sum "Si O2"
_cell_formula_units_Z 16
_cell_length_a 8.328775
_cell_length_b 12.026475
_cell_length_c 18.982277
_cell_angle_alpha 31.530565
_cell_angle_beta 45.024539
_cell_angle_gamma 52.416920
_cell_volume 703.255865
_symmetry_space_group_name_H-M "P -1"
_symmetry_group_IT_number 2
_symmetry_cell_setting 'triclinic'
loop_
_space_group_symop_operation_xyz
x,y,z
-x,-y,-z
loop_
_atom_site_type_symbol
_atom_site_label
_atom_site_fract_x
_atom_site_fract_y
_atom_site_fract_z
Si Si1 0.386723 0.710329 0.887906
Si Si2 0.574796 0.247156 0.892215
Si Si3 0.182298 0.626784 0.659627
Si Si4 0.562218 0.799481 0.187374
Si Si5 0.387527 0.902085 0.333915
Si Si6 0.912688 0.067332 0.354250
Si Si7 0.269869 0.333683 0.310685
Si Si8 0.039985 0.287002 0.061721
O O1 0.498247 0.732243 0.764555
O O2 0.114360 0.696643 0.969996
O O3 0.421538 0.922024 0.808441
O O4 0.500000 0.500000 0.000000
O O5 0.620782 0.237037 0.799322
O O6 0.705448 0.444006 0.777197
O O7 0.302635 0.252257 0.982699
O O8 0.669280 0.033572 0.016766
O O9 0.239625 0.378035 0.783712
O O10 0.372569 0.731795 0.493646
O O11 0.198245 0.734909 0.673921
O O12 0.933128 0.650249 0.691032
O O13 0.435636 0.780778 0.311405
O O14 0.153542 0.033129 0.335368
O O15 0.946950 0.104308 0.240836
O O16 0.768017 0.853506 0.520424
O O17 0.000000 0.500000 0.000000
#
# Coordination Sequence:
#
# PCOD8030433 Si02
#       8
#     2   2   2   2   2   2   2   2
#     4  12  24  39  70 104 136 168 228 287 340 397
#     4  11  25  47  65  97 141 181 227 278 335 408
#     4  11  23  41  72 101 138 176 227 277 345 399
#     4  11  25  45  68  91 142 189 222 269 341 409
#     4  11  21  46  65 101 135 180 225 283 335 399
#     4  11  22  44  73 103 138 172 228 289 339 398
#     4  11  23  43  70 107 134 174 229 288 337 394
#     4  12  24  41  69 101 134 178 223 282 345 392
#
# _framework density 22.751318999999999
#
# number of rings (size 3 to 8) (size 9 to 14) (size 15 to 20)
#    0.000    0.750    5.000    3.375    1.750    2.000 
#    4.500    2.500    0.000    0.000    0.000    0.000 
#    0.000    0.000    0.000    0.000    0.000    0.000 
#
# Total GULP energy -198390.601588 kJ/mol
# GULP energy per Si atom -12399.412599 kJ/mol
# Density = 2.269954 g / cm^3
# Si number density = 22.751319 Si / 1000 Ang^3
#
#
#
# Elastic Constant Matrix: (Units=GPa)
#
#
# Indices 1 2 3 4 5 6 
#
# 1 71.7497 17.1702 39.1115 -8.8685 -2.9498 3.7275
# 2 17.1702 108.5243 37.3850 -18.4175 -2.4435 11.3111
# 3 39.1115 37.3850 103.4384 -17.9280 -7.7813 0.4747
# 4 -8.8685 -18.4175 -17.9280 39.9032 6.4416 7.9812
# 5 -2.9498 -2.4435 -7.7813 6.4416 32.0742 -3.5893
# 6 3.7275 11.3111 0.4747 7.9812 -3.5893 42.4832
#
#
#
# Elastic Compliance Matrix: (Units=1/GPa)
#
#
# Indices 1 2 3 4 5 6 
#
# 1 0.017724 -0.000188 -0.006417 0.001381 -0.000412 -0.001728
# 2 -0.000188 0.011621 -0.003375 0.004841 -0.001378 -0.004066
# 3 -0.006417 -0.003375 0.013943 0.002750 0.002091 0.000966
# 4 0.001381 0.004841 0.002750 0.031378 -0.006017 -0.007844
# 5 -0.000412 -0.001378 0.002091 -0.006017 0.033234 0.004318
# 6 -0.001728 -0.004066 0.000966 -0.007844 0.004318 0.026600
#
#
# Mechanical properties :
#
#
# Convention : Reuss Voigt Hill
#
# Bulk Modulus (GPa) = 42.86783 52.33844 47.60314
# Shear Modulus (GPa) = 30.81895 35.56184 33.19039
#
# Velocity S-wave (km/s) = 3.68448 3.95785 3.82361
# Velocity P-wave (km/s) = 6.08139 6.62877 6.36098
#
# Compressibility (1/GPa) = 0.02332752
#
# Stress axis : x y z
#
# Youngs Moduli (GPa) = 56.42038 86.04885 71.71893
#
# Poissons Ratio (x) = 0.01621 0.46024
# Poissons Ratio (y) = 0.01063 0.24204
# Poissons Ratio (z) = 0.36207 0.29040
#
# Static dielectric constant tensor:
#      x y z
#    x 4.201580 0.412750 0.537700 
#    y 0.412750 4.137840 0.139770 
#    z 0.537700 0.139770 4.729240 
# 
# 
# High freq. dielectric constant tensor:
#      x y z
#    x 1.887130 0.008860 0.018160 
#    y 0.008860 1.896180 -0.006430 
#    z 0.018160 -0.006430 1.906730 
# 
# From -- ./inp_files/209224.got.cif
#   From: 2010.06.25/outbox.cif.g09.slc.cpg/sg2_105_cif.got.tgz:209224.got - 2010.06.27 13:26:56.
