data_PCOD8030296
_publ_section_title
;
Structure prediction by ZEFSAII (Michael W. Deem and Ramdas Pophale) SiO2 
 PCOD8030296
Probable space group: P -1
;
_chemical_formula_sum "Si O2"
_cell_formula_units_Z 16
_cell_length_a 19.047088
_cell_length_b 11.854716
_cell_length_c 9.978867
_cell_angle_alpha 130.918097
_cell_angle_beta 151.811796
_cell_angle_gamma 43.567738
_cell_volume 732.633532
_symmetry_space_group_name_H-M "P -1"
_symmetry_group_IT_number 2
_symmetry_cell_setting 'triclinic'
loop_
_space_group_symop_operation_xyz
x,y,z
-x,-y,-z
loop_
_atom_site_type_symbol
_atom_site_label
_atom_site_fract_x
_atom_site_fract_y
_atom_site_fract_z
Si Si1 0.342281 0.609096 0.237812
Si Si2 0.993090 0.735337 0.834448
Si Si3 0.446493 0.350875 0.796628
Si Si4 0.480882 0.824062 0.483824
Si Si5 0.950716 0.870756 0.592150
Si Si6 0.837832 0.941288 0.974283
Si Si7 0.837905 0.494606 0.368339
Si Si8 0.306349 0.999461 0.952329
O O1 0.500000 0.500000 0.500000
O O2 0.380086 0.755124 0.354899
O O3 0.187255 0.680570 0.131562
O O4 0.293891 0.506099 0.964426
O O5 0.922573 0.876416 0.710563
O O6 0.926206 0.780880 0.907703
O O7 0.943836 0.594797 0.583265
O O8 0.421999 0.307652 0.568885
O O9 0.268132 0.415356 0.611364
O O10 0.500000 0.500000 0.000000
O O11 0.579958 0.191474 0.974137
O O12 0.354147 0.987442 0.325627
O O13 0.598014 0.883844 0.811269
O O14 0.781823 0.987615 0.328652
O O15 0.027018 0.687359 0.517885
O O16 0.090763 0.930131 0.844264
O O17 0.840425 0.916961 0.120126
#
# Coordination Sequence:
#
# PCOD8030296 Si02
#       8
#     2   2   2   2   2   2   2   2
#     4  11  24  40  63  94 129 171 214 264 319 380
#     4  11  24  42  68  91 130 171 215 263 324 384
#     4  11  21  44  67  93 128 172 212 261 327 383
#     4  11  22  42  65  90 132 167 210 264 322 380
#     4  11  23  42  64  96 130 165 213 267 322 375
#     4  11  21  45  63  90 125 171 209 261 327 383
#     4  11  22  44  66  93 128 173 212 264 323 382
#     4  11  25  40  67 100 126 166 218 271 314 381
#
# _framework density 21.839023000000001
#
# number of rings (size 3 to 8) (size 9 to 14) (size 15 to 20)
#    0.000    1.000    3.750    6.000    3.500    1.000 
#    2.250    2.500    0.000    0.000    0.000    0.000 
#    0.000    0.000    0.000    0.000    0.000    0.000 
#
# Total GULP energy -198311.987734 kJ/mol
# GULP energy per Si atom -12394.499233 kJ/mol
# Density = 2.178932 g / cm^3
# Si number density = 21.839023 Si / 1000 Ang^3
#
#
#
# Elastic Constant Matrix: (Units=GPa)
#
#
# Indices 1 2 3 4 5 6 
#
# 1 31.2008 18.2148 10.7591 17.4183 6.6420 -8.1888
# 2 18.2148 87.4432 46.9038 3.9959 0.6184 -0.9046
# 3 10.7591 46.9038 82.2451 4.3504 7.9152 22.1132
# 4 17.4183 3.9959 4.3504 33.0209 10.7369 -1.0660
# 5 6.6420 0.6184 7.9152 10.7369 23.1821 8.5366
# 6 -8.1888 -0.9046 22.1132 -1.0660 8.5366 37.9109
#
#
#
# Elastic Compliance Matrix: (Units=1/GPa)
#
#
# Indices 1 2 3 4 5 6 
#
# 1 0.059889 -0.007980 -0.005681 -0.026316 -0.009224 0.017396
# 2 -0.007980 0.019291 -0.011714 0.002718 0.002653 0.005048
# 3 -0.005681 -0.011714 0.023669 0.001189 -0.001162 -0.015018
# 4 -0.026316 0.002718 0.001189 0.048430 -0.014771 -0.001625
# 5 -0.009224 0.002653 -0.001162 -0.014771 0.058403 -0.014818
# 6 0.017396 0.005048 -0.015018 -0.001625 -0.014818 0.042306
#
#
# Mechanical properties :
#
#
# Convention : Reuss Voigt Hill
#
# Bulk Modulus (GPa) = 19.19450 39.18271 29.18861
# Shear Modulus (GPa) = 15.61992 27.15689 21.38840
#
# Velocity S-wave (km/s) = 2.67728 3.53016 3.13288
# Velocity P-wave (km/s) = 4.28547 5.88189 5.14596
#
# Compressibility (1/GPa) = 0.05209826
#
# Stress axis : x y z
#
# Youngs Moduli (GPa) = 16.69765 51.83839 42.24925
#
# Poissons Ratio (x) = 0.41366 0.24003
# Poissons Ratio (y) = 0.13325 0.49490
# Poissons Ratio (z) = 0.09486 0.60723
#
# Static dielectric constant tensor:
#      x y z
#    x 4.188890 0.024520 0.078730 
#    y 0.024520 3.873510 0.123860 
#    z 0.078730 0.123860 3.918800 
# 
# 
# High freq. dielectric constant tensor:
#      x y z
#    x 1.868900 -0.001880 0.018220 
#    y -0.001880 1.846010 0.019590 
#    z 0.018220 0.019590 1.860190 
# 
# From -- ./inp_files/189537.got.cif
#   From: 2010.06.25/outbox.cif.g09.slc.cpg/sg2_95_cif.got.tgz:189537.got - 2010.06.27 13:26:56.
