data_PCOD8030802
_publ_section_title
;
Structure prediction by ZEFSAII (Michael W. Deem and Ramdas Pophale) SiO2 
 PCOD8030802
Probable space group: P -1
;
_chemical_formula_sum "Si O2"
_cell_formula_units_Z 16
_cell_length_a 15.189399
_cell_length_b 12.228844
_cell_length_c 10.270265
_cell_angle_alpha 84.937605
_cell_angle_beta 66.638769
_cell_angle_gamma 28.472241
_cell_volume 671.142676
_symmetry_space_group_name_H-M "P -1"
_symmetry_group_IT_number 2
_symmetry_cell_setting 'triclinic'
loop_
_space_group_symop_operation_xyz
x,y,z
-x,-y,-z
loop_
_atom_site_type_symbol
_atom_site_label
_atom_site_fract_x
_atom_site_fract_y
_atom_site_fract_z
Si Si1 0.972140 0.628609 0.346184
Si Si2 0.658189 0.945089 0.732771
Si Si3 0.056634 0.098385 0.054409
Si Si4 0.294413 0.679884 0.365782
Si Si5 0.246416 0.787017 0.712838
Si Si6 0.844758 0.336771 0.743293
Si Si7 0.087225 0.520722 0.007840
Si Si8 0.594556 0.233509 0.873398
O O1 0.152941 0.333792 0.274183
O O2 0.103231 0.595037 0.340152
O O3 0.717312 0.876836 0.549786
O O4 0.924133 0.708763 0.215402
O O5 0.380353 0.199264 0.898272
O O6 0.716279 0.004460 0.748235
O O7 0.832794 0.255890 0.217915
O O8 0.954438 0.330133 0.074772
O O9 0.254190 0.891312 0.076085
O O10 0.182456 0.921015 0.868510
O O11 0.442069 0.522595 0.437412
O O12 0.332245 0.527197 0.279340
O O13 0.427453 0.639120 0.219584
O O14 0.000000 0.000000 0.500000
O O15 0.103581 0.995308 0.652570
O O16 0.689979 0.498662 0.952331
O O17 0.000000 0.500000 0.000000
#
# Coordination Sequence:
#
# PCOD8030802 Si02
#       8
#     2   2   2   2   2   2   2   2
#     4  11  25  46  70  98 135 182 231 288 353 411
#     4  11  25  46  70  98 137 180 230 294 350 416
#     4  11  22  40  69 101 131 179 232 284 343 412
#     4  12  26  42  64 103 142 184 230 283 350 416
#     4  11  22  41  67  96 137 180 229 281 342 411
#     4  12  23  43  72  98 134 184 236 287 340 417
#     4  12  25  42  70 104 134 180 233 283 352 418
#     4  12  22  44  70  98 134 182 237 284 349 416
#
# _framework density 23.839936999999999
#
# number of rings (size 3 to 8) (size 9 to 14) (size 15 to 20)
#    0.000    0.500    5.000    4.500    1.750    1.000 
#    2.250    0.000    0.000    0.000    0.000    0.000 
#    0.000    0.000    0.000    0.000    0.000    0.000 
#
# Total GULP energy -198400.591337 kJ/mol
# GULP energy per Si atom -12400.036959 kJ/mol
# Density = 2.378568 g / cm^3
# Si number density = 23.839937 Si / 1000 Ang^3
#
#
#
# Elastic Constant Matrix: (Units=GPa)
#
#
# Indices 1 2 3 4 5 6 
#
# 1 151.6645 43.1435 6.7354 -1.4541 -1.6052 4.3352
# 2 43.1435 79.7080 5.0962 3.1452 7.7972 -12.6213
# 3 6.7354 5.0962 81.0553 8.3865 -4.9272 -11.2479
# 4 -1.4541 3.1452 8.3865 38.1375 -0.4689 -1.1015
# 5 -1.6052 7.7972 -4.9272 -0.4689 18.4528 -3.0110
# 6 4.3352 -12.6213 -11.2479 -1.1015 -3.0110 52.5853
#
#
#
# Elastic Compliance Matrix: (Units=1/GPa)
#
#
# Indices 1 2 3 4 5 6 
#
# 1 0.008095 -0.004894 -0.000557 0.000811 0.002349 -0.001810
# 2 -0.004894 0.016567 -0.000369 -0.001445 -0.006929 0.003874
# 3 -0.000557 -0.000369 0.013359 -0.002792 0.004092 0.002991
# 4 0.000811 -0.001445 -0.002792 0.026980 0.000554 -0.000414
# 5 0.002349 -0.006929 0.004092 0.000554 0.058823 0.002398
# 6 -0.001810 0.003874 0.002991 -0.000414 0.002398 0.020864
#
#
# Mechanical properties :
#
#
# Convention : Reuss Voigt Hill
#
# Bulk Modulus (GPa) = 37.90763 46.93090 42.41926
# Shear Modulus (GPa) = 30.28067 38.99861 34.63964
#
# Velocity S-wave (km/s) = 3.56780 4.04895 3.81597
# Velocity P-wave (km/s) = 5.73652 6.44882 6.10307
#
# Compressibility (1/GPa) = 0.02637992
#
# Stress axis : x y z
#
# Youngs Moduli (GPa) = 123.53520 60.36195 74.85378
#
# Poissons Ratio (x) = 0.29542 0.04171
# Poissons Ratio (y) = 0.60461 0.02763
# Poissons Ratio (z) = 0.06884 0.02228
#
# Static dielectric constant tensor:
#      x y z
#    x 4.295700 0.088370 0.117860 
#    y 0.088370 4.184930 0.058060 
#    z 0.117860 0.058060 4.586860 
# 
# 
# High freq. dielectric constant tensor:
#      x y z
#    x 1.964570 0.000300 0.011310 
#    y 0.000300 1.936830 0.002240 
#    z 0.011310 0.002240 1.962000 
# 
# From -- ./inp_files/452269.got.cif
#   From: 2010.06.25/outbox.cif.g09.slc.cpg/sg2_227_cif.got.tgz:452269.got - 2010.06.27 13:26:56.
