data_PCOD8030244
_publ_section_title
;
Structure prediction by ZEFSAII (Michael W. Deem and Ramdas Pophale) SiO2 
 PCOD8030244
Probable space group: P -1
;
_chemical_formula_sum "Si O2"
_cell_formula_units_Z 16
_cell_length_a 20.535679
_cell_length_b 8.533892
_cell_length_c 11.464239
_cell_angle_alpha 74.163530
_cell_angle_beta 158.557208
_cell_angle_gamma 107.260064
_cell_volume 701.364877
_symmetry_space_group_name_H-M "P -1"
_symmetry_group_IT_number 2
_symmetry_cell_setting 'triclinic'
loop_
_space_group_symop_operation_xyz
x,y,z
-x,-y,-z
loop_
_atom_site_type_symbol
_atom_site_label
_atom_site_fract_x
_atom_site_fract_y
_atom_site_fract_z
Si Si1 0.996996 0.543610 0.658255
Si Si2 0.979304 0.660279 0.859523
Si Si3 0.265255 0.763458 0.709544
Si Si4 0.503270 0.063875 0.620389
Si Si5 0.245648 0.907311 0.393573
Si Si6 0.891800 0.140404 0.345648
Si Si7 0.664049 0.616406 0.700520
Si Si8 0.329309 0.251424 0.550635
O O1 0.000258 0.679074 0.534042
O O2 0.027761 0.643070 0.809842
O O3 0.807323 0.429239 0.359477
O O4 0.153207 0.426706 0.928035
O O5 0.769699 0.692282 0.511045
O O6 0.000000 0.500000 0.000000
O O7 0.096556 0.817384 0.078399
O O8 0.253418 0.806265 0.546090
O O9 0.151050 0.872187 0.583412
O O10 0.472634 0.793194 0.085657
O O11 0.363593 0.197170 0.356930
O O12 0.500000 0.000000 0.500000
O O13 0.432724 0.925078 0.627102
O O14 0.703618 0.141555 0.966678
O O15 0.207832 0.090135 0.328945
O O16 0.000000 0.000000 0.500000
O O17 0.500000 0.500000 0.500000
O O18 0.669807 0.601291 0.572107
#
# Coordination Sequence:
#
# PCOD8030244 Si02
#       8
#     2   2   2   2   2   2   2   2
#     4  12  26  47  72 104 145 190 234 296 356 425
#     4  12  24  45  68 106 136 175 243 289 350 415
#     4  12  25  48  69 104 146 187 235 282 368 433
#     4  11  25  46  72 108 136 186 240 292 346 411
#     4  11  24  45  74 100 142 184 233 293 353 418
#     4  12  28  48  68 104 145 186 238 292 356 428
#     4  11  21  43  71  97 137 186 238 285 344 411
#     4  11  24  43  70 101 139 186 232 293 355 416
#
# _framework density 22.812663000000001
#
# number of rings (size 3 to 8) (size 9 to 14) (size 15 to 20)
#    0.000    0.500    6.250    1.875    3.500    1.500 
#    2.250    0.000    0.000    0.000    0.000    0.000 
#    0.000    0.000    0.000    0.000    0.000    0.000 
#
# Total GULP energy -198331.669724 kJ/mol
# GULP energy per Si atom -12395.729358 kJ/mol
# Density = 2.276074 g / cm^3
# Si number density = 22.812663 Si / 1000 Ang^3
#
#
#
# Elastic Constant Matrix: (Units=GPa)
#
#
# Indices 1 2 3 4 5 6 
#
# 1 142.3815 42.4468 32.3272 1.3125 9.5316 -0.5481
# 2 42.4468 97.1443 41.0221 7.7946 15.4506 5.9679
# 3 32.3272 41.0221 70.4458 1.4460 18.9895 -15.0458
# 4 1.3125 7.7946 1.4460 38.4178 -5.1162 2.4586
# 5 9.5316 15.4506 18.9895 -5.1162 35.5091 0.1873
# 6 -0.5481 5.9679 -15.0458 2.4586 0.1873 40.8677
#
#
#
# Elastic Compliance Matrix: (Units=1/GPa)
#
#
# Indices 1 2 3 4 5 6 
#
# 1 0.008351 -0.002663 -0.002462 0.000415 0.000296 -0.000432
# 2 -0.002663 0.015969 -0.008633 -0.002744 -0.001984 -0.005372
# 3 -0.002462 -0.008633 0.025117 -0.001014 -0.009217 0.010578
# 4 0.000415 -0.002744 -0.001014 0.027460 0.005590 -0.001645
# 5 0.000296 -0.001984 -0.009217 0.005590 0.034699 -0.003595
# 6 -0.000432 -0.005372 0.010578 -0.001645 -0.003595 0.029258
#
#
# Mechanical properties :
#
#
# Convention : Reuss Voigt Hill
#
# Bulk Modulus (GPa) = 45.61971 60.17374 52.89673
# Shear Modulus (GPa) = 28.46136 35.90397 32.18267
#
# Velocity S-wave (km/s) = 3.53599 3.97150 3.76005
# Velocity P-wave (km/s) = 6.05903 6.88948 6.48756
#
# Compressibility (1/GPa) = 0.02192035
#
# Stress axis : x y z
#
# Youngs Moduli (GPa) = 119.74634 62.62137 39.81379
#
# Poissons Ratio (x) = 0.16677 0.09802
# Poissons Ratio (y) = 0.31890 0.34372
# Poissons Ratio (z) = 0.29480 0.54063
#
# Static dielectric constant tensor:
#      x y z
#    x 4.750210 0.148020 0.037020 
#    y 0.148020 4.285570 0.086460 
#    z 0.037020 0.086460 3.929240 
# 
# 
# High freq. dielectric constant tensor:
#      x y z
#    x 1.927100 0.005890 0.013050 
#    y 0.005890 1.899030 0.014350 
#    z 0.013050 0.014350 1.885300 
# 
# From -- ./inp_files/469968.got.cif
#   From: 2010.06.25/outbox.cif.g09.slc.cpg/sg2_235_cif.got.tgz:469968.got - 2010.06.27 13:26:56.
