data_PCOD8030122
_publ_section_title
;
Structure prediction by ZEFSAII (Michael W. Deem and Ramdas Pophale) SiO2 
 PCOD8030122
Probable space group: P -1
;
_chemical_formula_sum "Si O2"
_cell_formula_units_Z 16
_cell_length_a 8.715550
_cell_length_b 15.747701
_cell_length_c 9.825087
_cell_angle_alpha 126.610999
_cell_angle_beta 79.485489
_cell_angle_gamma 63.198911
_cell_volume 750.304613
_symmetry_space_group_name_H-M "P -1"
_symmetry_group_IT_number 2
_symmetry_cell_setting 'triclinic'
loop_
_space_group_symop_operation_xyz
x,y,z
-x,-y,-z
loop_
_atom_site_type_symbol
_atom_site_label
_atom_site_fract_x
_atom_site_fract_y
_atom_site_fract_z
Si Si1 0.294861 0.064833 0.514845
Si Si2 0.087927 0.035363 0.132065
Si Si3 0.725386 0.376863 0.121132
Si Si4 0.522843 0.839909 0.015401
Si Si5 0.006989 0.292701 0.262235
Si Si6 0.931479 0.413180 0.890202
Si Si7 0.003197 0.053584 0.692519
Si Si8 0.707657 0.525822 0.743699
O O1 0.198080 0.043318 0.635329
O O2 0.146191 0.237096 0.665573
O O3 0.500000 0.000000 0.500000
O O4 0.360725 0.971432 0.278424
O O5 0.003728 0.191394 0.259830
O O6 0.357849 0.904154 0.974330
O O7 0.964807 0.054274 0.306253
O O8 0.000000 0.000000 0.000000
O O9 0.459557 0.490442 0.285844
O O10 0.850069 0.352774 0.214649
O O11 0.778472 0.439401 0.059327
O O12 0.787731 0.226841 0.926349
O O13 0.739586 0.804663 0.912853
O O14 0.597477 0.692804 0.919555
O O15 0.904431 0.432260 0.509832
O O16 0.795690 0.470417 0.828459
O O17 0.000000 0.500000 0.000000
O O18 0.000000 0.000000 0.500000
#
# Coordination Sequence:
#
# PCOD8030122 Si02
#       8
#     2   2   2   2   2   2   2   2
#     4  11  23  42  72  99 135 178 222 275 344 394
#     4  12  24  44  67 102 135 178 227 279 335 405
#     4  11  23  45  69  96 139 178 224 282 338 405
#     4  12  24  46  70  98 140 180 223 284 339 401
#     4  12  26  44  69 100 137 180 230 281 341 407
#     4  11  25  44  68 105 139 174 229 280 335 408
#     4  11  21  42  70  96 134 173 224 279 335 400
#     4  12  24  45  69  98 134 184 230 278 343 401
#
# _framework density 21.324670999999999
#
# number of rings (size 3 to 8) (size 9 to 14) (size 15 to 20)
#    0.000    0.500    3.750    5.250    1.750    0.000 
#    4.500    0.000    0.000    0.000    0.000    0.000 
#    0.000    0.000    0.000    0.000    0.000    0.000 
#
# Total GULP energy -198285.022764 kJ/mol
# GULP energy per Si atom -12392.813923 kJ/mol
# Density = 2.127613 g / cm^3
# Si number density = 21.324671 Si / 1000 Ang^3
#
#
#
# Elastic Constant Matrix: (Units=GPa)
#
#
# Indices 1 2 3 4 5 6 
#
# 1 130.2674 74.0892 43.2336 -0.9987 -3.5128 -10.9249
# 2 74.0892 153.6487 56.9913 -13.6943 5.2224 -7.3791
# 3 43.2336 56.9913 116.3693 -2.8696 -1.4387 5.4746
# 4 -0.9987 -13.6943 -2.8696 38.1598 -0.8085 2.8337
# 5 -3.5128 5.2224 -1.4387 -0.8085 33.0167 -3.6678
# 6 -10.9249 -7.3791 5.4746 2.8337 -3.6678 50.1423
#
#
#
# Elastic Compliance Matrix: (Units=1/GPa)
#
#
# Indices 1 2 3 4 5 6 
#
# 1 0.011309 -0.004848 -0.001948 -0.001710 0.002089 0.002213
# 2 -0.004848 0.010458 -0.003290 0.003296 -0.002177 0.000496
# 3 -0.001948 -0.003290 0.011026 -0.000238 0.000559 -0.002058
# 4 -0.001710 0.003296 -0.000238 0.027427 -0.000200 -0.001426
# 5 0.002089 -0.002177 0.000559 -0.000200 0.031136 0.002363
# 6 0.002213 0.000496 -0.002058 -0.001426 0.002363 0.020977
#
#
# Mechanical properties :
#
#
# Convention : Reuss Voigt Hill
#
# Bulk Modulus (GPa) = 79.22523 83.21264 81.21893
# Shear Modulus (GPa) = 36.57368 39.32851 37.95109
#
# Velocity S-wave (km/s) = 4.14585 4.29916 4.22320
# Velocity P-wave (km/s) = 7.75565 7.98437 7.87084
#
# Compressibility (1/GPa) = 0.01262224
#
# Stress axis : x y z
#
# Youngs Moduli (GPa) = 88.42555 95.62307 90.69596
#
# Poissons Ratio (x) = 0.46357 0.17665
# Poissons Ratio (y) = 0.42868 0.29835
# Poissons Ratio (z) = 0.17223 0.31456
#
# Static dielectric constant tensor:
#      x y z
#    x 4.002690 -0.188070 -0.151690 
#    y -0.188070 4.157820 0.539850 
#    z -0.151690 0.539850 4.359690 
# 
# 
# High freq. dielectric constant tensor:
#      x y z
#    x 1.861170 0.002270 -0.000690 
#    y 0.002270 1.845530 -0.004610 
#    z -0.000690 -0.004610 1.836980 
# 
# From -- ./inp_files/208668.got.cif
#   From: 2010.06.25/outbox.cif.g09.slc.cpg/sg2_105_cif.got.tgz:208668.got - 2010.06.27 13:26:56.
