data_PCOD8030037
_publ_section_title
;
Structure prediction by ZEFSAII (Michael W. Deem and Ramdas Pophale) SiO2 
 PCOD8030037
Probable space group: P -1
;
_chemical_formula_sum "Si O2"
_cell_formula_units_Z 16
_cell_length_a 13.350723
_cell_length_b 10.154206
_cell_length_c 13.143212
_cell_angle_alpha 35.976832
_cell_angle_beta 123.811618
_cell_angle_gamma 98.847185
_cell_volume 690.810494
_symmetry_space_group_name_H-M "P -1"
_symmetry_group_IT_number 2
_symmetry_cell_setting 'triclinic'
loop_
_space_group_symop_operation_xyz
x,y,z
-x,-y,-z
loop_
_atom_site_type_symbol
_atom_site_label
_atom_site_fract_x
_atom_site_fract_y
_atom_site_fract_z
Si Si1 0.866603 0.807311 0.774913
Si Si2 0.054176 0.161788 0.988646
Si Si3 0.354630 0.282140 0.334792
Si Si4 0.754598 0.712935 0.506890
Si Si5 0.650918 0.395186 0.211329
Si Si6 0.660268 0.867261 0.872189
Si Si7 0.584850 0.302197 0.951505
Si Si8 0.500323 0.270466 0.705266
O O1 0.921515 0.909245 0.832654
O O2 0.730555 0.792273 0.745549
O O3 0.786798 0.059730 0.488365
O O4 0.000000 0.500000 0.000000
O O5 0.210277 0.089325 0.080955
O O6 0.928185 0.500485 0.700941
O O7 0.000000 0.000000 0.000000
O O8 0.264245 0.344850 0.350503
O O9 0.333698 0.550570 0.107906
O O10 0.533916 0.032474 0.607637
O O11 0.670670 0.624878 0.442622
O O12 0.692179 0.034595 0.253203
O O13 0.587147 0.484603 0.235399
O O14 0.500000 0.500000 0.000000
O O15 0.721097 0.544449 0.111587
O O16 0.578666 0.989445 0.858381
O O17 0.580477 0.195815 0.904945
O O18 0.500000 0.500000 0.500000
#
# Coordination Sequence:
#
# PCOD8030037 Si02
#       8
#     2   2   2   2   2   2   2   2
#     4  12  27  48  76 108 156 201 246 315 396 447
#     4  12  29  47  72 105 162 203 246 314 391 453
#     4  11  23  47  75 108 142 195 256 306 374 453
#     4  11  23  45  68 108 153 192 253 311 371 460
#     4  12  26  46  76 115 149 189 265 323 368 456
#     4  11  24  46  71 109 151 191 253 319 360 453
#     4  12  24  41  81 107 142 202 249 315 384 437
#     4  11  21  41  73 105 149 191 255 308 370 453
#
# _framework density 23.161200000000001
#
# number of rings (size 3 to 8) (size 9 to 14) (size 15 to 20)
#    0.000    0.500    7.500    1.875    3.500    2.000 
#    0.000    2.500    0.000    0.000    0.000    0.000 
#    0.000    0.000    0.000    0.000    0.000    0.000 
#
# Total GULP energy -198273.670371 kJ/mol
# GULP energy per Si atom -12392.104398 kJ/mol
# Density = 2.310848 g / cm^3
# Si number density = 23.161200 Si / 1000 Ang^3
#
#
#
# Elastic Constant Matrix: (Units=GPa)
#
#
# Indices 1 2 3 4 5 6 
#
# 1 90.1553 28.1468 49.9452 -0.1559 -3.9125 25.0001
# 2 28.1468 99.7151 47.5579 10.6573 -2.0498 32.6951
# 3 49.9452 47.5579 155.1192 -13.0813 -0.3540 11.4072
# 4 -0.1559 10.6573 -13.0813 36.1932 7.5446 -0.4101
# 5 -3.9125 -2.0498 -0.3540 7.5446 46.5179 -5.9050
# 6 25.0001 32.6951 11.4072 -0.4101 -5.9050 44.5421
#
#
#
# Elastic Compliance Matrix: (Units=1/GPa)
#
#
# Indices 1 2 3 4 5 6 
#
# 1 0.015864 0.000797 -0.004934 -0.002177 0.000649 -0.008159
# 2 0.000797 0.016770 -0.005147 -0.007019 0.000453 -0.011443
# 3 -0.004934 -0.005147 0.009763 0.005259 -0.000916 0.003975
# 4 -0.002177 -0.007019 0.005259 0.032718 -0.005169 0.004643
# 5 0.000649 0.000453 -0.000916 -0.005169 0.022721 0.002502
# 6 -0.008159 -0.011443 0.003975 0.004643 0.002502 0.034786
#
#
# Mechanical properties :
#
#
# Convention : Reuss Voigt Hill
#
# Bulk Modulus (GPa) = 41.96993 66.25437 54.11215
# Shear Modulus (GPa) = 31.42016 40.07330 35.74673
#
# Velocity S-wave (km/s) = 3.68718 4.16407 3.93286
# Velocity P-wave (km/s) = 6.02389 7.19633 6.63605
#
# Compressibility (1/GPa) = 0.02382658
#
# Stress axis : x y z
#
# Youngs Moduli (GPa) = 63.03751 59.62910 102.43147
#
# Poissons Ratio (x) = -0.04750 0.50541
# Poissons Ratio (y) = -0.05022 0.52726
# Poissons Ratio (z) = 0.31104 0.30694
#
# Static dielectric constant tensor:
#      x y z
#    x 4.445850 -0.134340 0.173680 
#    y -0.134340 4.879470 0.048930 
#    z 0.173680 0.048930 4.211120 
# 
# 
# High freq. dielectric constant tensor:
#      x y z
#    x 1.906110 0.003220 -0.002120 
#    y 0.003220 1.934820 -0.000280 
#    z -0.002120 -0.000280 1.908610 
# 
# From -- ./inp_files/519514.got.cif
#   From: 2010.06.25/outbox.cif.g09.slc.cpg/sg2_260_cif.got.tgz:519514.got - 2010.06.27 13:26:56.
