data_PCOD8030295
_publ_section_title
;
Structure prediction by ZEFSAII (Michael W. Deem and Ramdas Pophale) SiO2 
 PCOD8030295
Probable space group: P -1
;
_chemical_formula_sum "Si O2"
_cell_formula_units_Z 12
_cell_length_a 9.402993
_cell_length_b 14.733688
_cell_length_c 9.581419
_cell_angle_alpha 149.582233
_cell_angle_beta 59.389301
_cell_angle_gamma 121.537723
_cell_volume 567.582460
_symmetry_space_group_name_H-M "P -1"
_symmetry_group_IT_number 2
_symmetry_cell_setting 'triclinic'
loop_
_space_group_symop_operation_xyz
x,y,z
-x,-y,-z
loop_
_atom_site_type_symbol
_atom_site_label
_atom_site_fract_x
_atom_site_fract_y
_atom_site_fract_z
Si Si1 0.149519 0.321168 0.555224
Si Si2 0.142872 0.425798 0.248595
Si Si3 0.712192 0.849851 0.987701
Si Si4 0.998103 0.794035 0.239640
Si Si5 0.339818 0.695290 0.016566
Si Si6 0.776964 0.273652 0.590556
O O1 0.300245 0.496294 0.700909
O O2 0.135468 0.277726 0.667777
O O3 0.970334 0.366167 0.655779
O O4 0.201568 0.163785 0.224275
O O5 0.266485 0.608244 0.364932
O O6 0.000000 0.500000 0.500000
O O7 0.238609 0.302892 0.135628
O O8 0.058045 0.299100 0.000285
O O9 0.770457 0.058769 0.283201
O O10 0.511375 0.808838 0.018683
O O11 0.188660 0.792524 0.181595
O O12 0.000000 0.000000 0.500000
O O13 0.349479 0.695843 0.181911
#
# Coordination Sequence:
#
# PCOD8030295 Si02
#       6
#     2   2   2   2   2   2
#     4  11  21  44  67  91 127 176 211 257 321 388
#     4  12  23  41  68  98 123 170 222 261 306 388
#     4  12  26  40  68  99 132 162 214 273 324 364
#     4  11  23  42  70  92 125 172 223 253 311 395
#     4  11  22  45  64  93 133 169 206 270 328 369
#     4  11  22  42  67  93 129 171 216 258 316 387
#
# _framework density 21.142301
#
# number of rings (size 3 to 8) (size 9 to 14) (size 15 to 20)
#    0.000    0.667    5.000    4.500    2.333    0.667 
#    3.000    0.833    0.000    0.000    0.000    0.000 
#    0.000    0.000    0.000    0.000    0.000    0.000 
#
# Total GULP energy -148748.490724 kJ/mol
# GULP energy per Si atom -12395.707560 kJ/mol
# Density = 2.109418 g / cm^3
# Si number density = 21.142301 Si / 1000 Ang^3
#
#
#
# Elastic Constant Matrix: (Units=GPa)
#
#
# Indices 1 2 3 4 5 6 
#
# 1 63.2762 39.8868 25.6203 -0.3181 2.3422 2.0634
# 2 39.8868 64.2871 42.2698 1.3529 -1.8645 0.1318
# 3 25.6203 42.2698 124.7574 2.2584 13.9122 -11.4480
# 4 -0.3181 1.3529 2.2584 51.1398 -5.0840 -6.0259
# 5 2.3422 -1.8645 13.9122 -5.0840 27.5124 1.2393
# 6 2.0634 0.1318 -11.4480 -6.0259 1.2393 30.5356
#
#
#
# Elastic Compliance Matrix: (Units=1/GPa)
#
#
# Indices 1 2 3 4 5 6 
#
# 1 0.026361 -0.016831 0.000567 0.000069 -0.003598 -0.001337
# 2 -0.016831 0.031773 -0.008422 -0.000078 0.007943 -0.002495
# 3 0.000567 -0.008422 0.011967 -0.000443 -0.006963 0.004680
# 4 0.000069 -0.000078 -0.000443 0.020391 0.003814 0.003699
# 5 -0.003598 0.007943 -0.006963 0.003814 0.041568 -0.003336
# 6 -0.001337 -0.002495 0.004680 0.003699 -0.003336 0.035470
#
#
# Mechanical properties :
#
#
# Convention : Reuss Voigt Hill
#
# Bulk Modulus (GPa) = 48.24583 51.98605 50.11594
# Shear Modulus (GPa) = 22.34017 31.47382 26.90699
#
# Velocity S-wave (km/s) = 3.25415 3.86251 3.57131
# Velocity P-wave (km/s) = 6.08181 6.67338 6.38445
#
# Compressibility (1/GPa) = 0.02072718
#
# Stress axis : x y z
#
# Youngs Moduli (GPa) = 37.93437 31.47335 83.56621
#
# Poissons Ratio (x) = 0.52974 -0.04734
# Poissons Ratio (y) = 0.63849 0.70379
# Poissons Ratio (z) = -0.02149 0.26507
#
# Static dielectric constant tensor:
#      x y z
#    x 3.637370 -0.231370 0.033810 
#    y -0.231370 4.023570 -0.058230 
#    z 0.033810 -0.058230 4.019420 
# 
# 
# High freq. dielectric constant tensor:
#      x y z
#    x 1.802140 -0.004600 0.005240 
#    y -0.004600 1.836090 -0.001400 
#    z 0.005240 -0.001400 1.854510 
# 
# From -- ./inp_files/145525.got.cif
#   From: 2010.06.25/outbox.cif.g09.slc.cpg/sg2_73_cif.got.tgz:145525.got - 2010.06.27 13:26:56.
