data_PCOD8030751
_publ_section_title
;
Structure prediction by ZEFSAII (Michael W. Deem and Ramdas Pophale) SiO2 
 PCOD8030751
Probable space group: P -1
;
_chemical_formula_sum "Si O2"
_cell_formula_units_Z 12
_cell_length_a 20.371453
_cell_length_b 23.024269
_cell_length_c 10.212357
_cell_angle_alpha 40.002966
_cell_angle_beta 38.895461
_cell_angle_gamma 11.178729
_cell_volume 582.969428
_symmetry_space_group_name_H-M "P -1"
_symmetry_group_IT_number 2
_symmetry_cell_setting 'triclinic'
loop_
_space_group_symop_operation_xyz
x,y,z
-x,-y,-z
loop_
_atom_site_type_symbol
_atom_site_label
_atom_site_fract_x
_atom_site_fract_y
_atom_site_fract_z
Si Si1 0.886787 0.494545 0.642744
Si Si2 0.600062 0.086643 0.099490
Si Si3 0.469782 0.149614 0.666666
Si Si4 0.441421 0.127342 0.028756
Si Si5 0.954264 0.269573 0.338552
Si Si6 0.834592 0.043364 0.638771
O O1 0.000000 0.500000 0.500000
O O2 0.195385 0.169005 0.724670
O O3 0.597128 0.704053 0.835334
O O4 0.747720 0.611453 0.508196
O O5 0.329502 0.273389 0.082545
O O6 0.854550 0.955541 0.878770
O O7 0.827486 0.909056 0.556012
O O8 0.254170 0.312259 0.860724
O O9 0.572716 0.967674 0.761604
O O10 0.850403 0.820239 0.907151
O O11 0.563980 0.619317 0.368962
O O12 0.957551 0.167066 0.445107
O O13 0.000000 0.000000 0.500000
#
# Coordination Sequence:
#
# PCOD8030751 Si02
#       6
#     2   2   2   2   2   2
#     4  12  24  38  57  90 134 165 191 229 308 367
#     4  11  23  40  59  88 124 157 206 248 290 364
#     4   9  19  37  58  90 125 167 190 241 293 367
#     4   8  17  37  57  89 117 165 200 236 285 359
#     4   9  20  37  58  90 115 147 203 251 292 350
#     4  11  22  40  66  88 111 152 212 267 298 332
#
# _framework density 20.584268999999999
#
# number of rings (size 3 to 8) (size 9 to 14) (size 15 to 20)
#    1.000    1.000    1.667    3.000    0.000    1.333 
#    0.000    3.333    0.000    6.000    0.000    0.000 
#    0.000    0.000    0.000    0.000    0.000    0.000 
#
# Total GULP energy -148707.339023 kJ/mol
# GULP energy per Si atom -12392.278252 kJ/mol
# Density = 2.053742 g / cm^3
# Si number density = 20.584269 Si / 1000 Ang^3
#
#
#
# Elastic Constant Matrix: (Units=GPa)
#
#
# Indices 1 2 3 4 5 6 
#
# 1 91.0249 23.3612 49.9716 -10.1570 3.0212 -14.6571
# 2 23.3612 34.0670 4.9863 -17.5810 15.2757 4.9944
# 3 49.9716 4.9863 74.2407 -12.0203 -1.2271 -12.4846
# 4 -10.1570 -17.5810 -12.0203 26.1988 -2.8077 5.0572
# 5 3.0212 15.2757 -1.2271 -2.8077 44.7552 -0.9950
# 6 -14.6571 4.9944 -12.4846 5.0572 -0.9950 31.9469
#
#
#
# Elastic Compliance Matrix: (Units=1/GPa)
#
#
# Indices 1 2 3 4 5 6 
#
# 1 0.030629 -0.036921 -0.019096 -0.023881 0.008877 0.016419
# 2 -0.036921 0.107458 0.022552 0.072139 -0.029870 -0.037275
# 3 -0.019096 0.022552 0.027239 0.020726 -0.004474 -0.005062
# 4 -0.023881 0.072139 0.020726 0.090565 -0.017405 -0.029013
# 5 0.008877 -0.029870 -0.004474 -0.017405 0.030963 0.010714
# 6 0.016419 -0.037275 -0.005062 -0.029013 0.010714 0.047611
#
#
# Mechanical properties :
#
#
# Convention : Reuss Voigt Hill
#
# Bulk Modulus (GPa) = 10.16285 39.55230 24.85758
# Shear Modulus (GPa) = 11.51560 28.64774 20.08167
#
# Velocity S-wave (km/s) = 2.36781 3.73464 3.12682
# Velocity P-wave (km/s) = 3.52466 6.15250 5.01380
#
# Compressibility (1/GPa) = 0.09839759
#
# Stress axis : x y z
#
# Youngs Moduli (GPa) = 32.64841 9.30593 36.71234
#
# Poissons Ratio (x) = 0.34358 0.70105
# Poissons Ratio (y) = 1.20541 -0.82794
# Poissons Ratio (z) = 0.62344 -0.20987
#
# Static dielectric constant tensor:
#      x y z
#    x 4.035080 0.075420 0.268080 
#    y 0.075420 3.591890 -0.025470 
#    z 0.268080 -0.025470 3.612890 
# 
# 
# High freq. dielectric constant tensor:
#      x y z
#    x 1.806890 0.009260 0.006890 
#    y 0.009260 1.802040 -0.011990 
#    z 0.006890 -0.011990 1.767300 
# 
# From -- ./inp_files/100754.got.cif
#   From: 2010.06.25/outbox.cif.g09.slc.cpg/sg2_51_cif.got.tgz:100754.got - 2010.06.27 13:26:56.
