data_PCOD8030894
_publ_section_title
;
Structure prediction by ZEFSAII (Michael W. Deem and Ramdas Pophale) SiO2 
 PCOD8030894
Probable space group: P -1
;
_chemical_formula_sum "Si O2"
_cell_formula_units_Z 16
_cell_length_a 16.159178
_cell_length_b 10.916261
_cell_length_c 11.180809
_cell_angle_alpha 111.711553
_cell_angle_beta 131.848748
_cell_angle_gamma 32.319971
_cell_volume 686.132274
_symmetry_space_group_name_H-M "P -1"
_symmetry_group_IT_number 2
_symmetry_cell_setting 'triclinic'
loop_
_space_group_symop_operation_xyz
x,y,z
-x,-y,-z
loop_
_atom_site_type_symbol
_atom_site_label
_atom_site_fract_x
_atom_site_fract_y
_atom_site_fract_z
Si Si1 0.902375 0.937594 0.966901
Si Si2 0.790664 0.608617 0.555990
Si Si3 0.606820 0.086042 0.562837
Si Si4 0.662342 0.598685 0.200083
Si Si5 0.833777 0.886565 0.110227
Si Si6 0.370146 0.734621 0.542590
Si Si7 0.912759 0.101617 0.322164
Si Si8 0.708418 0.407505 0.943808
O O1 0.745244 0.056124 0.751325
O O2 0.792664 0.184535 0.007486
O O3 0.931973 0.786060 0.033981
O O4 0.145301 0.718354 0.077091
O O5 0.736910 0.816319 0.586643
O O6 0.796001 0.561069 0.403270
O O7 0.033367 0.338638 0.749056
O O8 0.623235 0.694345 0.507297
O O9 0.588520 0.162222 0.438451
O O10 0.698470 0.417300 0.227421
O O11 0.734374 0.504161 0.096227
O O12 0.415504 0.908727 0.069899
O O13 0.827424 0.045258 0.191773
O O14 0.500000 0.500000 0.500000
O O15 0.462371 0.645799 0.736610
O O16 0.112261 0.955890 0.378813
O O17 0.000000 0.000000 0.500000
#
# Coordination Sequence:
#
# PCOD8030894 Si02
#       8
#     2   2   2   2   2   2   2   2
#     4  11  22  41  66 102 136 176 225 288 339 409
#     4  11  26  47  70  99 139 189 232 283 337 407
#     4  11  24  47  71  99 140 182 236 286 336 409
#     4  12  25  44  67 103 141 180 227 282 346 410
#     4  12  24  41  71 103 133 180 232 280 344 410
#     4  12  24  42  73 104 136 183 229 285 348 406
#     4  12  24  39  70 104 142 178 218 284 357 406
#     4  11  24  39  66 106 142 169 222 291 353 404
#
# _framework density 23.319118
#
# number of rings (size 3 to 8) (size 9 to 14) (size 15 to 20)
#    0.000    0.500    5.000    4.125    1.750    0.500 
#    2.250    3.125    0.000    0.000    0.000    0.000 
#    0.000    0.000    0.000    0.000    0.000    0.000 
#
# Total GULP energy -198275.364540 kJ/mol
# GULP energy per Si atom -12392.210284 kJ/mol
# Density = 2.326604 g / cm^3
# Si number density = 23.319118 Si / 1000 Ang^3
#
#
#
# Elastic Constant Matrix: (Units=GPa)
#
#
# Indices 1 2 3 4 5 6 
#
# 1 58.3501 14.6419 11.0602 -1.3310 -13.1615 9.1265
# 2 14.6419 90.7838 27.6448 -4.2631 -13.6619 4.2631
# 3 11.0602 27.6448 113.6139 -18.0735 -27.1437 -1.3980
# 4 -1.3310 -4.2631 -18.0735 35.9227 -3.0394 -11.7771
# 5 -13.1615 -13.6619 -27.1437 -3.0394 31.0295 3.0732
# 6 9.1265 4.2631 -1.3980 -11.7771 3.0732 19.7154
#
#
#
# Elastic Compliance Matrix: (Units=1/GPa)
#
#
# Indices 1 2 3 4 5 6 
#
# 1 0.021610 -0.001577 -0.000087 -0.002842 0.009388 -0.012830
# 2 -0.001577 0.012541 -0.002242 -0.000366 0.003138 -0.002849
# 3 -0.000087 -0.002242 0.013572 0.009231 0.011233 0.005251
# 4 -0.002842 -0.000366 0.009231 0.041386 0.008238 0.025488
# 5 0.009388 0.003138 0.011233 0.008238 0.048911 -0.006931
# 6 -0.012830 -0.002849 0.005251 0.025488 -0.006931 0.073955
#
#
# Mechanical properties :
#
#
# Convention : Reuss Voigt Hill
#
# Bulk Modulus (GPa) = 25.05541 41.04905 33.05223
# Shear Modulus (GPa) = 21.45099 31.29359 26.37229
#
# Velocity S-wave (km/s) = 3.03626 3.66727 3.36658
# Velocity P-wave (km/s) = 4.80205 5.96433 5.41447
#
# Compressibility (1/GPa) = 0.03991154
#
# Stress axis : x y z
#
# Youngs Moduli (GPa) = 46.27593 79.73888 73.67857
#
# Poissons Ratio (x) = 0.12575 0.00642
# Poissons Ratio (y) = 0.07298 0.16516
# Poissons Ratio (z) = 0.00403 0.17874
#
# Static dielectric constant tensor:
#      x y z
#    x 4.097530 -0.227240 -0.186140 
#    y -0.227240 4.173670 -0.111230 
#    z -0.186140 -0.111230 4.626660 
# 
# 
# High freq. dielectric constant tensor:
#      x y z
#    x 1.899580 -0.013220 -0.019860 
#    y -0.013220 1.910600 -0.000080 
#    z -0.019860 -0.000080 1.947060 
# 
# From -- ./inp_files/464688.got.cif
#   From: 2010.06.25/outbox.cif.g09.slc.cpg/sg2_233_cif.got.tgz:464688.got - 2010.06.27 13:26:56.
