data_PCOD8030437
_publ_section_title
;
Structure prediction by ZEFSAII (Michael W. Deem and Ramdas Pophale) SiO2 
 PCOD8030437
Probable space group: P -1
;
_chemical_formula_sum "Si O2"
_cell_formula_units_Z 16
_cell_length_a 12.779802
_cell_length_b 19.244335
_cell_length_c 9.053974
_cell_angle_alpha 79.748911
_cell_angle_beta 131.328795
_cell_angle_gamma 140.684538
_cell_volume 756.797365
_symmetry_space_group_name_H-M "P -1"
_symmetry_group_IT_number 2
_symmetry_cell_setting 'triclinic'
loop_
_space_group_symop_operation_xyz
x,y,z
-x,-y,-z
loop_
_atom_site_type_symbol
_atom_site_label
_atom_site_fract_x
_atom_site_fract_y
_atom_site_fract_z
Si Si1 0.320168 0.145327 0.162736
Si Si2 0.678360 0.171738 0.420007
Si Si3 0.364199 0.323019 0.612209
Si Si4 0.694040 0.837867 0.202302
Si Si5 0.195635 0.724219 0.814590
Si Si6 0.449890 0.616457 0.562521
Si Si7 0.825254 0.653282 0.956508
Si Si8 0.193050 0.852278 0.950276
O O1 0.485246 0.144090 0.337935
O O2 0.532130 0.299707 0.374823
O O3 0.270460 0.140650 0.947489
O O4 0.000000 0.000000 0.000000
O O5 0.845601 0.283202 0.395860
O O6 0.933011 0.251401 0.727251
O O7 0.459155 0.010695 0.224971
O O8 0.389481 0.279139 0.785417
O O9 0.494259 0.348589 0.572898
O O10 0.010415 0.182581 0.314388
O O11 0.547043 0.474242 0.775406
O O12 0.430216 0.767866 0.047363
O O13 0.000000 0.000000 0.500000
O O14 0.327415 0.855494 0.960232
O O15 0.880154 0.563145 0.654241
O O16 0.697358 0.675236 0.843253
O O17 0.981189 0.714656 0.919798
#
# Coordination Sequence:
#
# PCOD8030437 Si02
#       8
#     2   2   2   2   2   2   2   2
#     4  11  25  46  67  92 134 174 212 269 331 385
#     4  11  26  40  67  97 131 169 220 272 321 382
#     4  11  22  43  69  94 134 169 217 267 320 388
#     4  11  26  43  65  98 129 170 221 268 322 387
#     4  11  24  42  65  96 131 171 216 266 329 382
#     4  11  23  43  67  95 134 173 214 265 327 386
#     4  11  23  41  66 100 128 169 220 269 321 383
#     4  11  21  46  66  93 132 176 214 266 323 385
#
# _framework density 21.141722000000001
#
# number of rings (size 3 to 8) (size 9 to 14) (size 15 to 20)
#    0.000    1.000    2.500    5.250    3.500    6.000 
#    0.000    0.000    0.000    0.000    0.000    0.000 
#    0.000    0.000    0.000    0.000    0.000    0.000 
#
# Total GULP energy -198499.005472 kJ/mol
# GULP energy per Si atom -12406.187842 kJ/mol
# Density = 2.109360 g / cm^3
# Si number density = 21.141722 Si / 1000 Ang^3
#
#
#
# Elastic Constant Matrix: (Units=GPa)
#
#
# Indices 1 2 3 4 5 6 
#
# 1 96.9072 20.8276 35.4929 -1.4134 -14.6363 -6.8961
# 2 20.8276 83.6841 28.7025 -10.4955 1.1604 -4.1662
# 3 35.4929 28.7025 125.8086 -7.8061 1.6474 -2.1166
# 4 -1.4134 -10.4955 -7.8061 33.3836 -10.0250 -2.8942
# 5 -14.6363 1.1604 1.6474 -10.0250 18.3800 11.2298
# 6 -6.8961 -4.1662 -2.1166 -2.8942 11.2298 31.1670
#
#
#
# Elastic Compliance Matrix: (Units=1/GPa)
#
#
# Indices 1 2 3 4 5 6 
#
# 1 0.014273 -0.002246 -0.003544 0.003430 0.015262 -0.002564
# 2 -0.002246 0.013837 -0.002253 0.003316 -0.002016 0.002234
# 3 -0.003544 -0.002253 0.009549 0.000253 -0.004033 0.001040
# 4 0.003430 0.003316 0.000253 0.038760 0.026539 -0.004743
# 5 0.015262 -0.002016 -0.004033 0.026539 0.100387 -0.030872
# 6 -0.002564 0.002234 0.001040 -0.004743 -0.030872 0.042570
#
#
# Mechanical properties :
#
#
# Convention : Reuss Voigt Hill
#
# Bulk Modulus (GPa) = 46.35841 52.93845 49.64843
# Shear Modulus (GPa) = 20.60560 31.34457 25.97508
#
# Velocity S-wave (km/s) = 3.12531 3.85462 3.50897
# Velocity P-wave (km/s) = 5.91595 6.70112 6.32074
#
# Compressibility (1/GPa) = 0.02157106
#
# Stress axis : x y z
#
# Youngs Moduli (GPa) = 70.06389 72.27206 104.72681
#
# Poissons Ratio (x) = 0.16229 0.37119
# Poissons Ratio (y) = 0.15733 0.23600
# Poissons Ratio (z) = 0.24833 0.16286
#
# Static dielectric constant tensor:
#      x y z
#    x 4.178700 -0.074600 0.129090 
#    y -0.074600 3.992350 -0.090790 
#    z 0.129090 -0.090790 3.823080 
# 
# 
# High freq. dielectric constant tensor:
#      x y z
#    x 1.837250 -0.000810 0.002740 
#    y -0.000810 1.840750 0.004620 
#    z 0.002740 0.004620 1.829400 
# 
# From -- ./inp_files/190180.got.cif
#   From: 2010.06.25/outbox.cif.g09.slc.cpg/sg2_96_cif.got.tgz:190180.got - 2010.06.27 13:26:56.
