data_PCOD8030098
_publ_section_title
;
Structure prediction by ZEFSAII (Michael W. Deem and Ramdas Pophale) SiO2 
 PCOD8030098
Probable space group: P -1
;
_chemical_formula_sum "Si O2"
_cell_formula_units_Z 16
_cell_length_a 10.519339
_cell_length_b 14.135138
_cell_length_c 9.202746
_cell_angle_alpha 120.814259
_cell_angle_beta 110.533962
_cell_angle_gamma 116.805175
_cell_volume 683.009362
_symmetry_space_group_name_H-M "P -1"
_symmetry_group_IT_number 2
_symmetry_cell_setting 'triclinic'
loop_
_space_group_symop_operation_xyz
x,y,z
-x,-y,-z
loop_
_atom_site_type_symbol
_atom_site_label
_atom_site_fract_x
_atom_site_fract_y
_atom_site_fract_z
Si Si1 0.989670 0.766023 0.158579
Si Si2 0.593018 0.983273 0.649220
Si Si3 0.282590 0.570813 0.608717
Si Si4 0.335863 0.323001 0.698632
Si Si5 0.212056 0.776406 0.819038
Si Si6 0.318258 0.227766 0.910000
Si Si7 0.118528 0.876262 0.616586
Si Si8 0.618185 0.374203 0.634598
O O1 0.816602 0.754413 0.071983
O O2 0.166015 0.903577 0.212792
O O3 0.110268 0.830119 0.411582
O O4 0.861922 0.568994 0.928491
O O5 0.500000 0.000000 0.500000
O O6 0.425240 0.776174 0.442633
O O7 0.618335 0.068376 0.873910
O O8 0.276403 0.692420 0.753299
O O9 0.406812 0.637686 0.557888
O O10 0.037401 0.368911 0.340057
O O11 0.425570 0.592399 0.801550
O O12 0.277818 0.189167 0.688506
O O13 0.439093 0.341452 0.608345
O O14 0.123364 0.257817 0.521251
O O15 0.500000 0.500000 0.000000
O O16 0.241299 0.862205 0.748594
O O17 0.247377 0.071993 0.839124
#
# Coordination Sequence:
#
# PCOD8030098 Si02
#       8
#     2   2   2   2   2   2   2   2
#     4  11  25  47  70 112 141 183 242 289 350 427
#     4  12  29  48  73 107 144 185 237 298 348 429
#     4  11  27  47  71 101 142 196 231 296 353 420
#     4  11  21  42  69 107 137 184 234 286 352 419
#     4  11  27  49  68 103 145 183 246 286 355 428
#     4  11  23  43  73 102 143 184 237 292 356 416
#     4  11  23  42  73 102 145 184 232 298 350 421
#     4  12  25  45  74 102 145 185 238 285 360 410
#
# _framework density 23.425740000000001
#
# number of rings (size 3 to 8) (size 9 to 14) (size 15 to 20)
#    0.000    0.750    3.750    4.500    5.250    4.000 
#    0.000    2.500    0.000    0.000    0.000    0.000 
#    0.000    0.000    0.000    0.000    0.000    0.000 
#
# Total GULP energy -198450.270846 kJ/mol
# GULP energy per Si atom -12403.141928 kJ/mol
# Density = 2.337242 g / cm^3
# Si number density = 23.425740 Si / 1000 Ang^3
#
#
#
# Elastic Constant Matrix: (Units=GPa)
#
#
# Indices 1 2 3 4 5 6 
#
# 1 68.9539 13.5493 25.7739 -13.2175 -5.5066 12.5579
# 2 13.5493 82.3918 25.9439 2.5455 -8.1621 -0.8007
# 3 25.7739 25.9439 118.5853 -1.7314 -8.9435 -10.9336
# 4 -13.2175 2.5455 -1.7314 51.7411 -4.3525 1.2489
# 5 -5.5066 -8.1621 -8.9435 -4.3525 34.7810 -6.4953
# 6 12.5579 -0.8007 -10.9336 1.2489 -6.4953 42.5831
#
#
#
# Elastic Compliance Matrix: (Units=1/GPa)
#
#
# Indices 1 2 3 4 5 6 
#
# 1 0.018628 -0.001905 -0.004106 0.004944 0.000832 -0.006601
# 2 -0.001905 0.013440 -0.002319 -0.001052 0.002235 0.000591
# 3 -0.004106 -0.002319 0.010376 -0.000504 0.002191 0.004180
# 4 0.004944 -0.001052 -0.000504 0.020894 0.002683 -0.001811
# 5 0.000832 0.002235 0.002191 0.002683 0.031249 0.005047
# 6 -0.006601 0.000591 0.004180 -0.001811 0.005047 0.027338
#
#
# Mechanical properties :
#
#
# Convention : Reuss Voigt Hill
#
# Bulk Modulus (GPa) = 38.78206 44.49615 41.63910
# Shear Modulus (GPa) = 33.97232 39.46530 36.71881
#
# Velocity S-wave (km/s) = 3.81230 4.10896 3.96341
# Velocity P-wave (km/s) = 5.99745 6.44571 6.22562
#
# Compressibility (1/GPa) = 0.02578512
#
# Stress axis : x y z
#
# Youngs Moduli (GPa) = 53.68311 74.40381 96.37924
#
# Poissons Ratio (x) = 0.14174 0.39569
# Poissons Ratio (y) = 0.10227 0.22347
# Poissons Ratio (z) = 0.22040 0.17252
#
# Static dielectric constant tensor:
#      x y z
#    x 4.208940 0.301860 0.096420 
#    y 0.301860 4.872380 0.256490 
#    z 0.096420 0.256490 4.322790 
# 
# 
# High freq. dielectric constant tensor:
#      x y z
#    x 1.926530 0.007310 0.003550 
#    y 0.007310 1.939130 0.014070 
#    z 0.003550 0.014070 1.933770 
# 
# From -- ./inp_files/274114.got.cif
#   From: 2010.06.25/outbox.cif.g09.slc.cpg/sg2_138_cif.got.tgz:274114.got - 2010.06.27 13:26:56.
