data_PCOD8030008
_publ_section_title
;
Structure prediction by ZEFSAII (Michael W. Deem and Ramdas Pophale) SiO2 
 PCOD8030008
Probable space group: P -1
;
_chemical_formula_sum "Si O2"
_cell_formula_units_Z 16
_cell_length_a 10.583857
_cell_length_b 8.096206
_cell_length_c 15.872207
_cell_angle_alpha 124.897356
_cell_angle_beta 99.987097
_cell_angle_gamma 46.353348
_cell_volume 748.894431
_symmetry_space_group_name_H-M "P -1"
_symmetry_group_IT_number 2
_symmetry_cell_setting 'triclinic'
loop_
_space_group_symop_operation_xyz
x,y,z
-x,-y,-z
loop_
_atom_site_type_symbol
_atom_site_label
_atom_site_fract_x
_atom_site_fract_y
_atom_site_fract_z
Si Si1 0.715528 0.834479 0.388835
Si Si2 0.786138 0.636686 0.165229
Si Si3 0.738096 0.470071 0.812861
Si Si4 0.796321 0.837998 0.957157
Si Si5 0.425534 0.390647 0.999235
Si Si6 0.074532 0.009873 0.595753
Si Si7 0.329816 0.467778 0.586921
Si Si8 0.649292 0.157141 0.200970
O O1 0.684600 0.731825 0.271983
O O2 0.869118 0.826336 0.376190
O O3 0.773427 0.611314 0.406099
O O4 0.531920 0.166316 0.490327
O O5 0.706489 0.575358 0.070187
O O6 0.007423 0.330126 0.113560
O O7 0.754227 0.904246 0.209976
O O8 0.798303 0.600486 0.909748
O O9 0.560775 0.688047 0.792444
O O10 0.913866 0.186688 0.699469
O O11 0.679152 0.407382 0.869196
O O12 0.614572 0.048279 0.937766
O O13 0.770744 0.004694 0.085112
O O14 0.500000 0.500000 0.000000
O O15 0.231929 0.679709 0.555885
O O16 0.000000 0.000000 0.500000
O O17 0.356892 0.604789 0.701777
#
# Coordination Sequence:
#
# PCOD8030008 Si02
#       8
#     2   2   2   2   2   2   2   2
#     4  11  26  46  67 101 135 180 236 287 353 415
#     4  12  23  40  73  97 135 186 230 277 348 419
#     4  11  22  43  64 100 137 176 230 283 349 414
#     4  11  22  41  65  98 132 178 231 273 343 415
#     4  11  26  42  62 103 146 181 224 287 344 411
#     4  12  26  44  73 101 132 183 236 287 356 419
#     4  11  26  46  68  98 137 179 234 292 350 419
#     4  11  21  41  70  93 133 179 225 285 345 414
#
# _framework density 21.364826999999998
#
# number of rings (size 3 to 8) (size 9 to 14) (size 15 to 20)
#    0.000    0.750    5.000    2.250    7.000    2.000 
#    0.000    0.000    0.000    0.000    0.000    0.000 
#    0.000    0.000    0.000    0.000    0.000    0.000 
#
# Total GULP energy -198245.689847 kJ/mol
# GULP energy per Si atom -12390.355615 kJ/mol
# Density = 2.131620 g / cm^3
# Si number density = 21.364827 Si / 1000 Ang^3
#
#
#
# Elastic Constant Matrix: (Units=GPa)
#
#
# Indices 1 2 3 4 5 6 
#
# 1 107.2203 44.7406 50.9893 -1.7818 -7.9468 9.4652
# 2 44.7406 55.8547 31.1152 -9.8796 4.1057 0.6334
# 3 50.9893 31.1152 145.2695 -0.8429 -0.7447 -1.8206
# 4 -1.7818 -9.8796 -0.8429 32.6395 -5.4682 -3.0150
# 5 -7.9468 4.1057 -0.7447 -5.4682 24.4300 -6.1032
# 6 9.4652 0.6334 -1.8206 -3.0150 -6.1032 32.7327
#
#
#
# Elastic Compliance Matrix: (Units=1/GPa)
#
#
# Indices 1 2 3 4 5 6 
#
# 1 0.016832 -0.012462 -0.003270 -0.002297 0.005980 -0.003904
# 2 -0.012462 0.030973 -0.002223 0.007668 -0.007043 0.002274
# 3 -0.003270 -0.002223 0.008521 -0.000539 -0.000208 0.001374
# 4 -0.002297 0.007668 -0.000539 0.034430 0.006889 0.004942
# 5 0.005980 -0.007043 -0.000208 0.006889 0.047572 0.007900
# 6 -0.003904 0.002274 0.001374 0.004942 0.007900 0.033640
#
#
# Mechanical properties :
#
#
# Convention : Reuss Voigt Hill
#
# Bulk Modulus (GPa) = 48.98537 62.44830 55.71683
# Shear Modulus (GPa) = 23.29023 30.06038 26.67530
#
# Velocity S-wave (km/s) = 3.30528 3.75507 3.53733
# Velocity P-wave (km/s) = 6.12734 6.93496 6.54362
#
# Compressibility (1/GPa) = 0.02041426
#
# Stress axis : x y z
#
# Youngs Moduli (GPa) = 59.41137 32.28662 117.36081
#
# Poissons Ratio (x) = 0.40237 0.38380
# Poissons Ratio (y) = 0.74041 0.26087
# Poissons Ratio (z) = 0.19429 0.07177
#
# Static dielectric constant tensor:
#      x y z
#    x 3.478150 -0.276650 -0.589510 
#    y -0.276650 3.629220 -0.406500 
#    z -0.589510 -0.406500 3.419760 
# 
# 
# High freq. dielectric constant tensor:
#      x y z
#    x 1.834450 -0.002740 -0.002550 
#    y -0.002740 1.830800 -0.001580 
#    z -0.002550 -0.001580 1.855500 
# 
# From -- ./inp_files/514622.got.cif
#   From: 2010.06.25/outbox.cif.g09.slc.cpg/sg2_258_cif.got.tgz:514622.got - 2010.06.27 13:26:56.
