data_PCOD8030658
_publ_section_title
;
Structure prediction by ZEFSAII (Michael W. Deem and Ramdas Pophale) SiO2 
 PCOD8030658
Probable space group: P -1
;
_chemical_formula_sum "Si O2"
_cell_formula_units_Z 16
_cell_length_a 10.738857
_cell_length_b 12.420990
_cell_length_c 11.440779
_cell_angle_alpha 120.017235
_cell_angle_beta 146.219953
_cell_angle_gamma 71.894345
_cell_volume 716.992339
_symmetry_space_group_name_H-M "P -1"
_symmetry_group_IT_number 2
_symmetry_cell_setting 'triclinic'
loop_
_space_group_symop_operation_xyz
x,y,z
-x,-y,-z
loop_
_atom_site_type_symbol
_atom_site_label
_atom_site_fract_x
_atom_site_fract_y
_atom_site_fract_z
Si Si1 0.883095 0.067815 0.098271
Si Si2 0.993206 0.902462 0.541843
Si Si3 0.894224 0.619519 0.017290
Si Si4 0.418790 0.569173 0.751036
Si Si5 0.330230 0.285293 0.533485
Si Si6 0.736164 0.261634 0.453713
Si Si7 0.513984 0.231901 0.885533
Si Si8 0.295478 0.210039 0.217783
O O1 0.942362 0.022524 0.247785
O O2 0.088865 0.183213 0.283979
O O3 0.650926 0.120019 0.942147
O O4 0.853282 0.930823 0.934744
O O5 0.188142 0.823544 0.633402
O O6 0.745608 0.811358 0.299931
O O7 0.000000 0.000000 0.500000
O O8 0.678525 0.576179 0.912947
O O9 0.843933 0.695128 0.902548
O O10 0.000000 0.500000 0.000000
O O11 0.083727 0.717359 0.289926
O O12 0.290017 0.425741 0.603475
O O13 0.284274 0.609105 0.556999
O O14 0.391115 0.648552 0.890385
O O15 0.511059 0.262359 0.760513
O O16 0.424134 0.279464 0.471412
O O17 0.490858 0.186450 0.269198
#
# Coordination Sequence:
#
# PCOD8030658 Si02
#       8
#     2   2   2   2   2   2   2   2
#     4  11  25  43  66  94 134 176 218 271 324 383
#     4  11  22  39  66  99 129 165 217 267 334 390
#     4  11  23  41  69 100 132 171 211 273 336 383
#     4  11  23  43  67  99 134 165 227 270 325 392
#     4  11  26  44  63  93 135 180 225 263 314 398
#     4  11  22  39  69  98 128 165 210 277 332 380
#     4  11  24  43  65  99 130 175 220 269 326 386
#     4  11  25  44  66 100 132 172 222 268 327 395
#
# _framework density 22.315439999999999
#
# number of rings (size 3 to 8) (size 9 to 14) (size 15 to 20)
#    0.000    1.000    2.500    3.750    1.750    8.000 
#    0.000    0.000    0.000    0.000    0.000    0.000 
#    0.000    0.000    0.000    0.000    0.000    0.000 
#
# Total GULP energy -198317.402458 kJ/mol
# GULP energy per Si atom -12394.837654 kJ/mol
# Density = 2.226465 g / cm^3
# Si number density = 22.315440 Si / 1000 Ang^3
#
#
#
# Elastic Constant Matrix: (Units=GPa)
#
#
# Indices 1 2 3 4 5 6 
#
# 1 50.9882 33.7169 27.5276 -11.1812 -14.9265 -1.0332
# 2 33.7169 144.9288 46.3190 2.6032 -5.8912 3.1835
# 3 27.5276 46.3190 94.8762 -2.0176 -21.3737 6.9224
# 4 -11.1812 2.6032 -2.0176 33.5504 -6.9096 -2.8107
# 5 -14.9265 -5.8912 -21.3737 -6.9096 37.4366 -3.4008
# 6 -1.0332 3.1835 6.9224 -2.8107 -3.4008 40.2552
#
#
#
# Elastic Compliance Matrix: (Units=1/GPa)
#
#
# Indices 1 2 3 4 5 6 
#
# 1 0.032657 -0.006308 -0.003449 0.014189 0.013043 0.004023
# 2 -0.006308 0.009482 -0.003708 -0.003948 -0.003949 -0.000883
# 3 -0.003449 -0.003708 0.015011 0.001275 0.006690 -0.001722
# 4 0.014189 -0.003948 0.001275 0.037981 0.013157 0.004221
# 5 0.013043 -0.003949 0.006690 0.013157 0.037868 0.003614
# 6 0.004023 -0.000883 -0.001722 0.004221 0.003614 0.025911
#
#
# Mechanical properties :
#
#
# Convention : Reuss Voigt Hill
#
# Bulk Modulus (GPa) = 33.09069 56.21334 44.65201
# Shear Modulus (GPa) = 25.52137 34.46375 29.99256
#
# Velocity S-wave (km/s) = 3.38548 3.93414 3.67007
# Velocity P-wave (km/s) = 5.49024 6.77360 6.16540
#
# Compressibility (1/GPa) = 0.03021998
#
# Stress axis : x y z
#
# Youngs Moduli (GPa) = 30.62108 105.45761 66.61739
#
# Poissons Ratio (x) = 0.66526 0.22975
# Poissons Ratio (y) = 0.19317 0.24703
# Poissons Ratio (z) = 0.10561 0.39106
#
# Static dielectric constant tensor:
#      x y z
#    x 3.933710 0.282560 -0.226510 
#    y 0.282560 3.413370 -0.104010 
#    z -0.226510 -0.104010 4.071810 
# 
# 
# High freq. dielectric constant tensor:
#      x y z
#    x 1.880860 0.002520 -0.014930 
#    y 0.002520 1.886570 -0.003300 
#    z -0.014930 -0.003300 1.885640 
# 
# From -- ./inp_files/69879.got.cif
#   From: 2010.06.25/outbox.cif.g09.slc.cpg/sg2_35_cif.got.tgz:69879.got - 2010.06.27 13:26:56.
