data_PCOD8030141
_publ_section_title
;
Structure prediction by ZEFSAII (Michael W. Deem and Ramdas Pophale) SiO2 
 PCOD8030141
Probable space group: P -1
;
_chemical_formula_sum "Si O2"
_cell_formula_units_Z 16
_cell_length_a 9.705530
_cell_length_b 17.917160
_cell_length_c 16.655233
_cell_angle_alpha 36.595946
_cell_angle_beta 147.025230
_cell_angle_gamma 149.837125
_cell_volume 759.551040
_symmetry_space_group_name_H-M "P -1"
_symmetry_group_IT_number 2
_symmetry_cell_setting 'triclinic'
loop_
_space_group_symop_operation_xyz
x,y,z
-x,-y,-z
loop_
_atom_site_type_symbol
_atom_site_label
_atom_site_fract_x
_atom_site_fract_y
_atom_site_fract_z
Si Si1 0.747231 0.870234 0.047111
Si Si2 0.267092 0.319217 0.195882
Si Si3 0.236327 0.599578 0.923199
Si Si4 0.648465 0.593899 0.666293
Si Si5 0.807917 0.375900 0.300998
Si Si6 0.394009 0.978907 0.876057
Si Si7 0.846722 0.728834 0.356635
Si Si8 0.472998 0.704738 0.345056
O O1 0.940405 0.859356 0.223357
O O2 0.531591 0.711321 0.028740
O O3 0.529565 0.914092 0.939405
O O4 0.000000 0.000000 0.000000
O O5 0.387472 0.336202 0.330866
O O6 0.537732 0.364400 0.227610
O O7 0.980398 0.140418 0.200139
O O8 0.162176 0.430733 0.030267
O O9 0.304876 0.669880 0.806329
O O10 0.934397 0.581162 0.827117
O O11 0.324720 0.428273 0.641296
O O12 0.695703 0.697310 0.523345
O O13 0.863842 0.252338 0.471630
O O14 0.119748 0.551172 0.307301
O O15 0.510832 0.145026 0.754269
O O16 0.500000 0.000000 0.000000
O O17 0.604674 0.720864 0.306847
#
# Coordination Sequence:
#
# PCOD8030141 Si02
#       8
#     2   2   2   2   2   2   2   2
#     4  12  28  44  70 101 134 180 225 279 341 398
#     4  12  26  41  67 105 135 176 226 282 332 390
#     4  12  22  45  69  96 132 175 233 273 321 404
#     4  11  21  42  71  98 127 180 228 273 331 400
#     4  11  25  42  74 102 132 178 232 276 326 400
#     4  12  26  43  66  96 141 179 216 277 347 393
#     4  11  21  47  70  97 134 180 224 275 339 398
#     4  11  23  42  72  98 138 178 224 274 341 399
#
# _framework density 21.065075
#
# number of rings (size 3 to 8) (size 9 to 14) (size 15 to 20)
#    0.000    0.500    6.250    3.000    3.500    3.500 
#    2.250    1.250    0.000    0.000    0.000    0.000 
#    0.000    0.000    0.000    0.000    0.000    0.000 
#
# Total GULP energy -198440.176117 kJ/mol
# GULP energy per Si atom -12402.511007 kJ/mol
# Density = 2.101713 g / cm^3
# Si number density = 21.065075 Si / 1000 Ang^3
#
#
#
# Elastic Constant Matrix: (Units=GPa)
#
#
# Indices 1 2 3 4 5 6 
#
# 1 111.0551 25.2599 24.4823 4.9099 -9.4857 8.5617
# 2 25.2599 52.8915 22.8118 -9.0732 -0.4032 -2.1657
# 3 24.4823 22.8118 120.9230 -13.5423 -10.3332 4.0491
# 4 4.9099 -9.0732 -13.5423 32.2981 -5.7987 -5.4516
# 5 -9.4857 -0.4032 -10.3332 -5.7987 37.7392 -1.2118
# 6 8.5617 -2.1657 4.0491 -5.4516 -1.2118 33.2482
#
#
#
# Elastic Compliance Matrix: (Units=1/GPa)
#
#
# Indices 1 2 3 4 5 6 
#
# 1 0.011200 -0.005597 -0.001422 -0.004210 0.001600 -0.003707
# 2 -0.005597 0.024204 -0.002849 0.007091 -0.000694 0.004502
# 3 -0.001422 -0.002849 0.009800 0.004004 0.002902 -0.000251
# 4 -0.004210 0.007091 0.004004 0.037632 0.006135 0.007452
# 5 0.001600 -0.000694 0.002902 0.006135 0.028670 0.001240
# 6 -0.003707 0.004502 -0.000251 0.007452 0.001240 0.032622
#
#
# Mechanical properties :
#
#
# Convention : Reuss Voigt Hill
#
# Bulk Modulus (GPa) = 39.26604 47.77528 43.52066
# Shear Modulus (GPa) = 29.01030 34.81147 31.91089
#
# Velocity S-wave (km/s) = 3.71506 4.06959 3.89636
# Velocity P-wave (km/s) = 6.08958 6.69411 6.39899
#
# Compressibility (1/GPa) = 0.02546730
#
# Stress axis : x y z
#
# Youngs Moduli (GPa) = 89.28755 41.31574 102.04209
#
# Poissons Ratio (x) = 0.23125 0.14513
# Poissons Ratio (y) = 0.49976 0.29069
# Poissons Ratio (z) = 0.12699 0.11770
#
# Static dielectric constant tensor:
#      x y z
#    x 3.982060 -0.122530 -0.178080 
#    y -0.122530 3.827860 -0.128330 
#    z -0.178080 -0.128330 4.343460 
# 
# 
# High freq. dielectric constant tensor:
#      x y z
#    x 1.832190 -0.007320 -0.015460 
#    y -0.007320 1.808490 -0.000970 
#    z -0.015460 -0.000970 1.841520 
# 
# From -- ./inp_files/189911.got.cif
#   From: 2010.06.25/outbox.cif.g09.slc.cpg/sg2_95_cif.got.tgz:189911.got - 2010.06.27 13:26:56.
