data_PCOD8030225
_publ_section_title
;
Structure prediction by ZEFSAII (Michael W. Deem and Ramdas Pophale) SiO2 
 PCOD8030225
Probable space group: P -1
;
_chemical_formula_sum "Si O2"
_cell_formula_units_Z 16
_cell_length_a 11.802807
_cell_length_b 11.215207
_cell_length_c 12.818316
_cell_angle_alpha 80.957727
_cell_angle_beta 134.219251
_cell_angle_gamma 63.848018
_cell_volume 755.095895
_symmetry_space_group_name_H-M "P -1"
_symmetry_group_IT_number 2
_symmetry_cell_setting 'triclinic'
loop_
_space_group_symop_operation_xyz
x,y,z
-x,-y,-z
loop_
_atom_site_type_symbol
_atom_site_label
_atom_site_fract_x
_atom_site_fract_y
_atom_site_fract_z
Si Si1 0.461583 0.040210 0.847247
Si Si2 0.922896 0.180717 0.208404
Si Si3 0.654379 0.477385 0.514325
Si Si4 0.912371 0.287242 0.405463
Si Si5 0.282021 0.765196 0.548646
Si Si6 0.078876 0.356718 0.918607
Si Si7 0.519755 0.687815 0.197953
Si Si8 0.872048 0.420708 0.995440
O O1 0.458802 0.182070 0.795333
O O2 0.206702 0.127511 0.636036
O O3 0.500000 0.000000 0.000000
O O4 0.677121 0.846189 0.947588
O O5 0.846807 0.310515 0.238583
O O6 0.969212 0.239420 0.132480
O O7 0.709557 0.210174 0.039272
O O8 0.179825 0.957829 0.429816
O O9 0.500000 0.500000 0.500000
O O10 0.821561 0.274386 0.593406
O O11 0.482740 0.648603 0.294150
O O12 0.835042 0.469795 0.679588
O O13 0.809882 0.222940 0.398542
O O14 0.773387 0.486688 0.335453
O O15 0.581653 0.585849 0.753757
O O16 0.097780 0.490113 0.913538
O O17 0.050007 0.329765 0.022441
#
# Coordination Sequence:
#
# PCOD8030225 Si02
#       8
#     2   2   2   2   2   2   2   2
#     4  12  26  44  68 101 138 180 231 284 337 408
#     4  12  23  41  71 100 134 181 225 277 337 411
#     4  11  21  43  70  94 134 176 218 282 340 396
#     4  11  24  42  66 100 141 176 225 283 339 400
#     4  11  23  44  67 103 133 174 233 276 337 407
#     4  11  25  46  67  97 139 178 223 283 344 401
#     4  11  24  41  66 101 134 176 233 275 346 404
#     4  11  25  46  68 100 138 179 225 280 343 404
#
# _framework density 21.189363
#
# number of rings (size 3 to 8) (size 9 to 14) (size 15 to 20)
#    0.000    0.750    3.750    4.875    3.500    1.000 
#    0.000    4.375    0.000    0.000    0.000    0.000 
#    0.000    0.000    0.000    0.000    0.000    0.000 
#
# Total GULP energy -198436.370179 kJ/mol
# GULP energy per Si atom -12402.273136 kJ/mol
# Density = 2.114114 g / cm^3
# Si number density = 21.189363 Si / 1000 Ang^3
#
#
#
# Elastic Constant Matrix: (Units=GPa)
#
#
# Indices 1 2 3 4 5 6 
#
# 1 99.1234 38.9325 34.6258 -12.7521 -1.0268 -6.6591
# 2 38.9325 108.8957 28.1577 0.5227 -3.8346 -2.8768
# 3 34.6258 28.1577 72.8656 5.7044 0.8654 -5.2782
# 4 -12.7521 0.5227 5.7044 38.4152 5.7392 -1.0215
# 5 -1.0268 -3.8346 0.8654 5.7392 35.7597 1.8058
# 6 -6.6591 -2.8768 -5.2782 -1.0215 1.8058 34.8507
#
#
#
# Elastic Compliance Matrix: (Units=1/GPa)
#
#
# Indices 1 2 3 4 5 6 
#
# 1 0.014404 -0.003676 -0.005743 0.005863 -0.000873 0.001796
# 2 -0.003676 0.011196 -0.002520 -0.001209 0.001363 -0.000266
# 3 -0.005743 -0.002520 0.017871 -0.004459 -0.000217 0.001282
# 4 0.005863 -0.001209 -0.004459 0.029388 -0.004643 0.001447
# 5 -0.000873 0.001363 -0.000217 -0.004643 0.028923 -0.001722
# 6 0.001796 -0.000266 0.001282 0.001447 -0.001722 0.029341
#
#
# Mechanical properties :
#
#
# Convention : Reuss Voigt Hill
#
# Bulk Modulus (GPa) = 51.03919 53.81296 52.42607
# Shear Modulus (GPa) = 30.95338 33.74969 32.35154
#
# Velocity S-wave (km/s) = 3.82619 3.99528 3.91164
# Velocity P-wave (km/s) = 6.60750 6.83625 6.72285
#
# Compressibility (1/GPa) = 0.01959279
#
# Stress axis : x y z
#
# Youngs Moduli (GPa) = 69.42387 89.31807 55.95559
#
# Poissons Ratio (x) = 0.32836 0.32134
# Poissons Ratio (y) = 0.25523 0.14102
# Poissons Ratio (z) = 0.39868 0.22511
#
# Static dielectric constant tensor:
#      x y z
#    x 3.945000 0.029210 -0.023660 
#    y 0.029210 4.018010 0.220520 
#    z -0.023660 0.220520 3.853460 
# 
# 
# High freq. dielectric constant tensor:
#      x y z
#    x 1.838040 0.003440 -0.001890 
#    y 0.003440 1.842830 0.013900 
#    z -0.001890 0.013900 1.829090 
# 
# From -- ./inp_files/273461.got.cif
#   From: 2010.06.25/outbox.cif.g09.slc.cpg/sg2_137_cif.got.tgz:273461.got - 2010.06.27 13:26:56.
