data_PCOD8030031
_publ_section_title
;
Structure prediction by ZEFSAII (Michael W. Deem and Ramdas Pophale) SiO2 
 PCOD8030031
Probable space group: P -1
;
_chemical_formula_sum "Si O2"
_cell_formula_units_Z 16
_cell_length_a 17.585602
_cell_length_b 12.808238
_cell_length_c 9.652812
_cell_angle_alpha 43.555073
_cell_angle_beta 107.142735
_cell_angle_gamma 141.145751
_cell_volume 734.633283
_symmetry_space_group_name_H-M "P -1"
_symmetry_group_IT_number 2
_symmetry_cell_setting 'triclinic'
loop_
_space_group_symop_operation_xyz
x,y,z
-x,-y,-z
loop_
_atom_site_type_symbol
_atom_site_label
_atom_site_fract_x
_atom_site_fract_y
_atom_site_fract_z
Si Si1 0.265422 0.749359 0.302081
Si Si2 0.504062 0.331440 0.201206
Si Si3 0.519596 0.370347 0.706693
Si Si4 0.161087 0.668406 0.612687
Si Si5 0.002342 0.313663 0.380012
Si Si6 0.736209 0.664568 0.782040
Si Si7 0.471894 0.799765 0.392903
Si Si8 0.182481 0.531382 0.013607
O O1 0.154734 0.620584 0.493225
O O2 0.378472 0.801885 0.364997
O O3 0.149419 0.489726 0.375139
O O4 0.364301 0.054448 0.003879
O O5 0.573220 0.400717 0.322951
O O6 0.329487 0.997173 0.427847
O O7 0.500000 0.500000 0.000000
O O8 0.600836 0.397764 0.073981
O O9 0.500000 0.500000 0.500000
O O10 0.658989 0.619658 0.651237
O O11 0.568686 0.329518 0.656040
O O12 0.034338 0.585136 0.668149
O O13 0.133155 0.477082 0.879548
O O14 0.054165 0.406261 0.158776
O O15 0.851264 0.961159 0.643746
O O16 0.823873 0.658675 0.782006
O O17 0.652453 0.132029 0.178448
#
# Coordination Sequence:
#
# PCOD8030031 Si02
#       8
#     2   2   2   2   2   2   2   2
#     4  12  24  47  67 100 136 176 229 271 334 401
#     4  11  21  41  71  99 132 170 225 281 327 386
#     4  12  25  40  70 103 133 171 224 277 329 392
#     4  11  24  42  70  96 131 180 225 270 337 394
#     4  12  26  42  67  95 146 178 210 279 338 398
#     4  12  24  44  68 101 134 173 228 275 332 396
#     4  11  23  43  73 100 132 176 223 284 331 385
#     4  11  23  43  69 100 131 177 225 272 335 399
#
# _framework density 21.779574
#
# number of rings (size 3 to 8) (size 9 to 14) (size 15 to 20)
#    0.000    0.500    5.000    3.750    1.750    3.000 
#    0.000    3.750    0.000    0.000    0.000    0.000 
#    0.000    0.000    0.000    0.000    0.000    0.000 
#
# Total GULP energy -198399.438017 kJ/mol
# GULP energy per Si atom -12399.964876 kJ/mol
# Density = 2.173000 g / cm^3
# Si number density = 21.779574 Si / 1000 Ang^3
#
#
#
# Elastic Constant Matrix: (Units=GPa)
#
#
# Indices 1 2 3 4 5 6 
#
# 1 113.0744 15.2067 52.7400 11.1416 -4.6608 -4.6391
# 2 15.2067 99.4565 43.1896 11.5159 5.2115 -1.7070
# 3 52.7400 43.1896 93.4058 27.4021 4.7923 10.7722
# 4 11.1416 11.5159 27.4021 36.2591 -5.6908 -4.2636
# 5 -4.6608 5.2115 4.7923 -5.6908 38.5160 7.7148
# 6 -4.6391 -1.7070 10.7722 -4.2636 7.7148 31.0493
#
#
#
# Elastic Compliance Matrix: (Units=1/GPa)
#
#
# Indices 1 2 3 4 5 6 
#
# 1 0.013379 0.002015 -0.010493 0.004192 0.002109 0.005802
# 2 0.002015 0.013253 -0.008218 0.001719 -0.001155 0.004404
# 3 -0.010493 -0.008218 0.026939 -0.016562 -0.003393 -0.012797
# 4 0.004192 0.001719 -0.016562 0.040469 0.006216 0.010479
# 5 0.002109 -0.001155 -0.003393 0.006216 0.028686 -0.004845
# 6 0.005802 0.004404 -0.012797 0.010479 -0.004845 0.040398
#
#
# Mechanical properties :
#
#
# Convention : Reuss Voigt Hill
#
# Bulk Modulus (GPa) = 49.56031 58.68994 54.12512
# Shear Modulus (GPa) = 24.60121 34.15158 29.37639
#
# Velocity S-wave (km/s) = 3.36453 3.96416 3.67659
# Velocity P-wave (km/s) = 6.15615 6.92521 6.55198
#
# Compressibility (1/GPa) = 0.02017744
#
# Stress axis : x y z
#
# Youngs Moduli (GPa) = 74.74575 75.45744 37.12079
#
# Poissons Ratio (x) = -0.15202 0.38950
# Poissons Ratio (y) = -0.15058 0.30507
# Poissons Ratio (z) = 0.78428 0.62014
#
# Static dielectric constant tensor:
#      x y z
#    x 3.628730 -0.116270 -0.732470 
#    y -0.116270 3.990150 0.085880 
#    z -0.732470 0.085880 3.067030 
# 
# 
# High freq. dielectric constant tensor:
#      x y z
#    x 1.862020 -0.000770 -0.009420 
#    y -0.000770 1.857750 0.017290 
#    z -0.009420 0.017290 1.853260 
# 
# From -- ./inp_files/185060.got.cif
#   From: 2010.06.25/outbox.cif.g09.slc.cpg/sg2_93_cif.got.tgz:185060.got - 2010.06.27 13:26:56.
