data_PCOD8030429
_publ_section_title
;
Structure prediction by ZEFSAII (Michael W. Deem and Ramdas Pophale) SiO2 
 PCOD8030429
Probable space group: P -1
;
_chemical_formula_sum "Si O2"
_cell_formula_units_Z 14
_cell_length_a 9.679587
_cell_length_b 14.243032
_cell_length_c 15.072040
_cell_angle_alpha 149.508285
_cell_angle_beta 38.539097
_cell_angle_gamma 143.879940
_cell_volume 595.214457
_symmetry_space_group_name_H-M "P -1"
_symmetry_group_IT_number 2
_symmetry_cell_setting 'triclinic'
loop_
_space_group_symop_operation_xyz
x,y,z
-x,-y,-z
loop_
_atom_site_type_symbol
_atom_site_label
_atom_site_fract_x
_atom_site_fract_y
_atom_site_fract_z
Si Si1 0.249070 0.388469 0.483180
Si Si2 0.077162 0.386482 0.944827
Si Si3 0.444336 0.999535 0.630632
Si Si4 0.414231 0.347946 0.031456
Si Si5 0.919271 0.000399 0.441886
Si Si6 0.982896 0.334087 0.142469
Si Si7 0.885687 0.869058 0.826923
O O1 0.500000 0.500000 0.500000
O O2 0.164533 0.567817 0.645547
O O3 0.280678 0.282021 0.289818
O O4 0.046595 0.220359 0.510673
O O5 0.370341 0.478839 0.882003
O O6 0.988642 0.148692 0.776616
O O7 0.000000 0.500000 0.000000
O O8 0.957331 0.402578 0.110899
O O9 0.622958 0.915137 0.520293
O O10 0.500000 0.000000 0.500000
O O11 0.521969 0.223385 0.814952
O O12 0.154756 0.870058 0.686556
O O13 0.216529 0.204151 0.084145
O O14 0.268196 0.437902 0.113891
O O15 0.000000 0.000000 0.500000
O O16 0.882947 0.089758 0.997608
#
# Coordination Sequence:
#
# PCOD8030429 Si02
#       7
#     2   2   2   2   2   2   2
#     4  12  28  46  72 108 148 190 244 302 372 433
#     4  12  26  45  72 106 146 196 243 301 366 439
#     4  11  21  45  76 100 141 187 241 299 354 432
#     4  11  26  46  73 111 146 190 245 300 371 433
#     4  12  26  46  70 107 143 189 248 304 358 436
#     4  11  24  48  75 102 145 194 246 298 364 437
#     4  11  26  49  74 112 147 192 244 305 368 429
#
# _framework density 23.520935999999999
#
# number of rings (size 3 to 8) (size 9 to 14) (size 15 to 20)
#    0.000    0.571    2.857    5.571    6.000    5.714 
#    0.000    0.000    0.000    0.000    0.000    0.000 
#    0.000    0.000    0.000    0.000    0.000    0.000 
#
# Total GULP energy -173577.502572 kJ/mol
# GULP energy per Si atom -12398.393041 kJ/mol
# Density = 2.346740 g / cm^3
# Si number density = 23.520936 Si / 1000 Ang^3
#
#
#
# Elastic Constant Matrix: (Units=GPa)
#
#
# Indices 1 2 3 4 5 6 
#
# 1 149.1649 9.5788 54.6400 13.0168 8.6373 4.5876
# 2 9.5788 61.9447 35.9307 7.3465 13.9862 1.7941
# 3 54.6400 35.9307 149.3841 12.4434 -1.4686 0.2155
# 4 13.0168 7.3465 12.4434 30.5902 -4.3198 9.9182
# 5 8.6373 13.9862 -1.4686 -4.3198 40.8206 -2.9303
# 6 4.5876 1.7941 0.2155 9.9182 -2.9303 44.3328
#
#
#
# Elastic Compliance Matrix: (Units=1/GPa)
#
#
# Indices 1 2 3 4 5 6 
#
# 1 0.008173 0.001513 -0.003146 -0.002797 -0.002689 -0.000444
# 2 0.001513 0.021521 -0.005426 -0.004624 -0.008416 -0.000523
# 3 -0.003146 -0.005426 0.009262 -0.001025 0.002815 0.000916
# 4 -0.002797 -0.004624 -0.001025 0.038742 0.005678 -0.007811
# 5 -0.002689 -0.008416 0.002815 0.005678 0.028740 0.001234
# 6 -0.000444 -0.000523 0.000916 -0.007811 0.001234 0.024448
#
#
# Mechanical properties :
#
#
# Convention : Reuss Voigt Hill
#
# Bulk Modulus (GPa) = 40.26470 62.31029 51.28750
# Shear Modulus (GPa) = 32.61928 40.50501 36.56215
#
# Velocity S-wave (km/s) = 3.72804 4.15430 3.94693
# Velocity P-wave (km/s) = 5.97385 7.03988 6.52866
#
# Compressibility (1/GPa) = 0.02483565
#
# Stress axis : x y z
#
# Youngs Moduli (GPa) = 122.35981 46.46694 107.97118
#
# Poissons Ratio (x) = -0.07029 0.33967
# Poissons Ratio (y) = -0.18508 0.58589
# Poissons Ratio (z) = 0.38493 0.25215
#
# Static dielectric constant tensor:
#      x y z
#    x 4.501730 0.209860 0.159640 
#    y 0.209860 4.220350 0.084340 
#    z 0.159640 0.084340 4.380280 
# 
# 
# High freq. dielectric constant tensor:
#      x y z
#    x 1.946520 0.004630 0.011860 
#    y 0.004630 1.917890 0.005750 
#    z 0.011860 0.005750 1.946100 
# 
# From -- ./inp_files/183581.got.cif
#   From: 2010.06.25/outbox.cif.g09.slc.cpg/sg2_92_cif.got.tgz:183581.got - 2010.06.27 13:26:56.
