data_PCOD8030791
_publ_section_title
;
Structure prediction by ZEFSAII (Michael W. Deem and Ramdas Pophale) SiO2 
 PCOD8030791
Probable space group: P -1
;
_chemical_formula_sum "Si O2"
_cell_formula_units_Z 14
_cell_length_a 13.860119
_cell_length_b 13.891750
_cell_length_c 7.042980
_cell_angle_alpha 92.437700
_cell_angle_beta 78.987261
_cell_angle_gamma 150.186391
_cell_volume 640.353692
_symmetry_space_group_name_H-M "P -1"
_symmetry_group_IT_number 2
_symmetry_cell_setting 'triclinic'
loop_
_space_group_symop_operation_xyz
x,y,z
-x,-y,-z
loop_
_atom_site_type_symbol
_atom_site_label
_atom_site_fract_x
_atom_site_fract_y
_atom_site_fract_z
Si Si1 0.894082 0.392223 0.231599
Si Si2 0.771838 0.615735 0.430272
Si Si3 0.486578 0.061553 0.183391
Si Si4 0.310611 0.394634 0.136354
Si Si5 0.079282 0.027418 0.276689
Si Si6 0.474072 0.682298 0.834555
Si Si7 0.964970 0.325643 0.528657
O O1 0.654404 0.168470 0.277301
O O2 0.991916 0.385559 0.306397
O O3 0.911193 0.501845 0.359719
O O4 0.000000 0.500000 0.000000
O O5 0.654370 0.565194 0.645280
O O6 0.611748 0.417286 0.351091
O O7 0.943560 0.701432 0.485322
O O8 0.898020 0.798555 0.260287
O O9 0.535567 0.212535 0.112067
O O10 0.271672 0.873810 0.350171
O O11 0.500000 0.000000 0.000000
O O12 0.114067 0.154947 0.147774
O O13 0.500000 0.500000 0.000000
O O14 0.315106 0.500015 0.032864
O O15 0.294356 0.155620 0.222291
O O16 0.000000 0.000000 0.500000
#
# Coordination Sequence:
#
# PCOD8030791 Si02
#       7
#     2   2   2   2   2   2   2
#     4  11  24  43  66  92 130 174 222 274 329 380
#     4  11  22  40  68  92 132 170 215 267 330 394
#     4  12  24  43  67  96 137 178 223 276 325 392
#     4   9  22  41  64  97 129 164 214 271 327 393
#     4   9  20  41  65  94 127 164 215 269 323 395
#     4  11  23  41  66  95 133 172 219 267 331 383
#     4  11  24  41  65  95 128 176 223 269 327 395
#
# _framework density 21.862915999999998
#
# number of rings (size 3 to 8) (size 9 to 14) (size 15 to 20)
#    0.000    1.429    4.286    0.429    2.000    5.714 
#    2.571    4.286    0.000    0.000    0.000    0.000 
#    0.000    0.000    0.000    0.000    0.000    0.000 
#
# Total GULP energy -173460.387064 kJ/mol
# GULP energy per Si atom -12390.027647 kJ/mol
# Density = 2.181316 g / cm^3
# Si number density = 21.862916 Si / 1000 Ang^3
#
#
#
# Elastic Constant Matrix: (Units=GPa)
#
#
# Indices 1 2 3 4 5 6 
#
# 1 69.2064 30.4777 34.8648 2.6275 -2.8327 -22.4650
# 2 30.4777 119.0765 42.5996 4.2877 -4.2525 -14.8137
# 3 34.8648 42.5996 117.5307 -10.1118 8.0591 -12.1642
# 4 2.6275 4.2877 -10.1118 30.1821 -0.2027 2.0172
# 5 -2.8327 -4.2525 8.0591 -0.2027 29.0671 -6.4326
# 6 -22.4650 -14.8137 -12.1642 2.0172 -6.4326 44.2228
#
#
#
# Elastic Compliance Matrix: (Units=1/GPa)
#
#
# Indices 1 2 3 4 5 6 
#
# 1 0.021611 -0.002054 -0.005370 -0.004006 0.005432 0.009786
# 2 -0.002054 0.010601 -0.003429 -0.002597 0.002744 0.002082
# 3 -0.005370 -0.003429 0.011939 0.005024 -0.004631 -0.001496
# 4 -0.004006 -0.002597 0.005024 0.035752 -0.002699 -0.003547
# 5 0.005432 0.002744 -0.004631 -0.002699 0.038395 0.008113
# 6 0.009786 0.002082 -0.001496 -0.003547 0.008113 0.029212
#
#
# Mechanical properties :
#
#
# Convention : Reuss Voigt Hill
#
# Bulk Modulus (GPa) = 44.55659 57.96643 51.26151
# Shear Modulus (GPa) = 28.29685 33.88583 31.09134
#
# Velocity S-wave (km/s) = 3.60152 3.94118 3.77517
# Velocity P-wave (km/s) = 6.14157 6.87616 6.51922
#
# Compressibility (1/GPa) = 0.02244337
#
# Stress axis : x y z
#
# Youngs Moduli (GPa) = 46.27335 94.33050 83.75630
#
# Poissons Ratio (x) = 0.19379 0.44981
# Poissons Ratio (y) = 0.09506 0.28721
# Poissons Ratio (z) = 0.24851 0.32347
#
# Static dielectric constant tensor:
#      x y z
#    x 4.782350 -0.584380 0.933280 
#    y -0.584380 4.622040 -0.622150 
#    z 0.933280 -0.622150 4.879810 
# 
# 
# High freq. dielectric constant tensor:
#      x y z
#    x 1.860110 -0.014000 -0.003700 
#    y -0.014000 1.870160 -0.015600 
#    z -0.003700 -0.015600 1.856230 
# 
# From -- ./inp_files/98099.got.cif
#   From: 2010.06.25/outbox.cif.g09.slc.cpg/sg2_50_cif.got.tgz:98099.got - 2010.06.27 13:26:56.
