data_PCOD8030029
_publ_section_title
;
Structure prediction by ZEFSAII (Michael W. Deem and Ramdas Pophale) SiO2 
 PCOD8030029
Probable space group: P -1
;
_chemical_formula_sum "Si O2"
_cell_formula_units_Z 16
_cell_length_a 13.508655
_cell_length_b 11.641204
_cell_length_c 5.570661
_cell_angle_alpha 58.816898
_cell_angle_beta 106.714043
_cell_angle_gamma 112.154760
_cell_volume 689.392036
_symmetry_space_group_name_H-M "P -1"
_symmetry_group_IT_number 2
_symmetry_cell_setting 'triclinic'
loop_
_space_group_symop_operation_xyz
x,y,z
-x,-y,-z
loop_
_atom_site_type_symbol
_atom_site_label
_atom_site_fract_x
_atom_site_fract_y
_atom_site_fract_z
Si Si1 0.286419 0.184612 0.390099
Si Si2 0.317391 0.403978 0.551741
Si Si3 0.478088 0.342050 0.063942
Si Si4 0.127691 0.265179 0.887688
Si Si5 0.091394 0.512695 0.856074
Si Si6 0.784358 0.111785 0.152188
Si Si7 0.907453 0.208732 0.636279
Si Si8 0.323012 0.667600 0.044616
O O1 0.274951 0.322826 0.365356
O O2 0.404802 0.223074 0.313653
O O3 0.272592 0.053565 0.697900
O O4 0.185907 0.155534 0.163159
O O5 0.217158 0.381295 0.683168
O O6 0.364539 0.571420 0.369232
O O7 0.410709 0.338558 0.777401
O O8 0.500000 0.500000 0.000000
O O9 0.587870 0.298766 0.141709
O O10 0.074898 0.354071 0.933851
O O11 0.025549 0.179870 0.749233
O O12 0.079245 0.623698 0.522305
O O13 0.209296 0.570612 0.985788
O O14 0.000000 0.500000 0.000000
O O15 0.853150 0.153385 0.401572
O O16 0.845139 0.139748 0.909140
O O17 0.690450 0.190531 0.001953
#
# Coordination Sequence:
#
# PCOD8030029 Si02
#       8
#     2   2   2   2   2   2   2   2
#     4  11  26  44  66  97 138 180 228 287 340 418
#     4  11  22  41  69 100 132 173 234 288 347 400
#     4  11  23  42  70 105 129 169 237 292 344 407
#     4  11  22  39  70  97 134 181 231 285 347 398
#     4  11  21  41  71 107 141 172 234 291 346 401
#     4  11  28  46  66 101 145 184 232 277 349 418
#     4  11  25  44  68 101 142 185 231 285 337 422
#     4  11  21  42  70  98 134 180 222 288 349 407
#
# _framework density 23.208853999999999
#
# number of rings (size 3 to 8) (size 9 to 14) (size 15 to 20)
#    0.000    1.000    2.500    4.500    5.250    2.500 
#    0.000    0.625    0.000    0.000    0.000    0.000 
#    0.000    0.000    0.000    0.000    0.000    0.000 
#
# Total GULP energy -198296.106571 kJ/mol
# GULP energy per Si atom -12393.506661 kJ/mol
# Density = 2.315603 g / cm^3
# Si number density = 23.208854 Si / 1000 Ang^3
#
#
#
# Elastic Constant Matrix: (Units=GPa)
#
#
# Indices 1 2 3 4 5 6 
#
# 1 152.2186 22.5858 44.2831 -2.6342 -13.4156 1.4877
# 2 22.5858 42.3642 31.8158 -12.0185 -6.0967 -2.3598
# 3 44.2831 31.8158 121.3471 -20.7191 -31.7286 4.4437
# 4 -2.6342 -12.0185 -20.7191 44.7244 3.3603 -3.5763
# 5 -13.4156 -6.0967 -31.7286 3.3603 27.2101 -1.6036
# 6 1.4877 -2.3598 4.4437 -3.5763 -1.6036 24.8521
#
#
#
# Elastic Compliance Matrix: (Units=1/GPa)
#
#
# Indices 1 2 3 4 5 6 
#
# 1 0.007640 -0.002839 -0.002017 -0.001356 0.000916 -0.000502
# 2 -0.002839 0.032157 -0.007484 0.005669 -0.003317 0.005163
# 3 -0.002017 -0.007484 0.015547 0.003806 0.014878 -0.001862
# 4 -0.001356 0.005669 0.003806 0.025711 0.002087 0.003774
# 5 0.000916 -0.003317 0.014878 0.002087 0.053594 0.000728
# 6 -0.000502 0.005163 -0.001862 0.003774 0.000728 0.041681
#
#
# Mechanical properties :
#
#
# Convention : Reuss Voigt Hill
#
# Bulk Modulus (GPa) = 32.61076 57.03328 44.82202
# Shear Modulus (GPa) = 23.67073 33.84032 28.75553
#
# Velocity S-wave (km/s) = 3.19705 3.82262 3.52375
# Velocity P-wave (km/s) = 5.26400 6.64158 5.99250
#
# Compressibility (1/GPa) = 0.03066473
#
# Stress axis : x y z
#
# Youngs Moduli (GPa) = 130.89366 31.09718 64.32014
#
# Poissons Ratio (x) = 0.08828 0.12975
# Poissons Ratio (y) = 0.37161 0.48134
# Poissons Ratio (z) = 0.26405 0.23272
#
# Static dielectric constant tensor:
#      x y z
#    x 4.334150 0.081090 0.140970 
#    y 0.081090 3.975730 -0.007170 
#    z 0.140970 -0.007170 4.428180 
# 
# 
# High freq. dielectric constant tensor:
#      x y z
#    x 1.930140 0.002670 0.000360 
#    y 0.002670 1.892700 -0.000140 
#    z 0.000360 -0.000140 1.923230 
# 
# From -- ./inp_files/68664.got.cif
#   From: 2010.06.25/outbox.cif.g09.slc.cpg/sg2_35_cif.got.tgz:68664.got - 2010.06.27 13:26:56.
