data_PCOD8030703
_publ_section_title
;
Structure prediction by ZEFSAII (Michael W. Deem and Ramdas Pophale) SiO2 
 PCOD8030703
Probable space group: P -1
;
_chemical_formula_sum "Si O2"
_cell_formula_units_Z 16
_cell_length_a 14.519913
_cell_length_b 10.983898
_cell_length_c 9.969057
_cell_angle_alpha 92.413025
_cell_angle_beta 85.797678
_cell_angle_gamma 29.502751
_cell_volume 762.513161
_symmetry_space_group_name_H-M "P -1"
_symmetry_group_IT_number 2
_symmetry_cell_setting 'triclinic'
loop_
_space_group_symop_operation_xyz
x,y,z
-x,-y,-z
loop_
_atom_site_type_symbol
_atom_site_label
_atom_site_fract_x
_atom_site_fract_y
_atom_site_fract_z
Si Si1 0.706122 0.602423 0.731028
Si Si2 0.354471 0.487128 0.012087
Si Si3 0.700385 0.423566 0.479439
Si Si4 0.165286 0.596123 0.780897
Si Si5 0.380464 0.105806 0.650486
Si Si6 0.257022 0.860883 0.119484
Si Si7 0.064807 0.315336 0.577741
Si Si8 0.704514 0.160675 0.578911
O O1 0.698558 0.552416 0.875181
O O2 0.708604 0.496297 0.613146
O O3 0.894407 0.468662 0.699126
O O4 0.524751 0.901400 0.743803
O O5 0.236435 0.747680 0.061032
O O6 0.299422 0.500045 0.873863
O O7 0.582468 0.250334 0.985494
O O8 0.843435 0.307660 0.344953
O O9 0.766959 0.210128 0.495985
O O10 0.486133 0.675606 0.456493
O O11 0.251037 0.367433 0.721937
O O12 0.945866 0.836385 0.865006
O O13 0.241884 0.151690 0.642504
O O14 0.500000 0.000000 0.500000
O O15 0.330220 0.769004 0.259726
O O16 0.000000 0.500000 0.500000
O O17 0.125441 0.133445 0.467261
#
# Coordination Sequence:
#
# PCOD8030703 Si02
#       8
#     2   2   2   2   2   2   2   2
#     4  12  25  44  70 100 141 176 225 293 333 403
#     4  11  27  47  66 102 141 182 226 276 348 404
#     4  11  22  41  70 104 135 174 227 294 347 388
#     4  12  25  45  73  97 136 184 229 281 339 414
#     4  12  24  45  69 100 138 176 227 284 340 403
#     4  11  24  44  71  98 144 180 222 279 344 417
#     4  12  24  40  69 104 136 180 225 279 349 404
#     4  11  22  39  72 104 135 175 231 287 343 408
#
# _framework density 20.983245
#
# number of rings (size 3 to 8) (size 9 to 14) (size 15 to 20)
#    0.000    0.500    6.250    1.875    1.750    3.500 
#    0.000    1.250    0.000    0.000    0.000    0.000 
#    0.000    0.000    0.000    0.000    0.000    0.000 
#
# Total GULP energy -198511.833912 kJ/mol
# GULP energy per Si atom -12406.989619 kJ/mol
# Density = 2.093549 g / cm^3
# Si number density = 20.983245 Si / 1000 Ang^3
#
#
#
# Elastic Constant Matrix: (Units=GPa)
#
#
# Indices 1 2 3 4 5 6 
#
# 1 107.3539 44.8462 33.5294 13.8571 -10.0149 -0.6804
# 2 44.8462 105.3202 25.8358 27.4759 -3.7678 9.4327
# 3 33.5294 25.8358 82.7980 8.6448 -2.6199 12.7730
# 4 13.8571 27.4759 8.6448 34.3315 -0.3462 1.2987
# 5 -10.0149 -3.7678 -2.6199 -0.3462 39.5923 1.9285
# 6 -0.6804 9.4327 12.7730 1.2987 1.9285 37.0826
#
#
#
# Elastic Compliance Matrix: (Units=1/GPa)
#
#
# Indices 1 2 3 4 5 6 
#
# 1 0.012750 -0.004412 -0.004049 -0.000672 0.002402 0.002650
# 2 -0.004412 0.014385 -0.001262 -0.009299 0.000234 -0.002992
# 3 -0.004049 -0.001262 0.014964 -0.000938 0.000075 -0.004879
# 4 -0.000672 -0.009299 -0.000938 0.037014 -0.000863 0.001425
# 5 0.002402 0.000234 0.000075 -0.000863 0.025951 -0.001361
# 6 0.002650 -0.002992 -0.004879 0.001425 -0.001361 0.029478
#
#
# Mechanical properties :
#
#
# Convention : Reuss Voigt Hill
#
# Bulk Modulus (GPa) = 44.14448 55.98832 50.06640
# Shear Modulus (GPa) = 30.95192 34.95198 32.95195
#
# Velocity S-wave (km/s) = 3.84484 4.08574 3.96712
# Velocity P-wave (km/s) = 6.38702 6.99986 6.70045
#
# Compressibility (1/GPa) = 0.02265289
#
# Stress axis : x y z
#
# Youngs Moduli (GPa) = 78.42918 69.51548 66.82641
#
# Poissons Ratio (x) = 0.30670 0.27059
# Poissons Ratio (y) = 0.34603 0.08435
# Poissons Ratio (z) = 0.31758 0.08775
#
# Static dielectric constant tensor:
#      x y z
#    x 4.062370 -0.063590 0.016390 
#    y -0.063590 3.901100 0.074680 
#    z 0.016390 0.074680 3.715500 
# 
# 
# High freq. dielectric constant tensor:
#      x y z
#    x 1.837020 -0.006620 0.004140 
#    y -0.006620 1.830690 0.006570 
#    z 0.004140 0.006570 1.810650 
# 
# From -- ./inp_files/206735.got.cif
#   From: 2010.06.25/outbox.cif.g09.slc.cpg/sg2_104_cif.got.tgz:206735.got - 2010.06.27 13:26:56.
