data_PCOD8030080
_publ_section_title
;
Structure prediction by ZEFSAII (Michael W. Deem and Ramdas Pophale) SiO2 
 PCOD8030080
Probable space group: P -1
;
_chemical_formula_sum "Si O2"
_cell_formula_units_Z 16
_cell_length_a 9.557370
_cell_length_b 11.006588
_cell_length_c 9.796984
_cell_angle_alpha 102.077356
_cell_angle_beta 62.004202
_cell_angle_gamma 68.882417
_cell_volume 754.022152
_symmetry_space_group_name_H-M "P -1"
_symmetry_group_IT_number 2
_symmetry_cell_setting 'triclinic'
loop_
_space_group_symop_operation_xyz
x,y,z
-x,-y,-z
loop_
_atom_site_type_symbol
_atom_site_label
_atom_site_fract_x
_atom_site_fract_y
_atom_site_fract_z
Si Si1 0.324087 0.829308 0.205359
Si Si2 0.642951 0.544910 0.386709
Si Si3 0.515695 0.140208 0.366329
Si Si4 0.328195 0.001172 0.010293
Si Si5 0.260567 0.020693 0.521171
Si Si6 0.107489 0.708847 0.151946
Si Si7 0.982039 0.712734 0.925403
Si Si8 0.284348 0.390831 0.927573
O O1 0.268589 0.714912 0.159435
O O2 0.549312 0.739137 0.091470
O O3 0.242355 0.948933 0.151484
O O4 0.228685 0.919345 0.408685
O O5 0.500000 0.500000 0.500000
O O6 0.616329 0.685090 0.512817
O O7 0.621540 0.586436 0.244929
O O8 0.855465 0.408285 0.276495
O O9 0.417192 0.047137 0.396304
O O10 0.679970 0.069531 0.386393
O O11 0.603889 0.114248 0.171026
O O12 0.158561 0.157452 0.076927
O O13 0.500000 0.000000 0.000000
O O14 0.081382 0.181666 0.656441
O O15 0.171090 0.540094 0.100962
O O16 0.077857 0.752745 0.013504
O O17 0.865907 0.654476 0.046786
#
# Coordination Sequence:
#
# PCOD8030080 Si02
#       8
#     2   2   2   2   2   2   2   2
#     4  12  25  42  67 100 140 170 221 285 344 386
#     4  11  25  42  67 103 139 173 223 286 336 399
#     4  11  22  41  72  93 131 178 228 268 337 403
#     4  12  24  44  69 100 132 175 228 283 328 401
#     4  11  21  42  67  99 126 176 228 276 326 406
#     4  11  24  39  67 101 131 172 223 281 336 398
#     4  11  23  46  73  98 131 186 234 269 333 414
#     4  11  22  46  71  95 134 184 232 266 332 416
#
# _framework density 21.219536000000002
#
# number of rings (size 3 to 8) (size 9 to 14) (size 15 to 20)
#    0.000    0.750    5.000    3.750    3.500    1.500 
#    2.250    0.625    0.000    0.000    0.000    0.000 
#    0.000    0.000    0.000    0.000    0.000    0.000 
#
# Total GULP energy -198330.160920 kJ/mol
# GULP energy per Si atom -12395.635057 kJ/mol
# Density = 2.117124 g / cm^3
# Si number density = 21.219536 Si / 1000 Ang^3
#
#
#
# Elastic Constant Matrix: (Units=GPa)
#
#
# Indices 1 2 3 4 5 6 
#
# 1 91.6926 33.3449 55.7032 7.6412 12.9857 -2.7062
# 2 33.3449 98.4965 51.2079 19.3880 5.4483 -19.6365
# 3 55.7032 51.2079 126.1537 23.0501 9.8016 -15.4666
# 4 7.6412 19.3880 23.0501 48.3781 1.6750 -6.5156
# 5 12.9857 5.4483 9.8016 1.6750 39.6804 3.8708
# 6 -2.7062 -19.6365 -15.4666 -6.5156 3.8708 32.4208
#
#
#
# Elastic Compliance Matrix: (Units=1/GPa)
#
#
# Indices 1 2 3 4 5 6 
#
# 1 0.015963 -0.002780 -0.006251 0.001315 -0.003090 -0.002701
# 2 -0.002780 0.014789 -0.003358 -0.002968 -0.000812 0.006624
# 3 -0.006251 -0.003358 0.013137 -0.003475 -0.000896 0.003120
# 4 0.001315 -0.002968 -0.003475 0.023508 -0.000295 0.001414
# 5 -0.003090 -0.000812 -0.000896 -0.000295 0.026993 -0.004459
# 6 -0.002701 0.006624 0.003120 0.001414 -0.004459 0.036936
#
#
# Mechanical properties :
#
#
# Convention : Reuss Voigt Hill
#
# Bulk Modulus (GPa) = 52.32748 66.31719 59.32234
# Shear Modulus (GPa) = 30.77367 35.83499 33.30433
#
# Velocity S-wave (km/s) = 3.81235 4.11393 3.96601
# Velocity P-wave (km/s) = 6.64020 7.34075 6.99924
#
# Compressibility (1/GPa) = 0.01911042
#
# Stress axis : x y z
#
# Youngs Moduli (GPa) = 62.64472 67.61564 76.11987
#
# Poissons Ratio (x) = 0.18800 0.47583
# Poissons Ratio (y) = 0.17418 0.25562
# Poissons Ratio (z) = 0.39160 0.22706
#
# Static dielectric constant tensor:
#      x y z
#    x 4.010530 0.138560 -0.004270 
#    y 0.138560 4.126640 0.101640 
#    z -0.004270 0.101640 3.903010 
# 
# 
# High freq. dielectric constant tensor:
#      x y z
#    x 1.828590 -0.006240 0.004210 
#    y -0.006240 1.833260 0.021660 
#    z 0.004210 0.021660 1.833470 
# 
# From -- ./inp_files/184925.got.cif
#   From: 2010.06.25/outbox.cif.g09.slc.cpg/sg2_93_cif.got.tgz:184925.got - 2010.06.27 13:26:56.
