data_PCOD8030298
_publ_section_title
;
Structure prediction by ZEFSAII (Michael W. Deem and Ramdas Pophale) SiO2 
 PCOD8030298
Probable space group: P -1
;
_chemical_formula_sum "Si O2"
_cell_formula_units_Z 14
_cell_length_a 12.688994
_cell_length_b 9.581930
_cell_length_c 9.177192
_cell_angle_alpha 44.945635
_cell_angle_beta 70.322296
_cell_angle_gamma 61.813390
_cell_volume 694.766946
_symmetry_space_group_name_H-M "P -1"
_symmetry_group_IT_number 2
_symmetry_cell_setting 'triclinic'
loop_
_space_group_symop_operation_xyz
x,y,z
-x,-y,-z
loop_
_atom_site_type_symbol
_atom_site_label
_atom_site_fract_x
_atom_site_fract_y
_atom_site_fract_z
Si Si1 0.827227 0.588022 0.749538
Si Si2 0.393007 0.159868 0.521003
Si Si3 0.097354 0.818764 0.175041
Si Si4 0.492435 0.517967 0.661930
Si Si5 0.050349 0.091620 0.542134
Si Si6 0.344017 0.829741 0.970819
Si Si7 0.731549 0.314080 0.174124
O O1 0.715779 0.761748 0.597246
O O2 0.889496 0.403234 0.741504
O O3 0.915383 0.707894 0.671256
O O4 0.788504 0.493545 0.982929
O O5 0.425492 0.353354 0.421162
O O6 0.500000 0.000000 0.500000
O O7 0.357488 0.050373 0.758566
O O8 0.056177 0.818476 0.359593
O O9 0.220004 0.866525 0.084435
O O10 0.000000 0.000000 0.000000
O O11 0.500000 0.500000 0.500000
O O12 0.353118 0.627845 0.688287
O O13 0.546003 0.291872 0.883907
O O14 0.164238 0.910609 0.691166
O O15 0.000000 0.000000 0.500000
O O16 0.349338 0.695152 0.920540
#
# Coordination Sequence:
#
# PCOD8030298 Si02
#       7
#     2   2   2   2   2   2   2
#     4  11  22  42  72  95 124 183 225 262 328 391
#     4  12  21  40  72  96 126 179 223 260 323 403
#     4  11  21  44  67  94 129 172 231 265 312 405
#     4  12  26  42  64 102 136 166 213 284 332 372
#     4  12  26  42  66  99 137 169 215 284 330 382
#     4  11  22  41  69  93 128 172 226 260 315 394
#     4  11  22  44  67  94 131 173 229 259 323 404
#
# _framework density 20.150642999999999
#
# number of rings (size 3 to 8) (size 9 to 14) (size 15 to 20)
#    0.000    0.571    8.571    1.714    2.000    1.143 
#    2.571    0.000    0.000    0.000    0.000    0.000 
#    0.000    0.000    0.000    0.000    0.000    0.000 
#
# Total GULP energy -173650.869404 kJ/mol
# GULP energy per Si atom -12403.633529 kJ/mol
# Density = 2.010478 g / cm^3
# Si number density = 20.150643 Si / 1000 Ang^3
#
#
#
# Elastic Constant Matrix: (Units=GPa)
#
#
# Indices 1 2 3 4 5 6 
#
# 1 72.3110 43.1769 33.9922 5.9627 -15.2829 -0.2725
# 2 43.1769 101.1057 40.4052 16.8995 -5.7871 -12.6099
# 3 33.9922 40.4052 116.9401 1.1116 -25.5177 1.5941
# 4 5.9627 16.8995 1.1116 42.9559 -3.7470 1.3475
# 5 -15.2829 -5.7871 -25.5177 -3.7470 45.6840 -2.0792
# 6 -0.2725 -12.6099 1.5941 1.3475 -2.0792 36.7136
#
#
#
# Elastic Compliance Matrix: (Units=1/GPa)
#
#
# Indices 1 2 3 4 5 6 
#
# 1 0.020568 -0.008090 -0.002152 0.000858 0.004619 -0.002302
# 2 -0.008090 0.016456 -0.004031 -0.005697 -0.003076 0.005802
# 3 -0.002152 -0.004031 0.011758 0.002107 0.005433 -0.001680
# 4 0.000858 -0.005697 0.002107 0.025673 0.002719 -0.002830
# 5 0.004619 -0.003076 0.005433 0.002719 0.026309 0.000132
# 6 -0.002302 0.005802 -0.001680 -0.002830 0.000132 0.029398
#
#
# Mechanical properties :
#
#
# Convention : Reuss Voigt Hill
#
# Bulk Modulus (GPa) = 49.41435 58.38948 53.90192
# Shear Modulus (GPa) = 30.22005 36.58953 33.40479
#
# Velocity S-wave (km/s) = 3.87681 4.26584 4.07597
# Velocity P-wave (km/s) = 6.67946 7.30086 6.99706
#
# Compressibility (1/GPa) = 0.02023704
#
# Stress axis : x y z
#
# Youngs Moduli (GPa) = 48.61899 60.76893 85.04701
#
# Poissons Ratio (x) = 0.49159 0.18306
# Poissons Ratio (y) = 0.39331 0.34278
# Poissons Ratio (z) = 0.10465 0.24493
#
# Static dielectric constant tensor:
#      x y z
#    x 4.126320 -0.045510 -0.467260 
#    y -0.045510 3.806400 -0.097340 
#    z -0.467260 -0.097340 4.116570 
# 
# 
# High freq. dielectric constant tensor:
#      x y z
#    x 1.781140 -0.019510 -0.013690 
#    y -0.019510 1.779690 -0.007890 
#    z -0.013690 -0.007890 1.801850 
# 
# From -- ./inp_files/175730.got.cif
#   From: 2010.06.25/outbox.cif.g09.slc.cpg/sg2_88_cif.got.tgz:175730.got - 2010.06.27 13:26:56.
