data_PCOD8030898
_publ_section_title
;
Structure prediction by ZEFSAII (Michael W. Deem and Ramdas Pophale) SiO2 
 PCOD8030898
Probable space group: P -1
;
_chemical_formula_sum "Si O2"
_cell_formula_units_Z 14
_cell_length_a 12.124409
_cell_length_b 21.211751
_cell_length_c 14.997264
_cell_angle_alpha 160.977725
_cell_angle_beta 151.978836
_cell_angle_gamma 30.254955
_cell_volume 579.741786
_symmetry_space_group_name_H-M "P -1"
_symmetry_group_IT_number 2
_symmetry_cell_setting 'triclinic'
loop_
_space_group_symop_operation_xyz
x,y,z
-x,-y,-z
loop_
_atom_site_type_symbol
_atom_site_label
_atom_site_fract_x
_atom_site_fract_y
_atom_site_fract_z
Si Si1 0.244013 0.647691 0.506998
Si Si2 0.142915 0.447073 0.444203
Si Si3 0.851426 0.395149 0.852465
Si Si4 0.724646 0.380394 0.944322
Si Si5 0.595699 0.991728 0.958730
Si Si6 0.740558 0.939113 0.353695
Si Si7 0.562357 0.332151 0.150987
O O1 0.500000 0.500000 0.500000
O O2 0.226595 0.853016 0.715362
O O3 0.224871 0.704066 0.673485
O O4 0.027617 0.549864 0.189357
O O5 0.302112 0.617839 0.774595
O O6 0.000000 0.500000 0.500000
O O7 0.967634 0.448873 0.237337
O O8 0.293164 0.231805 0.282415
O O9 0.708921 0.396407 0.846614
O O10 0.654390 0.469109 0.731501
O O11 0.992948 0.182990 0.638830
O O12 0.754023 0.151523 0.685728
O O13 0.500000 0.500000 0.000000
O O14 0.381229 0.061679 0.830507
O O15 0.500000 0.000000 0.000000
O O16 0.582473 0.847141 0.192185
#
# Coordination Sequence:
#
# PCOD8030898 Si02
#       7
#     2   2   2   2   2   2   2
#     4  11  22  41  66 108 142 179 227 287 341 408
#     4  12  26  48  71  99 138 188 231 283 347 417
#     4  12  23  44  74 101 144 178 231 286 345 404
#     4  12  27  48  68 101 140 181 234 286 345 415
#     4  11  23  41  72 102 143 179 231 282 349 404
#     4  11  25  45  70 108 135 180 233 285 343 409
#     4  11  24  44  70 103 144 178 230 284 347 404
#
# _framework density 24.148681
#
# number of rings (size 3 to 8) (size 9 to 14) (size 15 to 20)
#    0.000    0.571    4.286    5.143    2.000    1.143 
#    2.571    3.571    0.000    0.000    0.000    0.000 
#    0.000    0.000    0.000    0.000    0.000    0.000 
#
# Total GULP energy -173446.721696 kJ/mol
# GULP energy per Si atom -12389.051550 kJ/mol
# Density = 2.409372 g / cm^3
# Si number density = 24.148681 Si / 1000 Ang^3
#
#
#
# Elastic Constant Matrix: (Units=GPa)
#
#
# Indices 1 2 3 4 5 6 
#
# 1 162.6973 48.4130 69.2280 35.1163 30.8050 -7.1320
# 2 48.4130 112.3576 33.1490 0.3480 3.5482 13.7324
# 3 69.2280 33.1490 112.0933 19.0547 21.5655 0.2537
# 4 35.1163 0.3480 19.0547 40.8202 2.0340 -3.1566
# 5 30.8050 3.5482 21.5655 2.0340 42.9104 4.7274
# 6 -7.1320 13.7324 0.2537 -3.1566 4.7274 34.0149
#
#
#
# Elastic Compliance Matrix: (Units=1/GPa)
#
#
# Indices 1 2 3 4 5 6 
#
# 1 0.012254 -0.004561 -0.003542 -0.008155 -0.006762 0.004620
# 2 -0.004561 0.012111 -0.002203 0.004195 0.003839 -0.005973
# 3 -0.003542 -0.002203 0.012938 -0.002766 -0.003679 0.000305
# 4 -0.008155 0.004195 -0.002766 0.032407 0.005487 -0.001138
# 5 -0.006762 0.003839 -0.003679 0.005487 0.030160 -0.006623
# 6 0.004620 -0.005973 0.000305 -0.001138 -0.006623 0.033592
#
#
# Mechanical properties :
#
#
# Convention : Reuss Voigt Hill
#
# Bulk Modulus (GPa) = 59.91554 76.52537 68.22045
# Shear Modulus (GPa) = 31.32104 39.30632 35.31368
#
# Velocity S-wave (km/s) = 3.60531 4.03883 3.82821
# Velocity P-wave (km/s) = 6.49584 7.31489 6.91750
#
# Compressibility (1/GPa) = 0.01669016
#
# Stress axis : x y z
#
# Youngs Moduli (GPa) = 81.60821 82.56873 77.29245
#
# Poissons Ratio (x) = 0.37657 0.27380
# Poissons Ratio (y) = 0.37218 0.17029
# Poissons Ratio (z) = 0.28909 0.18192
#
# Static dielectric constant tensor:
#      x y z
#    x 4.548120 0.521270 0.305810 
#    y 0.521270 5.062040 -0.346890 
#    z 0.305810 -0.346890 3.639350 
# 
# 
# High freq. dielectric constant tensor:
#      x y z
#    x 1.961520 0.025620 0.023480 
#    y 0.025620 1.968850 -0.015820 
#    z 0.023480 -0.015820 1.962270 
# 
# From -- ./inp_files/524159.got.cif
#   From: 2010.06.25/outbox.cif.g09.slc.cpg/sg2_263_cif.got.tgz:524159.got - 2010.06.27 13:26:56.
