data_PCOD8030235
_publ_section_title
;
Structure prediction by ZEFSAII (Michael W. Deem and Ramdas Pophale) SiO2 
 PCOD8030235
Probable space group: P -1
;
_chemical_formula_sum "Si O2"
_cell_formula_units_Z 16
_cell_length_a 10.903551
_cell_length_b 11.197341
_cell_length_c 11.707003
_cell_angle_alpha 74.874392
_cell_angle_beta 126.748190
_cell_angle_gamma 63.125139
_cell_volume 683.182323
_symmetry_space_group_name_H-M "P -1"
_symmetry_group_IT_number 2
_symmetry_cell_setting 'triclinic'
loop_
_space_group_symop_operation_xyz
x,y,z
-x,-y,-z
loop_
_atom_site_type_symbol
_atom_site_label
_atom_site_fract_x
_atom_site_fract_y
_atom_site_fract_z
Si Si1 0.428981 0.963413 0.716983
Si Si2 0.845370 0.660098 0.641136
Si Si3 0.108630 0.821330 0.342658
Si Si4 0.330505 0.801048 0.858891
Si Si5 0.375047 0.890554 0.461619
Si Si6 0.104208 0.647673 0.965827
Si Si7 0.965680 0.705973 0.124068
Si Si8 0.624891 0.427466 0.239067
O O1 0.380924 0.904557 0.811322
O O2 0.455660 0.862166 0.644408
O O3 0.198098 0.207838 0.513962
O O4 0.673038 0.887878 0.896678
O O5 0.577645 0.821584 0.510570
O O6 0.056919 0.563675 0.874450
O O7 0.937934 0.467436 0.696746
O O8 0.337306 0.767335 0.452710
O O9 0.196886 0.670358 0.528537
O O10 0.029331 0.796539 0.193238
O O11 0.883848 0.049456 0.204180
O O12 0.244864 0.755168 0.727381
O O13 0.581173 0.587305 0.112003
O O14 0.118253 0.115957 0.230045
O O15 0.116069 0.594137 0.116933
O O16 0.357699 0.549008 0.096967
#
# Coordination Sequence:
#
# PCOD8030235 Si02
#       8
#     2   2   2   2   2   2   2   2
#     4  11  23  44  70  97 132 177 223 277 327 388
#     4  11  23  41  70 102 134 172 229 272 328 399
#     4  12  27  44  66 102 141 173 220 276 337 395
#     4  11  25  45  71  94 133 178 231 269 329 390
#     4  11  21  43  71 102 129 173 221 282 333 388
#     4  11  21  43  71 102 132 171 228 274 334 394
#     4  12  26  42  68 102 138 180 212 274 345 399
#     4  11  24  43  71 102 130 173 225 282 325 393
#
# _framework density 23.419808
#
# number of rings (size 3 to 8) (size 9 to 14) (size 15 to 20)
#    0.000    0.750    5.000    3.000    0.000    6.000 
#    0.000    1.250    0.000    0.000    0.000    0.000 
#    0.000    0.000    0.000    0.000    0.000    0.000 
#
# Total GULP energy -198436.433153 kJ/mol
# GULP energy per Si atom -12402.277072 kJ/mol
# Density = 2.336650 g / cm^3
# Si number density = 23.419808 Si / 1000 Ang^3
#
#
#
# Elastic Constant Matrix: (Units=GPa)
#
#
# Indices 1 2 3 4 5 6 
#
# 1 62.4632 10.0933 6.2168 3.5442 -18.4506 17.9619
# 2 10.0933 59.5680 30.8583 1.8684 2.6850 14.9040
# 3 6.2168 30.8583 75.6178 2.6972 -4.7288 18.2065
# 4 3.5442 1.8684 2.6972 33.3930 9.8417 5.3106
# 5 -18.4506 2.6850 -4.7288 9.8417 34.2919 -7.3076
# 6 17.9619 14.9040 18.2065 5.3106 -7.3076 31.5418
#
#
#
# Elastic Compliance Matrix: (Units=1/GPa)
#
#
# Indices 1 2 3 4 5 6 
#
# 1 0.022849 -0.003310 0.002658 -0.004568 0.012232 -0.009379
# 2 -0.003310 0.023495 -0.008281 0.002791 -0.006952 -0.006518
# 3 0.002658 -0.008281 0.018379 -0.001158 0.003406 -0.007226
# 4 -0.004568 0.002791 -0.001158 0.035908 -0.014742 -0.007510
# 5 0.012232 -0.006952 0.003406 -0.014742 0.042407 0.006661
# 6 -0.009379 -0.006518 -0.007226 -0.007510 0.006661 0.047103
#
#
# Mechanical properties :
#
#
# Convention : Reuss Voigt Hill
#
# Bulk Modulus (GPa) = 21.34114 32.44286 26.89200
# Shear Modulus (GPa) = 22.35888 29.87739 26.11813
#
# Velocity S-wave (km/s) = 3.09317 3.57561 3.34311
# Velocity P-wave (km/s) = 4.67859 5.56143 5.13900
#
# Compressibility (1/GPa) = 0.04685786
#
# Stress axis : x y z
#
# Youngs Moduli (GPa) = 43.76551 42.56296 54.40969
#
# Poissons Ratio (x) = 0.14089 -0.14464
# Poissons Ratio (y) = 0.14487 0.45055
# Poissons Ratio (z) = -0.11634 0.35245
#
# Static dielectric constant tensor:
#      x y z
#    x 4.398440 0.148790 -0.214890 
#    y 0.148790 3.890990 -0.218770 
#    z -0.214890 -0.218770 4.353300 
# 
# 
# High freq. dielectric constant tensor:
#      x y z
#    x 1.933270 0.014970 -0.005070 
#    y 0.014970 1.891660 -0.027350 
#    z -0.005070 -0.027350 1.937170 
# 
# From -- ./inp_files/428236.got.cif
#   From: 2010.06.25/outbox.cif.g09.slc.cpg/sg2_215_cif.got.tgz:428236.got - 2010.06.27 13:26:56.
