data_PCOD8030443
_publ_section_title
;
Structure prediction by ZEFSAII (Michael W. Deem and Ramdas Pophale) SiO2 
 PCOD8030443
Probable space group: P -1
;
_chemical_formula_sum "Si O2"
_cell_formula_units_Z 16
_cell_length_a 27.481402
_cell_length_b 9.480991
_cell_length_c 14.922540
_cell_angle_alpha 136.149000
_cell_angle_beta 27.198662
_cell_angle_gamma 152.209596
_cell_volume 788.222902
_symmetry_space_group_name_H-M "P -1"
_symmetry_group_IT_number 2
_symmetry_cell_setting 'triclinic'
loop_
_space_group_symop_operation_xyz
x,y,z
-x,-y,-z
loop_
_atom_site_type_symbol
_atom_site_label
_atom_site_fract_x
_atom_site_fract_y
_atom_site_fract_z
Si Si1 0.306723 0.257973 0.700461
Si Si2 0.827094 0.651386 0.159629
Si Si3 0.169279 0.809266 0.051716
Si Si4 0.131938 0.091036 0.095596
Si Si5 0.485820 0.481582 0.910390
Si Si6 0.655006 0.335832 0.860579
Si Si7 0.179274 0.113312 0.555879
Si Si8 0.861888 0.283331 0.420104
O O1 0.500000 0.500000 0.500000
O O2 0.296654 0.474897 0.777193
O O3 0.216724 0.965570 0.646465
O O4 0.216458 0.124086 0.883004
O O5 0.840669 0.441327 0.072718
O O6 0.750408 0.648416 0.369896
O O7 0.000000 0.000000 0.000000
O O8 0.357512 0.126287 0.919751
O O9 0.040133 0.642548 0.268342
O O10 0.107733 0.860787 0.094480
O O11 0.245258 0.425255 0.110138
O O12 0.960630 0.958864 0.297849
O O13 0.669123 0.717965 0.679509
O O14 0.500000 0.500000 0.000000
O O15 0.407733 0.583498 0.065087
O O16 0.752260 0.318629 0.633491
O O17 0.500000 0.000000 0.000000
O O18 0.110659 0.805574 0.574019
#
# Coordination Sequence:
#
# PCOD8030443 Si02
#       8
#     2   2   2   2   2   2   2   2
#     4  11  23  42  70 100 134 173 227 271 328 409
#     4  11  21  46  68  97 134 174 223 270 333 412
#     4  11  25  44  68  98 138 172 217 284 338 390
#     4  11  25  41  68 102 135 172 225 278 338 395
#     4  11  28  45  64  99 139 172 231 280 334 395
#     4  11  24  44  67  96 134 176 227 275 328 399
#     4  11  23  45  69  96 133 178 223 275 331 407
#     4  11  23  43  72  93 133 183 221 270 337 403
#
# _framework density 20.298826999999999
#
# number of rings (size 3 to 8) (size 9 to 14) (size 15 to 20)
#    0.000    1.000    5.000    0.750    8.750    7.000 
#    0.000    0.000    0.000    0.000    0.000    0.000 
#    0.000    0.000    0.000    0.000    0.000    0.000 
#
# Total GULP energy -198268.093570 kJ/mol
# GULP energy per Si atom -12391.755848 kJ/mol
# Density = 2.025263 g / cm^3
# Si number density = 20.298827 Si / 1000 Ang^3
#
#
#
# Elastic Constant Matrix: (Units=GPa)
#
#
# Indices 1 2 3 4 5 6 
#
# 1 151.9462 54.6943 72.8514 -7.5223 -4.1341 -12.6097
# 2 54.6943 103.7367 45.1796 3.9822 0.5948 -20.7619
# 3 72.8514 45.1796 159.1360 5.8817 -0.3074 -11.9557
# 4 -7.5223 3.9822 5.8817 37.8971 1.1382 0.8350
# 5 -4.1341 0.5948 -0.3074 1.1382 43.9586 3.1556
# 6 -12.6097 -20.7619 -11.9557 0.8350 3.1556 28.3036
#
#
#
# Elastic Compliance Matrix: (Units=1/GPa)
#
#
# Indices 1 2 3 4 5 6 
#
# 1 0.009779 -0.003750 -0.003521 0.002857 0.000876 -0.000063
# 2 -0.003750 0.014018 -0.001576 -0.002119 -0.001082 0.008129
# 3 -0.003521 -0.001576 0.008482 -0.001862 -0.000270 0.000943
# 4 0.002857 -0.002119 -0.001862 0.027516 -0.000296 -0.001847
# 5 0.000876 -0.001082 -0.000270 -0.000296 0.023073 -0.003081
# 6 -0.000063 0.008129 0.000943 -0.001847 -0.003081 0.042063
#
#
# Mechanical properties :
#
#
# Convention : Reuss Voigt Hill
#
# Bulk Modulus (GPa) = 68.55979 84.47436 76.51707
# Shear Modulus (GPa) = 33.90144 38.17142 36.03643
#
# Velocity S-wave (km/s) = 4.09114 4.34115 4.21800
# Velocity P-wave (km/s) = 7.49434 8.17515 7.84214
#
# Compressibility (1/GPa) = 0.01458581
#
# Stress axis : x y z
#
# Youngs Moduli (GPa) = 102.25772 71.33735 117.89101
#
# Poissons Ratio (x) = 0.26751 0.41508
# Poissons Ratio (y) = 0.38346 0.18581
# Poissons Ratio (z) = 0.36004 0.11243
#
# Static dielectric constant tensor:
#      x y z
#    x 3.992870 -0.055760 -0.233860 
#    y -0.055760 3.670210 0.114980 
#    z -0.233860 0.114980 3.960500 
# 
# 
# High freq. dielectric constant tensor:
#      x y z
#    x 1.806370 -0.011750 -0.005630 
#    y -0.011750 1.787580 0.006580 
#    z -0.005630 0.006580 1.811910 
# 
# From -- ./inp_files/266330.got.cif
#   From: 2010.06.25/outbox.cif.g09.slc.cpg/sg2_134_cif.got.tgz:266330.got - 2010.06.27 13:26:56.
