data_PCOD8030960
_publ_section_title
;
Structure prediction by ZEFSAII (Michael W. Deem and Ramdas Pophale) SiO2 
 PCOD8030960
Probable space group: P -1
;
_chemical_formula_sum "Si O2"
_cell_formula_units_Z 14
_cell_length_a 14.754569
_cell_length_b 11.068826
_cell_length_c 11.409371
_cell_angle_alpha 128.423959
_cell_angle_beta 138.765479
_cell_angle_gamma 28.460688
_cell_volume 580.622639
_symmetry_space_group_name_H-M "P -1"
_symmetry_group_IT_number 2
_symmetry_cell_setting 'triclinic'
loop_
_space_group_symop_operation_xyz
x,y,z
-x,-y,-z
loop_
_atom_site_type_symbol
_atom_site_label
_atom_site_fract_x
_atom_site_fract_y
_atom_site_fract_z
Si Si1 0.798356 0.429302 0.059194
Si Si2 0.365220 0.659951 0.848560
Si Si3 0.201915 0.394280 0.206152
Si Si4 0.657954 0.644927 0.441280
Si Si5 0.907418 0.223751 0.799177
Si Si6 0.805494 0.998154 0.656172
Si Si7 0.668251 0.824437 0.320130
O O1 0.774213 0.623753 0.201511
O O2 0.960664 0.184828 0.155646
O O3 0.552809 0.567258 0.889464
O O4 0.913886 0.326994 0.982957
O O5 0.251159 0.607271 0.653603
O O6 0.500000 0.500000 0.000000
O O7 0.168694 0.960642 0.858641
O O8 0.182363 0.413046 0.341139
O O9 0.219575 0.561108 0.292857
O O10 0.425578 0.102938 0.207910
O O11 0.000000 0.500000 0.000000
O O12 0.640707 0.762657 0.379819
O O13 0.404954 0.850976 0.372976
O O14 0.769923 0.187054 0.662258
O O15 0.837766 0.819689 0.495710
#
# Coordination Sequence:
#
# PCOD8030960 Si02
#       7
#     2   2   2   2   2   2   2
#     4  12  24  41  74 108 140 186 238 297 346 421
#     4  12  22  43  73 108 142 181 241 292 355 416
#     4  11  27  46  70 105 145 192 233 293 365 418
#     4  11  24  45  75 104 142 190 241 296 349 425
#     4  12  26  43  71 103 146 189 232 289 356 428
#     4  11  22  41  69 106 136 184 241 290 349 415
#     4  11  25  45  72 104 143 188 243 294 350 422
#
# _framework density 24.112045999999999
#
# number of rings (size 3 to 8) (size 9 to 14) (size 15 to 20)
#    0.000    0.571    4.286    4.286    4.000    3.429 
#    0.000    0.000    0.000    0.000    0.000    0.000 
#    0.000    0.000    0.000    0.000    0.000    0.000 
#
# Total GULP energy -173599.422057 kJ/mol
# GULP energy per Si atom -12399.958718 kJ/mol
# Density = 2.405717 g / cm^3
# Si number density = 24.112046 Si / 1000 Ang^3
#
#
#
# Elastic Constant Matrix: (Units=GPa)
#
#
# Indices 1 2 3 4 5 6 
#
# 1 67.1572 48.4491 32.1026 2.3110 12.0895 15.2890
# 2 48.4491 133.0068 50.0766 9.1659 -8.2733 14.4639
# 3 32.1026 50.0766 131.3300 12.1413 5.7030 -2.3075
# 4 2.3110 9.1659 12.1413 47.9268 0.6045 6.5346
# 5 12.0895 -8.2733 5.7030 0.6045 24.9540 1.8687
# 6 15.2890 14.4639 -2.3075 6.5346 1.8687 34.8811
#
#
#
# Elastic Compliance Matrix: (Units=1/GPa)
#
#
# Indices 1 2 3 4 5 6 
#
# 1 0.027275 -0.009059 -0.002929 0.002446 -0.015005 -0.008047
# 2 -0.009059 0.012822 -0.003016 -0.001120 0.009495 -0.001844
# 3 -0.002929 -0.003016 0.009843 -0.002257 -0.002054 0.003718
# 4 0.002446 -0.001120 -0.002257 0.022210 -0.001215 -0.004853
# 5 -0.015005 0.009495 -0.002054 -0.001215 0.050990 0.000000
# 6 -0.008047 -0.001844 0.003718 -0.004853 0.000000 0.034116
#
#
# Mechanical properties :
#
#
# Convention : Reuss Voigt Hill
#
# Bulk Modulus (GPa) = 50.16870 65.86117 58.01494
# Shear Modulus (GPa) = 25.78541 34.94343 30.36442
#
# Velocity S-wave (km/s) = 3.27372 3.81098 3.55252
# Velocity P-wave (km/s) = 5.92801 6.83657 6.39844
#
# Compressibility (1/GPa) = 0.01993275
#
# Stress axis : x y z
#
# Youngs Moduli (GPa) = 36.66369 77.99010 101.59073
#
# Poissons Ratio (x) = 0.70654 0.29753
# Poissons Ratio (y) = 0.33215 0.30638
# Poissons Ratio (z) = 0.10738 0.23521
#
# Static dielectric constant tensor:
#      x y z
#    x 4.314560 0.063730 0.145350 
#    y 0.063730 4.642050 0.348950 
#    z 0.145350 0.348950 4.610940 
# 
# 
# High freq. dielectric constant tensor:
#      x y z
#    x 1.944570 -0.001830 0.013360 
#    y -0.001830 1.972850 0.017820 
#    z 0.013360 0.017820 1.956170 
# 
# From -- ./inp_files/451831.got.cif
#   From: 2010.06.25/outbox.cif.g09.slc.cpg/sg2_226_cif.got.tgz:451831.got - 2010.06.27 13:26:56.
