data_PCOD8030899
_publ_section_title
;
Structure prediction by ZEFSAII (Michael W. Deem and Ramdas Pophale) SiO2 
 PCOD8030899
Probable space group: P -1
;
_chemical_formula_sum "Si O2"
_cell_formula_units_Z 12
_cell_length_a 9.642759
_cell_length_b 11.518750
_cell_length_c 9.061847
_cell_angle_alpha 140.857077
_cell_angle_beta 105.056356
_cell_angle_gamma 90.925392
_cell_volume 573.132005
_symmetry_space_group_name_H-M "P -1"
_symmetry_group_IT_number 2
_symmetry_cell_setting 'triclinic'
loop_
_space_group_symop_operation_xyz
x,y,z
-x,-y,-z
loop_
_atom_site_type_symbol
_atom_site_label
_atom_site_fract_x
_atom_site_fract_y
_atom_site_fract_z
Si Si1 0.366151 0.671709 0.050230
Si Si2 0.602679 0.310663 0.581795
Si Si3 0.734784 0.711902 0.539686
Si Si4 0.320362 0.065913 0.737710
Si Si5 0.155475 0.914518 0.254530
Si Si6 0.182112 0.306724 0.131399
O O1 0.370761 0.623221 0.175772
O O2 0.539911 0.761692 0.129837
O O3 0.285669 0.830156 0.157348
O O4 0.273182 0.472922 0.744505
O O5 0.432304 0.288097 0.463596
O O6 0.723680 0.472119 0.673705
O O7 0.625260 0.105520 0.355618
O O8 0.825120 0.702463 0.703413
O O9 0.835661 0.906037 0.671800
O O10 0.184074 0.983835 0.500207
O O11 0.259278 0.154582 0.945177
O O12 0.988731 0.747142 0.032466
#
# Coordination Sequence:
#
# PCOD8030899 Si02
#       6
#     2   2   2   2   2   2
#     4  11  22  41  71  87 117 168 213 246 295 368
#     4  11  22  41  66  93 118 162 214 249 295 363
#     4  12  23  41  65  90 127 166 198 247 312 371
#     4  11  22  42  68  90 118 166 208 254 298 357
#     4  11  24  44  63  91 124 162 208 250 303 365
#     4  12  27  38  61  99 129 154 199 260 313 354
#
# _framework density 20.937586
#
# number of rings (size 3 to 8) (size 9 to 14) (size 15 to 20)
#    0.000    0.667    5.000    4.000    0.000    6.667 
#    0.000    0.000    0.000    0.000    0.000    0.000 
#    0.000    0.000    0.000    0.000    0.000    0.000 
#
# Total GULP energy -148910.391082 kJ/mol
# GULP energy per Si atom -12409.199257 kJ/mol
# Density = 2.088993 g / cm^3
# Si number density = 20.937586 Si / 1000 Ang^3
#
#
#
# Elastic Constant Matrix: (Units=GPa)
#
#
# Indices 1 2 3 4 5 6 
#
# 1 36.8818 -12.5287 9.3460 -3.6309 1.0109 -4.5607
# 2 -12.5287 76.7474 18.2599 7.7764 -6.9223 -3.3568
# 3 9.3460 18.2599 43.6356 2.0617 -6.0228 -8.1020
# 4 -3.6309 7.7764 2.0617 29.8345 8.0216 7.5920
# 5 1.0109 -6.9223 -6.0228 8.0216 22.1301 0.5685
# 6 -4.5607 -3.3568 -8.1020 7.5920 0.5685 18.0728
#
#
#
# Elastic Compliance Matrix: (Units=1/GPa)
#
#
# Indices 1 2 3 4 5 6 
#
# 1 0.032992 0.007421 -0.009874 0.002427 -0.002865 0.004348
# 2 0.007421 0.017090 -0.007061 -0.005410 0.004944 0.003999
# 3 -0.009874 -0.007061 0.032138 -0.007531 0.009372 0.013473
# 4 0.002427 -0.005410 -0.007531 0.047029 -0.020312 -0.022885
# 5 -0.002865 0.004944 0.009372 -0.020312 0.056491 0.011153
# 6 0.004348 0.003999 0.013473 -0.022885 0.011153 0.072474
#
#
# Mechanical properties :
#
#
# Convention : Reuss Voigt Hill
#
# Bulk Modulus (GPa) = 15.82492 20.82435 18.32463
# Shear Modulus (GPa) = 16.76131 23.48664 20.12398
#
# Velocity S-wave (km/s) = 2.83245 3.35288 3.10359
# Velocity P-wave (km/s) = 4.27452 4.99566 4.64909
#
# Compressibility (1/GPa) = 0.06319148
#
# Stress axis : x y z
#
# Youngs Moduli (GPa) = 30.31051 58.51358 31.11629
#
# Poissons Ratio (x) = -0.43423 0.30726
# Poissons Ratio (y) = -0.22493 0.21970
# Poissons Ratio (z) = 0.29930 0.41314
#
# Static dielectric constant tensor:
#      x y z
#    x 3.725160 -0.072610 -0.012820 
#    y -0.072610 3.711900 0.085300 
#    z -0.012820 0.085300 3.865670 
# 
# 
# High freq. dielectric constant tensor:
#      x y z
#    x 1.814190 -0.004750 0.000330 
#    y -0.004750 1.825140 0.008230 
#    z 0.000330 0.008230 1.828920 
# 
# From -- ./inp_files/147434.got.cif
#   From: 2010.06.25/outbox.cif.g09.slc.cpg/sg2_74_cif.got.tgz:147434.got - 2010.06.27 13:26:56.
