data_PCOD8030958
_publ_section_title
;
Structure prediction by ZEFSAII (Michael W. Deem and Ramdas Pophale) SiO2 
 PCOD8030958
Probable space group: P -1
;
_chemical_formula_sum "Si O2"
_cell_formula_units_Z 16
_cell_length_a 22.513161
_cell_length_b 5.233949
_cell_length_c 11.590646
_cell_angle_alpha 75.930794
_cell_angle_beta 34.390262
_cell_angle_gamma 65.696460
_cell_volume 690.578009
_symmetry_space_group_name_H-M "P -1"
_symmetry_group_IT_number 2
_symmetry_cell_setting 'triclinic'
loop_
_space_group_symop_operation_xyz
x,y,z
-x,-y,-z
loop_
_atom_site_type_symbol
_atom_site_label
_atom_site_fract_x
_atom_site_fract_y
_atom_site_fract_z
Si Si1 0.754176 0.292223 0.827852
Si Si2 0.592133 0.196862 0.919324
Si Si3 0.513639 0.019074 0.706840
Si Si4 0.076644 0.280201 0.306752
Si Si5 0.796865 0.058157 0.445800
Si Si6 0.115718 0.567287 0.574394
Si Si7 0.654376 0.411219 0.445272
Si Si8 0.699244 0.609512 0.108038
O O1 0.662694 0.208237 0.917868
O O2 0.788462 0.516708 0.672455
O O3 0.876853 0.030656 0.675363
O O4 0.697901 0.406885 0.027009
O O5 0.676441 0.077813 0.690313
O O6 0.500000 0.500000 0.000000
O O7 0.529892 0.990848 0.089181
O O8 0.566200 0.257777 0.594338
O O9 0.412554 0.102487 0.764095
O O10 0.603823 0.707060 0.563618
O O11 0.000000 0.500000 0.500000
O O12 0.009115 0.287039 0.296485
O O13 0.185681 0.338198 0.085159
O O14 0.863746 0.207571 0.398182
O O15 0.769031 0.206640 0.349600
O O16 0.873831 0.722690 0.345435
O O17 0.692996 0.455269 0.252223
#
# Coordination Sequence:
#
# PCOD8030958 Si02
#       8
#     2   2   2   2   2   2   2   2
#     4  11  24  43  68 107 142 177 234 292 363 413
#     4  11  22  41  69 104 140 180 228 291 346 415
#     4  12  25  47  69 108 141 190 238 283 348 413
#     4  12  24  45  73 109 137 180 236 305 362 403
#     4  11  25  45  66 104 141 184 233 281 357 416
#     4  11  24  44  71 100 138 175 230 300 349 410
#     4  12  28  47  71 100 149 196 230 283 344 430
#     4  12  27  44  72 103 143 185 240 286 348 426
#
# _framework density 23.168996
#
# number of rings (size 3 to 8) (size 9 to 14) (size 15 to 20)
#    0.000    0.500    3.750    4.875    5.250    1.500 
#    0.000    1.250    0.000    0.000    0.000    0.000 
#    0.000    0.000    0.000    0.000    0.000    0.000 
#
# Total GULP energy -198426.192378 kJ/mol
# GULP energy per Si atom -12401.637024 kJ/mol
# Density = 2.311626 g / cm^3
# Si number density = 23.168996 Si / 1000 Ang^3
#
#
#
# Elastic Constant Matrix: (Units=GPa)
#
#
# Indices 1 2 3 4 5 6 
#
# 1 70.5958 28.7517 13.5698 -7.2374 -13.6933 -29.6550
# 2 28.7517 120.3675 6.4456 -2.1630 -6.7829 -19.3349
# 3 13.5698 6.4456 32.8493 -11.2859 -8.1788 -8.9127
# 4 -7.2374 -2.1630 -11.2859 33.8233 -8.0508 1.3757
# 5 -13.6933 -6.7829 -8.1788 -8.0508 42.3474 -1.3323
# 6 -29.6550 -19.3349 -8.9127 1.3757 -1.3323 49.0176
#
#
#
# Elastic Compliance Matrix: (Units=1/GPa)
#
#
# Indices 1 2 3 4 5 6 
#
# 1 0.023100 -0.002841 -0.001570 0.005672 0.008187 0.012632
# 2 -0.002841 0.009343 0.000084 0.000097 0.000675 0.001997
# 3 -0.001570 0.000084 0.040744 0.015511 0.010523 0.006342
# 4 0.005672 0.000097 0.015511 0.038681 0.012374 0.005541
# 5 0.008187 0.000675 0.010523 0.012374 0.030994 0.007628
# 6 0.012632 0.001997 0.006342 0.005541 0.007628 0.030036
#
#
# Mechanical properties :
#
#
# Convention : Reuss Voigt Hill
#
# Bulk Modulus (GPa) = 15.49639 35.70520 25.60079
# Shear Modulus (GPa) = 24.62270 36.70736 30.66503
#
# Velocity S-wave (km/s) = 3.26351 3.98468 3.64199
# Velocity P-wave (km/s) = 4.57205 6.05099 5.36275
#
# Compressibility (1/GPa) = 0.06453118
#
# Stress axis : x y z
#
# Youngs Moduli (GPa) = 43.28992 107.03558 24.54327
#
# Poissons Ratio (x) = 0.30412 0.03854
# Poissons Ratio (y) = 0.12300 -0.00206
# Poissons Ratio (z) = 0.06798 -0.00897
#
# Static dielectric constant tensor:
#      x y z
#    x -15.069260 27.878090 10.217720 
#    y 27.878090 -36.501840 -15.140860 
#    z 10.217720 -15.140860 -1.454640 
# 
# 
# High freq. dielectric constant tensor:
#      x y z
#    x 1.927200 -0.014630 -0.017600 
#    y -0.014630 1.930970 -0.009860 
#    z -0.017600 -0.009860 1.892680 
# 
# From -- ./inp_files/473393.got.cif
#   From: 2010.06.25/outbox.cif.g09.slc.cpg/sg2_237_cif.got.tgz:473393.got - 2010.06.27 13:26:56.
