data_PCOD8030088
_publ_section_title
;
Structure prediction by ZEFSAII (Michael W. Deem and Ramdas Pophale) SiO2 
 PCOD8030088
Probable space group: P -1
;
_chemical_formula_sum "Si O2"
_cell_formula_units_Z 16
_cell_length_a 8.567766
_cell_length_b 13.036840
_cell_length_c 12.344298
_cell_angle_alpha 81.542900
_cell_angle_beta 143.283214
_cell_angle_gamma 110.893058
_cell_volume 745.978260
_symmetry_space_group_name_H-M "P -1"
_symmetry_group_IT_number 2
_symmetry_cell_setting 'triclinic'
loop_
_space_group_symop_operation_xyz
x,y,z
-x,-y,-z
loop_
_atom_site_type_symbol
_atom_site_label
_atom_site_fract_x
_atom_site_fract_y
_atom_site_fract_z
Si Si1 0.954908 0.766548 0.024361
Si Si2 0.688410 0.660181 0.328840
Si Si3 0.914380 0.379804 0.030579
Si Si4 0.539501 0.941778 0.278324
Si Si5 0.882497 0.330667 0.265323
Si Si6 0.487702 0.556808 0.875013
Si Si7 0.345304 0.113447 0.037150
Si Si8 0.940461 0.887957 0.342433
O O1 0.921385 0.700463 0.899914
O O2 0.291852 0.839258 0.221067
O O3 0.804877 0.657793 0.035105
O O4 0.773898 0.843234 0.930090
O O5 0.413072 0.690148 0.176483
O O6 0.586704 0.532085 0.249865
O O7 0.911147 0.757669 0.359365
O O8 0.825494 0.667396 0.522714
O O9 0.945731 0.393990 0.175147
O O10 0.000000 0.500000 0.000000
O O11 0.728596 0.903250 0.310218
O O12 0.373586 0.998983 0.103419
O O13 0.735742 0.027773 0.464470
O O14 0.758869 0.396208 0.269012
O O15 0.649891 0.201800 0.147589
O O16 0.500000 0.500000 0.000000
O O17 0.121069 0.087325 0.818149
#
# Coordination Sequence:
#
# PCOD8030088 Si02
#       8
#     2   2   2   2   2   2   2   2
#     4  11  23  40  64  93 129 165 207 260 319 369
#     4  12  21  40  68  93 126 162 215 256 309 381
#     4  12  23  43  63  92 132 165 207 266 315 371
#     4  11  23  42  64  93 128 161 215 263 309 375
#     4  11  23  39  67  95 122 169 214 251 315 381
#     4  11  21  42  68  94 126 171 205 259 317 375
#     4  11  22  42  65  91 126 167 210 258 316 370
#     4  11  23  40  69  94 122 169 212 257 315 376
#
# _framework density 21.448346999999998
#
# number of rings (size 3 to 8) (size 9 to 14) (size 15 to 20)
#    0.000    0.750    6.250    1.875    0.000    1.000 
#    0.000    1.250    2.750    0.000    0.000    0.000 
#    0.000    0.000    0.000    0.000    0.000    0.000 
#
# Total GULP energy -198230.782090 kJ/mol
# GULP energy per Si atom -12389.423881 kJ/mol
# Density = 2.139953 g / cm^3
# Si number density = 21.448347 Si / 1000 Ang^3
#
#
#
# Elastic Constant Matrix: (Units=GPa)
#
#
# Indices 1 2 3 4 5 6 
#
# 1 73.4918 22.2670 28.5765 2.0585 -2.0459 11.7488
# 2 22.2670 98.1852 51.9478 14.3803 0.1695 13.6113
# 3 28.5765 51.9478 132.3292 -6.7733 -7.1805 19.2813
# 4 2.0585 14.3803 -6.7733 39.0599 3.9314 1.4496
# 5 -2.0459 0.1695 -7.1805 3.9314 19.8302 3.4119
# 6 11.7488 13.6113 19.2813 1.4496 3.4119 27.6777
#
#
#
# Elastic Compliance Matrix: (Units=1/GPa)
#
#
# Indices 1 2 3 4 5 6 
#
# 1 0.015716 -0.001834 -0.001926 -0.000500 0.001835 -0.004628
# 2 -0.001834 0.014649 -0.005368 -0.006076 -0.000660 -0.002286
# 3 -0.001926 -0.005368 0.011232 0.003808 0.004030 -0.005063
# 4 -0.000500 -0.006076 0.003808 0.028973 -0.004289 -0.000441
# 5 0.001835 -0.000660 0.004030 -0.004289 0.054614 -0.009770
# 6 -0.004628 -0.002286 -0.005063 -0.000441 -0.009770 0.043974
#
#
# Mechanical properties :
#
#
# Convention : Reuss Voigt Hill
#
# Bulk Modulus (GPa) = 42.84284 56.62099 49.73191
# Shear Modulus (GPa) = 25.61557 30.72788 28.17172
#
# Velocity S-wave (km/s) = 3.45960 3.78914 3.62811
# Velocity P-wave (km/s) = 5.99806 6.75274 6.38656
#
# Compressibility (1/GPa) = 0.02334112
#
# Stress axis : x y z
#
# Youngs Moduli (GPa) = 63.62809 68.26399 89.03490
#
# Poissons Ratio (x) = 0.12518 0.17146
# Poissons Ratio (y) = 0.11668 0.47798
# Poissons Ratio (z) = 0.12253 0.36647
#
# Static dielectric constant tensor:
#      x y z
#    x 3.925150 0.034270 0.273430 
#    y 0.034270 3.974100 0.197190 
#    z 0.273430 0.197190 3.753850 
# 
# 
# High freq. dielectric constant tensor:
#      x y z
#    x 1.836220 -0.006800 0.008820 
#    y -0.006800 1.858840 0.020410 
#    z 0.008820 0.020410 1.820900 
# 
# From -- ./inp_files/397404.got.cif
#   From: 2010.06.25/outbox.cif.g09.slc.cpg/sg2_199_cif.got.tgz:397404.got - 2010.06.27 13:26:56.
