data_PCOD8030161
_publ_section_title
;
Structure prediction by ZEFSAII (Michael W. Deem and Ramdas Pophale) SiO2 
 PCOD8030161
Probable space group: P -1
;
_chemical_formula_sum "Si O2"
_cell_formula_units_Z 12
_cell_length_a 8.978991
_cell_length_b 14.157873
_cell_length_c 5.741145
_cell_angle_alpha 91.241347
_cell_angle_beta 96.736467
_cell_angle_gamma 41.670376
_cell_volume 479.465405
_symmetry_space_group_name_H-M "P -1"
_symmetry_group_IT_number 2
_symmetry_cell_setting 'triclinic'
loop_
_space_group_symop_operation_xyz
x,y,z
-x,-y,-z
loop_
_atom_site_type_symbol
_atom_site_label
_atom_site_fract_x
_atom_site_fract_y
_atom_site_fract_z
Si Si1 0.896540 0.402860 0.039170
Si Si2 0.510262 0.713201 0.044875
Si Si3 0.639440 0.855524 0.153263
Si Si4 0.059310 0.207609 0.443553
Si Si5 0.660226 0.372000 0.699630
Si Si6 0.943884 0.074455 0.244373
O O1 0.768232 0.564952 0.003341
O O2 0.952756 0.351499 0.314507
O O3 0.704514 0.417916 0.931493
O O4 0.123513 0.288028 0.926207
O O5 0.495788 0.827330 0.143598
O O6 0.443509 0.678872 0.248219
O O7 0.330614 0.783476 0.804193
O O8 0.697418 0.874782 0.414936
O O9 0.500000 0.000000 0.000000
O O10 0.902991 0.238128 0.619193
O O11 0.078889 0.111544 0.258575
O O12 0.500000 0.500000 0.500000
O O13 0.000000 0.000000 0.500000
O O14 0.000000 0.000000 0.000000
#
# Coordination Sequence:
#
# PCOD8030161 Si02
#       6
#     2   2   2   2   2   2
#     4  11  24  46  73 107 149 196 255 318 388 457
#     4  12  24  47  78 115 146 201 264 316 384 463
#     4  11  28  49  71 105 156 202 252 317 392 467
#     4  11  24  47  72 103 154 195 250 322 387 458
#     4  11  21  42  75 110 150 190 254 327 387 451
#     4  12  27  47  77 115 156 206 263 321 393 472
#
# _framework density 25.027873
#
# number of rings (size 3 to 8) (size 9 to 14) (size 15 to 20)
#    0.000    0.667    3.333    4.000    4.667    1.333 
#    9.000    0.000    0.000    0.000    0.000    0.000 
#    0.000    0.000    0.000    0.000    0.000    0.000 
#
# Total GULP energy -148712.742567 kJ/mol
# GULP energy per Si atom -12392.728547 kJ/mol
# Density = 2.497091 g / cm^3
# Si number density = 25.027873 Si / 1000 Ang^3
#
#
#
# Elastic Constant Matrix: (Units=GPa)
#
#
# Indices 1 2 3 4 5 6 
#
# 1 116.0774 25.8019 49.9836 -18.1219 25.3889 39.2582
# 2 25.8019 128.2650 55.2046 -23.2867 9.4323 17.9369
# 3 49.9836 55.2046 168.6850 -44.2662 25.1405 16.1994
# 4 -18.1219 -23.2867 -44.2662 50.8855 -0.1458 -4.4496
# 5 25.3889 9.4323 25.1405 -0.1458 49.4532 8.8787
# 6 39.2582 17.9369 16.1994 -4.4496 8.8787 43.5013
#
#
#
# Elastic Compliance Matrix: (Units=1/GPa)
#
#
# Indices 1 2 3 4 5 6 
#
# 1 0.014666 0.000313 -0.001988 0.002624 -0.004518 -0.011434
# 2 0.000313 0.009582 -0.002314 0.002213 -0.000250 -0.003095
# 3 -0.001988 -0.002314 0.009426 0.006475 -0.003418 0.000598
# 4 0.002624 0.002213 0.006475 0.027045 -0.004626 -0.001981
# 5 -0.004518 -0.000250 -0.003418 -0.004626 0.024309 0.000019
# 6 -0.011434 -0.003095 0.000598 -0.001981 0.000019 0.034153
#
#
# Mechanical properties :
#
#
# Convention : Reuss Voigt Hill
#
# Bulk Modulus (GPa) = 38.91587 75.00085 56.95836
# Shear Modulus (GPa) = 36.83922 47.57047 42.20484
#
# Velocity S-wave (km/s) = 3.84073 4.36443 4.11093
# Velocity P-wave (km/s) = 5.93726 7.44511 6.73353
#
# Compressibility (1/GPa) = 0.02569646
#
# Stress axis : x y z
#
# Youngs Moduli (GPa) = 68.18285 104.36288 106.09286
#
# Poissons Ratio (x) = -0.03267 0.21095
# Poissons Ratio (y) = -0.02134 0.24545
# Poissons Ratio (z) = 0.13557 0.24145
#
# Static dielectric constant tensor:
#      x y z
#    x 4.721510 0.059230 0.409680 
#    y 0.059230 4.851580 -0.094180 
#    z 0.409680 -0.094180 4.705670 
# 
# 
# High freq. dielectric constant tensor:
#      x y z
#    x 1.995220 -0.000800 0.013190 
#    y -0.000800 2.010920 -0.013170 
#    z 0.013190 -0.013170 1.998460 
# 
# From -- ./inp_files/38857.got.cif
#   From: 2010.06.25/outbox.cif.g09.slc.cpg/sg2_20_cif.got.tgz:38857.got - 2010.06.27 13:26:56.
