data_PCOD8030806
_publ_section_title
;
Structure prediction by ZEFSAII (Michael W. Deem and Ramdas Pophale) SiO2 
 PCOD8030806
Probable space group: P -1
;
_chemical_formula_sum "Si O2"
_cell_formula_units_Z 14
_cell_length_a 9.979462
_cell_length_b 15.952328
_cell_length_c 10.102747
_cell_angle_alpha 35.346401
_cell_angle_beta 46.709250
_cell_angle_gamma 66.746985
_cell_volume 623.427612
_symmetry_space_group_name_H-M "P -1"
_symmetry_group_IT_number 2
_symmetry_cell_setting 'triclinic'
loop_
_space_group_symop_operation_xyz
x,y,z
-x,-y,-z
loop_
_atom_site_type_symbol
_atom_site_label
_atom_site_fract_x
_atom_site_fract_y
_atom_site_fract_z
Si Si1 0.428831 0.002232 0.783490
Si Si2 0.833225 0.936528 0.307756
Si Si3 0.206372 0.678407 0.479948
Si Si4 0.762550 0.620772 0.889393
Si Si5 0.113720 0.933490 0.613865
Si Si6 0.498824 0.711135 0.455420
Si Si7 0.214199 0.358076 0.849642
O O1 0.363039 0.030785 0.643650
O O2 0.648505 0.003262 0.647691
O O3 0.398606 0.136641 0.719476
O O4 0.268500 0.830629 0.150387
O O5 0.754398 0.749056 0.625770
O O6 0.931303 0.024882 0.261957
O O7 0.000000 0.000000 0.000000
O O8 0.312639 0.729536 0.483653
O O9 0.266230 0.541957 0.550297
O O10 0.971338 0.601868 0.760846
O O11 0.584963 0.452085 0.193763
O O12 0.740458 0.670380 0.991771
O O13 0.000000 0.000000 0.500000
O O14 0.016487 0.744849 0.901924
O O15 0.653519 0.705958 0.247199
#
# Coordination Sequence:
#
# PCOD8030806 Si02
#       7
#     2   2   2   2   2   2   2
#     4  12  26  45  70 105 144 188 229 288 359 423
#     4  12  26  46  70 106 150 183 228 290 363 419
#     4  11  22  40  69 102 141 183 237 291 347 415
#     4  11  22  42  70  98 143 186 231 292 351 413
#     4  12  25  46  76 102 138 188 245 287 342 417
#     4  11  24  41  71 105 139 181 244 288 347 414
#     4  11  23  42  69 106 136 182 242 298 338 407
#
# _framework density 22.456495
#
# number of rings (size 3 to 8) (size 9 to 14) (size 15 to 20)
#    0.000    0.571    2.857    7.714    2.000    0.571 
#    0.000    0.714    0.000    0.000    0.000    0.000 
#    0.000    0.000    0.000    0.000    0.000    0.000 
#
# Total GULP energy -173586.688471 kJ/mol
# GULP energy per Si atom -12399.049176 kJ/mol
# Density = 2.240538 g / cm^3
# Si number density = 22.456495 Si / 1000 Ang^3
#
#
#
# Elastic Constant Matrix: (Units=GPa)
#
#
# Indices 1 2 3 4 5 6 
#
# 1 125.8679 38.5449 43.5231 -2.4551 15.6414 0.2715
# 2 38.5449 109.8141 50.0174 3.2163 8.7365 7.7652
# 3 43.5231 50.0174 137.3099 -7.3255 16.5486 -2.3492
# 4 -2.4551 3.2163 -7.3255 37.3162 -7.4926 -7.5798
# 5 15.6414 8.7365 16.5486 -7.4926 43.0468 -0.0597
# 6 0.2715 7.7652 -2.3492 -7.5798 -0.0597 28.3492
#
#
#
# Elastic Compliance Matrix: (Units=1/GPa)
#
#
# Indices 1 2 3 4 5 6 
#
# 1 0.009607 -0.002358 -0.001901 0.000092 -0.002265 0.000416
# 2 -0.002358 0.012128 -0.003826 -0.002981 -0.000659 -0.004415
# 3 -0.001901 -0.003826 0.009664 0.002228 -0.001857 0.002459
# 4 0.000092 -0.002981 0.002228 0.030359 0.005012 0.009128
# 5 -0.002265 -0.000659 -0.001857 0.005012 0.025775 0.001443
# 6 0.000416 -0.004415 0.002459 0.009128 0.001443 0.039127
#
#
# Mechanical properties :
#
#
# Convention : Reuss Voigt Hill
#
# Bulk Modulus (GPa) = 65.66379 70.79584 68.22982
# Shear Modulus (GPa) = 33.80537 37.80288 35.80412
#
# Velocity S-wave (km/s) = 3.88412 4.10736 3.99730
# Velocity P-wave (km/s) = 7.02987 7.35446 7.19400
#
# Compressibility (1/GPa) = 0.01522909
#
# Stress axis : x y z
#
# Youngs Moduli (GPa) = 104.09484 82.45137 103.48039
#
# Poissons Ratio (x) = 0.19442 0.19673
# Poissons Ratio (y) = 0.24545 0.39588
# Poissons Ratio (z) = 0.19790 0.31543
#
# Static dielectric constant tensor:
#      x y z
#    x 4.207280 0.077660 -0.183540 
#    y 0.077660 4.003320 -0.212930 
#    z -0.183540 -0.212930 4.305960 
# 
# 
# High freq. dielectric constant tensor:
#      x y z
#    x 1.875850 -0.009620 -0.012060 
#    y -0.009620 1.882960 -0.008790 
#    z -0.012060 -0.008790 1.902580 
# 
# From -- ./inp_files/204977.got.cif
#   From: 2010.06.25/outbox.cif.g09.slc.cpg/sg2_103_cif.got.tgz:204977.got - 2010.06.27 13:26:56.
