data_PCOD8030162
_publ_section_title
;
Structure prediction by ZEFSAII (Michael W. Deem and Ramdas Pophale) SiO2 
 PCOD8030162
Probable space group: P -1
;
_chemical_formula_sum "Si O2"
_cell_formula_units_Z 14
_cell_length_a 19.998045
_cell_length_b 10.907302
_cell_length_c 13.890521
_cell_angle_alpha 39.048126
_cell_angle_beta 26.619628
_cell_angle_gamma 25.448535
_cell_volume 575.917106
_symmetry_space_group_name_H-M "P -1"
_symmetry_group_IT_number 2
_symmetry_cell_setting 'triclinic'
loop_
_space_group_symop_operation_xyz
x,y,z
-x,-y,-z
loop_
_atom_site_type_symbol
_atom_site_label
_atom_site_fract_x
_atom_site_fract_y
_atom_site_fract_z
Si Si1 0.763267 0.933773 0.675068
Si Si2 0.184650 0.898133 0.989391
Si Si3 0.535700 0.197840 0.164698
Si Si4 0.380938 0.299218 0.092616
Si Si5 0.435953 0.243504 0.522573
Si Si6 0.124673 0.687511 0.495441
Si Si7 0.282347 0.644692 0.638607
O O1 0.811645 0.093291 0.467168
O O2 0.753350 0.772958 0.705465
O O3 0.533160 0.178530 0.877571
O O4 0.961014 0.703160 0.636853
O O5 0.239039 0.918559 0.016648
O O6 0.350699 0.837568 0.736422
O O7 0.208470 0.641809 0.109312
O O8 0.926807 0.202226 0.114975
O O9 0.531987 0.148301 0.087110
O O10 0.333921 0.538704 0.246670
O O11 0.497886 0.045728 0.375893
O O12 0.218780 0.481415 0.591316
O O13 0.355483 0.384842 0.645172
O O14 0.000000 0.000000 0.500000
O O15 0.500000 0.500000 0.500000
#
# Coordination Sequence:
#
# PCOD8030162 Si02
#       7
#     2   2   2   2   2   2   2
#     4  11  24  45  67 107 143 187 240 301 347 426
#     4  11  24  46  75 102 140 196 238 291 365 426
#     4  11  25  46  72 110 144 184 243 295 359 431
#     4  11  24  44  72 104 145 189 242 288 363 429
#     4  11  25  49  69 112 146 181 241 300 356 425
#     4  11  21  42  75  97 140 185 234 294 347 415
#     4  12  26  45  71 103 144 186 241 296 361 426
#
# _framework density 24.309054
#
# number of rings (size 3 to 8) (size 9 to 14) (size 15 to 20)
#    0.000    0.857    2.857    4.714    2.000    5.714 
#   12.857    0.000    0.000    0.000    0.000    0.000 
#    0.000    0.000    0.000    0.000    0.000    0.000 
#
# Total GULP energy -173579.951518 kJ/mol
# GULP energy per Si atom -12398.567966 kJ/mol
# Density = 2.425373 g / cm^3
# Si number density = 24.309054 Si / 1000 Ang^3
#
#
#
# Elastic Constant Matrix: (Units=GPa)
#
#
# Indices 1 2 3 4 5 6 
#
# 1 127.7854 37.8394 14.0081 18.4618 -19.2139 11.7606
# 2 37.8394 104.6482 41.2908 15.5516 -3.5174 8.4301
# 3 14.0081 41.2908 71.0916 25.4805 -10.8529 2.2338
# 4 18.4618 15.5516 25.4805 45.9629 -6.2121 -4.5399
# 5 -19.2139 -3.5174 -10.8529 -6.2121 39.1749 0.7531
# 6 11.7606 8.4301 2.2338 -4.5399 0.7531 35.4097
#
#
#
# Elastic Compliance Matrix: (Units=1/GPa)
#
#
# Indices 1 2 3 4 5 6 
#
# 1 0.010214 -0.003601 0.002282 -0.003827 0.004774 -0.003271
# 2 -0.003601 0.013937 -0.007968 0.000651 -0.002590 -0.001481
# 3 0.002282 -0.007968 0.022782 -0.010331 0.005110 -0.001732
# 4 -0.003827 0.000651 -0.010331 0.029328 -0.000136 0.005531
# 5 0.004774 -0.002590 0.005110 -0.000136 0.029067 -0.001927
# 6 -0.003271 -0.001481 -0.001732 0.005531 -0.001927 0.030539
#
#
# Mechanical properties :
#
#
# Convention : Reuss Voigt Hill
#
# Bulk Modulus (GPa) = 35.26122 54.42241 44.84181
# Shear Modulus (GPa) = 30.50780 38.13528 34.32154
#
# Velocity S-wave (km/s) = 3.54644 3.96507 3.76158
# Velocity P-wave (km/s) = 5.59522 6.58776 6.11167
#
# Compressibility (1/GPa) = 0.02835977
#
# Stress axis : x y z
#
# Youngs Moduli (GPa) = 97.90893 71.75118 43.89500
#
# Poissons Ratio (x) = 0.25837 -0.10018
# Poissons Ratio (y) = 0.35256 0.34974
# Poissons Ratio (z) = -0.22346 0.57169
#
# Static dielectric constant tensor:
#      x y z
#    x 4.655550 0.124210 -0.055720 
#    y 0.124210 4.463330 0.045680 
#    z -0.055720 0.045680 4.300920 
# 
# 
# High freq. dielectric constant tensor:
#      x y z
#    x 1.978190 0.012950 -0.001170 
#    y 0.012950 1.964160 0.008510 
#    z -0.001170 0.008510 1.958870 
# 
# From -- ./inp_files/541090.got.cif
#   From: 2010.06.25/outbox.cif.g09.slc.cpg/sg2_271_cif.got.tgz:541090.got - 2010.06.27 13:26:56.
