data_PCOD8030536
_publ_section_title
;
Structure prediction by ZEFSAII (Michael W. Deem and Ramdas Pophale) SiO2 
 PCOD8030536
Probable space group: P -1
;
_chemical_formula_sum "Si O2"
_cell_formula_units_Z 16
_cell_length_a 18.970055
_cell_length_b 18.854644
_cell_length_c 9.119383
_cell_angle_alpha 141.234839
_cell_angle_beta 150.948558
_cell_angle_gamma 30.397077
_cell_volume 797.038238
_symmetry_space_group_name_H-M "P -1"
_symmetry_group_IT_number 2
_symmetry_cell_setting 'triclinic'
loop_
_space_group_symop_operation_xyz
x,y,z
-x,-y,-z
loop_
_atom_site_type_symbol
_atom_site_label
_atom_site_fract_x
_atom_site_fract_y
_atom_site_fract_z
Si Si1 0.377170 0.899741 0.647055
Si Si2 0.511900 0.174411 0.726776
Si Si3 0.093496 0.166951 0.371387
Si Si4 0.280119 0.321823 0.281554
Si Si5 0.075734 0.643189 0.369233
Si Si6 0.123190 0.875906 0.319516
Si Si7 0.419865 0.100709 0.726206
Si Si8 0.162475 0.812745 0.613994
O O1 0.549044 0.788350 0.684049
O O2 0.301562 0.822172 0.463656
O O3 0.218641 0.022349 0.456450
O O4 0.434805 0.962393 0.979240
O O5 0.341166 0.299092 0.525673
O O6 0.455708 0.183803 0.809167
O O7 0.577374 0.024122 0.541409
O O8 0.671161 0.191050 0.029613
O O9 0.219229 0.209702 0.604849
O O10 0.937969 0.291114 0.390863
O O11 0.004656 0.145725 0.039601
O O12 0.208663 0.475923 0.348800
O O13 0.125320 0.299140 0.951796
O O14 0.163950 0.688208 0.486911
O O15 0.177137 0.788205 0.426416
O O16 0.024099 0.039739 0.443647
#
# Coordination Sequence:
#
# PCOD8030536 Si02
#       8
#     2   2   2   2   2   2   2   2
#     4  12  21  41  65  94 123 162 211 255 298 367
#     4  11  23  39  62  95 128 162 203 251 313 366
#     4  12  22  39  64  96 123 163 208 252 307 359
#     4  11  25  44  64  91 122 165 208 253 310 366
#     4  11  26  43  64  90 127 162 203 259 311 365
#     4  11  24  37  63  97 129 159 202 259 309 362
#     4  11  22  37  65  96 123 159 205 259 302 361
#     4  11  23  41  60  94 132 162 199 255 316 359
#
# _framework density 20.07432
#
# number of rings (size 3 to 8) (size 9 to 14) (size 15 to 20)
#    0.000    0.750    6.250    1.500    3.500    0.500 
#    0.000    2.500    0.000    0.000    0.000    0.000 
#    0.000    0.000    0.000    0.000    0.000    0.000 
#
# Total GULP energy -198450.120033 kJ/mol
# GULP energy per Si atom -12403.132502 kJ/mol
# Density = 2.002863 g / cm^3
# Si number density = 20.074320 Si / 1000 Ang^3
#
#
#
# Elastic Constant Matrix: (Units=GPa)
#
#
# Indices 1 2 3 4 5 6 
#
# 1 116.6637 28.3078 35.3781 -0.0476 11.5372 11.4791
# 2 28.3078 48.1118 21.3119 4.9948 2.8525 8.0150
# 3 35.3781 21.3119 111.5171 -5.9524 -2.2381 11.6792
# 4 -0.0476 4.9948 -5.9524 19.8072 5.4750 3.0397
# 5 11.5372 2.8525 -2.2381 5.4750 44.4930 1.8857
# 6 11.4791 8.0150 11.6792 3.0397 1.8857 21.9718
#
#
#
# Elastic Compliance Matrix: (Units=1/GPa)
#
#
# Indices 1 2 3 4 5 6 
#
# 1 0.011012 -0.005076 -0.002192 0.001830 -0.002749 -0.002753
# 2 -0.005076 0.026731 -0.003423 -0.007259 0.000507 -0.004319
# 3 -0.002192 -0.003423 0.011016 0.004543 0.000960 -0.004172
# 4 0.001830 -0.007259 0.004543 0.056691 -0.006417 -0.008015
# 5 -0.002749 0.000507 0.000960 -0.006417 0.024012 -0.000432
# 6 -0.002753 -0.004319 -0.004172 -0.008015 -0.000432 0.051890
#
#
# Mechanical properties :
#
#
# Convention : Reuss Voigt Hill
#
# Bulk Modulus (GPa) = 36.52985 49.58757 43.05871
# Shear Modulus (GPa) = 23.60050 30.00738 26.80394
#
# Velocity S-wave (km/s) = 3.43250 3.87048 3.65805
# Velocity P-wave (km/s) = 5.82634 6.68803 6.27200
#
# Compressibility (1/GPa) = 0.02737487
#
# Stress axis : x y z
#
# Youngs Moduli (GPa) = 90.81265 37.40975 90.77966
#
# Poissons Ratio (x) = 0.18990 0.19903
# Poissons Ratio (y) = 0.46098 0.31075
# Poissons Ratio (z) = 0.19910 0.12806
#
# Static dielectric constant tensor:
#      x y z
#    x 4.108170 0.019620 -0.041130 
#    y 0.019620 3.324450 -0.123290 
#    z -0.041130 -0.123290 3.807590 
# 
# 
# High freq. dielectric constant tensor:
#      x y z
#    x 1.806720 0.002220 0.001620 
#    y 0.002220 1.736970 -0.007680 
#    z 0.001620 -0.007680 1.800890 
# 
# From -- ./inp_files/216342.got.cif
#   From: 2010.06.25/outbox.cif.g09.slc.cpg/sg2_109_cif.got.tgz:216342.got - 2010.06.27 13:26:56.
