data_PCOD8030585
_publ_section_title
;
Structure prediction by ZEFSAII (Michael W. Deem and Ramdas Pophale) SiO2 
 PCOD8030585
Probable space group: P -1
;
_chemical_formula_sum "Si O2"
_cell_formula_units_Z 12
_cell_length_a 28.160873
_cell_length_b 15.040656
_cell_length_c 6.504621
_cell_angle_alpha 58.206427
_cell_angle_beta 133.186715
_cell_angle_gamma 160.233363
_cell_volume 597.728564
_symmetry_space_group_name_H-M "P -1"
_symmetry_group_IT_number 2
_symmetry_cell_setting 'triclinic'
loop_
_space_group_symop_operation_xyz
x,y,z
-x,-y,-z
loop_
_atom_site_type_symbol
_atom_site_label
_atom_site_fract_x
_atom_site_fract_y
_atom_site_fract_z
Si Si1 0.868870 0.866246 0.926501
Si Si2 0.964327 0.175096 0.164884
Si Si3 0.617242 0.145611 0.864555
Si Si4 0.987449 0.357437 0.660810
Si Si5 0.718380 0.811578 0.269281
Si Si6 0.308429 0.598228 0.877821
O O1 0.735683 0.732953 0.549714
O O2 0.758681 0.621676 0.045926
O O3 0.975362 0.102782 0.109660
O O4 0.000000 0.000000 0.000000
O O5 0.158417 0.455290 0.517987
O O6 0.793419 0.905888 0.145091
O O7 0.941865 0.253481 0.887616
O O8 0.500000 0.000000 0.500000
O O9 0.497816 0.883957 0.962314
O O10 0.650778 0.304393 0.888746
O O11 0.811432 0.385382 0.102255
O O12 0.000000 0.500000 0.500000
O O13 0.832026 0.078605 0.383374
O O14 0.500000 0.500000 0.000000
#
# Coordination Sequence:
#
# PCOD8030585 Si02
#       6
#     2   2   2   2   2   2
#     4  11  23  39  69  99 127 169 219 270 329 388
#     4  11  22  43  68  91 135 169 216 275 327 385
#     4  11  23  40  65  95 131 167 218 270 321 391
#     4  11  25  44  64  95 132 175 219 272 327 388
#     4  11  26  45  64  95 134 175 223 269 325 394
#     4  11  22  38  66  99 126 167 216 267 332 383
#
# _framework density 20.076003
#
# number of rings (size 3 to 8) (size 9 to 14) (size 15 to 20)
#    0.000    1.000    5.000    1.500    0.000    7.333 
#    0.000    0.000    0.000    0.000    0.000    0.000 
#    0.000    0.000    0.000    0.000    0.000    0.000 
#
# Total GULP energy -148784.188937 kJ/mol
# GULP energy per Si atom -12398.682411 kJ/mol
# Density = 2.003031 g / cm^3
# Si number density = 20.076003 Si / 1000 Ang^3
#
#
#
# Elastic Constant Matrix: (Units=GPa)
#
#
# Indices 1 2 3 4 5 6 
#
# 1 82.6957 45.4777 55.4625 3.1863 -10.8942 1.6159
# 2 45.4777 97.1423 57.2343 6.3432 10.1626 -2.3865
# 3 55.4625 57.2343 136.2324 6.7572 -6.3527 -6.2467
# 4 3.1863 6.3432 6.7572 47.0555 1.9057 12.0435
# 5 -10.8942 10.1626 -6.3527 1.9057 30.9425 -4.5047
# 6 1.6159 -2.3865 -6.2467 12.0435 -4.5047 42.1468
#
#
#
# Elastic Compliance Matrix: (Units=1/GPa)
#
#
# Indices 1 2 3 4 5 6 
#
# 1 0.020816 -0.007859 -0.004829 0.000271 0.008742 -0.001102
# 2 -0.007859 0.017778 -0.004686 -0.000756 -0.009549 -0.000191
# 3 -0.004829 -0.004686 0.011574 -0.001404 0.002639 0.002318
# 4 0.000271 -0.000756 -0.001404 0.023487 -0.002444 -0.007234
# 5 0.008742 -0.009549 0.002639 -0.002444 0.039876 0.004476
# 6 -0.001102 -0.000191 0.002318 -0.007234 0.004476 0.026647
#
#
# Mechanical properties :
#
#
# Convention : Reuss Voigt Hill
#
# Bulk Modulus (GPa) = 64.85225 70.26883 67.56054
# Shear Modulus (GPa) = 27.76748 34.55534 31.16141
#
# Velocity S-wave (km/s) = 3.72306 4.15327 3.94404
# Velocity P-wave (km/s) = 7.13128 7.62082 7.38011
#
# Compressibility (1/GPa) = 0.01541967
#
# Stress axis : x y z
#
# Youngs Moduli (GPa) = 48.03967 56.24926 86.40027
#
# Poissons Ratio (x) = 0.44208 0.41724
# Poissons Ratio (y) = 0.37756 0.40486
# Poissons Ratio (z) = 0.23199 0.26358
#
# Static dielectric constant tensor:
#      x y z
#    x 4.314420 -0.911640 0.460720 
#    y -0.911640 5.738030 -1.324920 
#    z 0.460720 -1.324920 4.528530 
# 
# 
# High freq. dielectric constant tensor:
#      x y z
#    x 1.774810 0.005870 -0.015630 
#    y 0.005870 1.799640 -0.005710 
#    z -0.015630 -0.005710 1.792230 
# 
# From -- ./inp_files/17459.got.cif
#   From: 2010.06.25/outbox.cif.g09.slc.cpg/sg2_9_cif.got.tgz:17459.got - 2010.06.27 13:26:56.
