data_PCOD8030604
_publ_section_title
;
Structure prediction by ZEFSAII (Michael W. Deem and Ramdas Pophale) SiO2 
 PCOD8030604
Probable space group: P -1
;
_chemical_formula_sum "Si O2"
_cell_formula_units_Z 16
_cell_length_a 9.073862
_cell_length_b 9.207772
_cell_length_c 13.643562
_cell_angle_alpha 106.984240
_cell_angle_beta 79.236109
_cell_angle_gamma 48.961575
_cell_volume 699.986409
_symmetry_space_group_name_H-M "P -1"
_symmetry_group_IT_number 2
_symmetry_cell_setting 'triclinic'
loop_
_space_group_symop_operation_xyz
x,y,z
-x,-y,-z
loop_
_atom_site_type_symbol
_atom_site_label
_atom_site_fract_x
_atom_site_fract_y
_atom_site_fract_z
Si Si1 0.497273 0.549608 0.664287
Si Si2 0.305842 0.957948 0.202376
Si Si3 0.968651 0.150779 0.115492
Si Si4 0.445120 0.313582 0.496520
Si Si5 0.888218 0.129329 0.643378
Si Si6 0.023679 0.446186 0.374226
Si Si7 0.166542 0.183354 0.671387
Si Si8 0.175896 0.424520 0.883663
O O1 0.567871 0.356925 0.545454
O O2 0.557240 0.655485 0.615434
O O3 0.660498 0.406639 0.709701
O O4 0.234521 0.749026 0.768987
O O5 0.204639 0.979035 0.115063
O O6 0.251888 0.178829 0.265624
O O7 0.182187 0.968394 0.310033
O O8 0.579685 0.725646 0.125562
O O9 0.917140 0.354029 0.114223
O O10 0.000000 0.000000 0.000000
O O11 0.195982 0.490670 0.612434
O O12 0.579008 0.052416 0.446587
O O13 0.052888 0.103790 0.689268
O O14 0.000000 0.000000 0.500000
O O15 0.002545 0.616071 0.349059
O O16 0.000000 0.500000 0.500000
O O17 0.197194 0.269065 0.775908
O O18 0.000000 0.500000 0.000000
#
# Coordination Sequence:
#
# PCOD8030604 Si02
#       8
#     2   2   2   2   2   2   2   2
#     4  11  22  43  68 110 147 187 251 303 357 442
#     4  12  26  51  77 108 151 194 256 307 370 456
#     4  12  28  52  79 106 146 200 258 313 369 443
#     4  11  22  38  71 104 154 194 233 305 373 438
#     4  12  24  41  76 114 151 198 242 294 374 459
#     4  12  24  41  68 109 154 199 234 295 386 454
#     4  12  25  44  71 112 157 194 245 312 377 442
#     4  12  30  53  75 108 148 197 257 319 375 438
#
# _framework density 22.857586000000001
#
# number of rings (size 3 to 8) (size 9 to 14) (size 15 to 20)
#    0.000    0.250    5.000    4.125    3.500    2.000 
#    0.000    0.000    0.000    0.000    0.000    0.000 
#    0.000    0.000    0.000    0.000    0.000    0.000 
#
# Total GULP energy -198384.106838 kJ/mol
# GULP energy per Si atom -12399.006677 kJ/mol
# Density = 2.280556 g / cm^3
# Si number density = 22.857586 Si / 1000 Ang^3
#
#
#
# Elastic Constant Matrix: (Units=GPa)
#
#
# Indices 1 2 3 4 5 6 
#
# 1 91.2796 31.5277 38.4553 7.1116 3.1510 -9.4218
# 2 31.5277 124.0701 38.4307 4.9364 -6.4581 -7.7246
# 3 38.4553 38.4307 101.7541 1.1802 7.4150 2.0184
# 4 7.1116 4.9364 1.1802 27.5152 3.7239 1.5191
# 5 3.1510 -6.4581 7.4150 3.7239 48.3603 -5.8853
# 6 -9.4218 -7.7246 2.0184 1.5191 -5.8853 46.9005
#
#
#
# Elastic Compliance Matrix: (Units=1/GPa)
#
#
# Indices 1 2 3 4 5 6 
#
# 1 0.014098 -0.001818 -0.004671 -0.003296 0.000157 0.002860
# 2 -0.001818 0.009796 -0.003192 -0.001549 0.002244 0.001717
# 3 -0.004671 -0.003192 0.013012 0.001698 -0.002540 -0.002398
# 4 -0.003296 -0.001549 0.001698 0.038022 -0.003504 -0.002662
# 5 0.000157 0.002244 -0.002540 -0.003504 0.022039 0.003390
# 6 0.002860 0.001717 -0.002398 -0.002662 0.003390 0.022794
#
#
# Mechanical properties :
#
#
# Convention : Reuss Voigt Hill
#
# Bulk Modulus (GPa) = 57.00517 59.32570 58.16543
# Shear Modulus (GPa) = 34.48952 38.46788 36.47870
#
# Velocity S-wave (km/s) = 3.88865 4.10681 3.99922
# Velocity P-wave (km/s) = 6.71979 6.96410 6.84304
#
# Compressibility (1/GPa) = 0.01754227
#
# Stress axis : x y z
#
# Youngs Moduli (GPa) = 70.93269 102.08032 76.85464
#
# Poissons Ratio (x) = 0.18560 0.35900
# Poissons Ratio (y) = 0.12897 0.24535
# Poissons Ratio (z) = 0.33134 0.32588
#
# Static dielectric constant tensor:
#      x y z
#    x 4.614390 -0.235020 -0.021580 
#    y -0.235020 4.481200 0.074980 
#    z -0.021580 0.074980 3.788640 
# 
# 
# High freq. dielectric constant tensor:
#      x y z
#    x 1.913340 -0.003810 0.001590 
#    y -0.003810 1.924010 0.007280 
#    z 0.001590 0.007280 1.875300 
# 
# From -- ./inp_files/495431.got.cif
#   From: 2010.06.25/outbox.cif.g09.slc.cpg/sg2_248_cif.got.tgz:495431.got - 2010.06.27 13:26:56.
