data_PCOD8030759
_publ_section_title
;
Structure prediction by ZEFSAII (Michael W. Deem and Ramdas Pophale) SiO2 
 PCOD8030759
Probable space group: P -1
;
_chemical_formula_sum "Si O2"
_cell_formula_units_Z 14
_cell_length_a 14.895443
_cell_length_b 12.373485
_cell_length_c 11.884097
_cell_angle_alpha 128.400709
_cell_angle_beta 29.368265
_cell_angle_gamma 138.774481
_cell_volume 703.917931
_symmetry_space_group_name_H-M "P -1"
_symmetry_group_IT_number 2
_symmetry_cell_setting 'triclinic'
loop_
_space_group_symop_operation_xyz
x,y,z
-x,-y,-z
loop_
_atom_site_type_symbol
_atom_site_label
_atom_site_fract_x
_atom_site_fract_y
_atom_site_fract_z
Si Si1 0.123184 0.195544 0.000614
Si Si2 0.208661 0.628929 0.050407
Si Si3 0.467093 0.326948 0.901331
Si Si4 0.005761 0.809076 0.299602
Si Si5 0.734680 0.630343 0.273376
Si Si6 0.921647 0.406842 0.408576
Si Si7 0.658316 0.808909 0.804957
O O1 0.268654 0.229420 0.971543
O O2 0.268573 0.286539 0.788093
O O3 0.968837 0.263879 0.241560
O O4 0.000000 0.000000 0.000000
O O5 0.139559 0.724201 0.107610
O O6 0.048434 0.559484 0.285439
O O7 0.161787 0.475153 0.928912
O O8 0.459169 0.743055 0.892330
O O9 0.664871 0.328502 0.626335
O O10 0.500000 0.500000 0.000000
O O11 0.426372 0.237689 0.006800
O O12 0.896185 0.779299 0.276894
O O13 0.805970 0.737947 0.561801
O O14 0.187140 0.996683 0.247910
O O15 0.500000 0.500000 0.500000
O O16 0.000000 0.500000 0.500000
#
# Coordination Sequence:
#
# PCOD8030759 Si02
#       7
#     2   2   2   2   2   2   2
#     4  11  26  45  64  95 135 170 210 271 326 371
#     4  11  22  41  65  90 124 163 213 254 314 374
#     4  12  22  40  70  93 126 171 213 263 322 374
#     4  11  24  40  63  90 129 167 200 260 327 360
#     4  11  23  44  63  90 127 167 217 253 303 393
#     4  11  22  40  66  97 123 163 220 260 305 396
#     4  11  23  40  61  98 127 154 212 266 307 382
#
# _framework density 19.888681999999999
#
# number of rings (size 3 to 8) (size 9 to 14) (size 15 to 20)
#    0.000    0.857    4.286    3.429    2.000    0.571 
#    2.571    0.000    0.000    0.000    0.000    0.000 
#    0.000    0.000    0.000    0.000    0.000    0.000 
#
# Total GULP energy -173520.741660 kJ/mol
# GULP energy per Si atom -12394.338690 kJ/mol
# Density = 1.984341 g / cm^3
# Si number density = 19.888682 Si / 1000 Ang^3
#
#
#
# Elastic Constant Matrix: (Units=GPa)
#
#
# Indices 1 2 3 4 5 6 
#
# 1 66.9471 21.3034 16.6627 3.8763 -6.3947 9.6258
# 2 21.3034 93.3978 32.9797 5.2067 -3.1829 8.4389
# 3 16.6627 32.9797 103.8939 -4.4942 -2.3892 -2.1332
# 4 3.8763 5.2067 -4.4942 29.6443 -0.9566 0.1205
# 5 -6.3947 -3.1829 -2.3892 -0.9566 36.8975 -1.2447
# 6 9.6258 8.4389 -2.1332 0.1205 -1.2447 36.7904
#
#
#
# Elastic Compliance Matrix: (Units=1/GPa)
#
#
# Indices 1 2 3 4 5 6 
#
# 1 0.017199 -0.002660 -0.002025 -0.001994 0.002436 -0.003918
# 2 -0.002660 0.013056 -0.003872 -0.002514 0.000265 -0.002506
# 3 -0.002025 -0.003872 0.011341 0.002662 0.000188 0.002073
# 4 -0.001994 -0.002514 0.002662 0.034852 0.000553 0.001157
# 5 0.002436 0.000265 0.000188 0.000553 0.027582 0.000244
# 6 -0.003918 -0.002506 0.002073 0.001157 0.000244 0.028906
#
#
# Mechanical properties :
#
#
# Convention : Reuss Voigt Hill
#
# Bulk Modulus (GPa) = 40.84422 45.12560 42.98491
# Shear Modulus (GPa) = 31.60334 33.55264 32.57799
#
# Velocity S-wave (km/s) = 3.99057 4.11179 4.05163
# Velocity P-wave (km/s) = 6.46636 6.72910 6.59904
#
# Compressibility (1/GPa) = 0.02448327
#
# Stress axis : x y z
#
# Youngs Moduli (GPa) = 58.14274 76.59042 88.17451
#
# Poissons Ratio (x) = 0.20371 0.17853
# Poissons Ratio (y) = 0.15465 0.34142
# Poissons Ratio (z) = 0.11773 0.29657
#
# Static dielectric constant tensor:
#      x y z
#    x 2.338760 1.395050 -1.738630 
#    y 1.395050 2.116990 1.757670 
#    z -1.738630 1.757670 1.857340 
# 
# 
# High freq. dielectric constant tensor:
#      x y z
#    x 1.782870 0.008480 0.004530 
#    y 0.008480 1.777080 0.002200 
#    z 0.004530 0.002200 1.789740 
# 
# From -- ./inp_files/69496.got.cif
#   From: 2010.06.25/outbox.cif.g09.slc.cpg/sg2_35_cif.got.tgz:69496.got - 2010.06.27 13:26:56.
