data_PCOD8030812
_publ_section_title
;
Structure prediction by ZEFSAII (Michael W. Deem and Ramdas Pophale) SiO2 
 PCOD8030812
Probable space group: P -1
;
_chemical_formula_sum "Si O2"
_cell_formula_units_Z 14
_cell_length_a 12.634192
_cell_length_b 9.363851
_cell_length_c 9.772952
_cell_angle_alpha 43.250881
_cell_angle_beta 62.731941
_cell_angle_gamma 62.033179
_cell_volume 686.591057
_symmetry_space_group_name_H-M "P -1"
_symmetry_group_IT_number 2
_symmetry_cell_setting 'triclinic'
loop_
_space_group_symop_operation_xyz
x,y,z
-x,-y,-z
loop_
_atom_site_type_symbol
_atom_site_label
_atom_site_fract_x
_atom_site_fract_y
_atom_site_fract_z
Si Si1 0.454194 0.429790 0.934193
Si Si2 0.188791 0.389104 0.161422
Si Si3 0.397568 0.869741 0.142590
Si Si4 0.202553 0.276795 0.935268
Si Si5 0.980509 0.179077 0.001329
Si Si6 0.101367 0.989301 0.560090
Si Si7 0.663454 0.365409 0.400079
O O1 0.571786 0.262355 0.923547
O O2 0.415342 0.608917 0.712373
O O3 0.500000 0.500000 0.000000
O O4 0.336369 0.332804 0.105736
O O5 0.145623 0.209614 0.400459
O O6 0.139669 0.381619 0.039959
O O7 0.134395 0.622178 0.097576
O O8 0.408109 0.711215 0.377726
O O9 0.500000 0.000000 0.000000
O O10 0.265814 0.028408 0.100151
O O11 0.301796 0.409960 0.734506
O O12 0.099619 0.280583 0.878523
O O13 0.959438 0.052078 0.235323
O O14 0.000000 0.000000 0.000000
O O15 0.213502 0.803125 0.583966
O O16 0.000000 0.000000 0.500000
#
# Coordination Sequence:
#
# PCOD8030812 Si02
#       7
#     2   2   2   2   2   2   2
#     4  11  25  43  66  94 138 172 211 277 328 384
#     4  11  22  44  67  93 130 172 221 260 327 388
#     4  12  22  42  69  98 129 168 231 263 312 396
#     4  11  22  40  69  94 127 173 222 267 320 392
#     4  12  26  42  64  98 134 167 214 275 331 385
#     4  12  21  40  72  96 127 172 220 265 324 396
#     4  11  22  41  70  98 125 177 223 265 325 386
#
# _framework density 20.390595000000001
#
# number of rings (size 3 to 8) (size 9 to 14) (size 15 to 20)
#    0.000    0.571    8.571    1.714    2.000    0.571 
#    2.571    2.857    0.000    0.000    0.000    0.000 
#    0.000    0.000    0.000    0.000    0.000    0.000 
#
# Total GULP energy -173564.238082 kJ/mol
# GULP energy per Si atom -12397.445577 kJ/mol
# Density = 2.034419 g / cm^3
# Si number density = 20.390595 Si / 1000 Ang^3
#
#
#
# Elastic Constant Matrix: (Units=GPa)
#
#
# Indices 1 2 3 4 5 6 
#
# 1 89.2200 39.8537 41.5775 8.1678 2.1827 13.9562
# 2 39.8537 145.2439 40.9769 2.4571 9.4463 6.6582
# 3 41.5775 40.9769 141.9799 -4.0334 -10.7467 12.3596
# 4 8.1678 2.4571 -4.0334 31.5030 -0.8739 6.5536
# 5 2.1827 9.4463 -10.7467 -0.8739 21.5720 0.7520
# 6 13.9562 6.6582 12.3596 6.5536 0.7520 32.9630
#
#
#
# Elastic Compliance Matrix: (Units=1/GPa)
#
#
# Indices 1 2 3 4 5 6 
#
# 1 0.015041 -0.002765 -0.003534 -0.003412 -0.002079 -0.003759
# 2 -0.002765 0.008496 -0.002028 -0.000413 -0.004482 0.000399
# 3 -0.003534 -0.002028 0.009416 0.002939 0.006137 -0.002349
# 4 -0.003412 -0.000413 0.002939 0.034491 0.003614 -0.006514
# 5 -0.002079 -0.004482 0.006137 0.003614 0.051817 -0.002417
# 6 -0.003759 0.000399 -0.002349 -0.006514 -0.002417 0.034079
#
#
# Mechanical properties :
#
#
# Convention : Reuss Voigt Hill
#
# Bulk Modulus (GPa) = 61.35099 69.02886 65.18993
# Shear Modulus (GPa) = 28.50178 34.14333 31.32256
#
# Velocity S-wave (km/s) = 3.74276 4.09646 3.92360
# Velocity P-wave (km/s) = 6.98791 7.50343 7.25025
#
# Compressibility (1/GPa) = 0.01629965
#
# Stress axis : x y z
#
# Youngs Moduli (GPa) = 66.48332 117.70282 106.20320
#
# Poissons Ratio (x) = 0.32545 0.37530
# Poissons Ratio (y) = 0.18383 0.21538
# Poissons Ratio (z) = 0.23494 0.23870
#
# Static dielectric constant tensor:
#      x y z
#    x 3.801590 -0.530370 -0.422350 
#    y -0.530370 4.610330 0.272990 
#    z -0.422350 0.272990 3.835850 
# 
# 
# High freq. dielectric constant tensor:
#      x y z
#    x 1.783890 -0.020390 -0.012330 
#    y -0.020390 1.803910 -0.005460 
#    z -0.012330 -0.005460 1.799970 
# 
# From -- ./inp_files/177011.got.cif
#   From: 2010.06.25/outbox.cif.g09.slc.cpg/sg2_89_cif.got.tgz:177011.got - 2010.06.27 13:26:56.
