data_PCOD8030106
_publ_section_title
;
Structure prediction by ZEFSAII (Michael W. Deem and Ramdas Pophale) SiO2 
 PCOD8030106
Probable space group: P -1
;
_chemical_formula_sum "Si O2"
_cell_formula_units_Z 16
_cell_length_a 8.958977
_cell_length_b 12.008529
_cell_length_c 15.704129
_cell_angle_alpha 48.060271
_cell_angle_beta 131.562379
_cell_angle_gamma 141.132458
_cell_volume 750.682255
_symmetry_space_group_name_H-M "P -1"
_symmetry_group_IT_number 2
_symmetry_cell_setting 'triclinic'
loop_
_space_group_symop_operation_xyz
x,y,z
-x,-y,-z
loop_
_atom_site_type_symbol
_atom_site_label
_atom_site_fract_x
_atom_site_fract_y
_atom_site_fract_z
Si Si1 0.653334 0.006916 0.975719
Si Si2 0.733524 0.801847 0.670493
Si Si3 0.966888 0.671165 0.709361
Si Si4 0.410366 0.679915 0.931678
Si Si5 0.632904 0.273489 0.712212
Si Si6 0.235079 0.566591 0.497993
Si Si7 0.874809 0.792838 0.440595
Si Si8 0.781322 0.729101 0.909197
O O1 0.657812 0.120964 0.838980
O O2 0.523590 0.795517 0.003146
O O3 0.930046 0.094517 0.067286
O O4 0.500000 0.000000 0.000000
O O5 0.892757 0.733444 0.731816
O O6 0.482751 0.714831 0.567797
O O7 0.660657 0.738315 0.772716
O O8 0.897201 0.026483 0.614007
O O9 0.764126 0.449184 0.735376
O O10 0.975222 0.782798 0.574255
O O11 0.240888 0.727047 0.797255
O O12 0.640211 0.740079 0.928418
O O13 0.241300 0.460411 0.001298
O O14 0.768427 0.336300 0.639279
O O15 0.344126 0.186938 0.635646
O O16 0.232040 0.390447 0.562702
O O17 0.000000 0.500000 0.500000
#
# Coordination Sequence:
#
# PCOD8030106 Si02
#       8
#     2   2   2   2   2   2   2   2
#     4  12  26  44  73 101 132 176 234 279 335 396
#     4  12  25  41  72  97 135 176 224 273 331 403
#     4  11  21  42  69  96 132 174 221 276 333 395
#     4  11  26  45  70  94 137 182 221 280 339 395
#     4  11  22  44  69  98 137 172 221 281 335 392
#     4  11  26  42  64 100 137 179 214 273 335 399
#     4  11  23  43  66 100 133 170 224 271 333 396
#     4  11  27  46  64 102 137 179 225 275 336 399
#
# _framework density 21.313945
#
# number of rings (size 3 to 8) (size 9 to 14) (size 15 to 20)
#    0.000    0.750    3.750    3.750    7.000    3.500 
#    0.000    0.000    0.000    0.000    0.000    0.000 
#    0.000    0.000    0.000    0.000    0.000    0.000 
#
# Total GULP energy -198529.860660 kJ/mol
# GULP energy per Si atom -12408.116291 kJ/mol
# Density = 2.126543 g / cm^3
# Si number density = 21.313945 Si / 1000 Ang^3
#
#
#
# Elastic Constant Matrix: (Units=GPa)
#
#
# Indices 1 2 3 4 5 6 
#
# 1 95.7349 29.4731 19.6599 5.0274 -10.7695 5.3078
# 2 29.4731 97.4601 21.9039 20.6840 -3.7101 4.5592
# 3 19.6599 21.9039 72.2522 5.7794 -10.8003 -0.4635
# 4 5.0274 20.6840 5.7794 27.5948 2.6172 -1.2030
# 5 -10.7695 -3.7101 -10.8003 2.6172 33.9119 5.3179
# 6 5.3078 4.5592 -0.4635 -1.2030 5.3179 34.4355
#
#
#
# Elastic Compliance Matrix: (Units=1/GPa)
#
#
# Indices 1 2 3 4 5 6 
#
# 1 0.012262 -0.003071 -0.001939 0.000079 0.003250 -0.002009
# 2 -0.003071 0.013879 -0.002512 -0.009471 0.000764 -0.001847
# 3 -0.001939 -0.002512 0.015887 -0.001489 0.004263 0.000135
# 4 0.000079 -0.009471 -0.001489 0.044312 -0.005472 0.003615
# 5 0.003250 0.000764 0.004263 -0.005472 0.033306 -0.005879
# 6 -0.002009 -0.001847 0.000135 0.003615 -0.005879 0.030630
#
#
# Mechanical properties :
#
#
# Convention : Reuss Voigt Hill
#
# Bulk Modulus (GPa) = 37.05963 45.28012 41.16988
# Shear Modulus (GPa) = 28.68369 32.14911 30.41640
#
# Velocity S-wave (km/s) = 3.67246 3.88797 3.78175
# Velocity P-wave (km/s) = 5.95045 6.43783 6.19893
#
# Compressibility (1/GPa) = 0.02698354
#
# Stress axis : x y z
#
# Youngs Moduli (GPa) = 81.55254 72.04872 62.94552
#
# Poissons Ratio (x) = 0.22129 0.12204
# Poissons Ratio (y) = 0.25049 0.15813
# Poissons Ratio (z) = 0.15811 0.18099
#
# Static dielectric constant tensor:
#      x y z
#    x 3.836370 -0.033770 -0.032910 
#    y -0.033770 4.028430 0.002100 
#    z -0.032910 0.002100 3.851570 
# 
# 
# High freq. dielectric constant tensor:
#      x y z
#    x 1.831900 0.001620 -0.002650 
#    y 0.001620 1.854220 0.005740 
#    z -0.002650 0.005740 1.838040 
# 
# From -- ./inp_files/271697.got.cif
#   From: 2010.06.25/outbox.cif.g09.slc.cpg/sg2_136_cif.got.tgz:271697.got - 2010.06.27 13:26:56.
