data_PCOD8030884
_publ_section_title
;
Structure prediction by ZEFSAII (Michael W. Deem and Ramdas Pophale) SiO2 
 PCOD8030884
Probable space group: P -1
;
_chemical_formula_sum "Si O2"
_cell_formula_units_Z 12
_cell_length_a 12.970446
_cell_length_b 14.225037
_cell_length_c 6.696441
_cell_angle_alpha 102.606835
_cell_angle_beta 69.404386
_cell_angle_gamma 151.212230
_cell_volume 545.738914
_symmetry_space_group_name_H-M "P -1"
_symmetry_group_IT_number 2
_symmetry_cell_setting 'triclinic'
loop_
_space_group_symop_operation_xyz
x,y,z
-x,-y,-z
loop_
_atom_site_type_symbol
_atom_site_label
_atom_site_fract_x
_atom_site_fract_y
_atom_site_fract_z
Si Si1 0.390336 0.959917 0.858443
Si Si2 0.488487 0.715290 0.557905
Si Si3 0.232711 0.693772 0.545165
Si Si4 0.731850 0.788182 0.073548
Si Si5 0.209637 0.014578 0.178030
Si Si6 0.308639 0.400679 0.718906
O O1 0.212343 0.750039 0.776212
O O2 0.596365 0.131906 0.648772
O O3 0.500000 0.000000 0.000000
O O4 0.258664 0.959188 0.982322
O O5 0.312295 0.651686 0.548655
O O6 0.616905 0.754337 0.320394
O O7 0.680603 0.918356 0.648818
O O8 0.340204 0.538847 0.735767
O O9 0.000000 0.500000 0.500000
O O10 0.666768 0.623997 0.079929
O O11 0.671534 0.796782 0.911543
O O12 0.000000 0.000000 0.000000
O O13 0.939555 0.820721 0.297415
O O14 0.500000 0.500000 0.500000
#
# Coordination Sequence:
#
# PCOD8030884 Si02
#       6
#     2   2   2   2   2   2
#     4  11  24  44  66  97 128 174 220 267 333 389
#     4  11  22  41  65  95 127 172 214 263 333 383
#     4  11  26  43  67  97 134 168 220 277 321 392
#     4   9  20  41  61  91 129 164 214 262 317 382
#     4  11  22  41  69  91 132 172 212 265 323 394
#     4   9  22  39  62  95 129 164 214 262 319 384
#
# _framework density 21.988537000000001
#
# number of rings (size 3 to 8) (size 9 to 14) (size 15 to 20)
#    0.000    1.667    3.333    0.000    2.333    8.667 
#    0.000    3.333    0.000    0.000    0.000    0.000 
#    0.000    0.000    0.000    0.000    0.000    0.000 
#
# Total GULP energy -148668.476459 kJ/mol
# GULP energy per Si atom -12389.039705 kJ/mol
# Density = 2.193849 g / cm^3
# Si number density = 21.988537 Si / 1000 Ang^3
#
#
#
# Elastic Constant Matrix: (Units=GPa)
#
#
# Indices 1 2 3 4 5 6 
#
# 1 150.7846 49.9065 43.2976 -5.0004 28.7395 5.0087
# 2 49.9065 100.8375 36.0148 4.2210 18.7202 18.6764
# 3 43.2976 36.0148 69.5757 -1.4426 18.5611 7.1919
# 4 -5.0004 4.2210 -1.4426 36.0264 3.3365 8.2381
# 5 28.7395 18.7202 18.5611 3.3365 31.4464 -1.1853
# 6 5.0087 18.6764 7.1919 8.2381 -1.1853 38.5216
#
#
#
# Elastic Compliance Matrix: (Units=1/GPa)
#
#
# Indices 1 2 3 4 5 6 
#
# 1 0.009506 -0.002696 -0.003009 0.002019 -0.005520 0.000031
# 2 -0.002696 0.014615 -0.004244 -0.000535 -0.003899 -0.005948
# 3 -0.003009 -0.004244 0.020614 0.002041 -0.007185 -0.002057
# 4 0.002019 -0.000535 0.002041 0.030375 -0.006221 -0.007071
# 5 -0.005520 -0.003899 -0.007185 -0.006221 0.044318 0.006644
# 6 0.000031 -0.005948 -0.002057 -0.007071 0.006644 0.030940
#
#
# Mechanical properties :
#
#
# Convention : Reuss Voigt Hill
#
# Bulk Modulus (GPa) = 40.26067 64.40396 52.33231
# Shear Modulus (GPa) = 28.00427 33.99746 31.00087
#
# Velocity S-wave (km/s) = 3.57260 3.93637 3.75889
# Velocity P-wave (km/s) = 5.94707 7.07201 6.53380
#
# Compressibility (1/GPa) = 0.02483814
#
# Stress axis : x y z
#
# Youngs Moduli (GPa) = 105.19311 68.42444 48.51104
#
# Poissons Ratio (x) = 0.18444 0.14598
# Poissons Ratio (y) = 0.28355 0.20586
# Poissons Ratio (z) = 0.31655 0.29036
#
# Static dielectric constant tensor:
#      x y z
#    x 4.663280 -0.520020 0.453860 
#    y -0.520020 4.296650 -0.183610 
#    z 0.453860 -0.183610 4.100710 
# 
# 
# High freq. dielectric constant tensor:
#      x y z
#    x 1.887960 -0.000960 0.018840 
#    y -0.000960 1.857660 -0.011010 
#    z 0.018840 -0.011010 1.860980 
# 
# From -- ./inp_files/40590.got.cif
#   From: 2010.06.25/outbox.cif.g09.slc.cpg/sg2_21_cif.got.tgz:40590.got - 2010.06.27 13:26:56.
