data_PCOD8030487
_publ_section_title
;
Structure prediction by ZEFSAII (Michael W. Deem and Ramdas Pophale) SiO2 
 PCOD8030487
Probable space group: P -1
;
_chemical_formula_sum "Si O2"
_cell_formula_units_Z 16
_cell_length_a 11.875013
_cell_length_b 9.658789
_cell_length_c 16.159226
_cell_angle_alpha 135.901679
_cell_angle_beta 38.824113
_cell_angle_gamma 113.287671
_cell_volume 749.197717
_symmetry_space_group_name_H-M "P -1"
_symmetry_group_IT_number 2
_symmetry_cell_setting 'triclinic'
loop_
_space_group_symop_operation_xyz
x,y,z
-x,-y,-z
loop_
_atom_site_type_symbol
_atom_site_label
_atom_site_fract_x
_atom_site_fract_y
_atom_site_fract_z
Si Si1 0.329992 0.206451 0.786439
Si Si2 0.766714 0.040573 0.410762
Si Si3 0.787624 0.481174 0.547873
Si Si4 0.841008 0.502257 0.708526
Si Si5 0.853091 0.291169 0.880759
Si Si6 0.601467 0.884437 0.110761
Si Si7 0.212605 0.837099 0.310981
Si Si8 0.420523 0.860944 0.923933
O O1 0.557532 0.156658 0.622480
O O2 0.311189 0.109521 0.845954
O O3 0.248168 0.084815 0.716483
O O4 0.198858 0.459679 0.959812
O O5 0.836913 0.228344 0.420426
O O6 0.917382 0.862259 0.309631
O O7 0.797584 0.588930 0.677602
O O8 0.572201 0.628028 0.707266
O O9 0.935602 0.522765 0.415627
O O10 0.793694 0.288363 0.654212
O O11 0.700064 0.643370 0.919341
O O12 0.759610 0.301896 0.848324
O O13 0.757561 0.174979 0.948042
O O14 0.369847 0.945721 0.273816
O O15 0.654524 0.026374 0.072973
O O16 0.000000 0.000000 0.500000
O O17 0.500000 0.000000 0.000000
#
# Coordination Sequence:
#
# PCOD8030487 Si02
#       8
#     2   2   2   2   2   2   2   2
#     4  11  25  47  69  93 133 176 225 274 317 385
#     4  11  25  45  70  95 128 180 227 267 321 388
#     4  11  22  40  61  93 136 169 215 267 331 392
#     4  11  22  35  61  92 130 168 205 270 335 386
#     4  12  23  43  70  97 131 173 221 267 330 393
#     4  12  23  40  63  97 132 167 215 268 328 393
#     4  12  23  35  62  99 132 164 211 272 335 391
#     4  12  23  39  63  99 133 173 205 264 340 398
#
# _framework density 21.356176999999999
#
# number of rings (size 3 to 8) (size 9 to 14) (size 15 to 20)
#    0.000    0.500    5.000    4.500    1.750    0.000 
#    0.000    3.125    0.000    0.000    0.000    0.000 
#    0.000    0.000    0.000    0.000    0.000    0.000 
#
# Total GULP energy -198278.892295 kJ/mol
# GULP energy per Si atom -12392.430768 kJ/mol
# Density = 2.130757 g / cm^3
# Si number density = 21.356177 Si / 1000 Ang^3
#
#
#
# Elastic Constant Matrix: (Units=GPa)
#
#
# Indices 1 2 3 4 5 6 
#
# 1 63.5715 15.3595 -1.4207 1.3693 3.6642 -12.6070
# 2 15.3595 96.8012 16.1045 -9.1304 6.9265 -21.7290
# 3 -1.4207 16.1045 69.4342 8.4254 -14.5278 -4.8349
# 4 1.3693 -9.1304 8.4254 39.4159 -1.4342 -2.1848
# 5 3.6642 6.9265 -14.5278 -1.4342 34.2264 0.9038
# 6 -12.6070 -21.7290 -4.8349 -2.1848 0.9038 32.3146
#
#
#
# Elastic Compliance Matrix: (Units=1/GPa)
#
#
# Indices 1 2 3 4 5 6 
#
# 1 0.017390 -0.001604 0.000968 -0.000908 -0.001318 0.005827
# 2 -0.001604 0.013935 -0.004143 0.004481 -0.004445 0.008552
# 3 0.000968 -0.004143 0.017583 -0.004477 0.008018 -0.000305
# 4 -0.000908 0.004481 -0.004477 0.027553 -0.001658 0.003899
# 5 -0.001318 -0.004445 0.008018 -0.001658 0.033681 -0.003358
# 6 0.005827 0.008552 -0.000305 0.003899 -0.003358 0.039281
#
#
# Mechanical properties :
#
#
# Convention : Reuss Voigt Hill
#
# Bulk Modulus (GPa) = 25.41329 32.21038 28.81184
# Shear Modulus (GPa) = 29.05345 34.50895 31.78120
#
# Velocity S-wave (km/s) = 3.69239 4.02416 3.86184
# Velocity P-wave (km/s) = 5.48670 6.05863 5.77975
#
# Compressibility (1/GPa) = 0.03934949
#
# Stress axis : x y z
#
# Youngs Moduli (GPa) = 57.50284 71.76423 56.87439
#
# Poissons Ratio (x) = 0.11509 -0.05504
# Poissons Ratio (y) = 0.09222 0.23564
# Poissons Ratio (z) = -0.05565 0.29733
#
# Static dielectric constant tensor:
#      x y z
#    x 22.613430 -2.106610 9.283070 
#    y -2.106610 3.748570 -1.014170 
#    z 9.283070 -1.014170 8.707380 
# 
# 
# High freq. dielectric constant tensor:
#      x y z
#    x 1.812650 -0.018950 -0.008550 
#    y -0.018950 1.836940 -0.001360 
#    z -0.008550 -0.001360 1.857600 
# 
# From -- ./inp_files/181667.got.cif
#   From: 2010.06.25/outbox.cif.g09.slc.cpg/sg2_91_cif.got.tgz:181667.got - 2010.06.27 13:26:56.
