data_PCOD8030634
_publ_section_title
;
Structure prediction by ZEFSAII (Michael W. Deem and Ramdas Pophale) SiO2 
 PCOD8030634
Probable space group: P -1
;
_chemical_formula_sum "Si O2"
_cell_formula_units_Z 14
_cell_length_a 8.674548
_cell_length_b 11.851844
_cell_length_c 11.861618
_cell_angle_alpha 112.656275
_cell_angle_beta 39.936470
_cell_angle_gamma 114.800688
_cell_volume 706.393239
_symmetry_space_group_name_H-M "P -1"
_symmetry_group_IT_number 2
_symmetry_cell_setting 'triclinic'
loop_
_space_group_symop_operation_xyz
x,y,z
-x,-y,-z
loop_
_atom_site_type_symbol
_atom_site_label
_atom_site_fract_x
_atom_site_fract_y
_atom_site_fract_z
Si Si1 0.920027 0.350336 0.602695
Si Si2 0.373012 0.262582 0.938621
Si Si3 0.200574 0.074879 0.772673
Si Si4 0.965087 0.370552 0.323461
Si Si5 0.446899 0.850428 0.604259
Si Si6 0.700153 0.932752 0.910755
Si Si7 0.159297 0.132919 0.427854
O O1 0.630528 0.340283 0.778832
O O2 0.974611 0.333893 0.434496
O O3 0.059914 0.485970 0.620481
O O4 0.017395 0.244198 0.578228
O O5 0.223073 0.187314 0.890901
O O6 0.429420 0.167588 0.964815
O O7 0.213041 0.354633 0.115814
O O8 0.349832 0.123619 0.596373
O O9 0.292936 0.959096 0.733063
O O10 0.916077 0.032897 0.886157
O O11 0.730453 0.283422 0.364257
O O12 0.580136 0.846425 0.647480
O O13 0.806753 0.862211 0.723326
O O14 0.500000 0.000000 0.000000
O O15 0.000000 0.000000 0.500000
#
# Coordination Sequence:
#
# PCOD8030634 Si02
#       7
#     2   2   2   2   2   2   2
#     4  11  24  45  66  93 129 172 220 264 312 384
#     4  12  23  41  67  96 128 167 217 268 317 380
#     4  11  22  39  64  96 132 166 211 265 325 375
#     4  11  24  44  67  91 128 177 221 256 316 387
#     4  11  22  40  65  93 130 172 212 261 321 384
#     4  12  24  37  61 102 133 161 208 268 330 378
#     4  12  23  41  66  94 133 167 207 270 324 372
#
# _framework density 19.818988999999998
#
# number of rings (size 3 to 8) (size 9 to 14) (size 15 to 20)
#    0.000    0.571    5.714    3.429    2.000    0.571 
#    0.000    0.000    0.000    1.714    0.000    0.000 
#    0.000    0.000    0.000    0.000    0.000    0.000 
#
# Total GULP energy -173665.640590 kJ/mol
# GULP energy per Si atom -12404.688614 kJ/mol
# Density = 1.977388 g / cm^3
# Si number density = 19.818989 Si / 1000 Ang^3
#
#
#
# Elastic Constant Matrix: (Units=GPa)
#
#
# Indices 1 2 3 4 5 6 
#
# 1 85.3348 39.2928 9.3910 2.4971 -13.9958 10.6374
# 2 39.2928 120.7862 24.8216 -0.2087 -12.6704 8.3252
# 3 9.3910 24.8216 76.4312 -4.9194 -7.9332 7.2695
# 4 2.4971 -0.2087 -4.9194 17.6453 -2.8270 -1.5782
# 5 -13.9958 -12.6704 -7.9332 -2.8270 34.4398 3.4875
# 6 10.6374 8.3252 7.2695 -1.5782 3.4875 31.5497
#
#
#
# Elastic Compliance Matrix: (Units=1/GPa)
#
#
# Indices 1 2 3 4 5 6 
#
# 1 0.015033 -0.004115 0.000347 -0.001697 0.005012 -0.004702
# 2 -0.004115 0.010390 -0.002597 0.000164 0.001660 -0.000931
# 3 0.000347 -0.002597 0.014781 0.004294 0.003245 -0.002981
# 4 -0.001697 0.000164 0.004294 0.059088 0.005014 0.001941
# 5 0.005012 0.001660 0.003245 0.005014 0.033483 -0.006326
# 6 -0.004702 -0.000931 -0.002981 0.001941 -0.006326 0.035010
#
#
# Mechanical properties :
#
#
# Convention : Reuss Voigt Hill
#
# Bulk Modulus (GPa) = 36.39703 47.72921 42.06312
# Shear Modulus (GPa) = 26.36113 30.66342 28.51228
#
# Velocity S-wave (km/s) = 3.65100 3.93768 3.79705
# Velocity P-wave (km/s) = 6.01479 6.69392 6.36342
#
# Compressibility (1/GPa) = 0.02747477
#
# Stress axis : x y z
#
# Youngs Moduli (GPa) = 66.52134 96.24665 67.65341
#
# Poissons Ratio (x) = 0.39604 -0.02351
# Poissons Ratio (y) = 0.27372 0.17571
# Poissons Ratio (z) = -0.02311 0.24998
#
# Static dielectric constant tensor:
#      x y z
#    x 3.584680 0.113990 0.161840 
#    y 0.113990 3.581180 0.010550 
#    z 0.161840 0.010550 3.922840 
# 
# 
# High freq. dielectric constant tensor:
#      x y z
#    x 1.766910 0.008730 0.004040 
#    y 0.008730 1.769490 -0.001850 
#    z 0.004040 -0.001850 1.790060 
# 
# From -- ./inp_files/255691.got.cif
#   From: 2010.06.25/outbox.cif.g09.slc.cpg/sg2_128_cif.got.tgz:255691.got - 2010.06.27 13:26:56.
