data_PCOD8030292
_publ_section_title
;
Structure prediction by ZEFSAII (Michael W. Deem and Ramdas Pophale) SiO2 
 PCOD8030292
Probable space group: P -1
;
_chemical_formula_sum "Si O2"
_cell_formula_units_Z 16
_cell_length_a 17.614944
_cell_length_b 19.248942
_cell_length_c 9.677758
_cell_angle_alpha 151.899606
_cell_angle_beta 141.449968
_cell_angle_gamma 27.067002
_cell_volume 703.212064
_symmetry_space_group_name_H-M "P -1"
_symmetry_group_IT_number 2
_symmetry_cell_setting 'triclinic'
loop_
_space_group_symop_operation_xyz
x,y,z
-x,-y,-z
loop_
_atom_site_type_symbol
_atom_site_label
_atom_site_fract_x
_atom_site_fract_y
_atom_site_fract_z
Si Si1 0.701538 0.059708 0.207878
Si Si2 0.794508 0.464015 0.189139
Si Si3 0.644761 0.295447 0.774381
Si Si4 0.691704 0.298524 0.381583
Si Si5 0.932438 0.664444 0.458443
Si Si6 0.048818 0.674119 0.117767
Si Si7 0.631378 0.870360 0.581469
Si Si8 0.831931 0.048273 0.866849
O O1 0.861070 0.890990 0.236324
O O2 0.579714 0.242262 0.465093
O O3 0.755045 0.123716 0.272254
O O4 0.600978 0.004330 0.903418
O O5 0.630622 0.701319 0.338862
O O6 0.881073 0.455623 0.434799
O O7 0.758918 0.322174 0.909260
O O8 0.920757 0.369803 0.077743
O O9 0.500000 0.500000 0.000000
O O10 0.738335 0.125119 0.724068
O O11 0.500000 0.500000 0.500000
O O12 0.813092 0.338967 0.635060
O O13 0.714493 0.212641 0.109710
O O14 0.813233 0.759003 0.588225
O O15 0.935122 0.503051 0.102036
O O16 0.871748 0.843141 0.584439
O O17 0.500000 0.000000 0.500000
O O18 0.000000 0.000000 0.000000
#
# Coordination Sequence:
#
# PCOD8030292 Si02
#       8
#     2   2   2   2   2   2   2   2
#     4  12  23  45  72 100 134 188 243 281 351 428
#     4  11  21  44  67 100 142 178 225 293 357 415
#     4  12  28  45  68  99 147 188 232 289 364 426
#     4  12  26  42  69 107 141 178 248 303 345 417
#     4  11  22  43  68 102 140 179 233 290 356 426
#     4  11  22  41  72 104 129 179 241 292 341 424
#     4  11  24  39  73 107 138 173 238 302 349 409
#     4  12  25  45  69 103 142 192 229 293 363 427
#
# _framework density 22.752737
#
# number of rings (size 3 to 8) (size 9 to 14) (size 15 to 20)
#    0.000    0.500    6.250    2.625    5.250    0.000 
#    0.000    4.375    0.000    0.000    0.000    0.000 
#    0.000    0.000    0.000    0.000    0.000    0.000 
#
# Total GULP energy -198341.282916 kJ/mol
# GULP energy per Si atom -12396.330182 kJ/mol
# Density = 2.270095 g / cm^3
# Si number density = 22.752737 Si / 1000 Ang^3
#
#
#
# Elastic Constant Matrix: (Units=GPa)
#
#
# Indices 1 2 3 4 5 6 
#
# 1 66.8817 22.7363 34.8446 13.4627 -6.8446 17.2077
# 2 22.7363 123.6902 51.9061 4.8342 3.7753 19.4271
# 3 34.8446 51.9061 140.4638 3.2736 -3.2540 18.6404
# 4 13.4627 4.8342 3.2736 41.1829 7.3735 6.2435
# 5 -6.8446 3.7753 -3.2540 7.3735 37.7382 9.3173
# 6 17.2077 19.4271 18.6404 6.2435 9.3173 41.8774
#
#
#
# Elastic Compliance Matrix: (Units=1/GPa)
#
#
# Indices 1 2 3 4 5 6 
#
# 1 0.021006 -0.001231 -0.003521 -0.006571 0.006639 -0.006990
# 2 -0.001231 0.010036 -0.003079 0.000015 -0.000856 -0.002591
# 3 -0.003521 -0.003079 0.009334 0.000885 0.000688 -0.001564
# 4 -0.006571 0.000015 0.000885 0.027563 -0.006408 -0.000385
# 5 0.006639 -0.000856 0.000688 -0.006408 0.031230 -0.008630
# 6 -0.006990 -0.002591 -0.001564 -0.000385 -0.008630 0.030627
#
#
# Mechanical properties :
#
#
# Convention : Reuss Voigt Hill
#
# Bulk Modulus (GPa) = 40.46824 61.11218 50.79021
# Shear Modulus (GPa) = 32.53168 38.92962 35.73065
#
# Velocity S-wave (km/s) = 3.78536 4.14089 3.96711
# Velocity P-wave (km/s) = 6.07700 7.05551 6.58446
#
# Compressibility (1/GPa) = 0.02471073
#
# Stress axis : x y z
#
# Youngs Moduli (GPa) = 47.60654 99.64327 107.13998
#
# Poissons Ratio (x) = 0.12271 0.37726
# Poissons Ratio (y) = 0.05863 0.32994
# Poissons Ratio (z) = 0.16763 0.30685
#
# Static dielectric constant tensor:
#      x y z
#    x -0.731170 2.874010 -6.301950 
#    y 2.874010 2.375160 3.977050 
#    z -6.301950 3.977050 -4.287090 
# 
# 
# High freq. dielectric constant tensor:
#      x y z
#    x 1.872090 0.013900 0.006660 
#    y 0.013900 1.901520 0.013470 
#    z 0.006660 0.013470 1.912970 
# 
# From -- ./inp_files/274772.got.cif
#   From: 2010.06.25/outbox.cif.g09.slc.cpg/sg2_138_cif.got.tgz:274772.got - 2010.06.27 13:26:56.
