data_PCOD8030994
_publ_section_title
;
Structure prediction by ZEFSAII (Michael W. Deem and Ramdas Pophale) SiO2 
 PCOD8030994
Probable space group: P -1
;
_chemical_formula_sum "Si O2"
_cell_formula_units_Z 16
_cell_length_a 14.392055
_cell_length_b 9.001580
_cell_length_c 11.958833
_cell_angle_alpha 78.573995
_cell_angle_beta 71.879680
_cell_angle_gamma 29.112004
_cell_volume 707.233484
_symmetry_space_group_name_H-M "P -1"
_symmetry_group_IT_number 2
_symmetry_cell_setting 'triclinic'
loop_
_space_group_symop_operation_xyz
x,y,z
-x,-y,-z
loop_
_atom_site_type_symbol
_atom_site_label
_atom_site_fract_x
_atom_site_fract_y
_atom_site_fract_z
Si Si1 0.807775 0.416965 0.938794
Si Si2 0.169693 0.473557 0.684364
Si Si3 0.176533 0.731480 0.812667
Si Si4 0.077422 0.744331 0.451856
Si Si5 0.895935 0.640339 0.899134
Si Si6 0.525083 0.176981 0.303609
Si Si7 0.446495 0.742396 0.951055
Si Si8 0.321385 0.784208 0.604918
O O1 0.850897 0.533896 0.889603
O O2 0.625607 0.619319 0.899465
O O3 0.739443 0.476864 0.083439
O O4 0.984388 0.074578 0.880766
O O5 0.126032 0.686185 0.737068
O O6 0.132095 0.549731 0.556156
O O7 0.020531 0.544464 0.767851
O O8 0.392835 0.107310 0.680002
O O9 0.330103 0.649079 0.722078
O O10 0.282866 0.502303 0.343875
O O11 0.000000 0.000000 0.500000
O O12 0.900959 0.917760 0.412057
O O13 0.000000 0.500000 0.000000
O O14 0.703104 0.003945 0.934526
O O15 0.623163 0.141299 0.168633
O O16 0.619805 0.130252 0.383990
O O17 0.500000 0.500000 0.000000
O O18 0.500000 0.500000 0.500000
#
# Coordination Sequence:
#
# PCOD8030994 Si02
#       8
#     2   2   2   2   2   2   2   2
#     4  11  24  41  70 104 142 187 234 287 354 428
#     4  12  25  45  73 102 146 190 234 300 357 425
#     4  11  22  41  71 102 139 185 232 285 360 421
#     4  12  26  47  74 105 138 188 246 297 354 433
#     4  12  24  45  67 103 146 182 231 288 359 420
#     4  12  26  48  71 104 148 186 239 300 364 421
#     4  12  26  42  72 107 143 187 240 291 353 433
#     4  12  25  44  72 103 141 185 238 298 360 424
#
# _framework density 22.623363999999999
#
# number of rings (size 3 to 8) (size 9 to 14) (size 15 to 20)
#    0.000    0.250    5.000    3.750    3.500    1.500 
#    0.000    1.250    0.000    0.000    0.000    0.000 
#    0.000    0.000    0.000    0.000    0.000    0.000 
#
# Total GULP energy -198354.999058 kJ/mol
# GULP energy per Si atom -12397.187441 kJ/mol
# Density = 2.257187 g / cm^3
# Si number density = 22.623364 Si / 1000 Ang^3
#
#
#
# Elastic Constant Matrix: (Units=GPa)
#
#
# Indices 1 2 3 4 5 6 
#
# 1 121.2846 35.6070 6.2577 7.9361 5.8170 -1.8874
# 2 35.6070 108.7413 26.4344 11.2908 -4.3961 8.0730
# 3 6.2577 26.4344 98.4696 1.1242 -8.5580 -4.4054
# 4 7.9361 11.2908 1.1242 40.9933 1.5366 -5.7880
# 5 5.8170 -4.3961 -8.5580 1.5366 37.1095 4.1518
# 6 -1.8874 8.0730 -4.4054 -5.7880 4.1518 35.8570
#
#
#
# Elastic Compliance Matrix: (Units=1/GPa)
#
#
# Indices 1 2 3 4 5 6 
#
# 1 0.009335 -0.003206 0.000168 -0.000666 -0.001928 0.001350
# 2 -0.003206 0.011632 -0.002902 -0.003114 0.001771 -0.003852
# 3 0.000168 -0.002902 0.011173 0.000657 0.001965 0.001913
# 4 -0.000666 -0.003114 0.000657 0.026160 -0.001775 0.005175
# 5 -0.001928 0.001771 0.001965 -0.001775 0.028415 -0.003836
# 6 0.001350 -0.003852 0.001913 0.005175 -0.003836 0.030341
#
#
# Mechanical properties :
#
#
# Convention : Reuss Voigt Hill
#
# Bulk Modulus (GPa) = 49.36019 51.67708 50.51864
# Shear Modulus (GPa) = 36.84868 40.13839 38.49353
#
# Velocity S-wave (km/s) = 4.04020 4.21670 4.12939
# Velocity P-wave (km/s) = 6.60530 6.82637 6.71674
#
# Compressibility (1/GPa) = 0.02025924
#
# Stress axis : x y z
#
# Youngs Moduli (GPa) = 107.12600 85.96669 89.50436
#
# Poissons Ratio (x) = 0.27565 -0.01504
# Poissons Ratio (y) = 0.34350 0.25972
# Poissons Ratio (z) = -0.01800 0.24946
#
# Static dielectric constant tensor:
#      x y z
#    x 4.125580 0.019560 -0.059450 
#    y 0.019560 4.265820 -0.032840 
#    z -0.059450 -0.032840 4.487730 
# 
# 
# High freq. dielectric constant tensor:
#      x y z
#    x 1.890460 0.007450 -0.001190 
#    y 0.007450 1.895080 0.006800 
#    z -0.001190 0.006800 1.911640 
# 
# From -- ./inp_files/307653.got.cif
#   From: 2010.06.25/outbox.cif.g09.slc.cpg/sg2_154_cif.got.tgz:307653.got - 2010.06.27 13:26:56.
