data_PCOD8030112
_publ_section_title
;
Structure prediction by ZEFSAII (Michael W. Deem and Ramdas Pophale) SiO2 
 PCOD8030112
Probable space group: P -1
;
_chemical_formula_sum "Si O2"
_cell_formula_units_Z 16
_cell_length_a 9.772244
_cell_length_b 9.505169
_cell_length_c 13.157905
_cell_angle_alpha 50.705781
_cell_angle_beta 56.645611
_cell_angle_gamma 62.273338
_cell_volume 777.004918
_symmetry_space_group_name_H-M "P -1"
_symmetry_group_IT_number 2
_symmetry_cell_setting 'triclinic'
loop_
_space_group_symop_operation_xyz
x,y,z
-x,-y,-z
loop_
_atom_site_type_symbol
_atom_site_label
_atom_site_fract_x
_atom_site_fract_y
_atom_site_fract_z
Si Si1 0.835270 0.220634 0.748509
Si Si2 0.308112 0.351542 0.715891
Si Si3 0.395484 0.156849 0.406598
Si Si4 0.039988 0.506079 0.273499
Si Si5 0.414417 0.960517 0.951780
Si Si6 0.965096 0.878931 0.473308
Si Si7 0.402303 0.335944 0.125281
Si Si8 0.407680 0.481098 0.399390
O O1 0.933316 0.355926 0.709402
O O2 0.698647 0.322350 0.678276
O O3 0.953945 0.080427 0.687361
O O4 0.756604 0.109046 0.918790
O O5 0.355217 0.386144 0.565266
O O6 0.400627 0.485678 0.686084
O O7 0.106403 0.398837 0.787348
O O8 0.371282 0.136894 0.815063
O O9 0.230527 0.080327 0.482482
O O10 0.480147 0.202221 0.246700
O O11 0.370132 0.350442 0.384863
O O12 0.500000 0.000000 0.500000
O O13 0.970074 0.337222 0.430980
O O14 0.206741 0.422670 0.180197
O O15 0.557203 0.797270 0.925894
O O16 0.500000 0.000000 0.000000
O O17 0.000000 0.000000 0.500000
O O18 0.500000 0.500000 0.000000
#
# Coordination Sequence:
#
# PCOD8030112 Si02
#       8
#     2   2   2   2   2   2   2   2
#     4  12  22  45  71  92 133 183 221 266 347 409
#     4  11  25  40  69 103 136 172 230 282 334 400
#     4  11  24  41  67  96 135 169 222 278 334 397
#     4  11  23  44  72  97 136 175 226 280 338 396
#     4  12  26  43  68  97 137 181 226 271 337 406
#     4  11  25  40  67 103 131 169 226 285 333 389
#     4  11  23  46  68  96 132 184 221 270 336 410
#     4  11  21  42  69  98 131 181 220 272 338 410
#
# _framework density 20.591888999999998
#
# number of rings (size 3 to 8) (size 9 to 14) (size 15 to 20)
#    0.000    0.750    6.250    1.875    5.250    0.500 
#    2.250    0.625    0.000    0.000    0.000    0.000 
#    0.000    0.000    0.000    0.000    0.000    0.000 
#
# Total GULP energy -198278.244965 kJ/mol
# GULP energy per Si atom -12392.390310 kJ/mol
# Density = 2.054502 g / cm^3
# Si number density = 20.591889 Si / 1000 Ang^3
#
#
#
# Elastic Constant Matrix: (Units=GPa)
#
#
# Indices 1 2 3 4 5 6 
#
# 1 143.3532 53.6397 42.9904 -4.1507 -2.1896 5.7966
# 2 53.6397 111.6239 48.1591 9.4054 -3.7703 13.5966
# 3 42.9904 48.1591 120.0232 1.1641 -5.0548 -3.5308
# 4 -4.1507 9.4054 1.1641 36.2000 -3.6278 8.5918
# 5 -2.1896 -3.7703 -5.0548 -3.6278 27.7977 -4.8423
# 6 5.7966 13.5966 -3.5308 8.5918 -4.8423 42.5268
#
#
#
# Elastic Compliance Matrix: (Units=1/GPa)
#
#
# Indices 1 2 3 4 5 6 
#
# 1 0.008964 -0.003641 -0.001788 0.002190 0.000061 -0.000642
# 2 -0.003641 0.013110 -0.004040 -0.002892 -0.000226 -0.003472
# 3 -0.001788 -0.004040 0.010742 0.000052 0.001727 0.002613
# 4 0.002190 -0.002892 0.000052 0.030127 0.002827 -0.005134
# 5 0.000061 -0.000226 0.001727 0.002827 0.037308 0.003884
# 6 -0.000642 -0.003472 0.002613 -0.005134 0.003884 0.026409
#
#
# Mechanical properties :
#
#
# Convention : Reuss Voigt Hill
#
# Bulk Modulus (GPa) = 72.04569 73.84209 72.94389
# Shear Modulus (GPa) = 33.28365 36.65231 34.96798
#
# Velocity S-wave (km/s) = 4.02474 4.22351 4.12532
# Velocity P-wave (km/s) = 7.52738 7.72798 7.62834
#
# Compressibility (1/GPa) = 0.01388008
#
# Stress axis : x y z
#
# Youngs Moduli (GPa) = 111.55150 76.27627 93.09148
#
# Poissons Ratio (x) = 0.27771 0.16641
# Poissons Ratio (y) = 0.40614 0.37609
# Poissons Ratio (z) = 0.19941 0.30815
#
# Static dielectric constant tensor:
#      x y z
#    x 4.166860 -0.158720 0.204830 
#    y -0.158720 3.822110 -0.203140 
#    z 0.204830 -0.203140 4.037640 
# 
# 
# High freq. dielectric constant tensor:
#      x y z
#    x 1.811100 0.010500 -0.003860 
#    y 0.010500 1.802080 -0.003180 
#    z -0.003860 -0.003180 1.810140 
# 
# From -- ./inp_files/381242.got.cif
#   From: 2010.06.25/outbox.cif.g09.slc.cpg/sg2_191_cif.got.tgz:381242.got - 2010.06.27 13:26:56.
