data_PCOD8030072
_publ_section_title
;
Structure prediction by ZEFSAII (Michael W. Deem and Ramdas Pophale) SiO2 
 PCOD8030072
Probable space group: P -1
;
_chemical_formula_sum "Si O2"
_cell_formula_units_Z 16
_cell_length_a 21.121578
_cell_length_b 11.697993
_cell_length_c 8.983639
_cell_angle_alpha 147.583137
_cell_angle_beta 134.148099
_cell_angle_gamma 38.408918
_cell_volume 735.158249
_symmetry_space_group_name_H-M "P -1"
_symmetry_group_IT_number 2
_symmetry_cell_setting 'triclinic'
loop_
_space_group_symop_operation_xyz
x,y,z
-x,-y,-z
loop_
_atom_site_type_symbol
_atom_site_label
_atom_site_fract_x
_atom_site_fract_y
_atom_site_fract_z
Si Si1 0.097336 0.167192 0.017551
Si Si2 0.109822 0.615582 0.966854
Si Si3 0.134956 0.829850 0.972827
Si Si4 0.595605 0.185759 0.666488
Si Si5 0.637429 0.483313 0.308105
Si Si6 0.269842 0.308769 0.508908
Si Si7 0.201809 0.881180 0.599875
Si Si8 0.242081 0.055639 0.567303
O O1 0.179356 0.246310 0.279634
O O2 0.101609 0.941106 0.874240
O O3 0.982263 0.395096 0.110169
O O4 0.110826 0.088012 0.780480
O O5 0.062634 0.781646 0.917841
O O6 0.158251 0.732750 0.280847
O O7 0.202956 0.341631 0.783633
O O8 0.160847 0.010724 0.300819
O O9 0.232304 0.553039 0.814468
O O10 0.474424 0.332946 0.607914
O O11 0.630714 0.922632 0.511395
O O12 0.646118 0.127308 0.520726
O O13 0.632585 0.339824 0.996089
O O14 0.692628 0.639634 0.530608
O O15 0.701508 0.287971 0.324643
O O16 0.242596 0.008911 0.692356
#
# Coordination Sequence:
#
# PCOD8030072 Si02
#       8
#     2   2   2   2   2   2   2   2
#     4  12  24  42  66  97 127 170 220 265 313 380
#     4  11  26  41  67  91 131 178 211 259 325 377
#     4  11  21  42  67  91 132 161 216 269 319 362
#     4  11  22  44  71  96 124 164 221 266 322 376
#     4  11  24  43  70  97 124 171 210 272 321 374
#     4  12  20  40  70  96 128 160 214 273 318 372
#     4  11  25  43  62  92 137 168 214 262 316 383
#     4  11  23  43  62  97 132 168 211 265 315 385
#
# _framework density 21.764021
#
# number of rings (size 3 to 8) (size 9 to 14) (size 15 to 20)
#    0.000    0.750    6.250    1.125    1.750    5.000 
#    0.000    0.625    0.000    0.000    0.000    0.000 
#    0.000    0.000    0.000    0.000    0.000    0.000 
#
# Total GULP energy -198304.948562 kJ/mol
# GULP energy per Si atom -12394.059285 kJ/mol
# Density = 2.171448 g / cm^3
# Si number density = 21.764021 Si / 1000 Ang^3
#
#
#
# Elastic Constant Matrix: (Units=GPa)
#
#
# Indices 1 2 3 4 5 6 
#
# 1 168.8139 42.1593 38.6246 0.4500 -16.1841 15.6241
# 2 42.1593 42.3868 15.4792 -3.0875 -2.8090 1.5682
# 3 38.6246 15.4792 75.7033 5.5495 -11.6825 3.6509
# 4 0.4500 -3.0875 5.5495 23.3121 -1.4347 1.0182
# 5 -16.1841 -2.8090 -11.6825 -1.4347 36.9765 0.2737
# 6 15.6241 1.5682 3.6509 1.0182 0.2737 32.2857
#
#
#
# Elastic Compliance Matrix: (Units=1/GPa)
#
#
# Indices 1 2 3 4 5 6 
#
# 1 0.009018 -0.007805 -0.002399 -0.000313 0.002611 -0.003726
# 2 -0.007805 0.032793 -0.003500 0.005107 -0.001851 0.002435
# 3 -0.002399 -0.003500 0.016015 -0.003992 0.003592 -0.000384
# 4 -0.000313 0.005107 -0.003992 0.044620 0.000729 -0.001059
# 5 0.002611 -0.001851 0.003592 0.000729 0.029223 -0.001851
# 6 -0.003726 0.002435 -0.000384 -0.001059 -0.001851 0.032751
#
#
# Mechanical properties :
#
#
# Convention : Reuss Voigt Hill
#
# Bulk Modulus (GPa) = 32.87761 53.27001 43.07381
# Shear Modulus (GPa) = 24.75632 31.22427 27.99029
#
# Velocity S-wave (km/s) = 3.37633 3.79182 3.59009
# Velocity P-wave (km/s) = 5.50805 6.61058 6.08434
#
# Compressibility (1/GPa) = 0.03041584
#
# Stress axis : x y z
#
# Youngs Moduli (GPa) = 110.88966 30.49420 62.44210
#
# Poissons Ratio (x) = 0.23801 0.14983
# Poissons Ratio (y) = 0.86552 0.21857
# Poissons Ratio (z) = 0.26608 0.10674
#
# Static dielectric constant tensor:
#      x y z
#    x 4.444640 0.151060 -0.147540 
#    y 0.151060 3.805160 0.276100 
#    z -0.147540 0.276100 3.904580 
# 
# 
# High freq. dielectric constant tensor:
#      x y z
#    x 1.879230 0.005060 -0.008950 
#    y 0.005060 1.837460 0.024370 
#    z -0.008950 0.024370 1.850460 
# 
# From -- ./inp_files/46256.got.cif
#   From: 2010.06.25/outbox.cif.g09.slc.cpg/sg2_24_cif.got.tgz:46256.got - 2010.06.27 13:26:56.
