data_PCOD8030056
_publ_section_title
;
Structure prediction by ZEFSAII (Michael W. Deem and Ramdas Pophale) SiO2 
 PCOD8030056
Probable space group: P -1
;
_chemical_formula_sum "Si O2"
_cell_formula_units_Z 16
_cell_length_a 12.031743
_cell_length_b 8.961108
_cell_length_c 8.927777
_cell_angle_alpha 123.851858
_cell_angle_beta 111.998051
_cell_angle_gamma 62.852706
_cell_volume 701.828198
_symmetry_space_group_name_H-M "P -1"
_symmetry_group_IT_number 2
_symmetry_cell_setting 'triclinic'
loop_
_space_group_symop_operation_xyz
x,y,z
-x,-y,-z
loop_
_atom_site_type_symbol
_atom_site_label
_atom_site_fract_x
_atom_site_fract_y
_atom_site_fract_z
Si Si1 0.342843 0.697985 0.357504
Si Si2 0.086364 0.174086 0.805639
Si Si3 0.361723 0.988599 0.748079
Si Si4 0.948872 0.163685 0.235543
Si Si5 0.289196 0.815623 0.067543
Si Si6 0.135248 0.617954 0.398026
Si Si7 0.172942 0.214375 0.181882
Si Si8 0.492811 0.284078 0.075092
O O1 0.409328 0.846146 0.546422
O O2 0.276527 0.783300 0.217732
O O3 0.238593 0.702740 0.432983
O O4 0.426377 0.479237 0.241981
O O5 0.986754 0.331971 0.743996
O O6 0.208658 0.060675 0.705557
O O7 0.020075 0.030828 0.763840
O O8 0.132438 0.270826 0.021507
O O9 0.412710 0.862667 0.848311
O O10 0.402778 0.180443 0.887429
O O11 0.914018 0.325136 0.429875
O O12 0.067619 0.164932 0.199142
O O13 0.833344 0.203243 0.085230
O O14 0.296065 0.028499 0.156418
O O15 0.418268 0.670220 0.983417
O O16 0.205660 0.397825 0.348043
#
# Coordination Sequence:
#
# PCOD8030056 Si02
#       8
#     2   2   2   2   2   2   2   2
#     4  12  25  44  72 102 131 181 224 275 335 399
#     4  11  21  42  65  94 134 175 222 269 334 402
#     4  11  24  43  73 100 133 177 225 282 330 391
#     4  11  22  41  64  96 134 179 210 272 339 398
#     4  11  24  46  66  94 138 176 219 272 342 394
#     4  12  24  39  67 103 132 171 229 271 329 409
#     4  11  23  40  63  97 136 178 211 276 338 393
#     4  11  24  47  69  99 136 174 229 279 330 395
#
# _framework density 22.797602000000001
#
# number of rings (size 3 to 8) (size 9 to 14) (size 15 to 20)
#    0.000    0.750    3.750    5.625    3.500    1.500 
#    2.250    0.000    0.000    0.000    0.000    0.000 
#    0.000    0.000    0.000    0.000    0.000    0.000 
#
# Total GULP energy -198217.965030 kJ/mol
# GULP energy per Si atom -12388.622814 kJ/mol
# Density = 2.274571 g / cm^3
# Si number density = 22.797602 Si / 1000 Ang^3
#
#
#
# Elastic Constant Matrix: (Units=GPa)
#
#
# Indices 1 2 3 4 5 6 
#
# 1 75.2204 9.0059 21.4306 0.0831 -14.1481 -5.7154
# 2 9.0059 79.5643 23.9148 5.1537 2.1250 -8.5329
# 3 21.4306 23.9148 89.8329 26.5576 -24.7769 7.9213
# 4 0.0831 5.1537 26.5576 38.3710 -1.9552 -2.4939
# 5 -14.1481 2.1250 -24.7769 -1.9552 24.8292 5.6086
# 6 -5.7154 -8.5329 7.9213 -2.4939 5.6086 25.6001
#
#
#
# Elastic Compliance Matrix: (Units=1/GPa)
#
#
# Indices 1 2 3 4 5 6 
#
# 1 0.015517 -0.000771 -0.003153 0.002734 0.005230 0.003303
# 2 -0.000771 0.017881 -0.012260 0.006128 -0.016854 0.013871
# 3 -0.003153 -0.012260 0.034173 -0.021760 0.037442 -0.025687
# 4 0.002734 0.006128 -0.021760 0.040367 -0.021579 0.018046
# 5 0.005230 -0.016854 0.037442 -0.021579 0.088856 -0.037605
# 6 0.003303 0.013871 -0.025687 0.018046 -0.037605 0.062368
#
#
# Mechanical properties :
#
#
# Convention : Reuss Voigt Hill
#
# Bulk Modulus (GPa) = 28.40701 39.25780 33.83240
# Shear Modulus (GPa) = 16.48728 30.44448 23.46588
#
# Velocity S-wave (km/s) = 2.69216 3.65831 3.21177
# Velocity P-wave (km/s) = 4.70651 5.92468 5.35038
#
# Compressibility (1/GPa) = 0.03520258
#
# Stress axis : x y z
#
# Youngs Moduli (GPa) = 64.44675 55.92389 29.26307
#
# Poissons Ratio (x) = 0.04312 0.09228
# Poissons Ratio (y) = 0.04969 0.35876
# Poissons Ratio (z) = 0.20323 0.68561
#
# Static dielectric constant tensor:
#      x y z
#    x 3.999760 -0.026970 -0.243970 
#    y -0.026970 4.093460 0.207520 
#    z -0.243970 0.207520 4.498440 
# 
# 
# High freq. dielectric constant tensor:
#      x y z
#    x 1.888670 -0.004750 -0.017610 
#    y -0.004750 1.897340 0.012810 
#    z -0.017610 0.012810 1.914360 
# 
# From -- ./inp_files/217833.got.cif
#   From: 2010.06.25/outbox.cif.g09.slc.cpg/sg2_109_cif.got.tgz:217833.got - 2010.06.27 13:26:56.
