data_PCOD8030666
_publ_section_title
;
Structure prediction by ZEFSAII (Michael W. Deem and Ramdas Pophale) SiO2 
 PCOD8030666
Probable space group: P -1
;
_chemical_formula_sum "Si O2"
_cell_formula_units_Z 14
_cell_length_a 12.985182
_cell_length_b 6.497810
_cell_length_c 11.521452
_cell_angle_alpha 83.818824
_cell_angle_beta 95.998572
_cell_angle_gamma 48.531061
_cell_volume 703.737880
_symmetry_space_group_name_H-M "P -1"
_symmetry_group_IT_number 2
_symmetry_cell_setting 'triclinic'
loop_
_space_group_symop_operation_xyz
x,y,z
-x,-y,-z
loop_
_atom_site_type_symbol
_atom_site_label
_atom_site_fract_x
_atom_site_fract_y
_atom_site_fract_z
Si Si1 0.653435 0.723301 0.224651
Si Si2 0.353644 0.611949 0.927425
Si Si3 0.156726 0.249161 0.891786
Si Si4 0.626075 0.650312 0.839003
Si Si5 0.576149 0.712086 0.456304
Si Si6 0.647619 0.298512 0.672254
Si Si7 0.168961 0.278772 0.163679
O O1 0.621343 0.540035 0.181049
O O2 0.793273 0.622113 0.185486
O O3 0.673895 0.679040 0.369211
O O4 0.521322 0.048309 0.158722
O O5 0.235896 0.943198 0.868250
O O6 0.500000 0.500000 0.000000
O O7 0.295445 0.533865 0.023934
O O8 0.990457 0.446526 0.840833
O O9 0.194168 0.217694 0.033337
O O10 0.587661 0.509777 0.760696
O O11 0.729371 0.672532 0.785334
O O12 0.673147 0.431606 0.564700
O O13 0.459944 0.731404 0.377374
O O14 0.500000 0.000000 0.500000
O O15 0.791408 0.986894 0.747518
#
# Coordination Sequence:
#
# PCOD8030666 Si02
#       7
#     2   2   2   2   2   2   2
#     4  12  23  38  61  97 124 157 207 264 306 367
#     4  12  22  35  61  95 127 160 199 260 318 360
#     4  11  25  38  61  91 134 166 204 249 311 373
#     4  12  21  37  65  92 127 158 205 255 313 370
#     4  11  23  40  65  96 122 159 212 263 304 360
#     4  11  22  39  67  91 123 166 205 256 309 367
#     4  11  23  42  58  92 130 172 203 247 306 379
#
# _framework density 19.893768999999999
#
# number of rings (size 3 to 8) (size 9 to 14) (size 15 to 20)
#    0.000    0.571    7.143    2.143    0.000    1.714 
#    0.000    0.714    0.000    4.286    0.000    0.000 
#    0.000    0.000    0.000    0.000    0.000    0.000 
#
# Total GULP energy -173602.397248 kJ/mol
# GULP energy per Si atom -12400.171232 kJ/mol
# Density = 1.984849 g / cm^3
# Si number density = 19.893769 Si / 1000 Ang^3
#
#
#
# Elastic Constant Matrix: (Units=GPa)
#
#
# Indices 1 2 3 4 5 6 
#
# 1 90.9666 45.6718 32.4544 2.1777 -8.9471 -0.2740
# 2 45.6718 136.0559 47.7350 5.5381 4.9314 9.2724
# 3 32.4544 47.7350 111.8132 2.7766 -21.8796 7.3854
# 4 2.1777 5.5381 2.7766 42.2518 13.1759 2.2978
# 5 -8.9471 4.9314 -21.8796 13.1759 32.9199 1.3455
# 6 -0.2740 9.2724 7.3854 2.2978 1.3455 30.4756
#
#
#
# Elastic Compliance Matrix: (Units=1/GPa)
#
#
# Indices 1 2 3 4 5 6 
#
# 1 0.014198 -0.004439 -0.001527 -0.001391 0.003993 0.001777
# 2 -0.004439 0.010680 -0.004349 0.001116 -0.006060 -0.002052
# 3 -0.001527 -0.004349 0.013576 -0.003473 0.010739 -0.002193
# 4 -0.001391 0.001116 -0.003473 0.028284 -0.014132 -0.001019
# 5 0.003993 -0.006060 0.010739 -0.014132 0.045231 -0.001654
# 6 0.001777 -0.002052 -0.002193 -0.001019 -0.001654 0.034135
#
#
# Mechanical properties :
#
#
# Convention : Reuss Voigt Hill
#
# Bulk Modulus (GPa) = 56.10741 65.61757 60.86249
# Shear Modulus (GPa) = 28.95597 35.32778 32.14187
#
# Velocity S-wave (km/s) = 3.81928 4.21862 4.02391
# Velocity P-wave (km/s) = 6.90753 7.53556 7.22837
#
# Compressibility (1/GPa) = 0.01782296
#
# Stress axis : x y z
#
# Youngs Moduli (GPa) = 70.43103 93.63276 73.66019
#
# Poissons Ratio (x) = 0.41568 0.11250
# Poissons Ratio (y) = 0.31268 0.32033
# Poissons Ratio (z) = 0.10757 0.40719
#
# Static dielectric constant tensor:
#      x y z
#    x 3.569780 0.335270 -0.219710 
#    y 0.335270 3.666720 -0.065020 
#    z -0.219710 -0.065020 3.835340 
# 
# 
# High freq. dielectric constant tensor:
#      x y z
#    x 1.762160 0.029620 -0.013680 
#    y 0.029620 1.778520 0.003430 
#    z -0.013680 0.003430 1.774320 
# 
# From -- ./inp_files/40237.got.cif
#   From: 2010.06.25/outbox.cif.g09.slc.cpg/sg2_21_cif.got.tgz:40237.got - 2010.06.27 13:26:56.
