data_PCOD8030496
_publ_section_title
;
Structure prediction by ZEFSAII (Michael W. Deem and Ramdas Pophale) SiO2 
 PCOD8030496
Probable space group: P -1
;
_chemical_formula_sum "Si O2"
_cell_formula_units_Z 16
_cell_length_a 12.296165
_cell_length_b 12.607447
_cell_length_c 11.644150
_cell_angle_alpha 82.675793
_cell_angle_beta 58.887553
_cell_angle_gamma 133.101919
_cell_volume 721.662784
_symmetry_space_group_name_H-M "P -1"
_symmetry_group_IT_number 2
_symmetry_cell_setting 'triclinic'
loop_
_space_group_symop_operation_xyz
x,y,z
-x,-y,-z
loop_
_atom_site_type_symbol
_atom_site_label
_atom_site_fract_x
_atom_site_fract_y
_atom_site_fract_z
Si Si1 0.476773 0.777426 0.894583
Si Si2 0.091943 0.611112 0.812280
Si Si3 0.691098 0.368182 0.759653
Si Si4 0.393064 0.035556 0.641844
Si Si5 0.157837 0.082238 0.747155
Si Si6 0.269844 0.205123 0.402476
Si Si7 0.297956 0.836727 0.342765
Si Si8 0.576577 0.650411 0.218923
O O1 0.522365 0.724865 0.776362
O O2 0.674810 0.023906 0.739480
O O3 0.506903 0.748683 0.009289
O O4 0.173760 0.598875 0.089599
O O5 0.347837 0.734099 0.607469
O O6 0.181974 0.802154 0.724789
O O7 0.000000 0.500000 0.000000
O O8 0.658964 0.218787 0.771714
O O9 0.608601 0.381818 0.695168
O O10 0.001846 0.616077 0.588951
O O11 0.231394 0.020611 0.766346
O O12 0.483231 0.028414 0.699155
O O13 0.215592 0.134024 0.573640
O O14 0.336380 0.295230 0.701119
O O15 0.841949 0.864449 0.967761
O O16 0.406142 0.422619 0.298651
O O17 0.000000 0.000000 0.500000
#
# Coordination Sequence:
#
# PCOD8030496 Si02
#       8
#     2   2   2   2   2   2   2   2
#     4  12  24  41  66 100 132 172 220 273 331 399
#     4  11  22  36  60  95 133 169 212 264 333 393
#     4  11  24  44  67  96 132 177 221 271 330 396
#     4  11  22  40  65  95 133 172 214 274 330 395
#     4  11  25  46  70  99 132 177 230 278 332 394
#     4  12  27  45  69 101 136 177 225 281 334 396
#     4  11  23  42  65  98 135 170 219 270 333 391
#     4  11  25  47  71  96 132 182 229 276 330 397
#
# _framework density 22.171018
#
# number of rings (size 3 to 8) (size 9 to 14) (size 15 to 20)
#    0.000    0.750    3.750    3.750    1.750    4.000 
#    0.000    1.250    0.000    0.000    0.000    0.000 
#    0.000    0.000    0.000    0.000    0.000    0.000 
#
# Total GULP energy -198323.676181 kJ/mol
# GULP energy per Si atom -12395.229761 kJ/mol
# Density = 2.212056 g / cm^3
# Si number density = 22.171018 Si / 1000 Ang^3
#
#
#
# Elastic Constant Matrix: (Units=GPa)
#
#
# Indices 1 2 3 4 5 6 
#
# 1 84.3114 33.3516 19.6235 2.6366 1.8799 0.0311
# 2 33.3516 132.2548 41.0647 -4.7789 7.1393 -1.4490
# 3 19.6235 41.0647 83.4045 20.6018 11.4603 1.2359
# 4 2.6366 -4.7789 20.6018 36.1532 4.5836 4.6901
# 5 1.8799 7.1393 11.4603 4.5836 34.7975 7.6856
# 6 0.0311 -1.4490 1.2359 4.6901 7.6856 38.0313
#
#
#
# Elastic Compliance Matrix: (Units=1/GPa)
#
#
# Indices 1 2 3 4 5 6 
#
# 1 0.013403 -0.002903 -0.001680 -0.000454 0.000510 -0.000114
# 2 -0.002903 0.010180 -0.005383 0.004709 -0.000812 0.000149
# 3 -0.001680 -0.005383 0.018145 -0.010628 -0.003658 0.001257
# 4 -0.000454 0.004709 -0.010628 0.034991 -0.001270 -0.003533
# 5 0.000510 -0.000812 -0.003658 -0.001270 0.031606 -0.006143
# 6 -0.000114 0.000149 0.001257 -0.003533 -0.006143 0.027936
#
#
# Mechanical properties :
#
#
# Convention : Reuss Voigt Hill
#
# Bulk Modulus (GPa) = 45.88229 54.22782 50.05505
# Shear Modulus (GPa) = 30.58856 35.52512 33.05684
#
# Velocity S-wave (km/s) = 3.71841 4.00724 3.86553
# Velocity P-wave (km/s) = 6.25900 6.77663 6.52295
#
# Compressibility (1/GPa) = 0.02179490
#
# Stress axis : x y z
#
# Youngs Moduli (GPa) = 74.60868 98.22876 55.11249
#
# Poissons Ratio (x) = 0.28520 0.09261
# Poissons Ratio (y) = 0.21662 0.29667
# Poissons Ratio (z) = 0.12537 0.52876
#
# Static dielectric constant tensor:
#      x y z
#    x 4.030870 0.122650 -0.104480 
#    y 0.122650 4.086100 0.009760 
#    z -0.104480 0.009760 4.017730 
# 
# 
# High freq. dielectric constant tensor:
#      x y z
#    x 1.870300 0.009660 -0.003660 
#    y 0.009660 1.880010 -0.000940 
#    z -0.003660 -0.000940 1.879110 
# 
# From -- ./inp_files/428117.got.cif
#   From: 2010.06.25/outbox.cif.g09.slc.cpg/sg2_215_cif.got.tgz:428117.got - 2010.06.27 13:26:56.
