data_PCOD8030642
_publ_section_title
;
Structure prediction by ZEFSAII (Michael W. Deem and Ramdas Pophale) SiO2 
 PCOD8030642
Probable space group: P -1
;
_chemical_formula_sum "Si O2"
_cell_formula_units_Z 14
_cell_length_a 9.566275
_cell_length_b 10.639231
_cell_length_c 9.238268
_cell_angle_alpha 68.091751
_cell_angle_beta 43.136344
_cell_angle_gamma 69.351450
_cell_volume 591.651664
_symmetry_space_group_name_H-M "P -1"
_symmetry_group_IT_number 2
_symmetry_cell_setting 'triclinic'
loop_
_space_group_symop_operation_xyz
x,y,z
-x,-y,-z
loop_
_atom_site_type_symbol
_atom_site_label
_atom_site_fract_x
_atom_site_fract_y
_atom_site_fract_z
Si Si1 0.220515 0.667455 0.992896
Si Si2 0.792544 0.793781 0.161908
Si Si3 0.962629 0.810591 0.525227
Si Si4 0.259431 0.019383 0.134037
Si Si5 0.756329 0.434619 0.658959
Si Si6 0.639785 0.749290 0.586045
Si Si7 0.615321 0.554014 0.251771
O O1 0.225965 0.584880 0.173979
O O2 0.012584 0.769282 0.086405
O O3 0.410548 0.756471 0.818625
O O4 0.239642 0.568996 0.881158
O O5 0.623225 0.810642 0.410305
O O6 0.753986 0.669600 0.139594
O O7 0.768496 0.934153 0.030875
O O8 0.878620 0.863178 0.720582
O O9 0.770899 0.839463 0.548093
O O10 0.047278 0.649197 0.535160
O O11 0.159273 0.880480 0.290737
O O12 0.500000 0.000000 0.000000
O O13 0.754832 0.593714 0.554987
O O14 0.549898 0.384287 0.770949
O O15 0.500000 0.500000 0.500000
#
# Coordination Sequence:
#
# PCOD8030642 Si02
#       7
#     2   2   2   2   2   2   2
#     4  11  25  41  66 107 144 185 221 275 356 413
#     4  12  25  43  71 102 138 181 235 282 347 403
#     4  11  26  47  73  99 134 187 235 284 336 418
#     4  11  29  50  71  97 134 189 239 284 346 401
#     4  11  23  44  73 103 146 183 224 275 357 415
#     4  11  24  43  70 111 142 175 224 286 347 416
#     4  11  22  39  65 106 147 180 220 281 340 411
#
# _framework density 23.662571
#
# number of rings (size 3 to 8) (size 9 to 14) (size 15 to 20)
#    0.000    0.857    4.286    3.429    8.000    2.857 
#    0.000    1.429    0.000    0.000    0.000    0.000 
#    0.000    0.000    0.000    0.000    0.000    0.000 
#
# Total GULP energy -173619.157450 kJ/mol
# GULP energy per Si atom -12401.368389 kJ/mol
# Density = 2.360871 g / cm^3
# Si number density = 23.662571 Si / 1000 Ang^3
#
#
#
# Elastic Constant Matrix: (Units=GPa)
#
#
# Indices 1 2 3 4 5 6 
#
# 1 126.4723 11.0362 19.5825 -18.5760 -11.2500 -5.4296
# 2 11.0362 26.9689 27.3683 -4.2185 3.7753 -9.1194
# 3 19.5825 27.3683 86.6451 -13.3064 5.6040 -13.2107
# 4 -18.5760 -4.2185 -13.3064 27.6498 0.0691 2.6930
# 5 -11.2500 3.7753 5.6040 0.0691 53.6118 -9.5727
# 6 -5.4296 -9.1194 -13.2107 2.6930 -9.5727 39.8142
#
#
#
# Elastic Compliance Matrix: (Units=1/GPa)
#
#
# Indices 1 2 3 4 5 6 
#
# 1 0.009246 -0.002504 -0.000492 0.005519 0.002286 0.000700
# 2 -0.002504 0.057296 -0.016611 -0.001612 -0.001572 0.007002
# 3 -0.000492 -0.016611 0.018049 0.005666 -0.000541 0.001604
# 4 0.005519 -0.001612 0.005666 0.042400 0.000540 -0.000475
# 5 0.002286 -0.001572 -0.000541 0.000540 0.020115 0.004572
# 6 0.000700 0.007002 0.001604 -0.000475 0.004572 0.028479
#
#
# Mechanical properties :
#
#
# Convention : Reuss Voigt Hill
#
# Bulk Modulus (GPa) = 22.03729 39.56228 30.79978
# Shear Modulus (GPa) = 21.74625 36.35512 29.05069
#
# Velocity S-wave (km/s) = 3.03481 3.92394 3.50767
# Velocity P-wave (km/s) = 4.64903 6.10618 5.42674
#
# Compressibility (1/GPa) = 0.04537763
#
# Stress axis : x y z
#
# Youngs Moduli (GPa) = 108.16029 17.45309 55.40483
#
# Poissons Ratio (x) = 0.04370 0.02727
# Poissons Ratio (y) = 0.27083 0.92030
# Poissons Ratio (z) = 0.05324 0.28990
#
# Static dielectric constant tensor:
#      x y z
#    x 4.554890 0.076820 -0.018200 
#    y 0.076820 3.968220 0.046100 
#    z -0.018200 0.046100 4.279140 
# 
# 
# High freq. dielectric constant tensor:
#      x y z
#    x 1.954010 0.008720 -0.002190 
#    y 0.008720 1.911870 0.005180 
#    z -0.002190 0.005180 1.947100 
# 
# From -- ./inp_files/175724.got.cif
#   From: 2010.06.25/outbox.cif.g09.slc.cpg/sg2_88_cif.got.tgz:175724.got - 2010.06.27 13:26:56.
