data_PCOD8030427
_publ_section_title
;
Structure prediction by ZEFSAII (Michael W. Deem and Ramdas Pophale) SiO2 
 PCOD8030427
Probable space group: P -1
;
_chemical_formula_sum "Si O2"
_cell_formula_units_Z 14
_cell_length_a 8.904571
_cell_length_b 9.161978
_cell_length_c 18.237932
_cell_angle_alpha 120.419463
_cell_angle_beta 30.605716
_cell_angle_gamma 109.720822
_cell_volume 636.653676
_symmetry_space_group_name_H-M "P -1"
_symmetry_group_IT_number 2
_symmetry_cell_setting 'triclinic'
loop_
_space_group_symop_operation_xyz
x,y,z
-x,-y,-z
loop_
_atom_site_type_symbol
_atom_site_label
_atom_site_fract_x
_atom_site_fract_y
_atom_site_fract_z
Si Si1 0.288819 0.573226 0.909094
Si Si2 0.157511 0.997380 0.273083
Si Si3 0.209470 0.623934 0.123742
Si Si4 0.813667 0.067634 0.024084
Si Si5 0.366509 0.727975 0.397923
Si Si6 0.576133 0.617725 0.431909
Si Si7 0.751669 0.016580 0.309607
O O1 0.280118 0.724794 0.892263
O O2 0.570797 0.410935 0.730697
O O3 0.279689 0.650064 0.014661
O O4 0.000000 0.500000 0.000000
O O5 0.159881 0.798212 0.237387
O O6 0.505354 0.004498 0.129544
O O7 0.956657 0.139085 0.449388
O O8 0.985283 0.041309 0.280203
O O9 0.919612 0.543257 0.240889
O O10 0.500000 0.500000 0.000000
O O11 0.000000 0.000000 0.000000
O O12 0.058924 0.979160 0.840600
O O13 0.368349 0.621058 0.446717
O O14 0.627328 0.840650 0.325542
O O15 0.500000 0.500000 0.500000
O O16 0.529035 0.816791 0.530748
#
# Coordination Sequence:
#
# PCOD8030427 Si02
#       7
#     2   2   2   2   2   2   2
#     4  12  24  46  72  99 143 184 230 282 351 412
#     4  11  23  46  70  98 137 181 238 275 341 415
#     4  12  26  43  72 104 138 184 232 282 345 416
#     4  12  28  42  70 104 141 183 230 289 348 407
#     4  11  22  46  76  96 140 192 221 282 356 409
#     4  11  23  39  68 108 137 174 235 286 334 408
#     4  11  21  45  74  95 138 191 228 275 348 413
#
# _framework density 21.989979000000002
#
# number of rings (size 3 to 8) (size 9 to 14) (size 15 to 20)
#    0.000    0.571    7.143    1.286    6.000    1.714 
#    2.571    1.429    0.000    0.000    0.000    0.000 
#    0.000    0.000    0.000    0.000    0.000    0.000 
#
# Total GULP energy -173459.491004 kJ/mol
# GULP energy per Si atom -12389.963643 kJ/mol
# Density = 2.193993 g / cm^3
# Si number density = 21.989979 Si / 1000 Ang^3
#
#
#
# Elastic Constant Matrix: (Units=GPa)
#
#
# Indices 1 2 3 4 5 6 
#
# 1 68.2931 43.7537 44.8993 -6.2895 -22.5295 -12.1055
# 2 43.7537 98.0033 42.9305 6.5653 -2.4864 -11.4710
# 3 44.8993 42.9305 155.8277 13.4117 13.5752 -16.7720
# 4 -6.2895 6.5653 13.4117 45.9858 4.7983 -2.2095
# 5 -22.5295 -2.4864 13.5752 4.7983 14.5082 12.5812
# 6 -12.1055 -11.4710 -16.7720 -2.2095 12.5812 25.5814
#
#
#
# Elastic Compliance Matrix: (Units=1/GPa)
#
#
# Indices 1 2 3 4 5 6 
#
# 1 -0.019992 0.004561 0.017072 0.003165 -0.088573 0.047612
# 2 0.004561 0.011039 -0.007688 -0.002008 0.026483 -0.011130
# 3 0.017072 -0.007688 -0.001933 -0.001344 0.042947 -0.017874
# 4 0.003165 -0.002008 -0.001344 0.023735 -0.006196 0.004814
# 5 -0.088573 0.026483 0.042947 -0.006196 -0.174573 0.083440
# 6 0.047612 -0.011130 -0.017874 0.004814 0.083440 0.004291
#
#
# Mechanical properties :
#
#
# Convention : Reuss Voigt Hill
#
# Bulk Modulus (GPa) = 58.80866 65.03236 61.92051
# Shear Modulus (GPa) = -27.83104 29.91779 1.04337
#
# Velocity S-wave (km/s) = -3.56142 3.69252 0.68957
# Velocity P-wave (km/s) = 3.14481 6.91502 5.37156
#
# Compressibility (1/GPa) = 0.01700430
#
# Stress axis : x y z
#
# Youngs Moduli (GPa) = -50.02025 90.58918 -517.20843
#
# Poissons Ratio (x) = -0.41314 8.82996
# Poissons Ratio (y) = 0.22812 -3.97604
# Poissons Ratio (z) = 0.85396 0.69640
#
# Static dielectric constant tensor:
#      x y z
#    x 3.654780 -0.206940 -0.046320 
#    y -0.206940 4.072010 0.497330 
#    z -0.046320 0.497330 5.168080 
# 
# 
# High freq. dielectric constant tensor:
#      x y z
#    x 1.837610 -0.006430 -0.000440 
#    y -0.006430 1.859450 0.016700 
#    z -0.000440 0.016700 1.894160 
# 
# From -- ./inp_files/183999.got.cif
#   From: 2010.06.25/outbox.cif.g09.slc.cpg/sg2_92_cif.got.tgz:183999.got - 2010.06.27 13:26:56.
