data_PCOD8030371
_publ_section_title
;
Structure prediction by ZEFSAII (Michael W. Deem and Ramdas Pophale) SiO2 
 PCOD8030371
Probable space group: P -1
;
_chemical_formula_sum "Si O2"
_cell_formula_units_Z 14
_cell_length_a 21.397461
_cell_length_b 15.250031
_cell_length_c 11.680145
_cell_angle_alpha 29.897762
_cell_angle_beta 149.681494
_cell_angle_gamma 159.414506
_cell_volume 638.285788
_symmetry_space_group_name_H-M "P -1"
_symmetry_group_IT_number 2
_symmetry_cell_setting 'triclinic'
loop_
_space_group_symop_operation_xyz
x,y,z
-x,-y,-z
loop_
_atom_site_type_symbol
_atom_site_label
_atom_site_fract_x
_atom_site_fract_y
_atom_site_fract_z
Si Si1 0.193555 0.232518 0.602958
Si Si2 0.428700 0.834184 0.809480
Si Si3 0.159705 0.479641 0.594928
Si Si4 0.457776 0.482451 0.321501
Si Si5 0.826096 0.394129 0.777708
Si Si6 0.765875 0.040428 0.571814
Si Si7 0.285057 0.243689 0.975568
O O1 0.355946 0.333980 0.665285
O O2 0.231561 0.476594 0.412765
O O3 0.185207 0.112446 0.843716
O O4 0.000000 0.000000 0.500000
O O5 0.333290 0.751848 0.627068
O O6 0.352654 0.906743 0.690332
O O7 0.651158 0.080664 0.871821
O O8 0.373172 0.587304 0.054541
O O9 0.123455 0.541370 0.349038
O O10 0.979541 0.308953 0.582292
O O11 0.200650 0.318343 0.824830
O O12 0.500000 0.500000 0.500000
O O13 0.306443 0.180639 0.382454
O O14 0.000000 0.500000 0.000000
O O15 0.743842 0.955742 0.764627
O O16 0.500000 0.500000 0.000000
#
# Coordination Sequence:
#
# PCOD8030371 Si02
#       7
#     2   2   2   2   2   2   2
#     4  11  24  44  68 104 140 187 234 287 354 411
#     4  12  25  47  72 102 139 188 238 285 354 416
#     4  11  25  43  72 104 142 188 231 293 355 410
#     4  12  28  45  72 103 146 186 227 294 360 412
#     4  11  25  44  71 104 143 185 238 292 343 428
#     4  12  25  46  73 107 142 183 242 289 348 418
#     4  11  21  44  73  99 140 185 235 289 341 420
#
# _framework density 21.933748999999999
#
# number of rings (size 3 to 8) (size 9 to 14) (size 15 to 20)
#    0.000    0.571    4.286    3.000    6.000    4.000 
#    0.000    0.000    0.000    0.000    0.000    0.000 
#    0.000    0.000    0.000    0.000    0.000    0.000 
#
# Total GULP energy -173690.371401 kJ/mol
# GULP energy per Si atom -12406.455100 kJ/mol
# Density = 2.188383 g / cm^3
# Si number density = 21.933749 Si / 1000 Ang^3
#
#
#
# Elastic Constant Matrix: (Units=GPa)
#
#
# Indices 1 2 3 4 5 6 
#
# 1 116.5842 44.5594 63.2290 0.9377 -9.0441 -1.3525
# 2 44.5594 130.5339 39.0839 22.5843 -7.8283 -8.3982
# 3 63.2290 39.0839 139.2083 7.3713 -0.9524 -11.7661
# 4 0.9377 22.5843 7.3713 35.5701 -7.5663 2.0084
# 5 -9.0441 -7.8283 -0.9524 -7.5663 36.4711 12.9528
# 6 -1.3525 -8.3982 -11.7661 2.0084 12.9528 44.5569
#
#
#
# Elastic Compliance Matrix: (Units=1/GPa)
#
#
# Indices 1 2 3 4 5 6 
#
# 1 0.013131 -0.003509 -0.005432 0.004105 0.004328 -0.003141
# 2 -0.003509 0.010323 -0.000778 -0.006596 -0.000813 0.002167
# 3 -0.005432 -0.000778 0.010254 -0.002296 -0.002911 0.003346
# 4 0.004105 -0.006596 -0.002296 0.034887 0.008866 -0.005875
# 5 0.004328 -0.000813 -0.002911 0.008866 0.034016 -0.011079
# 6 -0.003141 0.002167 0.003346 -0.005875 -0.011079 0.027125
#
#
# Mechanical properties :
#
#
# Convention : Reuss Voigt Hill
#
# Bulk Modulus (GPa) = 70.07444 75.56345 72.81894
# Shear Modulus (GPa) = 32.48218 39.28324 35.88271
#
# Velocity S-wave (km/s) = 3.85245 4.23661 4.04909
# Velocity P-wave (km/s) = 7.19764 7.64574 7.42507
#
# Compressibility (1/GPa) = 0.01427054
#
# Stress axis : x y z
#
# Youngs Moduli (GPa) = 76.15538 96.86721 97.52596
#
# Poissons Ratio (x) = 0.33988 0.52979
# Poissons Ratio (y) = 0.26721 0.07586
# Poissons Ratio (z) = 0.41370 0.07534
#
# Static dielectric constant tensor:
#      x y z
#    x 4.024980 -0.136990 0.013550 
#    y -0.136990 3.970600 0.089280 
#    z 0.013550 0.089280 4.165490 
# 
# 
# High freq. dielectric constant tensor:
#      x y z
#    x 1.868530 -0.005730 0.006940 
#    y -0.005730 1.867560 0.007230 
#    z 0.006940 0.007230 1.872350 
# 
# From -- ./inp_files/183735.got.cif
#   From: 2010.06.25/outbox.cif.g09.slc.cpg/sg2_92_cif.got.tgz:183735.got - 2010.06.27 13:26:56.
