data_PCOD8030418
_publ_section_title
;
Structure prediction by ZEFSAII (Michael W. Deem and Ramdas Pophale) SiO2 
 PCOD8030418
Probable space group: P -1
;
_chemical_formula_sum "Si O2"
_cell_formula_units_Z 16
_cell_length_a 11.826974
_cell_length_b 12.136104
_cell_length_c 14.821798
_cell_angle_alpha 152.160115
_cell_angle_beta 55.581684
_cell_angle_gamma 105.952324
_cell_volume 665.315660
_symmetry_space_group_name_H-M "P -1"
_symmetry_group_IT_number 2
_symmetry_cell_setting 'triclinic'
loop_
_space_group_symop_operation_xyz
x,y,z
-x,-y,-z
loop_
_atom_site_type_symbol
_atom_site_label
_atom_site_fract_x
_atom_site_fract_y
_atom_site_fract_z
Si Si1 0.782211 0.764177 0.702933
Si Si2 0.569030 0.669504 0.214790
Si Si3 0.304069 0.639766 0.882925
Si Si4 0.843927 0.469814 0.805537
Si Si5 0.020055 0.562540 0.933224
Si Si6 0.332928 0.593960 0.499320
Si Si7 0.149653 0.182541 0.091189
Si Si8 0.766385 0.203789 0.505787
O O1 0.642970 0.703711 0.694987
O O2 0.760935 0.848373 0.878021
O O3 0.953972 0.449342 0.376230
O O4 0.768246 0.019714 0.837371
O O5 0.681677 0.466718 0.099755
O O6 0.413233 0.648120 0.257372
O O7 0.500000 0.000000 0.500000
O O8 0.684892 0.533103 0.977155
O O9 0.485761 0.456167 0.617466
O O10 0.178360 0.572981 0.845760
O O11 0.005352 0.363586 0.722025
O O12 0.773276 0.758848 0.987356
O O13 0.891971 0.221546 0.529247
O O14 0.000000 0.500000 0.000000
O O15 0.847169 0.869194 0.209243
O O16 0.255388 0.645776 0.470969
O O17 0.196315 0.862261 0.818922
#
# Coordination Sequence:
#
# PCOD8030418 Si02
#       8
#     2   2   2   2   2   2   2   2
#     4  11  25  46  72 107 148 181 248 303 358 429
#     4  11  21  45  72 105 144 192 236 295 360 439
#     4  11  25  44  72 111 148 186 234 305 363 424
#     4  12  22  42  72 100 134 189 238 287 354 419
#     4  12  24  44  65 101 149 181 230 297 356 422
#     4  11  23  47  75 103 145 190 242 296 361 430
#     4  11  24  43  75 106 136 198 240 289 366 432
#     4  11  23  41  72 102 138 187 246 283 351 442
#
# _framework density 24.048735000000001
#
# number of rings (size 3 to 8) (size 9 to 14) (size 15 to 20)
#    0.000    0.750    5.000    2.625    1.750    2.000 
#    2.250    2.500    2.750    0.000    0.000    0.000 
#    0.000    0.000    0.000    0.000    0.000    0.000 
#
# Total GULP energy -198277.555928 kJ/mol
# GULP energy per Si atom -12392.347245 kJ/mol
# Density = 2.399400 g / cm^3
# Si number density = 24.048735 Si / 1000 Ang^3
#
#
#
# Elastic Constant Matrix: (Units=GPa)
#
#
# Indices 1 2 3 4 5 6 
#
# 1 139.9596 45.3403 45.4916 -9.1885 12.8377 4.9938
# 2 45.3403 111.3000 42.5606 7.5276 5.0757 6.7796
# 3 45.4916 42.5606 92.2058 -1.6694 14.9520 -4.2918
# 4 -9.1885 7.5276 -1.6694 36.8220 1.7755 -0.8175
# 5 12.8377 5.0757 14.9520 1.7755 33.9265 2.1572
# 6 4.9938 6.7796 -4.2918 -0.8175 2.1572 28.9036
#
#
#
# Elastic Compliance Matrix: (Units=1/GPa)
#
#
# Indices 1 2 3 4 5 6 
#
# 1 0.009427 -0.002677 -0.003121 0.002820 -0.001860 -0.001246
# 2 -0.002677 0.012300 -0.004856 -0.003560 0.001714 -0.003372
# 3 -0.003121 -0.004856 0.015728 0.001285 -0.005375 0.004451
# 4 0.002820 -0.003560 0.001285 0.028813 -0.002708 0.001556
# 5 -0.001860 0.001714 -0.005375 -0.002708 0.032649 -0.003392
# 6 -0.001246 -0.003372 0.004451 0.001556 -0.003392 0.036562
#
#
# Mechanical properties :
#
#
# Convention : Reuss Voigt Hill
#
# Bulk Modulus (GPa) = 61.92721 67.80561 64.86641
# Shear Modulus (GPa) = 30.83210 33.93526 32.38368
#
# Velocity S-wave (km/s) = 3.58448 3.76054 3.67357
# Velocity P-wave (km/s) = 6.55271 6.86381 6.71006
#
# Compressibility (1/GPa) = 0.01614799
#
# Stress axis : x y z
#
# Youngs Moduli (GPa) = 106.08350 81.29917 63.57914
#
# Poissons Ratio (x) = 0.21763 0.19840
# Poissons Ratio (y) = 0.28397 0.30875
# Poissons Ratio (z) = 0.33104 0.39481
#
# Static dielectric constant tensor:
#      x y z
#    x 4.319380 0.186600 -0.007470 
#    y 0.186600 4.562000 0.083240 
#    z -0.007470 0.083240 4.259810 
# 
# 
# High freq. dielectric constant tensor:
#      x y z
#    x 1.957020 0.013370 0.005710 
#    y 0.013370 1.967130 -0.000140 
#    z 0.005710 -0.000140 1.939590 
# 
# From -- ./inp_files/519943.got.cif
#   From: 2010.06.25/outbox.cif.g09.slc.cpg/sg2_260_cif.got.tgz:519943.got - 2010.06.27 13:26:56.
