data_PCOD8030314
_publ_section_title
;
Structure prediction by ZEFSAII (Michael W. Deem and Ramdas Pophale) SiO2 
 PCOD8030314
Probable space group: P -1
;
_chemical_formula_sum "Si O2"
_cell_formula_units_Z 16
_cell_length_a 9.298286
_cell_length_b 6.521476
_cell_length_c 17.733895
_cell_angle_alpha 97.337198
_cell_angle_beta 128.526608
_cell_angle_gamma 98.034496
_cell_volume 800.359201
_symmetry_space_group_name_H-M "P -1"
_symmetry_group_IT_number 2
_symmetry_cell_setting 'triclinic'
loop_
_space_group_symop_operation_xyz
x,y,z
-x,-y,-z
loop_
_atom_site_type_symbol
_atom_site_label
_atom_site_fract_x
_atom_site_fract_y
_atom_site_fract_z
Si Si1 0.690379 0.959044 0.871164
Si Si2 0.857308 0.215080 0.656949
Si Si3 0.799797 0.620446 0.113557
Si Si4 0.664575 0.464630 0.499945
Si Si5 0.927507 0.709123 0.998245
Si Si6 0.166879 0.092418 0.498986
Si Si7 0.533558 0.971408 0.655651
Si Si8 0.535403 0.178995 0.958124
O O1 0.544984 0.045311 0.878921
O O2 0.897159 0.107624 0.968000
O O3 0.634939 0.989599 0.769639
O O4 0.727072 0.722811 0.891079
O O5 0.808073 0.396678 0.599608
O O6 0.041059 0.347491 0.769012
O O7 0.896752 0.040310 0.604757
O O8 0.685348 0.087010 0.648023
O O9 0.894265 0.752158 0.077111
O O10 0.636642 0.713108 0.100126
O O11 0.724027 0.370314 0.051411
O O12 0.500000 0.500000 0.500000
O O13 0.792995 0.659039 0.500411
O O14 0.557909 0.280286 0.398979
O O15 0.000000 0.500000 0.000000
O O16 0.362741 0.081133 0.601491
O O17 0.000000 0.000000 0.500000
O O18 0.500000 0.000000 0.000000
#
# Coordination Sequence:
#
# PCOD8030314 Si02
#       8
#     2   2   2   2   2   2   2   2
#     4  11  24  40  65  96 131 172 217 274 332 388
#     4  11  23  42  69  99 126 168 231 273 334 407
#     4  11  24  42  66  95 130 177 221 274 332 391
#     4  11  21  44  69  94 132 179 217 273 342 399
#     4  11  22  41  64  94 130 167 220 274 320 388
#     4  11  25  45  66  97 138 172 217 284 333 397
#     4  11  23  41  68 101 130 168 228 275 333 406
#     4  11  24  45  62  89 140 180 218 271 334 400
#
# _framework density 19.991022999999998
#
# number of rings (size 3 to 8) (size 9 to 14) (size 15 to 20)
#    0.000    1.000    6.250    0.750    1.750    5.000 
#    2.250    0.000    0.000    0.000    0.000    0.000 
#    0.000    0.000    0.000    0.000    0.000    0.000 
#
# Total GULP energy -198238.116113 kJ/mol
# GULP energy per Si atom -12389.882257 kJ/mol
# Density = 1.994552 g / cm^3
# Si number density = 19.991023 Si / 1000 Ang^3
#
#
#
# Elastic Constant Matrix: (Units=GPa)
#
#
# Indices 1 2 3 4 5 6 
#
# 1 134.9115 50.6829 39.2567 -6.1581 -8.2687 6.7600
# 2 50.6829 128.2839 34.1084 -10.5327 -1.4049 4.1248
# 3 39.2567 34.1084 90.1023 -4.3944 -2.9060 -4.2812
# 4 -6.1581 -10.5327 -4.3944 15.0371 8.3861 2.3263
# 5 -8.2687 -1.4049 -2.9060 8.3861 26.7681 -0.5629
# 6 6.7600 4.1248 -4.2812 2.3263 -0.5629 36.5804
#
#
#
# Elastic Compliance Matrix: (Units=1/GPa)
#
#
# Indices 1 2 3 4 5 6 
#
# 1 0.009647 -0.002909 -0.003111 -0.000108 0.002486 -0.001774
# 2 -0.002909 0.010173 -0.002398 0.007043 -0.002860 -0.001382
# 3 -0.003111 -0.002398 0.013508 0.000463 0.000285 0.002401
# 4 -0.000108 0.007043 0.000463 0.087764 -0.027250 -0.006721
# 5 0.002486 -0.002860 0.000285 -0.027250 0.046593 0.002346
# 6 -0.001774 -0.001382 0.002401 -0.006721 0.002346 0.028565
#
#
# Mechanical properties :
#
#
# Convention : Reuss Voigt Hill
#
# Bulk Modulus (GPa) = 60.63757 66.82150 63.72954
# Shear Modulus (GPa) = 22.87458 30.96045 26.91752
#
# Velocity S-wave (km/s) = 3.38634 3.93964 3.67342
# Velocity P-wave (km/s) = 6.75929 7.36157 7.06685
#
# Compressibility (1/GPa) = 0.01649143
#
# Stress axis : x y z
#
# Youngs Moduli (GPa) = 103.66375 98.29553 74.03134
#
# Poissons Ratio (x) = 0.28590 0.23033
# Poissons Ratio (y) = 0.30152 0.17755
# Poissons Ratio (z) = 0.32252 0.23575
#
# Static dielectric constant tensor:
#      x y z
#    x 3.184750 -0.014770 0.170580 
#    y -0.014770 4.343010 -0.264140 
#    z 0.170580 -0.264140 3.578010 
# 
# 
# High freq. dielectric constant tensor:
#      x y z
#    x 1.791250 -0.001000 -0.001110 
#    y -0.001000 1.791540 -0.011490 
#    z -0.001110 -0.011490 1.774840 
# 
# From -- ./inp_files/288902.got.cif
#   From: 2010.06.25/outbox.cif.g09.slc.cpg/sg2_145_cif.got.tgz:288902.got - 2010.06.27 13:26:56.
