data_PCOD8030837
_publ_section_title
;
Structure prediction by ZEFSAII (Michael W. Deem and Ramdas Pophale) SiO2 
 PCOD8030837
Probable space group: P -1
;
_chemical_formula_sum "Si O2"
_cell_formula_units_Z 16
_cell_length_a 9.481037
_cell_length_b 20.263601
_cell_length_c 12.742161
_cell_angle_alpha 140.887352
_cell_angle_beta 35.706480
_cell_angle_gamma 116.561694
_cell_volume 782.259287
_symmetry_space_group_name_H-M "P -1"
_symmetry_group_IT_number 2
_symmetry_cell_setting 'triclinic'
loop_
_space_group_symop_operation_xyz
x,y,z
-x,-y,-z
loop_
_atom_site_type_symbol
_atom_site_label
_atom_site_fract_x
_atom_site_fract_y
_atom_site_fract_z
Si Si1 0.552247 0.435715 0.071520
Si Si2 0.106217 0.694536 0.112078
Si Si3 0.552174 0.879459 0.767140
Si Si4 0.123639 0.690242 0.698099
Si Si5 0.416106 0.703279 0.742390
Si Si6 0.348531 0.303866 0.890060
Si Si7 0.996157 0.513410 0.845141
Si Si8 0.760100 0.124696 0.254183
O O1 0.260162 0.561016 0.397597
O O2 0.612643 0.373728 0.072950
O O3 0.548453 0.344184 0.875553
O O4 0.809589 0.455818 0.917127
O O5 0.877509 0.807152 0.453980
O O6 0.173142 0.741369 0.021882
O O7 0.970958 0.609298 0.066793
O O8 0.473503 0.812109 0.820512
O O9 0.370706 0.904520 0.802959
O O10 0.500000 0.000000 0.000000
O O11 0.325324 0.668662 0.647100
O O12 0.113344 0.790324 0.749132
O O13 0.805998 0.735346 0.978928
O O14 0.684848 0.587747 0.483768
O O15 0.525448 0.192687 0.568377
O O16 0.103775 0.418330 0.120227
O O17 0.000000 0.000000 0.000000
#
# Coordination Sequence:
#
# PCOD8030837 Si02
#       8
#     2   2   2   2   2   2   2   2
#     4  12  24  38  66 104 134 164 206 259 323 388
#     4  12  22  42  67  98 129 167 211 260 323 380
#     4  11  25  45  66  93 125 165 222 270 308 372
#     4  11  22  43  67  96 130 169 210 258 319 383
#     4  11  22  40  71  97 127 167 208 263 321 382
#     4  12  25  43  63  97 137 167 207 262 319 385
#     4  12  20  40  69  96 132 167 203 255 326 384
#     4  11  26  45  67  89 124 176 218 260 319 370
#
# _framework density 20.453578
#
# number of rings (size 3 to 8) (size 9 to 14) (size 15 to 20)
#    0.000    0.500    6.250    3.000    1.750    1.000 
#    2.250    0.000    0.000    0.000    0.000    0.000 
#    0.000    0.000    0.000    0.000    0.000    0.000 
#
# Total GULP energy -198481.973597 kJ/mol
# GULP energy per Si atom -12405.123350 kJ/mol
# Density = 2.040702 g / cm^3
# Si number density = 20.453578 Si / 1000 Ang^3
#
#
#
# Elastic Constant Matrix: (Units=GPa)
#
#
# Indices 1 2 3 4 5 6 
#
# 1 91.0086 29.4466 38.3736 14.1540 3.5485 3.0806
# 2 29.4466 90.8804 70.1482 -5.5931 -4.3234 -1.4640
# 3 38.3736 70.1482 112.4789 -3.0604 -0.1936 13.7984
# 4 14.1540 -5.5931 -3.0604 33.8892 0.3208 -5.4582
# 5 3.5485 -4.3234 -0.1936 0.3208 31.8368 10.7056
# 6 3.0806 -1.4640 13.7984 -5.4582 10.7056 28.4489
#
#
#
# Elastic Compliance Matrix: (Units=1/GPa)
#
#
# Indices 1 2 3 4 5 6 
#
# 1 0.014410 -0.002520 -0.003447 -0.006843 -0.001663 -0.000705
# 2 -0.002520 0.024033 -0.015195 0.005232 0.000087 0.009851
# 3 -0.003447 -0.015195 0.020950 -0.001079 0.002385 -0.011674
# 4 -0.006843 0.005232 -0.001079 0.034578 -0.001864 0.008869
# 5 -0.001663 0.000087 0.002385 -0.001864 0.036736 -0.015154
# 6 -0.000705 0.009851 -0.011674 0.008869 -0.015154 0.048801
#
#
# Mechanical properties :
#
#
# Convention : Reuss Voigt Hill
#
# Bulk Modulus (GPa) = 58.58446 63.36718 60.97582
# Shear Modulus (GPa) = 21.97601 29.26160 25.61881
#
# Velocity S-wave (km/s) = 3.28141 3.78648 3.54296
# Velocity P-wave (km/s) = 6.56214 7.08271 6.82739
#
# Compressibility (1/GPa) = 0.01706937
#
# Stress axis : x y z
#
# Youngs Moduli (GPa) = 69.39732 41.60920 47.73349
#
# Poissons Ratio (x) = 0.10485 0.16454
# Poissons Ratio (y) = 0.17488 0.72529
# Poissons Ratio (z) = 0.23922 0.63224
#
# Static dielectric constant tensor:
#      x y z
#    x 3.749180 -0.059920 -0.030080 
#    y -0.059920 3.831470 -0.068970 
#    z -0.030080 -0.068970 3.548070 
# 
# 
# High freq. dielectric constant tensor:
#      x y z
#    x 1.801880 -0.002800 0.000070 
#    y -0.002800 1.802410 -0.011930 
#    z 0.000070 -0.011930 1.791460 
# 
# From -- ./inp_files/257825.got.cif
#   From: 2010.06.25/outbox.cif.g09.slc.cpg/sg2_129_cif.got.tgz:257825.got - 2010.06.27 13:26:56.
