data_PCOD8030303
_publ_section_title
;
Structure prediction by ZEFSAII (Michael W. Deem and Ramdas Pophale) SiO2 
 PCOD8030303
Probable space group: P -1
;
_chemical_formula_sum "Si O2"
_cell_formula_units_Z 16
_cell_length_a 9.365553
_cell_length_b 19.269644
_cell_length_c 15.894228
_cell_angle_alpha 151.965580
_cell_angle_beta 36.939174
_cell_angle_gamma 144.316660
_cell_volume 750.102977
_symmetry_space_group_name_H-M "P -1"
_symmetry_group_IT_number 2
_symmetry_cell_setting 'triclinic'
loop_
_space_group_symop_operation_xyz
x,y,z
-x,-y,-z
loop_
_atom_site_type_symbol
_atom_site_label
_atom_site_fract_x
_atom_site_fract_y
_atom_site_fract_z
Si Si1 0.181328 0.923782 0.731032
Si Si2 0.246344 0.979720 0.457232
Si Si3 0.442782 0.467910 0.281892
Si Si4 0.028256 0.806636 0.856281
Si Si5 0.651695 0.318590 0.313345
Si Si6 0.155164 0.266668 0.736650
Si Si7 0.150759 0.569920 0.844541
Si Si8 0.064797 0.222301 0.471296
O O1 0.169264 0.836154 0.731524
O O2 0.037845 0.787082 0.584951
O O3 0.472792 0.024317 0.676279
O O4 0.031070 0.041544 0.927991
O O5 0.087590 0.853428 0.327297
O O6 0.115200 0.932836 0.559443
O O7 0.275509 0.160613 0.618879
O O8 0.230971 0.351497 0.194660
O O9 0.302739 0.526838 0.484910
O O10 0.629707 0.620339 0.305885
O O11 0.599803 0.370458 0.147760
O O12 0.222924 0.792480 0.819449
O O13 0.781892 0.368363 0.215214
O O14 0.350100 0.222699 0.339406
O O15 0.066106 0.373808 0.956740
O O16 0.046857 0.378258 0.689895
#
# Coordination Sequence:
#
# PCOD8030303 Si02
#       8
#     2   2   2   2   2   2   2   2
#     4  11  25  44  65  98 136 176 218 273 338 393
#     4  11  24  44  68  96 137 176 217 275 335 392
#     4  11  21  44  68  94 135 178 222 269 331 393
#     4  11  25  41  69  98 131 177 224 273 327 396
#     4  11  23  42  67  99 133 171 224 273 328 388
#     4  11  24  41  71 102 130 175 227 271 326 395
#     4  11  23  40  69 102 130 173 224 274 325 395
#     4  11  24  44  68  94 138 177 216 270 341 389
#
# _framework density 21.330404000000001
#
# number of rings (size 3 to 8) (size 9 to 14) (size 15 to 20)
#    0.000    1.000    2.500    5.625    5.250    2.500 
#    0.000    1.250    0.000    0.000    0.000    0.000 
#    0.000    0.000    0.000    0.000    0.000    0.000 
#
# Total GULP energy -198480.765394 kJ/mol
# GULP energy per Si atom -12405.047837 kJ/mol
# Density = 2.128186 g / cm^3
# Si number density = 21.330404 Si / 1000 Ang^3
#
#
#
# Elastic Constant Matrix: (Units=GPa)
#
#
# Indices 1 2 3 4 5 6 
#
# 1 103.2702 54.6299 30.2216 -3.0879 -6.7191 -12.8920
# 2 54.6299 96.0384 27.6382 -0.3896 -1.9508 -10.1651
# 3 30.2216 27.6382 79.0625 -7.1699 -2.2422 -6.6000
# 4 -3.0879 -0.3896 -7.1699 26.1026 -2.7039 2.1798
# 5 -6.7191 -1.9508 -2.2422 -2.7039 26.1244 5.2798
# 6 -12.8920 -10.1651 -6.6000 2.1798 5.2798 43.7426
#
#
#
# Elastic Compliance Matrix: (Units=1/GPa)
#
#
# Indices 1 2 3 4 5 6 
#
# 1 0.014844 -0.007392 -0.002765 0.001017 0.002759 0.001856
# 2 -0.007392 0.015484 -0.002669 -0.001627 -0.001398 0.001267
# 3 -0.002765 -0.002669 0.015048 0.003787 0.000658 0.000567
# 4 0.001017 -0.001627 0.003787 0.040146 0.005048 -0.002117
# 5 0.002759 -0.001398 0.000658 0.005048 0.040380 -0.004538
# 6 0.001856 0.001267 0.000567 -0.002117 -0.004538 0.024441
#
#
# Mechanical properties :
#
#
# Convention : Reuss Voigt Hill
#
# Bulk Modulus (GPa) = 50.69623 55.92784 53.31204
# Shear Modulus (GPa) = 27.38688 30.25269 28.81978
#
# Velocity S-wave (km/s) = 3.58709 3.77010 3.67974
# Velocity P-wave (km/s) = 6.40117 6.72520 6.56519
#
# Compressibility (1/GPa) = 0.01972533
#
# Stress axis : x y z
#
# Youngs Moduli (GPa) = 67.36619 64.58182 66.45610
#
# Poissons Ratio (x) = 0.47736 0.18374
# Poissons Ratio (y) = 0.49794 0.17736
# Poissons Ratio (z) = 0.18626 0.17236
#
# Static dielectric constant tensor:
#      x y z
#    x 3.914620 -0.083090 -0.014820 
#    y -0.083090 3.808640 -0.030970 
#    z -0.014820 -0.030970 3.792940 
# 
# 
# High freq. dielectric constant tensor:
#      x y z
#    x 1.841850 -0.006430 -0.001400 
#    y -0.006430 1.841510 -0.005430 
#    z -0.001400 -0.005430 1.834520 
# 
# From -- ./inp_files/207724.got.cif
#   From: 2010.06.25/outbox.cif.g09.slc.cpg/sg2_104_cif.got.tgz:207724.got - 2010.06.27 13:26:56.
