data_PCOD8030324
_publ_section_title
;
Structure prediction by ZEFSAII (Michael W. Deem and Ramdas Pophale) SiO2 
 PCOD8030324
Probable space group: P -1
;
_chemical_formula_sum "Si O2"
_cell_formula_units_Z 14
_cell_length_a 6.402685
_cell_length_b 14.276512
_cell_length_c 8.956810
_cell_angle_alpha 129.576091
_cell_angle_beta 86.613898
_cell_angle_gamma 84.668587
_cell_volume 620.820555
_symmetry_space_group_name_H-M "P -1"
_symmetry_group_IT_number 2
_symmetry_cell_setting 'triclinic'
loop_
_space_group_symop_operation_xyz
x,y,z
-x,-y,-z
loop_
_atom_site_type_symbol
_atom_site_label
_atom_site_fract_x
_atom_site_fract_y
_atom_site_fract_z
Si Si1 0.830547 0.528687 0.821061
Si Si2 0.268521 0.295392 0.240403
Si Si3 0.384279 0.924771 0.045905
Si Si4 0.530662 0.374529 0.552467
Si Si5 0.089403 0.831890 0.748538
Si Si6 0.187887 0.330973 0.729376
Si Si7 0.096766 0.068195 0.431459
O O1 0.886397 0.627088 0.796541
O O2 0.604912 0.496397 0.739961
O O3 0.013651 0.408848 0.703741
O O4 0.797402 0.594053 0.045970
O O5 0.362377 0.394239 0.442517
O O6 0.137086 0.209835 0.254601
O O7 0.463003 0.204935 0.059892
O O8 0.317771 0.991871 0.275670
O O9 0.160419 0.910624 0.962287
O O10 0.500000 0.000000 0.000000
O O11 0.735250 0.287010 0.396619
O O12 0.418852 0.311169 0.625518
O O13 0.072005 0.908381 0.672773
O O14 0.131268 0.198079 0.631160
O O15 0.000000 0.000000 0.500000
#
# Coordination Sequence:
#
# PCOD8030324 Si02
#       7
#     2   2   2   2   2   2   2
#     4  11  25  43  72  97 140 183 224 289 340 422
#     4  11  24  42  71 104 133 177 235 278 351 408
#     4  11  24  44  71 100 139 184 231 288 342 407
#     4  11  21  44  70 101 136 176 227 289 344 405
#     4  11  23  44  70  98 142 175 227 294 341 404
#     4  11  25  47  65 100 143 179 229 278 356 410
#     4  12  25  45  71  99 137 185 231 282 344 411
#
# _framework density 22.550799999999999
#
# number of rings (size 3 to 8) (size 9 to 14) (size 15 to 20)
#    0.000    0.857    4.286    2.143    2.000    5.714 
#    2.571    2.143    0.000    0.000    0.000    0.000 
#    0.000    0.000    0.000    0.000    0.000    0.000 
#
# Total GULP energy -173559.636118 kJ/mol
# GULP energy per Si atom -12397.116866 kJ/mol
# Density = 2.249947 g / cm^3
# Si number density = 22.550800 Si / 1000 Ang^3
#
#
#
# Elastic Constant Matrix: (Units=GPa)
#
#
# Indices 1 2 3 4 5 6 
#
# 1 95.9160 34.0642 44.3732 -3.3154 1.7197 5.0109
# 2 34.0642 129.1201 35.1657 -10.9720 0.0481 1.9526
# 3 44.3732 35.1657 112.0967 6.0747 0.4529 2.9148
# 4 -3.3154 -10.9720 6.0747 33.8435 4.8551 1.1248
# 5 1.7197 0.0481 0.4529 4.8551 36.7645 -6.0290
# 6 5.0109 1.9526 2.9148 1.1248 -6.0290 26.4148
#
#
#
# Elastic Compliance Matrix: (Units=1/GPa)
#
#
# Indices 1 2 3 4 5 6 
#
# 1 0.013564 -0.002105 -0.004740 0.001739 -0.001170 -0.002236
# 2 -0.002105 0.009181 -0.002214 0.003227 -0.000354 -0.000253
# 3 -0.004740 -0.002214 0.011670 -0.003354 0.000530 0.000039
# 4 0.001739 0.003227 -0.003354 0.032132 -0.004721 -0.002644
# 5 -0.001170 -0.000354 0.000530 -0.004721 0.029023 0.007015
# 6 -0.002236 -0.000253 0.000039 -0.002644 0.007015 0.040010
#
#
# Mechanical properties :
#
#
# Convention : Reuss Voigt Hill
#
# Bulk Modulus (GPa) = 61.36054 62.70434 62.03244
# Shear Modulus (GPa) = 31.42060 34.30652 32.86356
#
# Velocity S-wave (km/s) = 3.73678 3.90462 3.82162
# Velocity P-wave (km/s) = 6.77399 6.94220 6.85861
#
# Compressibility (1/GPa) = 0.01629712
#
# Stress axis : x y z
#
# Youngs Moduli (GPa) = 73.72234 108.91784 85.68712
#
# Poissons Ratio (x) = 0.22932 0.40618
# Poissons Ratio (y) = 0.15522 0.18968
# Poissons Ratio (z) = 0.34947 0.24110
#
# Static dielectric constant tensor:
#      x y z
#    x 4.249500 -0.060190 0.179910 
#    y -0.060190 3.863070 0.152300 
#    z 0.179910 0.152300 4.348810 
# 
# 
# High freq. dielectric constant tensor:
#      x y z
#    x 1.887890 -0.001410 -0.000340 
#    y -0.001410 1.877020 0.008840 
#    z -0.000340 0.008840 1.907210 
# 
# From -- ./inp_files/27865.got.cif
#   From: 2010.06.25/outbox.cif.g09.slc.cpg/sg2_14_cif.got.tgz:27865.got - 2010.06.27 13:26:56.
