data_PCOD8030182
_publ_section_title
;
Structure prediction by ZEFSAII (Michael W. Deem and Ramdas Pophale) SiO2 
 PCOD8030182
Probable space group: P -1
;
_chemical_formula_sum "Si O2"
_cell_formula_units_Z 16
_cell_length_a 13.632103
_cell_length_b 9.714463
_cell_length_c 10.809450
_cell_angle_alpha 82.924653
_cell_angle_beta 30.795886
_cell_angle_gamma 93.672855
_cell_volume 685.458192
_symmetry_space_group_name_H-M "P -1"
_symmetry_group_IT_number 2
_symmetry_cell_setting 'triclinic'
loop_
_space_group_symop_operation_xyz
x,y,z
-x,-y,-z
loop_
_atom_site_type_symbol
_atom_site_label
_atom_site_fract_x
_atom_site_fract_y
_atom_site_fract_z
Si Si1 0.408815 0.806889 0.817159
Si Si2 0.886452 0.834710 0.500351
Si Si3 0.196606 0.659906 0.540697
Si Si4 0.995739 0.673224 0.172131
Si Si5 0.551401 0.349711 0.971179
Si Si6 0.199899 0.140903 0.769255
Si Si7 0.414203 0.130851 0.794233
Si Si8 0.049936 0.157624 0.299837
O O1 0.641694 0.848083 0.515588
O O2 0.383381 0.959710 0.873971
O O3 0.242902 0.737976 0.895197
O O4 0.355738 0.678883 0.994280
O O5 0.015826 0.842141 0.485527
O O6 0.930348 0.724163 0.368596
O O7 0.654724 0.786254 0.799735
O O8 0.943169 0.999260 0.366618
O O9 0.295322 0.655075 0.301596
O O10 0.353797 0.764162 0.456584
O O11 0.094024 0.500442 0.726430
O O12 0.012902 0.722332 0.719376
O O13 0.892330 0.727861 0.163308
O O14 0.500000 0.500000 0.000000
O O15 0.329129 0.151153 0.750561
O O16 0.000000 0.000000 0.000000
O O17 0.291589 0.192051 0.020936
#
# Coordination Sequence:
#
# PCOD8030182 Si02
#       8
#     2   2   2   2   2   2   2   2
#     4  12  26  45  79 105 136 193 249 284 356 434
#     4  11  21  43  67 100 145 189 232 291 348 422
#     4  12  28  43  71 110 150 189 226 295 371 423
#     4  12  26  47  73 109 141 192 244 290 352 431
#     4  12  24  42  72 105 151 186 233 287 356 428
#     4  12  26  49  79 103 138 184 251 306 343 416
#     4  12  27  45  72 105 142 189 241 298 355 420
#     4  11  25  42  69 103 149 184 238 297 356 416
#
# _framework density 23.342051000000001
#
# number of rings (size 3 to 8) (size 9 to 14) (size 15 to 20)
#    0.000    0.250    6.250    1.875    5.250    3.500 
#    0.000    1.250    0.000    0.000    0.000    0.000 
#    0.000    0.000    0.000    0.000    0.000    0.000 
#
# Total GULP energy -198357.247818 kJ/mol
# GULP energy per Si atom -12397.327989 kJ/mol
# Density = 2.328892 g / cm^3
# Si number density = 23.342051 Si / 1000 Ang^3
#
#
#
# Elastic Constant Matrix: (Units=GPa)
#
#
# Indices 1 2 3 4 5 6 
#
# 1 102.8123 41.6020 -1.0429 -4.5921 -0.0250 -26.6971
# 2 41.6020 132.9379 10.5416 -21.0577 -5.7108 -38.9154
# 3 -1.0429 10.5416 73.6271 -8.9351 -12.4846 -14.9751
# 4 -4.5921 -21.0577 -8.9351 31.7415 0.1578 -3.4430
# 5 -0.0250 -5.7108 -12.4846 0.1578 36.5822 1.6382
# 6 -26.6971 -38.9154 -14.9751 -3.4430 1.6382 43.0950
#
#
#
# Elastic Compliance Matrix: (Units=1/GPa)
#
#
# Indices 1 2 3 4 5 6 
#
# 1 0.012334 -0.001623 0.002123 0.002072 0.000154 0.007073
# 2 -0.001623 0.013298 0.002294 0.010584 0.002250 0.012560
# 3 0.002123 0.002294 0.017176 0.007693 0.005751 0.009751
# 4 0.002072 0.010584 0.007693 0.042798 0.003342 0.016807
# 5 0.000154 0.002250 0.005751 0.003342 0.029489 0.003271
# 6 0.007073 0.012560 0.009751 0.016807 0.003271 0.043535
#
#
# Mechanical properties :
#
#
# Convention : Reuss Voigt Hill
#
# Bulk Modulus (GPa) = 20.66318 45.73098 33.19708
# Shear Modulus (GPa) = 29.55541 39.50219 34.52880
#
# Velocity S-wave (km/s) = 3.56221 4.11824 3.85028
# Velocity P-wave (km/s) = 5.07846 6.49980 5.83259
#
# Compressibility (1/GPa) = 0.04839526
#
# Stress axis : x y z
#
# Youngs Moduli (GPa) = 81.07790 75.19699 58.22208
#
# Poissons Ratio (x) = 0.12204 -0.12361
# Poissons Ratio (y) = 0.13159 -0.13354
# Poissons Ratio (z) = -0.17214 -0.17247
#
# Static dielectric constant tensor:
#      x y z
#    x 4.448180 -0.205160 -0.063910 
#    y -0.205160 4.153010 0.013190 
#    z -0.063910 0.013190 4.452390 
# 
# 
# High freq. dielectric constant tensor:
#      x y z
#    x 1.931890 -0.014330 -0.009650 
#    y -0.014330 1.916600 -0.001810 
#    z -0.009650 -0.001810 1.929390 
# 
# From -- ./inp_files/447321.got.cif
#   From: 2010.06.25/outbox.cif.g09.slc.cpg/sg2_224_cif.got.tgz:447321.got - 2010.06.27 13:26:56.
