data_PCOD8030896
_publ_section_title
;
Structure prediction by ZEFSAII (Michael W. Deem and Ramdas Pophale) SiO2 
 PCOD8030896
Probable space group: P -1
;
_chemical_formula_sum "Si O2"
_cell_formula_units_Z 14
_cell_length_a 16.928088
_cell_length_b 11.317847
_cell_length_c 18.171737
_cell_angle_alpha 44.905840
_cell_angle_beta 147.949544
_cell_angle_gamma 157.144089
_cell_volume 671.400953
_symmetry_space_group_name_H-M "P -1"
_symmetry_group_IT_number 2
_symmetry_cell_setting 'triclinic'
loop_
_space_group_symop_operation_xyz
x,y,z
-x,-y,-z
loop_
_atom_site_type_symbol
_atom_site_label
_atom_site_fract_x
_atom_site_fract_y
_atom_site_fract_z
Si Si1 0.722585 0.617356 0.948317
Si Si2 0.845394 0.405465 0.783547
Si Si3 0.236847 0.688344 0.661607
Si Si4 0.308287 0.372380 0.837032
Si Si5 0.247291 0.359339 0.320922
Si Si6 0.668476 0.359902 0.879516
Si Si7 0.843446 0.377245 0.207523
O O1 0.455194 0.465718 0.834792
O O2 0.656002 0.501319 0.863762
O O3 0.767621 0.498868 0.087032
O O4 0.000000 0.000000 0.000000
O O5 0.915646 0.669522 0.738909
O O6 0.887821 0.410318 0.727544
O O7 0.516056 0.067333 0.697271
O O8 0.033311 0.457117 0.958069
O O9 0.314400 0.573114 0.763636
O O10 0.100317 0.602415 0.671296
O O11 0.000000 0.500000 0.500000
O O12 0.500000 0.500000 0.000000
O O13 0.982528 0.985518 0.747639
O O14 0.500000 0.500000 0.500000
O O15 0.378657 0.605837 0.252673
O O16 0.420765 0.989598 0.867496
#
# Coordination Sequence:
#
# PCOD8030896 Si02
#       7
#     2   2   2   2   2   2   2
#     4  11  22  41  66 104 128 164 228 283 330 387
#     4  11  23  45  71  96 125 179 228 269 330 398
#     4  12  26  44  65  98 137 178 221 269 337 403
#     4  12  23  41  68  95 132 175 219 277 334 386
#     4  12  25  43  66 101 138 173 220 282 340 394
#     4  11  23  42  72  96 128 174 226 272 326 406
#     4  11  23  43  70  97 132 171 226 275 321 401
#
# _framework density 20.851921999999998
#
# number of rings (size 3 to 8) (size 9 to 14) (size 15 to 20)
#    0.000    0.571    2.857    8.143    0.000    0.571 
#    2.571    1.429    0.000    0.000    0.000    0.000 
#    0.000    0.000    0.000    0.000    0.000    0.000 
#
# Total GULP energy -173584.513144 kJ/mol
# GULP energy per Si atom -12398.893796 kJ/mol
# Density = 2.080446 g / cm^3
# Si number density = 20.851922 Si / 1000 Ang^3
#
#
#
# Elastic Constant Matrix: (Units=GPa)
#
#
# Indices 1 2 3 4 5 6 
#
# 1 149.3318 23.1491 47.3264 -2.0434 -13.4395 3.9826
# 2 23.1491 110.8880 23.4855 10.1956 -13.5365 -4.4111
# 3 47.3264 23.4855 128.9118 10.5510 -19.4072 9.3332
# 4 -2.0434 10.1956 10.5510 12.9150 -2.4185 -11.5198
# 5 -13.4395 -13.5365 -19.4072 -2.4185 28.6127 -2.6489
# 6 3.9826 -4.4111 9.3332 -11.5198 -2.6489 38.1722
#
#
#
# Elastic Compliance Matrix: (Units=1/GPa)
#
#
# Indices 1 2 3 4 5 6 
#
# 1 0.008128 -0.001377 -0.003198 0.007158 0.001793 0.002060
# 2 -0.001377 0.010504 -0.000112 -0.008662 0.003423 -0.000992
# 3 -0.003198 -0.000112 0.011268 -0.014694 0.004237 -0.006575
# 4 0.007158 -0.008662 -0.014694 0.137215 0.004932 0.043596
# 5 0.001793 0.003423 0.004237 0.004932 0.041026 0.003508
# 6 0.002060 -0.000992 -0.006575 0.043596 0.003508 0.040875
#
#
# Mechanical properties :
#
#
# Convention : Reuss Voigt Hill
#
# Bulk Modulus (GPa) = 48.71874 64.11706 56.41790
# Shear Modulus (GPa) = 18.85133 35.61802 27.23468
#
# Velocity S-wave (km/s) = 3.01002 4.13745 3.61792
# Velocity P-wave (km/s) = 5.95778 7.32394 6.67590
#
# Compressibility (1/GPa) = 0.02052598
#
# Stress axis : x y z
#
# Youngs Moduli (GPa) = 123.03336 95.20093 88.74393
#
# Poissons Ratio (x) = 0.13107 0.28382
# Poissons Ratio (y) = 0.16939 0.00995
# Poissons Ratio (z) = 0.39348 0.01068
#
# Static dielectric constant tensor:
#      x y z
#    x 2.352700 -0.899980 -1.366900 
#    y -0.899980 3.589870 -0.607460 
#    z -1.366900 -0.607460 2.508630 
# 
# 
# High freq. dielectric constant tensor:
#      x y z
#    x 1.840020 -0.012320 -0.005160 
#    y -0.012320 1.832390 -0.004290 
#    z -0.005160 -0.004290 1.791300 
# 
# From -- ./inp_files/160243.got.cif
#   From: 2010.06.25/outbox.cif.g09.slc.cpg/sg2_81_cif.got.tgz:160243.got - 2010.06.27 13:26:56.
