data_PCOD8030762
_publ_section_title
;
Structure prediction by ZEFSAII (Michael W. Deem and Ramdas Pophale) SiO2 
 PCOD8030762
Probable space group: P -1
;
_chemical_formula_sum "Si O2"
_cell_formula_units_Z 14
_cell_length_a 9.301695
_cell_length_b 18.603743
_cell_length_c 16.386594
_cell_angle_alpha 157.489611
_cell_angle_beta 127.990676
_cell_angle_gamma 40.103591
_cell_volume 649.901397
_symmetry_space_group_name_H-M "P -1"
_symmetry_group_IT_number 2
_symmetry_cell_setting 'triclinic'
loop_
_space_group_symop_operation_xyz
x,y,z
-x,-y,-z
loop_
_atom_site_type_symbol
_atom_site_label
_atom_site_fract_x
_atom_site_fract_y
_atom_site_fract_z
Si Si1 0.139919 0.690119 0.529690
Si Si2 0.504734 0.566525 0.394831
Si Si3 0.919887 0.211036 0.057930
Si Si4 0.306491 0.251206 0.243734
Si Si5 0.238695 0.625743 0.006979
Si Si6 0.217807 0.226457 0.633562
Si Si7 0.039883 0.889999 0.485686
O O1 0.376043 0.548965 0.407096
O O2 0.201029 0.490920 0.405849
O O3 0.897641 0.802729 0.514400
O O4 0.087014 0.918357 0.797594
O O5 0.732070 0.299830 0.159037
O O6 0.574241 0.734129 0.619260
O O7 0.323698 0.688689 0.383670
O O8 0.779916 0.370763 0.093997
O O9 0.086843 0.266256 0.207211
O O10 0.500000 0.000000 0.000000
O O11 0.160381 0.484077 0.873894
O O12 0.500000 0.500000 0.000000
O O13 0.054710 0.908851 0.265995
O O14 0.500000 0.000000 0.500000
O O15 0.091280 0.224986 0.669207
O O16 0.000000 0.000000 0.500000
#
# Coordination Sequence:
#
# PCOD8030762 Si02
#       7
#     2   2   2   2   2   2   2
#     4  11  24  46  68 100 139 177 227 284 341 404
#     4  11  25  44  66 104 135 177 233 277 340 407
#     4  12  24  45  69  98 138 183 225 281 341 405
#     4  12  24  46  73  97 140 182 226 287 341 401
#     4  12  21  41  70  94 137 182 221 283 344 400
#     4  11  22  40  67 100 130 179 230 269 345 410
#     4  11  24  43  66  99 139 172 230 286 336 409
#
# _framework density 21.541727999999999
#
# number of rings (size 3 to 8) (size 9 to 14) (size 15 to 20)
#    0.000    0.571    7.143    1.714    0.000    1.143 
#    2.571    1.429    0.000    0.000    0.000    0.000 
#    0.000    0.000    0.000    0.000    0.000    0.000 
#
# Total GULP energy -173587.513197 kJ/mol
# GULP energy per Si atom -12399.108086 kJ/mol
# Density = 2.149270 g / cm^3
# Si number density = 21.541728 Si / 1000 Ang^3
#
#
#
# Elastic Constant Matrix: (Units=GPa)
#
#
# Indices 1 2 3 4 5 6 
#
# 1 134.8806 50.9158 67.3988 4.6970 6.4180 -13.1348
# 2 50.9158 86.5990 16.1056 0.8530 4.7868 -25.0173
# 3 67.3988 16.1056 90.3309 9.1745 8.5352 -2.8926
# 4 4.6970 0.8530 9.1745 34.9940 -2.6503 5.4975
# 5 6.4180 4.7868 8.5352 -2.6503 46.3728 3.0856
# 6 -13.1348 -25.0173 -2.8926 5.4975 3.0856 35.3196
#
#
#
# Elastic Compliance Matrix: (Units=1/GPa)
#
#
# Indices 1 2 3 4 5 6 
#
# 1 0.015074 -0.007164 -0.010138 0.000933 0.000606 -0.000497
# 2 -0.007164 0.018657 0.002824 -0.002190 -0.002333 0.011327
# 3 -0.010138 0.002824 0.018797 -0.003930 -0.002613 0.000610
# 4 0.000933 -0.002190 -0.003930 0.030798 0.003018 -0.006583
# 5 0.000606 -0.002333 -0.002613 0.003018 0.022647 -0.004090
# 6 -0.000497 0.011327 0.000610 -0.006583 -0.004090 0.037583
#
#
# Mechanical properties :
#
#
# Convention : Reuss Voigt Hill
#
# Bulk Modulus (GPa) = 42.42188 64.51676 53.46932
# Shear Modulus (GPa) = 27.72104 35.16332 31.44218
#
# Velocity S-wave (km/s) = 3.59117 4.04460 3.82461
# Velocity P-wave (km/s) = 6.07708 7.19906 6.66173
#
# Compressibility (1/GPa) = 0.02357274
#
# Stress axis : x y z
#
# Youngs Moduli (GPa) = 66.33733 53.59993 53.20031
#
# Poissons Ratio (x) = 0.38397 0.53936
# Poissons Ratio (y) = 0.47522 -0.15025
# Poissons Ratio (z) = 0.67254 -0.15137
#
# Static dielectric constant tensor:
#      x y z
#    x 4.370180 -0.220030 0.133800 
#    y -0.220030 4.224270 -0.079430 
#    z 0.133800 -0.079430 4.077690 
# 
# 
# High freq. dielectric constant tensor:
#      x y z
#    x 1.846590 -0.011460 0.010910 
#    y -0.011460 1.865380 0.002220 
#    z 0.010910 0.002220 1.839280 
# 
# From -- ./inp_files/426222.got.cif
#   From: 2010.06.25/outbox.cif.g09.slc.cpg/sg2_214_cif.got.tgz:426222.got - 2010.06.27 13:26:56.
