data_PCOD8030773
_publ_section_title
;
Structure prediction by ZEFSAII (Michael W. Deem and Ramdas Pophale) SiO2 
 PCOD8030773
Probable space group: P -1
;
_chemical_formula_sum "Si O2"
_cell_formula_units_Z 16
_cell_length_a 8.786455
_cell_length_b 16.156234
_cell_length_c 10.506216
_cell_angle_alpha 64.964706
_cell_angle_beta 42.507746
_cell_angle_gamma 89.886274
_cell_volume 787.369763
_symmetry_space_group_name_H-M "P -1"
_symmetry_group_IT_number 2
_symmetry_cell_setting 'triclinic'
loop_
_space_group_symop_operation_xyz
x,y,z
-x,-y,-z
loop_
_atom_site_type_symbol
_atom_site_label
_atom_site_fract_x
_atom_site_fract_y
_atom_site_fract_z
Si Si1 0.460665 0.240794 0.301831
Si Si2 0.910204 0.091312 0.261295
Si Si3 0.014435 0.573414 0.059296
Si Si4 0.723244 0.669704 0.056783
Si Si5 0.729479 0.618601 0.804933
Si Si6 0.114815 0.561643 0.519718
Si Si7 0.400011 0.914889 0.792282
Si Si8 0.017911 0.945235 0.151631
O O1 0.698626 0.323869 0.187246
O O2 0.334441 0.295651 0.264121
O O3 0.548371 0.183240 0.180529
O O4 0.257350 0.160115 0.582484
O O5 0.783988 0.101148 0.203084
O O6 0.673970 0.025559 0.548511
O O7 0.067668 0.028329 0.180746
O O8 0.109764 0.204181 0.121667
O O9 0.000000 0.500000 0.000000
O O10 0.804002 0.611897 0.150626
O O11 0.971229 0.519771 0.257742
O O12 0.423535 0.634933 0.278716
O O13 0.781787 0.633221 0.912080
O O14 0.993652 0.637240 0.563764
O O15 0.500000 0.500000 0.000000
O O16 0.000000 0.500000 0.500000
O O17 0.247318 0.916354 0.013403
O O18 0.000000 0.000000 0.000000
#
# Coordination Sequence:
#
# PCOD8030773 Si02
#       8
#     2   2   2   2   2   2   2   2
#     4  11  22  40  67  94 129 179 221 262 345 400
#     4   9  19  36  62  96 127 157 214 276 336 386
#     4  12  24  42  66 101 137 173 224 290 333 383
#     4  12  24  42  69  99 131 175 228 283 330 391
#     4  12  24  47  64  91 138 186 223 269 333 405
#     4  12  26  45  66  91 137 186 225 269 330 406
#     4   9  18  38  62  93 129 165 206 273 339 397
#     4   9  20  36  62  96 129 164 214 271 329 409
#
# _framework density 20.320820999999999
#
# number of rings (size 3 to 8) (size 9 to 14) (size 15 to 20)
#    0.000    1.250    5.000    1.125    0.000    5.000 
#    0.000    2.500    0.000    4.500    0.000    0.000 
#    0.000    0.000    0.000    0.000    0.000    0.000 
#
# Total GULP energy -198373.844155 kJ/mol
# GULP energy per Si atom -12398.365260 kJ/mol
# Density = 2.027457 g / cm^3
# Si number density = 20.320821 Si / 1000 Ang^3
#
#
#
# Elastic Constant Matrix: (Units=GPa)
#
#
# Indices 1 2 3 4 5 6 
#
# 1 91.9120 56.1563 47.0765 -0.7872 -6.5339 -5.5542
# 2 56.1563 169.1538 85.6153 10.9845 -17.1679 -6.8990
# 3 47.0765 85.6153 129.6789 5.6721 -19.3331 9.0538
# 4 -0.7872 10.9845 5.6721 47.2186 -1.9049 -8.3186
# 5 -6.5339 -17.1679 -19.3331 -1.9049 33.7242 2.0251
# 6 -5.5542 -6.8990 9.0538 -8.3186 2.0251 41.4180
#
#
#
# Elastic Compliance Matrix: (Units=1/GPa)
#
#
# Indices 1 2 3 4 5 6 
#
# 1 0.014814 -0.003146 -0.003706 0.001861 -0.000912 0.002691
# 2 -0.003146 0.009948 -0.005335 -0.001311 0.001197 0.002079
# 3 -0.003706 -0.005335 0.013654 -0.001124 0.004619 -0.004822
# 4 0.001861 -0.001311 -0.001124 0.022495 0.000032 0.004793
# 5 -0.000912 0.001197 0.004619 0.000032 0.032887 -0.002534
# 6 0.002691 0.002079 -0.004822 0.004793 -0.002534 0.026992
#
#
# Mechanical properties :
#
#
# Convention : Reuss Voigt Hill
#
# Bulk Modulus (GPa) = 71.21900 85.38230 78.30065
# Shear Modulus (GPa) = 33.36804 37.93194 35.64999
#
# Velocity S-wave (km/s) = 4.05663 4.32517 4.19305
# Velocity P-wave (km/s) = 7.55414 8.18847 7.87770
#
# Compressibility (1/GPa) = 0.01404120
#
# Stress axis : x y z
#
# Youngs Moduli (GPa) = 67.50358 100.52399 73.24126
#
# Poissons Ratio (x) = 0.31623 0.27145
# Poissons Ratio (y) = 0.21236 0.39074
# Poissons Ratio (z) = 0.25019 0.53630
#
# Static dielectric constant tensor:
#      x y z
#    x 3.603840 -0.265740 -0.135720 
#    y -0.265740 4.362000 0.333010 
#    z -0.135720 0.333010 4.007630 
# 
# 
# High freq. dielectric constant tensor:
#      x y z
#    x 1.773260 -0.010920 -0.007750 
#    y -0.010920 1.814640 0.004860 
#    z -0.007750 0.004860 1.797530 
# 
# From -- ./inp_files/308709.got.cif
#   From: 2010.06.25/outbox.cif.g09.slc.cpg/sg2_155_cif.got.tgz:308709.got - 2010.06.27 13:26:56.
