data_PCOD8030209
_publ_section_title
;
Structure prediction by ZEFSAII (Michael W. Deem and Ramdas Pophale) SiO2 
 PCOD8030209
Probable space group: P -1
;
_chemical_formula_sum "Si O2"
_cell_formula_units_Z 14
_cell_length_a 13.067873
_cell_length_b 11.893463
_cell_length_c 11.093768
_cell_angle_alpha 80.796409
_cell_angle_beta 134.927629
_cell_angle_gamma 133.928069
_cell_volume 670.253809
_symmetry_space_group_name_H-M "P -1"
_symmetry_group_IT_number 2
_symmetry_cell_setting 'triclinic'
loop_
_space_group_symop_operation_xyz
x,y,z
-x,-y,-z
loop_
_atom_site_type_symbol
_atom_site_label
_atom_site_fract_x
_atom_site_fract_y
_atom_site_fract_z
Si Si1 0.607598 0.840797 0.841902
Si Si2 0.697242 0.184309 0.535460
Si Si3 0.893480 0.750818 0.709062
Si Si4 0.732807 0.857518 0.674857
Si Si5 0.892643 0.736236 0.205335
Si Si6 0.648262 0.561888 0.277612
Si Si7 0.172681 0.548427 0.230403
O O1 0.462437 0.867140 0.699892
O O2 0.744096 0.891396 0.820609
O O3 0.414322 0.613591 0.759489
O O4 0.820079 0.005197 0.093467
O O5 0.855942 0.396635 0.682112
O O6 0.911835 0.237560 0.661381
O O7 0.500000 0.000000 0.500000
O O8 0.718207 0.711752 0.662670
O O9 0.771705 0.673825 0.488648
O O10 0.923425 0.642715 0.800493
O O11 0.480371 0.749486 0.420552
O O12 0.989547 0.071660 0.785842
O O13 0.857512 0.729557 0.320290
O O14 0.612909 0.534183 0.943339
O O15 0.000000 0.500000 0.000000
#
# Coordination Sequence:
#
# PCOD8030209 Si02
#       7
#     2   2   2   2   2   2   2
#     4  11  23  43  68 101 134 172 226 280 341 391
#     4  11  21  43  69  95 134 171 218 284 337 386
#     4  12  24  42  69  98 139 175 229 274 331 406
#     4  11  23  41  71  99 133 180 223 285 332 386
#     4  11  25  46  69  96 138 181 225 276 334 401
#     4  11  26  47  65 100 136 185 227 266 337 404
#     4  11  24  37  64 109 132 166 224 280 341 392
#
# _framework density 20.887609999999999
#
# number of rings (size 3 to 8) (size 9 to 14) (size 15 to 20)
#    0.000    0.857    7.143    1.714    2.000    1.143 
#    0.000    0.714    0.000    0.000    0.000    0.000 
#    0.000    0.000    0.000    0.000    0.000    0.000 
#
# Total GULP energy -173534.496603 kJ/mol
# GULP energy per Si atom -12395.321186 kJ/mol
# Density = 2.084007 g / cm^3
# Si number density = 20.887610 Si / 1000 Ang^3
#
#
#
# Elastic Constant Matrix: (Units=GPa)
#
#
# Indices 1 2 3 4 5 6 
#
# 1 111.8512 50.8347 56.9565 -3.1331 10.5254 -14.0069
# 2 50.8347 90.1983 20.8579 1.1533 -7.3197 0.0531
# 3 56.9565 20.8579 135.3716 -6.5846 -15.3578 -6.7627
# 4 -3.1331 1.1533 -6.5846 35.9510 -6.1612 3.4101
# 5 10.5254 -7.3197 -15.3578 -6.1612 33.0185 -0.8940
# 6 -14.0069 0.0531 -6.7627 3.4101 -0.8940 40.4788
#
#
#
# Elastic Compliance Matrix: (Units=1/GPa)
#
#
# Indices 1 2 3 4 5 6 
#
# 1 0.019156 -0.009970 -0.007737 -0.002008 -0.012148 0.005250
# 2 -0.009970 0.016797 0.002409 0.000697 0.008072 -0.002950
# 3 -0.007737 0.002409 0.011371 0.002920 0.008812 -0.000832
# 4 -0.002008 0.000697 0.002920 0.029701 0.007626 -0.002541
# 5 -0.012148 0.008072 0.008812 0.007626 0.041403 -0.002470
# 6 0.005250 -0.002950 -0.000832 -0.002541 -0.002470 0.026545
#
#
# Mechanical properties :
#
#
# Convention : Reuss Voigt Hill
#
# Bulk Modulus (GPa) = 59.78057 66.07991 62.93024
# Shear Modulus (GPa) = 27.60222 35.80780 31.70501
#
# Velocity S-wave (km/s) = 3.63914 4.14491 3.90023
# Velocity P-wave (km/s) = 6.80735 7.38997 7.10464
#
# Compressibility (1/GPa) = 0.01672784
#
# Stress axis : x y z
#
# Youngs Moduli (GPa) = 52.20336 59.53611 87.94028
#
# Poissons Ratio (x) = 0.59358 0.68040
# Poissons Ratio (y) = 0.52047 -0.21186
# Poissons Ratio (z) = 0.40390 -0.14343
#
# Static dielectric constant tensor:
#      x y z
#    x 4.017400 -0.450190 0.687240 
#    y -0.450190 4.084430 -0.307080 
#    z 0.687240 -0.307080 5.088650 
# 
# 
# High freq. dielectric constant tensor:
#      x y z
#    x 1.798060 -0.027260 0.011230 
#    y -0.027260 1.817090 -0.006380 
#    z 0.011230 -0.006380 1.837590 
# 
# From -- ./inp_files/451368.got.cif
#   From: 2010.06.25/outbox.cif.g09.slc.cpg/sg2_226_cif.got.tgz:451368.got - 2010.06.27 13:26:56.
