data_PCOD8030786
_publ_section_title
;
Structure prediction by ZEFSAII (Michael W. Deem and Ramdas Pophale) SiO2 
 PCOD8030786
Probable space group: P -1
;
_chemical_formula_sum "Si O2"
_cell_formula_units_Z 16
_cell_length_a 14.557850
_cell_length_b 6.417169
_cell_length_c 21.915704
_cell_angle_alpha 73.277102
_cell_angle_beta 159.483711
_cell_angle_gamma 105.517345
_cell_volume 687.190311
_symmetry_space_group_name_H-M "P -1"
_symmetry_group_IT_number 2
_symmetry_cell_setting 'triclinic'
loop_
_space_group_symop_operation_xyz
x,y,z
-x,-y,-z
loop_
_atom_site_type_symbol
_atom_site_label
_atom_site_fract_x
_atom_site_fract_y
_atom_site_fract_z
Si Si1 0.842426 0.820107 0.453735
Si Si2 0.038435 0.849934 0.887474
Si Si3 0.923149 0.509663 0.632154
Si Si4 0.163999 0.114345 0.374142
Si Si5 0.734082 0.834727 0.172364
Si Si6 0.453646 0.417066 0.806204
Si Si7 0.615765 0.868739 0.839540
Si Si8 0.431624 0.216045 0.319221
O O1 0.999022 0.701036 0.615375
O O2 0.761686 0.624440 0.375600
O O3 0.583805 0.932731 0.310824
O O4 0.000000 0.000000 0.500000
O O5 0.935791 0.941020 0.751165
O O6 0.805689 0.725486 0.787942
O O7 0.266902 0.679146 0.031212
O O8 0.133689 0.049478 0.972894
O O9 0.864823 0.627215 0.651013
O O10 0.660197 0.391646 0.455585
O O11 0.173933 0.344533 0.807004
O O12 0.459332 0.024930 0.574045
O O13 0.989243 0.984376 0.326722
O O14 0.658170 0.697827 0.194602
O O15 0.500000 0.000000 0.000000
O O16 0.482019 0.675229 0.811787
O O17 0.685317 0.780429 0.822578
#
# Coordination Sequence:
#
# PCOD8030786 Si02
#       8
#     2   2   2   2   2   2   2   2
#     4  11  22  40  68 102 140 175 224 283 343 407
#     4  11  26  45  68 100 140 186 230 284 340 406
#     4  11  24  41  73 102 135 179 225 283 346 408
#     4  11  24  47  68 101 138 181 233 277 347 411
#     4  11  24  45  68 100 143 177 221 284 345 418
#     4  11  24  42  67 102 137 180 230 277 350 411
#     4  11  24  44  69 101 140 177 233 285 341 403
#     4  11  24  45  73 100 135 180 239 289 334 400
#
# _framework density 23.283217
#
# number of rings (size 3 to 8) (size 9 to 14) (size 15 to 20)
#    0.000    1.000    3.750    2.250    1.750    6.500 
#    0.000    0.000    0.000    0.000    0.000    0.000 
#    0.000    0.000    0.000    0.000    0.000    0.000 
#
# Total GULP energy -198303.523099 kJ/mol
# GULP energy per Si atom -12393.970194 kJ/mol
# Density = 2.323022 g / cm^3
# Si number density = 23.283217 Si / 1000 Ang^3
#
#
#
# Elastic Constant Matrix: (Units=GPa)
#
#
# Indices 1 2 3 4 5 6 
#
# 1 113.3244 41.8889 41.8210 5.4421 0.4985 -6.5456
# 2 41.8889 104.2364 18.4647 8.5470 -5.9690 -6.3925
# 3 41.8210 18.4647 66.0794 12.6537 -4.1170 -6.7369
# 4 5.4421 8.5470 12.6537 26.3353 -0.5960 -2.3757
# 5 0.4985 -5.9690 -4.1170 -0.5960 40.4748 0.4694
# 6 -6.5456 -6.3925 -6.7369 -2.3757 0.4694 34.4785
#
#
#
# Elastic Compliance Matrix: (Units=1/GPa)
#
#
# Indices 1 2 3 4 5 6 
#
# 1 0.013094 -0.004164 -0.007619 0.002309 -0.001521 0.000405
# 2 -0.004164 0.011644 0.000155 -0.002847 0.001729 0.001179
# 3 -0.007619 0.000155 0.021957 -0.008774 0.002195 0.002238
# 4 0.002309 -0.002847 -0.008774 0.042722 -0.000725 0.001149
# 5 -0.001521 0.001729 0.002195 -0.000725 0.025192 0.000068
# 6 0.000405 0.001179 0.002238 0.001149 0.000068 0.029815
#
#
# Mechanical properties :
#
#
# Convention : Reuss Voigt Hill
#
# Bulk Modulus (GPa) = 42.66411 54.22103 48.44257
# Shear Modulus (GPa) = 28.49078 32.35542 30.42310
#
# Velocity S-wave (km/s) = 3.50188 3.73184 3.61869
# Velocity P-wave (km/s) = 5.89192 6.47356 6.18957
#
# Compressibility (1/GPa) = 0.02343890
#
# Stress axis : x y z
#
# Youngs Moduli (GPa) = 76.36823 85.87879 45.54272
#
# Poissons Ratio (x) = 0.35760 0.34701
# Poissons Ratio (y) = 0.31800 -0.00705
# Poissons Ratio (z) = 0.58188 -0.01329
#
# Static dielectric constant tensor:
#      x y z
#    x 3.956200 -0.215630 0.138300 
#    y -0.215630 4.447730 -0.055260 
#    z 0.138300 -0.055260 4.168190 
# 
# 
# High freq. dielectric constant tensor:
#      x y z
#    x 1.918500 -0.006210 0.004320 
#    y -0.006210 1.929470 -0.004710 
#    z 0.004320 -0.004710 1.910650 
# 
# From -- ./inp_files/124305.got.cif
#   From: 2010.06.25/outbox.cif.g09.slc.cpg/sg2_63_cif.got.tgz:124305.got - 2010.06.27 13:26:56.
