data_PCOD8030089
_publ_section_title
;
Structure prediction by ZEFSAII (Michael W. Deem and Ramdas Pophale) SiO2 
 PCOD8030089
Probable space group: P -1
;
_chemical_formula_sum "Si O2"
_cell_formula_units_Z 16
_cell_length_a 28.537378
_cell_length_b 27.722488
_cell_length_c 9.180110
_cell_angle_alpha 145.356822
_cell_angle_beta 144.501206
_cell_angle_gamma 10.118259
_cell_volume 724.658455
_symmetry_space_group_name_H-M "P -1"
_symmetry_group_IT_number 2
_symmetry_cell_setting 'triclinic'
loop_
_space_group_symop_operation_xyz
x,y,z
-x,-y,-z
loop_
_atom_site_type_symbol
_atom_site_label
_atom_site_fract_x
_atom_site_fract_y
_atom_site_fract_z
Si Si1 0.746645 0.696929 0.324767
Si Si2 0.745555 0.697334 0.826099
Si Si3 0.753922 0.570245 0.279338
Si Si4 0.030481 0.017620 0.468009
Si Si5 0.272303 0.405215 0.225797
Si Si6 0.754018 0.010168 0.324412
Si Si7 0.533433 0.417506 0.727563
Si Si8 0.244413 0.989411 0.994775
O O1 0.743468 0.610477 0.185973
O O2 0.000000 0.500000 0.500000
O O3 0.500000 0.000000 0.500000
O O4 0.753221 0.659702 0.082229
O O5 0.716113 0.695865 0.582342
O O6 0.757156 0.594949 0.683098
O O7 0.000000 0.500000 0.000000
O O8 0.500000 0.000000 0.000000
O O9 0.041799 0.239783 0.212667
O O10 0.536060 0.714697 0.118193
O O11 0.747726 0.310755 0.395783
O O12 0.162376 0.974306 0.738784
O O13 0.000000 0.000000 0.500000
O O14 0.248769 0.755269 0.258744
O O15 0.563285 0.151103 0.301062
O O16 0.054244 0.696701 0.364730
O O17 0.663680 0.197887 0.556319
O O18 0.751341 0.973897 0.065128
O O19 0.500000 0.500000 0.000000
#
# Coordination Sequence:
#
# PCOD8030089 Si02
#       8
#     2   2   2   2   2   2   2   2
#     4  12  22  36  60  94 118 156 218 272 314 388
#     4  12  26  46  62  88 136 176 214 276 350 400
#     4  12  23  41  65  93 126 170 220 266 336 395
#     4  11  24  45  73 105 144 183 227 280 346 414
#     4  12  23  41  65  93 126 170 220 266 336 395
#     4  11  21  42  68  96 131 169 217 274 330 386
#     4  11  24  45  73 105 144 183 227 280 346 414
#     4  11  21  42  68  96 131 169 217 274 330 386
#
# _framework density 22.079367999999999
#
# number of rings (size 3 to 8) (size 9 to 14) (size 15 to 20)
#    0.000    0.500    2.500    8.250    0.000    0.000 
#    6.750    0.000    0.000    0.000    0.000    0.000 
#    0.000    0.000    0.000    0.000    0.000    0.000 
#
# Total GULP energy -198322.793415 kJ/mol
# GULP energy per Si atom -12395.174588 kJ/mol
# Density = 2.202911 g / cm^3
# Si number density = 22.079368 Si / 1000 Ang^3
#
#
#
# Elastic Constant Matrix: (Units=GPa)
#
#
# Indices 1 2 3 4 5 6 
#
# 1 108.0912 41.3027 24.3104 -0.7127 5.2687 -16.7971
# 2 41.3027 163.5904 51.8118 9.7505 2.1874 -20.2163
# 3 24.3104 51.8118 108.0475 8.7892 -2.5768 -8.7734
# 4 -0.7127 9.7505 8.7892 41.8793 -7.7309 4.7078
# 5 5.2687 2.1874 -2.5768 -7.7309 25.3442 -0.0016
# 6 -16.7971 -20.2163 -8.7734 4.7078 -0.0016 39.6186
#
#
#
# Elastic Compliance Matrix: (Units=1/GPa)
#
#
# Indices 1 2 3 4 5 6 
#
# 1 0.010904 -0.001894 -0.001336 0.000125 -0.002201 0.003345
# 2 -0.001894 0.008039 -0.003081 -0.001789 -0.001159 0.002829
# 3 -0.001336 -0.003081 0.011227 -0.001494 0.001229 0.000525
# 4 0.000125 -0.001789 -0.001494 0.026592 0.008088 -0.004350
# 5 -0.002201 -0.001159 0.001229 0.008088 0.042606 -0.002211
# 6 0.003345 0.002829 0.000525 -0.004350 -0.002211 0.028736
#
#
# Mechanical properties :
#
#
# Convention : Reuss Voigt Hill
#
# Bulk Modulus (GPa) = 56.99104 68.28657 62.63880
# Shear Modulus (GPa) = 34.11231 38.85537 36.48384
#
# Velocity S-wave (km/s) = 3.93489 4.19955 4.06938
# Velocity P-wave (km/s) = 6.82000 7.38308 7.10712
#
# Compressibility (1/GPa) = 0.01754662
#
# Stress axis : x y z
#
# Youngs Moduli (GPa) = 91.71168 124.39921 89.07424
#
# Poissons Ratio (x) = 0.23566 0.11899
# Poissons Ratio (y) = 0.17374 0.27443
# Poissons Ratio (z) = 0.12251 0.38326
#
# Static dielectric constant tensor:
#      x y z
#    x 4.114480 -0.260720 -0.182140 
#    y -0.260720 4.282510 0.132530 
#    z -0.182140 0.132530 3.829080 
# 
# 
# High freq. dielectric constant tensor:
#      x y z
#    x 1.864950 -0.018530 -0.003320 
#    y -0.018530 1.890380 0.007400 
#    z -0.003320 0.007400 1.861680 
# 
# From -- ./inp_files/358029.got.cif
#   From: 2010.06.25/outbox.cif.g09.slc.cpg/sg2_180_cif.got.tgz:358029.got - 2010.06.27 13:26:56.
