data_PCOD8030109
_publ_section_title
;
Structure prediction by ZEFSAII (Michael W. Deem and Ramdas Pophale) SiO2 
 PCOD8030109
Probable space group: P -1
;
_chemical_formula_sum "Si O2"
_cell_formula_units_Z 16
_cell_length_a 19.195203
_cell_length_b 12.649960
_cell_length_c 8.830218
_cell_angle_alpha 109.463376
_cell_angle_beta 141.159660
_cell_angle_gamma 41.381224
_cell_volume 707.146891
_symmetry_space_group_name_H-M "P -1"
_symmetry_group_IT_number 2
_symmetry_cell_setting 'triclinic'
loop_
_space_group_symop_operation_xyz
x,y,z
-x,-y,-z
loop_
_atom_site_type_symbol
_atom_site_label
_atom_site_fract_x
_atom_site_fract_y
_atom_site_fract_z
Si Si1 0.890163 0.649351 0.746920
Si Si2 0.602888 0.027001 0.628304
Si Si3 0.755412 0.563042 0.952161
Si Si4 0.081885 0.117799 0.711188
Si Si5 0.925599 0.066352 0.638536
Si Si6 0.712796 0.351843 0.850950
Si Si7 0.502034 0.575577 0.893916
Si Si8 0.252954 0.428022 0.711821
O O1 0.739118 0.687591 0.434960
O O2 0.766477 0.859402 0.697293
O O3 0.000000 0.500000 0.000000
O O4 0.046791 0.551000 0.836991
O O5 0.437886 0.245065 0.380734
O O6 0.500000 0.000000 0.500000
O O7 0.708887 0.008357 0.932769
O O8 0.784447 0.405387 0.921010
O O9 0.725814 0.629136 0.105386
O O10 0.120255 0.998980 0.583338
O O11 0.953856 0.331475 0.543431
O O12 0.964293 0.150816 0.660288
O O13 0.719133 0.249972 0.472640
O O14 0.109742 0.887250 0.978726
O O15 0.500000 0.500000 0.500000
O O16 0.680406 0.388750 0.995478
O O17 0.500000 0.500000 0.000000
O O18 0.556423 0.659000 0.062269
#
# Coordination Sequence:
#
# PCOD8030109 Si02
#       8
#     2   2   2   2   2   2   2   2
#     4  12  25  44  72  95 129 183 230 275 350 397
#     4  12  26  44  68 103 131 174 233 283 338 409
#     4  11  25  46  65  97 141 168 224 291 336 397
#     4  11  21  42  69  97 139 174 225 275 325 409
#     4  11  22  40  70 101 130 188 222 263 343 402
#     4  11  25  44  65 102 143 173 218 286 343 394
#     4  11  22  40  68  99 134 175 232 269 330 411
#     4  11  23  45  67 101 138 175 223 290 330 399
#
# _framework density 22.626135000000001
#
# number of rings (size 3 to 8) (size 9 to 14) (size 15 to 20)
#    0.000    0.750    6.250    1.875    1.750    5.000 
#    0.000    0.000    0.000    0.000    0.000    0.000 
#    0.000    0.000    0.000    0.000    0.000    0.000 
#
# Total GULP energy -198400.603380 kJ/mol
# GULP energy per Si atom -12400.037711 kJ/mol
# Density = 2.257464 g / cm^3
# Si number density = 22.626135 Si / 1000 Ang^3
#
#
#
# Elastic Constant Matrix: (Units=GPa)
#
#
# Indices 1 2 3 4 5 6 
#
# 1 119.9177 8.5797 32.1525 -4.9199 12.0772 16.9022
# 2 8.5797 35.5120 4.3115 -6.4366 3.4748 3.9745
# 3 32.1525 4.3115 131.0935 -7.8250 6.9186 6.6155
# 4 -4.9199 -6.4366 -7.8250 50.3097 4.2632 3.6643
# 5 12.0772 3.4748 6.9186 4.2632 39.4383 -5.2885
# 6 16.9022 3.9745 6.6155 3.6643 -5.2885 21.8052
#
#
#
# Elastic Compliance Matrix: (Units=1/GPa)
#
#
# Indices 1 2 3 4 5 6 
#
# 1 0.010619 -0.000631 -0.001811 0.001683 -0.004251 -0.008881
# 2 -0.000631 0.030288 -0.000020 0.004630 -0.003877 -0.006744
# 3 -0.001811 -0.000020 0.008303 0.001339 -0.001265 -0.001644
# 4 0.001683 0.004630 0.001339 0.021754 -0.004489 -0.007299
# 5 -0.004251 -0.003877 -0.001265 -0.004489 0.029351 0.012259
# 6 -0.008881 -0.006744 -0.001644 -0.007299 0.012259 0.058672
#
#
# Mechanical properties :
#
#
# Convention : Reuss Voigt Hill
#
# Bulk Modulus (GPa) = 22.58057 41.84560 32.21308
# Shear Modulus (GPa) = 27.98458 38.40927 33.19693
#
# Velocity S-wave (km/s) = 3.52067 4.12462 3.83455
# Velocity P-wave (km/s) = 5.15057 6.42011 5.82006
#
# Compressibility (1/GPa) = 0.04428587
#
# Stress axis : x y z
#
# Youngs Moduli (GPa) = 94.17486 33.01679 120.44545
#
# Poissons Ratio (x) = 0.02082 0.21808
# Poissons Ratio (y) = 0.05939 0.00243
# Poissons Ratio (z) = 0.17051 0.00067
#
# Static dielectric constant tensor:
#      x y z
#    x 4.241170 -0.099410 0.118160 
#    y -0.099410 4.221960 0.036820 
#    z 0.118160 0.036820 4.473030 
# 
# 
# High freq. dielectric constant tensor:
#      x y z
#    x 1.893750 0.006990 0.007810 
#    y 0.006990 1.880180 -0.001240 
#    z 0.007810 -0.001240 1.912510 
# 
# From -- ./inp_files/333445.got.cif
#   From: 2010.06.25/outbox.cif.g09.slc.cpg/sg2_167_cif.got.tgz:333445.got - 2010.06.27 13:26:56.
