data_PCOD8030267
_publ_section_title
;
Structure prediction by ZEFSAII (Michael W. Deem and Ramdas Pophale) SiO2 
 PCOD8030267
Probable space group: P -1
;
_chemical_formula_sum "Si O2"
_cell_formula_units_Z 14
_cell_length_a 14.649643
_cell_length_b 11.473780
_cell_length_c 9.272121
_cell_angle_alpha 61.267646
_cell_angle_beta 29.157943
_cell_angle_gamma 51.795545
_cell_volume 589.476671
_symmetry_space_group_name_H-M "P -1"
_symmetry_group_IT_number 2
_symmetry_cell_setting 'triclinic'
loop_
_space_group_symop_operation_xyz
x,y,z
-x,-y,-z
loop_
_atom_site_type_symbol
_atom_site_label
_atom_site_fract_x
_atom_site_fract_y
_atom_site_fract_z
Si Si1 0.311189 0.764857 0.431850
Si Si2 0.193416 0.513857 0.648749
Si Si3 0.930062 0.051348 0.727084
Si Si4 0.544685 0.877795 0.232553
Si Si5 0.045054 0.295873 0.388036
Si Si6 0.474169 0.192084 0.390216
Si Si7 0.368813 0.207081 0.223702
O O1 0.256122 0.627154 0.580786
O O2 0.460794 0.760979 0.361912
O O3 0.425604 0.772536 0.119064
O O4 0.092096 0.912784 0.681550
O O5 0.409966 0.356536 0.447452
O O6 0.129342 0.559335 0.541537
O O7 0.000000 0.500000 0.000000
O O8 0.935620 0.205178 0.664739
O O9 0.693140 0.090173 0.069018
O O10 0.000000 0.000000 0.500000
O O11 0.528119 0.906689 0.411082
O O12 0.419298 0.034486 0.225542
O O13 0.792676 0.806758 0.898666
O O14 0.172341 0.324330 0.326985
O O15 0.308321 0.233518 0.461157
#
# Coordination Sequence:
#
# PCOD8030267 Si02
#       7
#     2   2   2   2   2   2   2
#     4  11  23  43  75  97 138 182 230 281 345 402
#     4  12  27  47  66 101 143 188 224 280 346 414
#     4  12  21  43  72 104 131 183 229 288 340 398
#     4  11  22  44  73 107 132 178 232 290 337 402
#     4  11  21  43  73  94 138 179 230 275 341 406
#     4  12  27  42  68 105 147 178 227 281 345 409
#     4  11  22  42  73 107 129 177 235 287 336 403
#
# _framework density 23.749879
#
# number of rings (size 3 to 8) (size 9 to 14) (size 15 to 20)
#    0.000    0.571    7.143    1.286    0.000    5.143 
#    2.571    0.000    0.000    0.000    0.000    0.000 
#    0.000    0.000    0.000    0.000    0.000    0.000 
#
# Total GULP energy -173441.759502 kJ/mol
# GULP energy per Si atom -12388.697107 kJ/mol
# Density = 2.369582 g / cm^3
# Si number density = 23.749879 Si / 1000 Ang^3
#
#
#
# Elastic Constant Matrix: (Units=GPa)
#
#
# Indices 1 2 3 4 5 6 
#
# 1 98.6966 -0.5806 29.3733 -16.7058 16.0035 2.5493
# 2 -0.5806 78.0206 23.0283 -11.1870 -12.5178 0.4853
# 3 29.3733 23.0283 75.2041 -8.4905 7.0271 7.6795
# 4 -16.7058 -11.1870 -8.4905 35.1331 0.6472 -11.5480
# 5 16.0035 -12.5178 7.0271 0.6472 39.7482 -5.9438
# 6 2.5493 0.4853 7.6795 -11.5480 -5.9438 33.2103
#
#
#
# Elastic Compliance Matrix: (Units=1/GPa)
#
#
# Indices 1 2 3 4 5 6 
#
# 1 0.013208 0.001806 -0.004812 0.006282 -0.003764 0.001583
# 2 0.001806 0.016400 -0.006051 0.005868 0.006031 0.004141
# 3 -0.004812 -0.006051 0.017713 -0.001449 -0.003797 -0.004822
# 4 0.006282 0.005868 -0.001449 0.037177 0.000892 0.012854
# 5 -0.003764 0.006031 -0.003797 0.000892 0.030247 0.006802
# 6 0.001583 0.004141 -0.004822 0.012854 0.006802 0.036731
#
#
# Mechanical properties :
#
#
# Convention : Reuss Voigt Hill
#
# Bulk Modulus (GPa) = 34.24020 39.50703 36.87361
# Shear Modulus (GPa) = 27.88209 34.95832 31.42021
#
# Velocity S-wave (km/s) = 3.43007 3.84075 3.64120
# Velocity P-wave (km/s) = 5.48958 6.02820 5.76518
#
# Compressibility (1/GPa) = 0.02920544
#
# Stress axis : x y z
#
# Youngs Moduli (GPa) = 75.71403 60.97610 56.45516
#
# Poissons Ratio (x) = -0.11010 0.27168
# Poissons Ratio (y) = -0.13672 0.34161
# Poissons Ratio (z) = 0.36436 0.36896
#
# Static dielectric constant tensor:
#      x y z
#    x 4.275420 -0.155180 -0.071740 
#    y -0.155180 4.328940 -0.021850 
#    z -0.071740 -0.021850 4.149850 
# 
# 
# High freq. dielectric constant tensor:
#      x y z
#    x 1.945580 -0.006260 -0.002290 
#    y -0.006260 1.937510 -0.003650 
#    z -0.002290 -0.003650 1.921700 
# 
# From -- ./inp_files/190326.got.cif
#   From: 2010.06.25/outbox.cif.g09.slc.cpg/sg2_96_cif.got.tgz:190326.got - 2010.06.27 13:26:56.
