data_PCOD8030239
_publ_section_title
;
Structure prediction by ZEFSAII (Michael W. Deem and Ramdas Pophale) SiO2 
 PCOD8030239
Probable space group: P -1
;
_chemical_formula_sum "Si O2"
_cell_formula_units_Z 16
_cell_length_a 12.371859
_cell_length_b 9.966079
_cell_length_c 17.340354
_cell_angle_alpha 96.265813
_cell_angle_beta 136.879315
_cell_angle_gamma 48.983499
_cell_volume 768.436392
_symmetry_space_group_name_H-M "P -1"
_symmetry_group_IT_number 2
_symmetry_cell_setting 'triclinic'
loop_
_space_group_symop_operation_xyz
x,y,z
-x,-y,-z
loop_
_atom_site_type_symbol
_atom_site_label
_atom_site_fract_x
_atom_site_fract_y
_atom_site_fract_z
Si Si1 0.545475 0.836009 0.211338
Si Si2 0.149777 0.665722 0.663491
Si Si3 0.944685 0.801690 0.402397
Si Si4 0.510852 0.313983 0.121338
Si Si5 0.539300 0.081005 0.459323
Si Si6 0.107540 0.318247 0.111909
Si Si7 0.330243 0.993617 0.941175
Si Si8 0.307323 0.517414 0.427530
O O1 0.667675 0.600304 0.279749
O O2 0.820403 0.740272 0.342572
O O3 0.317612 0.048950 0.171381
O O4 0.359629 0.959120 0.044592
O O5 0.361385 0.627042 0.807592
O O6 0.028528 0.807830 0.527731
O O7 0.876649 0.827908 0.587676
O O8 0.232522 0.585548 0.483453
O O9 0.691587 0.080850 0.254421
O O10 0.537663 0.238072 0.043403
O O11 0.170675 0.557619 0.987452
O O12 0.296980 0.252563 0.274474
O O13 0.503247 0.245106 0.496695
O O14 0.500000 0.000000 0.500000
O O15 0.000000 0.500000 0.000000
O O16 0.987995 0.267985 0.763383
O O17 0.500000 0.000000 0.000000
O O18 0.500000 0.500000 0.500000
#
# Coordination Sequence:
#
# PCOD8030239 Si02
#       8
#     2   2   2   2   2   2   2   2
#     4  12  24  42  71  97 131 181 224 274 332 406
#     4  12  27  44  65 102 142 176 216 282 354 394
#     4  11  22  44  72  94 136 180 226 268 336 412
#     4  11  24  43  70 101 131 175 224 284 334 397
#     4  12  26  43  69 101 137 178 229 282 332 409
#     4  12  24  45  72 101 128 180 240 275 330 414
#     4  11  21  43  71  93 128 177 229 266 330 405
#     4  11  24  42  68 102 130 173 223 281 336 396
#
# _framework density 20.821501000000001
#
# number of rings (size 3 to 8) (size 9 to 14) (size 15 to 20)
#    0.000    0.500    5.000    4.500    3.500    3.000 
#    2.250    0.000    0.000    0.000    0.000    0.000 
#    0.000    0.000    0.000    0.000    0.000    0.000 
#
# Total GULP energy -198435.592471 kJ/mol
# GULP energy per Si atom -12402.224529 kJ/mol
# Density = 2.077411 g / cm^3
# Si number density = 20.821501 Si / 1000 Ang^3
#
#
#
# Elastic Constant Matrix: (Units=GPa)
#
#
# Indices 1 2 3 4 5 6 
#
# 1 80.9914 57.2134 31.0801 4.6075 11.7782 -1.1833
# 2 57.2134 144.5355 27.1813 -9.0395 29.0923 -0.1459
# 3 31.0801 27.1813 65.2855 2.8067 18.4067 6.7223
# 4 4.6075 -9.0395 2.8067 34.8877 -1.8762 5.1699
# 5 11.7782 29.0923 18.4067 -1.8762 35.1572 6.3974
# 6 -1.1833 -0.1459 6.7223 5.1699 6.3974 43.1161
#
#
#
# Elastic Compliance Matrix: (Units=1/GPa)
#
#
# Indices 1 2 3 4 5 6 
#
# 1 0.020289 -0.007447 -0.007310 -0.004142 0.002648 0.001775
# 2 -0.007447 0.011405 0.000627 0.003446 -0.007157 0.000385
# 3 -0.007310 0.000627 0.021287 -0.000749 -0.008870 -0.002111
# 4 -0.004142 0.003446 -0.000749 0.030805 0.001276 -0.003868
# 5 0.002648 -0.007157 -0.008870 0.001276 0.039012 -0.004510
# 6 0.001775 0.000385 -0.002111 -0.003868 -0.004510 0.024705
#
#
# Mechanical properties :
#
#
# Convention : Reuss Voigt Hill
#
# Bulk Modulus (GPa) = 40.45085 57.97355 49.21220
# Shear Modulus (GPa) = 27.17337 34.32141 30.74739
#
# Velocity S-wave (km/s) = 3.61648 4.06441 3.84697
# Velocity P-wave (km/s) = 6.07521 7.06608 6.58930
#
# Compressibility (1/GPa) = 0.02472136
#
# Stress axis : x y z
#
# Youngs Moduli (GPa) = 49.28761 87.67954 46.97750
#
# Poissons Ratio (x) = 0.65294 0.34339
# Poissons Ratio (y) = 0.36704 -0.02945
# Poissons Ratio (z) = 0.36028 -0.05496
#
# Static dielectric constant tensor:
#      x y z
#    x 3.770280 -0.199730 0.056680 
#    y -0.199730 4.007280 0.078710 
#    z 0.056680 0.078710 3.505990 
# 
# 
# High freq. dielectric constant tensor:
#      x y z
#    x 1.816060 -0.011830 0.001590 
#    y -0.011830 1.831630 0.002720 
#    z 0.001590 0.002720 1.819320 
# 
# From -- ./inp_files/190176.got.cif
#   From: 2010.06.25/outbox.cif.g09.slc.cpg/sg2_96_cif.got.tgz:190176.got - 2010.06.27 13:26:56.
