data_PCOD8030463
_publ_section_title
;
Structure prediction by ZEFSAII (Michael W. Deem and Ramdas Pophale) SiO2 
 PCOD8030463
Probable space group: P -1
;
_chemical_formula_sum "Si O2"
_cell_formula_units_Z 16
_cell_length_a 9.137341
_cell_length_b 12.142163
_cell_length_c 9.616343
_cell_angle_alpha 126.457954
_cell_angle_beta 69.232700
_cell_angle_gamma 123.975436
_cell_volume 711.201777
_symmetry_space_group_name_H-M "P -1"
_symmetry_group_IT_number 2
_symmetry_cell_setting 'triclinic'
loop_
_space_group_symop_operation_xyz
x,y,z
-x,-y,-z
loop_
_atom_site_type_symbol
_atom_site_label
_atom_site_fract_x
_atom_site_fract_y
_atom_site_fract_z
Si Si1 0.508970 0.663789 0.617363
Si Si2 0.212815 0.113269 0.516860
Si Si3 0.106157 0.538305 0.131054
Si Si4 0.868764 0.392465 0.347440
Si Si5 0.396455 0.187397 0.016642
Si Si6 0.238424 0.287813 0.912603
Si Si7 0.311445 0.872731 0.219943
Si Si8 0.132440 0.887343 0.001563
O O1 0.500000 0.500000 0.500000
O O2 0.695651 0.788329 0.580162
O O3 0.333806 0.646113 0.582892
O O4 0.491164 0.706336 0.814343
O O5 0.275910 0.241423 0.712732
O O6 0.302840 0.001054 0.419189
O O7 0.000000 0.000000 0.500000
O O8 0.234818 0.719103 0.223559
O O9 0.951881 0.496388 0.262309
O O10 0.220910 0.445290 0.037627
O O11 0.000000 0.500000 0.000000
O O12 0.000000 0.500000 0.500000
O O13 0.872485 0.230069 0.204972
O O14 0.213449 0.059297 0.044140
O O15 0.383613 0.298973 0.985379
O O16 0.488716 0.087798 0.851749
O O17 0.061495 0.143796 0.915839
O O18 0.217900 0.862648 0.095940
#
# Coordination Sequence:
#
# PCOD8030463 Si02
#       8
#     2   2   2   2   2   2   2   2
#     4  12  28  43  73 108 148 193 243 306 372 431
#     4  12  25  46  74 110 145 191 254 303 363 437
#     4  11  22  45  73  94 138 194 238 279 370 438
#     4  11  26  45  71 108 143 189 249 304 358 441
#     4  12  25  46  70 107 146 186 244 310 368 439
#     4  11  26  42  71 107 141 185 239 305 362 436
#     4  12  23  42  77  97 137 198 241 291 363 439
#     4  11  21  46  74  98 138 198 244 285 372 440
#
# _framework density 22.497132000000001
#
# number of rings (size 3 to 8) (size 9 to 14) (size 15 to 20)
#    0.000    0.500    6.250    1.500    8.750    3.000 
#    0.000    0.000    0.000    0.000    0.000    0.000 
#    0.000    0.000    0.000    0.000    0.000    0.000 
#
# Total GULP energy -198279.390866 kJ/mol
# GULP energy per Si atom -12392.461929 kJ/mol
# Density = 2.244593 g / cm^3
# Si number density = 22.497132 Si / 1000 Ang^3
#
#
#
# Elastic Constant Matrix: (Units=GPa)
#
#
# Indices 1 2 3 4 5 6 
#
# 1 100.3838 17.8895 33.5650 -8.3816 -4.4668 -6.7121
# 2 17.8895 118.5664 33.5904 2.0365 -6.6348 -9.3697
# 3 33.5650 33.5904 89.0868 -0.8081 -13.8559 -5.8441
# 4 -8.3816 2.0365 -0.8081 35.0798 -2.8813 -9.5109
# 5 -4.4668 -6.6348 -13.8559 -2.8813 41.6995 2.9225
# 6 -6.7121 -9.3697 -5.8441 -9.5109 2.9225 31.2123
#
#
#
# Elastic Compliance Matrix: (Units=1/GPa)
#
#
# Indices 1 2 3 4 5 6 
#
# 1 0.011890 -0.000482 -0.004106 0.003503 -0.000116 0.002721
# 2 -0.000482 0.009615 -0.003271 -0.000160 0.000233 0.002099
# 3 -0.004106 -0.003271 0.014641 0.000004 0.003869 0.000515
# 4 0.003503 -0.000160 0.000004 0.032320 0.001857 0.010380
# 5 -0.000116 0.000233 0.003869 0.001857 0.025493 -0.001052
# 6 0.002721 0.002099 0.000515 0.010380 -0.001052 0.036612
#
#
# Mechanical properties :
#
#
# Convention : Reuss Voigt Hill
#
# Bulk Modulus (GPa) = 48.95340 53.12521 51.03931
# Shear Modulus (GPa) = 32.65874 36.46444 34.56159
#
# Velocity S-wave (km/s) = 3.81423 4.03034 3.92378
# Velocity P-wave (km/s) = 6.41910 6.73229 6.57756
#
# Compressibility (1/GPa) = 0.02042759
#
# Stress axis : x y z
#
# Youngs Moduli (GPa) = 84.10612 104.00046 68.30226
#
# Poissons Ratio (x) = 0.05017 0.28042
# Poissons Ratio (y) = 0.04058 0.22343
# Poissons Ratio (z) = 0.34530 0.34021
#
# Static dielectric constant tensor:
#      x y z
#    x 4.148530 0.056060 -0.011170 
#    y 0.056060 3.941580 -0.283680 
#    z -0.011170 -0.283680 4.155080 
# 
# 
# High freq. dielectric constant tensor:
#      x y z
#    x 1.877870 0.006080 -0.014980 
#    y 0.006080 1.898630 -0.000020 
#    z -0.014980 -0.000020 1.890290 
# 
# From -- ./inp_files/189915.got.cif
#   From: 2010.06.25/outbox.cif.g09.slc.cpg/sg2_95_cif.got.tgz:189915.got - 2010.06.27 13:26:56.
