data_PCOD8030965
_publ_section_title
;
Structure prediction by ZEFSAII (Michael W. Deem and Ramdas Pophale) SiO2 
 PCOD8030965
Probable space group: P -1
;
_chemical_formula_sum "Si O2"
_cell_formula_units_Z 16
_cell_length_a 14.901358
_cell_length_b 6.268945
_cell_length_c 16.262921
_cell_angle_alpha 126.992150
_cell_angle_beta 37.438429
_cell_angle_gamma 123.372039
_cell_volume 729.423368
_symmetry_space_group_name_H-M "P -1"
_symmetry_group_IT_number 2
_symmetry_cell_setting 'triclinic'
loop_
_space_group_symop_operation_xyz
x,y,z
-x,-y,-z
loop_
_atom_site_type_symbol
_atom_site_label
_atom_site_fract_x
_atom_site_fract_y
_atom_site_fract_z
Si Si1 0.702893 0.092014 0.031988
Si Si2 0.019565 0.539710 0.122058
Si Si3 0.375140 0.003891 0.275961
Si Si4 0.864980 0.782082 0.591512
Si Si5 0.261456 0.429517 0.202041
Si Si6 0.886784 0.921912 0.413607
Si Si7 0.027632 0.640746 0.687177
Si Si8 0.028234 0.922011 0.063242
O O1 0.542506 0.168440 0.193047
O O2 0.803238 0.343207 0.970445
O O3 0.794082 0.020744 0.030664
O O4 0.671948 0.840238 0.932731
O O5 0.931702 0.622664 0.288029
O O6 0.950278 0.689676 0.130148
O O7 0.002394 0.214383 0.037556
O O8 0.389229 0.685547 0.183098
O O9 0.280533 0.074352 0.282217
O O10 0.288414 0.075300 0.439130
O O11 0.834322 0.596474 0.650377
O O12 0.867279 0.583445 0.462957
O O13 0.023695 0.976381 0.542619
O O14 0.143915 0.494671 0.233299
O O15 0.943083 0.108594 0.339724
O O16 0.037755 0.792267 0.805404
#
# Coordination Sequence:
#
# PCOD8030965 Si02
#       8
#     2   2   2   2   2   2   2   2
#     4   9  18  32  47  76 107 128 170 212 247 304
#     4   8  14  31  55  72  95 134 177 207 246 296
#     4  12  22  28  50  80 109 134 159 209 259 296
#     4  11  19  32  50  74 109 137 170 194 251 311
#     4  10  18  34  48  70 107 139 165 204 244 303
#     4  10  17  31  49  75 102 133 170 207 241 297
#     4   9  15  30  54  70  98 134 172 208 235 298
#     4   7  14  29  56  75  88 135 182 201 247 298
#
# _framework density 21.935136
#
# number of rings (size 3 to 8) (size 9 to 14) (size 15 to 20)
#    0.750    1.750    5.000    1.500    0.000    0.500 
#    0.000    0.625    0.000    1.500    0.000    0.000 
#    0.000    0.125    0.000    0.000    0.000    0.000 
#
# Total GULP energy -198235.193337 kJ/mol
# GULP energy per Si atom -12389.699584 kJ/mol
# Density = 2.188521 g / cm^3
# Si number density = 21.935136 Si / 1000 Ang^3
#
#
#
# Elastic Constant Matrix: (Units=GPa)
#
#
# Indices 1 2 3 4 5 6 
#
# 1 63.7371 29.5603 57.7804 6.7131 26.0475 11.5765
# 2 29.5603 98.7274 74.2687 28.4559 6.5617 16.9899
# 3 57.7804 74.2687 151.5952 10.7431 16.7379 28.1373
# 4 6.7131 28.4559 10.7431 43.2157 6.7643 -1.8740
# 5 26.0475 6.5617 16.7379 6.7643 45.3989 2.5583
# 6 11.5765 16.9899 28.1373 -1.8740 2.5583 18.5813
#
#
#
# Elastic Compliance Matrix: (Units=1/GPa)
#
#
# Indices 1 2 3 4 5 6 
#
# 1 0.030590 -0.000966 -0.009258 0.000268 -0.013913 -0.002213
# 2 -0.000966 0.021312 -0.007875 -0.012732 0.002760 -0.008625
# 3 -0.009258 -0.007875 0.015729 0.002098 0.000945 -0.010768
# 4 0.000268 -0.012732 0.002098 0.032203 -0.004571 0.012174
# 5 -0.013913 0.002760 0.000945 -0.004571 0.029936 0.000130
# 6 -0.002213 -0.008625 -0.010768 0.012174 0.000130 0.080598
#
#
# Mechanical properties :
#
#
# Convention : Reuss Voigt Hill
#
# Bulk Modulus (GPa) = 31.81358 70.80873 51.31115
# Shear Modulus (GPa) = 19.45195 31.60255 25.52725
#
# Velocity S-wave (km/s) = 2.98114 3.79981 3.41509
# Velocity P-wave (km/s) = 5.13659 7.18348 6.24448
#
# Compressibility (1/GPa) = 0.03143312
#
# Stress axis : x y z
#
# Youngs Moduli (GPa) = 32.69047 46.92102 63.57814
#
# Poissons Ratio (x) = 0.04534 0.58861
# Poissons Ratio (y) = 0.03159 0.50066
# Poissons Ratio (z) = 0.30265 0.36949
#
# Static dielectric constant tensor:
#      x y z
#    x 3.783080 -0.238550 0.380500 
#    y -0.238550 4.077670 0.271600 
#    z 0.380500 0.271600 3.932430 
# 
# 
# High freq. dielectric constant tensor:
#      x y z
#    x 1.849910 -0.041570 0.035370 
#    y -0.041570 1.869430 0.027440 
#    z 0.035370 0.027440 1.861240 
# 
# From -- ./inp_files/599307.got.cif
#   From: 2010.06.25/outbox.cif.g09.slc.cpg/sg2_300_cif.got.tgz:599307.got - 2010.06.27 13:26:56.
