data_PCOD8030159
_publ_section_title
;
Structure prediction by ZEFSAII (Michael W. Deem and Ramdas Pophale) SiO2 
 PCOD8030159
Probable space group: P -1
;
_chemical_formula_sum "Si O2"
_cell_formula_units_Z 14
_cell_length_a 17.919105
_cell_length_b 12.501288
_cell_length_c 9.325384
_cell_angle_alpha 34.502805
_cell_angle_beta 128.831001
_cell_angle_gamma 148.175314
_cell_volume 604.965014
_symmetry_space_group_name_H-M "P -1"
_symmetry_group_IT_number 2
_symmetry_cell_setting 'triclinic'
loop_
_space_group_symop_operation_xyz
x,y,z
-x,-y,-z
loop_
_atom_site_type_symbol
_atom_site_label
_atom_site_fract_x
_atom_site_fract_y
_atom_site_fract_z
Si Si1 0.042964 0.515688 0.375290
Si Si2 0.665899 0.224740 0.628140
Si Si3 0.267096 0.982021 0.524977
Si Si4 0.948739 0.234761 0.151330
Si Si5 0.265333 0.632306 0.117049
Si Si6 0.470668 0.236851 0.243591
Si Si7 0.648258 0.629250 0.588232
O O1 0.171154 0.553991 0.480388
O O2 0.000000 0.500000 0.500000
O O3 0.901342 0.210895 0.470689
O O4 0.080715 0.760298 0.057922
O O5 0.669920 0.237142 0.790787
O O6 0.606660 0.332111 0.373976
O O7 0.565863 0.900303 0.807359
O O8 0.325691 0.986822 0.440787
O O9 0.344719 0.294128 0.321217
O O10 0.295394 0.867048 0.807386
O O11 0.092494 0.314808 0.256479
O O12 0.795811 0.926033 0.362086
O O13 0.000000 0.500000 0.000000
O O14 0.357271 0.603329 0.182826
O O15 0.500000 0.500000 0.000000
O O16 0.500000 0.500000 0.500000
#
# Coordination Sequence:
#
# PCOD8030159 Si02
#       7
#     2   2   2   2   2   2   2
#     4  11  21  42  74  98 130 190 233 279 351 414
#     4  11  23  44  72  98 135 187 231 284 363 404
#     4  11  24  47  68 104 143 180 231 297 345 420
#     4  11  21  45  73  98 146 184 228 293 352 417
#     4  11  24  44  76 101 139 185 236 289 359 410
#     4  11  27  46  66  98 147 187 233 286 354 426
#     4  12  25  41  71 111 141 178 236 289 348 417
#
# _framework density 23.141832999999998
#
# number of rings (size 3 to 8) (size 9 to 14) (size 15 to 20)
#    0.000    0.857    5.714    1.286    0.000   10.286 
#    0.000    2.143    0.000    0.000    0.000    0.000 
#    0.000    0.000    0.000    0.000    0.000    0.000 
#
# Total GULP energy -173494.622917 kJ/mol
# GULP energy per Si atom -12392.473066 kJ/mol
# Density = 2.308916 g / cm^3
# Si number density = 23.141833 Si / 1000 Ang^3
#
#
#
# Elastic Constant Matrix: (Units=GPa)
#
#
# Indices 1 2 3 4 5 6 
#
# 1 128.9973 46.1599 37.0807 5.4816 31.0476 -0.7776
# 2 46.1599 111.8703 50.1063 5.1678 18.5549 8.8417
# 3 37.0807 50.1063 68.0168 13.0949 20.3715 -11.4045
# 4 5.4816 5.1678 13.0949 23.3956 -1.8639 3.6929
# 5 31.0476 18.5549 20.3715 -1.8639 37.4176 9.8585
# 6 -0.7776 8.8417 -11.4045 3.6929 9.8585 58.1788
#
#
#
# Elastic Compliance Matrix: (Units=1/GPa)
#
#
# Indices 1 2 3 4 5 6 
#
# 1 0.011045 -0.003014 -0.000568 -0.002561 -0.008019 0.002016
# 2 -0.003014 0.015652 -0.013155 0.005861 0.003776 -0.006010
# 3 -0.000568 -0.013155 0.036021 -0.020582 -0.017136 0.013263
# 4 -0.002561 0.005861 -0.020582 0.056645 0.016224 -0.011304
# 5 -0.008019 0.003776 -0.017136 0.016224 0.044989 -0.012694
# 6 0.002016 -0.006010 0.013263 -0.011304 -0.012694 0.023597
#
#
# Mechanical properties :
#
#
# Convention : Reuss Voigt Hill
#
# Bulk Modulus (GPa) = 34.19347 63.95316 49.07331
# Shear Modulus (GPa) = 21.62893 35.50089 28.56491
#
# Velocity S-wave (km/s) = 3.06048 3.92095 3.51713
# Velocity P-wave (km/s) = 5.22460 6.94218 6.14370
#
# Compressibility (1/GPa) = 0.02924535
#
# Stress axis : x y z
#
# Youngs Moduli (GPa) = 90.53842 63.88849 27.76127
#
# Poissons Ratio (x) = 0.19254 0.01578
# Poissons Ratio (y) = 0.27286 0.36519
# Poissons Ratio (z) = 0.05146 0.84043
#
# Static dielectric constant tensor:
#      x y z
#    x 5.321820 0.547710 0.141730 
#    y 0.547710 5.031220 0.495540 
#    z 0.141730 0.495540 4.176350 
# 
# 
# High freq. dielectric constant tensor:
#      x y z
#    x 1.938200 0.010020 -0.008110 
#    y 0.010020 1.933480 0.011530 
#    z -0.008110 0.011530 1.884480 
# 
# From -- ./inp_files/332751.got.cif
#   From: 2010.06.25/outbox.cif.g09.slc.cpg/sg2_167_cif.got.tgz:332751.got - 2010.06.27 13:26:56.
