data_PCOD8030191
_publ_section_title
;
Structure prediction by ZEFSAII (Michael W. Deem and Ramdas Pophale) SiO2 
 PCOD8030191
Probable space group: P -1
;
_chemical_formula_sum "Si O2"
_cell_formula_units_Z 16
_cell_length_a 15.112444
_cell_length_b 12.457002
_cell_length_c 8.534104
_cell_angle_alpha 116.864529
_cell_angle_beta 116.733071
_cell_angle_gamma 29.671087
_cell_volume 703.488841
_symmetry_space_group_name_H-M "P -1"
_symmetry_group_IT_number 2
_symmetry_cell_setting 'triclinic'
loop_
_space_group_symop_operation_xyz
x,y,z
-x,-y,-z
loop_
_atom_site_type_symbol
_atom_site_label
_atom_site_fract_x
_atom_site_fract_y
_atom_site_fract_z
Si Si1 0.630291 0.536277 0.413848
Si Si2 0.606610 0.283064 0.158756
Si Si3 0.056486 0.654029 0.313648
Si Si4 0.288102 0.488860 0.882909
Si Si5 0.672318 0.065803 0.361169
Si Si6 0.371012 0.142200 0.710776
Si Si7 0.776180 0.741776 0.658791
Si Si8 0.065863 0.182749 0.020087
O O1 0.622295 0.402159 0.308475
O O2 0.775256 0.425854 0.588734
O O3 0.699487 0.530813 0.308107
O O4 0.432461 0.788317 0.467866
O O5 0.577238 0.225648 0.244545
O O6 0.784085 0.070539 0.061019
O O7 0.429235 0.447717 0.020190
O O8 0.093751 0.486638 0.307731
O O9 0.013126 0.682646 0.114555
O O10 0.882909 0.889104 0.418184
O O11 0.335394 0.308284 0.869895
O O12 0.089937 0.724504 0.941485
O O13 0.662084 0.931379 0.239483
O O14 0.227411 0.268379 0.538561
O O15 0.575911 0.923731 0.678922
O O16 0.846037 0.802619 0.796541
#
# Coordination Sequence:
#
# PCOD8030191 Si02
#       8
#     2   2   2   2   2   2   2   2
#     4  12  25  46  71  96 135 181 230 273 323 398
#     4  11  27  47  66  99 137 179 228 275 327 392
#     4  11  24  43  68 102 133 179 220 273 338 395
#     4  12  25  44  70 101 135 177 219 281 337 392
#     4  11  25  43  71 100 131 178 222 278 333 399
#     4  11  22  40  73 101 132 177 217 275 344 398
#     4  11  21  43  68 102 141 168 219 279 335 405
#     4  11  26  42  68 100 140 173 220 275 339 399
#
# _framework density 22.743787000000001
#
# number of rings (size 3 to 8) (size 9 to 14) (size 15 to 20)
#    0.000    0.750    3.750    3.375    1.750    6.000 
#    0.000    0.000    0.000    0.000    0.000    0.000 
#    0.000    0.000    0.000    0.000    0.000    0.000 
#
# Total GULP energy -198479.833150 kJ/mol
# GULP energy per Si atom -12404.989572 kJ/mol
# Density = 2.269202 g / cm^3
# Si number density = 22.743787 Si / 1000 Ang^3
#
#
#
# Elastic Constant Matrix: (Units=GPa)
#
#
# Indices 1 2 3 4 5 6 
#
# 1 90.1583 30.2011 30.5333 13.4925 -2.2119 -3.9288
# 2 30.2011 83.8171 30.6435 5.1689 -1.1283 -27.7017
# 3 30.5333 30.6435 62.9444 6.9645 8.1589 -13.9715
# 4 13.4925 5.1689 6.9645 34.0675 -0.7539 -4.6291
# 5 -2.2119 -1.1283 8.1589 -0.7539 44.8523 15.4487
# 6 -3.9288 -27.7017 -13.9715 -4.6291 15.4487 33.8786
#
#
#
# Elastic Compliance Matrix: (Units=1/GPa)
#
#
# Indices 1 2 3 4 5 6 
#
# 1 0.015785 -0.005580 -0.006851 -0.005040 0.004687 -0.008383
# 2 -0.005580 0.020692 -0.002964 0.001968 -0.005290 0.017732
# 3 -0.006851 -0.002964 0.024138 -0.000530 -0.008432 0.010509
# 4 -0.005040 0.001968 -0.000530 0.031925 -0.001597 0.005897
# 5 0.004687 -0.005290 -0.008432 -0.001597 0.031409 -0.021800
# 6 -0.008383 0.017732 0.010509 0.005897 -0.021800 0.058124
#
#
# Mechanical properties :
#
#
# Convention : Reuss Voigt Hill
#
# Bulk Modulus (GPa) = 33.52798 46.63062 40.07930
# Shear Modulus (GPa) = 22.44125 32.26248 27.35186
#
# Velocity S-wave (km/s) = 3.14458 3.77041 3.47163
# Velocity P-wave (km/s) = 5.28755 6.28504 5.80775
#
# Compressibility (1/GPa) = 0.02982583
#
# Stress axis : x y z
#
# Youngs Moduli (GPa) = 63.35191 48.32704 41.42926
#
# Poissons Ratio (x) = 0.26964 0.28385
# Poissons Ratio (y) = 0.35347 0.12278
# Poissons Ratio (z) = 0.43405 0.14322
#
# Static dielectric constant tensor:
#      x y z
#    x 4.036690 -0.166660 -0.040690 
#    y -0.166660 4.237030 -0.008000 
#    z -0.040690 -0.008000 4.008200 
# 
# 
# High freq. dielectric constant tensor:
#      x y z
#    x 1.901340 -0.012350 -0.000120 
#    y -0.012350 1.905710 -0.000730 
#    z -0.000120 -0.000730 1.888320 
# 
# From -- ./inp_files/308117.got.cif
#   From: 2010.06.25/outbox.cif.g09.slc.cpg/sg2_155_cif.got.tgz:308117.got - 2010.06.27 13:26:56.
