data_PCOD8030378
_publ_section_title
;
Structure prediction by ZEFSAII (Michael W. Deem and Ramdas Pophale) SiO2 
 PCOD8030378
Probable space group: P -1
;
_chemical_formula_sum "Si O2"
_cell_formula_units_Z 14
_cell_length_a 13.618913
_cell_length_b 13.227474
_cell_length_c 8.809487
_cell_angle_alpha 74.650523
_cell_angle_beta 51.267117
_cell_angle_gamma 35.815998
_cell_volume 613.590480
_symmetry_space_group_name_H-M "P -1"
_symmetry_group_IT_number 2
_symmetry_cell_setting 'triclinic'
loop_
_space_group_symop_operation_xyz
x,y,z
-x,-y,-z
loop_
_atom_site_type_symbol
_atom_site_label
_atom_site_fract_x
_atom_site_fract_y
_atom_site_fract_z
Si Si1 0.679208 0.336585 0.524653
Si Si2 0.984743 0.054821 0.826183
Si Si3 0.103766 0.502883 0.276020
Si Si4 0.762267 0.914212 0.491993
Si Si5 0.775461 0.709834 0.046352
Si Si6 0.575145 0.279181 0.933012
Si Si7 0.119621 0.148590 0.255301
O O1 0.500000 0.500000 0.500000
O O2 0.540690 0.380045 0.780798
O O3 0.832729 0.327504 0.436748
O O4 0.863175 0.119072 0.371633
O O5 0.101698 0.084571 0.710886
O O6 0.705254 0.251549 0.954853
O O7 0.000000 0.000000 0.000000
O O8 0.240220 0.342989 0.074221
O O9 0.000000 0.500000 0.500000
O O10 0.867702 0.741424 0.359163
O O11 0.304241 0.437970 0.183022
O O12 0.838875 0.838645 0.621508
O O13 0.468725 0.133860 0.679440
O O14 0.804925 0.812904 0.948816
O O15 0.000000 0.500000 0.000000
O O16 0.724918 0.066844 0.835996
#
# Coordination Sequence:
#
# PCOD8030378 Si02
#       7
#     2   2   2   2   2   2   2
#     4  11  24  41  73 103 136 184 237 282 353 429
#     4  11  25  43  68 104 142 179 231 299 347 411
#     4  12  26  42  73 103 132 185 240 280 343 425
#     4  12  24  47  72  99 142 184 235 287 353 419
#     4  12  28  46  71 103 141 185 235 293 352 411
#     4  11  23  46  71 100 141 187 235 280 359 423
#     4  11  21  44  74  96 135 192 228 283 352 415
#
# _framework density 22.816520000000001
#
# number of rings (size 3 to 8) (size 9 to 14) (size 15 to 20)
#    0.000    0.571    5.714    2.143    6.000    4.571 
#    0.000    0.000    0.000    0.000    0.000    0.000 
#    0.000    0.000    0.000    0.000    0.000    0.000 
#
# Total GULP energy -173590.693861 kJ/mol
# GULP energy per Si atom -12399.335276 kJ/mol
# Density = 2.276459 g / cm^3
# Si number density = 22.816520 Si / 1000 Ang^3
#
#
#
# Elastic Constant Matrix: (Units=GPa)
#
#
# Indices 1 2 3 4 5 6 
#
# 1 72.1808 40.7282 43.4092 -6.2231 -31.3135 3.1414
# 2 40.7282 134.6162 52.2493 -15.3330 -26.7215 -6.4856
# 3 43.4092 52.2493 136.9516 -7.9525 -39.1044 2.7506
# 4 -6.2231 -15.3330 -7.9525 52.2941 3.1263 0.1623
# 5 -31.3135 -26.7215 -39.1044 3.1263 43.0375 2.7168
# 6 3.1414 -6.4856 2.7506 0.1623 2.7168 48.7911
#
#
#
# Elastic Compliance Matrix: (Units=1/GPa)
#
#
# Indices 1 2 3 4 5 6 
#
# 1 0.022779 -0.003623 -0.002201 0.000578 0.012441 -0.002519
# 2 -0.003623 0.009944 -0.002186 0.002069 0.001300 0.001599
# 3 -0.002201 -0.002186 0.010864 0.000337 0.006960 -0.001150
# 4 0.000578 0.002069 0.000337 0.019815 0.000564 0.000122
# 5 0.012441 0.001300 0.006960 0.000564 0.039581 -0.003226
# 6 -0.002519 0.001599 -0.001150 0.000122 -0.003226 0.021114
#
#
# Mechanical properties :
#
#
# Convention : Reuss Voigt Hill
#
# Bulk Modulus (GPa) = 36.27779 68.50243 52.39011
# Shear Modulus (GPa) = 33.48794 42.64868 38.06831
#
# Velocity S-wave (km/s) = 3.83522 4.32812 4.08910
# Velocity P-wave (km/s) = 5.96206 7.42059 6.73095
#
# Compressibility (1/GPa) = 0.02756507
#
# Stress axis : x y z
#
# Youngs Moduli (GPa) = 43.90003 100.56197 92.05094
#
# Poissons Ratio (x) = 0.36438 0.20264
# Poissons Ratio (y) = 0.15907 0.20122
# Poissons Ratio (z) = 0.09664 0.21983
#
# Static dielectric constant tensor:
#      x y z
#    x 4.697720 0.325500 -0.208510 
#    y 0.325500 4.922850 0.106500 
#    z -0.208510 0.106500 4.350780 
# 
# 
# High freq. dielectric constant tensor:
#      x y z
#    x 1.902170 0.011970 -0.016540 
#    y 0.011970 1.905340 0.004500 
#    z -0.016540 0.004500 1.907400 
# 
# From -- ./inp_files/223292.got.cif
#   From: 2010.06.25/outbox.cif.g09.slc.cpg/sg2_112_cif.got.tgz:223292.got - 2010.06.27 13:26:56.
