data_PCOD8030016
_publ_section_title
;
Structure prediction by ZEFSAII (Michael W. Deem and Ramdas Pophale) SiO2 
 PCOD8030016
Probable space group: P -1
;
_chemical_formula_sum "Si O2"
_cell_formula_units_Z 16
_cell_length_a 11.854264
_cell_length_b 11.657169
_cell_length_c 14.899198
_cell_angle_alpha 150.752465
_cell_angle_beta 94.583240
_cell_angle_gamma 66.568784
_cell_volume 741.348915
_symmetry_space_group_name_H-M "P -1"
_symmetry_group_IT_number 2
_symmetry_cell_setting 'triclinic'
loop_
_space_group_symop_operation_xyz
x,y,z
-x,-y,-z
loop_
_atom_site_type_symbol
_atom_site_label
_atom_site_fract_x
_atom_site_fract_y
_atom_site_fract_z
Si Si1 0.631687 0.224011 0.075678
Si Si2 0.208699 0.329560 0.165086
Si Si3 0.884091 0.765936 0.379447
Si Si4 0.434002 0.688617 0.533062
Si Si5 0.135827 0.958676 0.623361
Si Si6 0.427175 0.169995 0.926018
Si Si7 0.335702 0.355726 0.739400
Si Si8 0.804625 0.294309 0.849355
O O1 0.493629 0.460679 0.297007
O O2 0.686755 0.397697 0.161853
O O3 0.564869 0.155690 0.945160
O O4 0.770067 0.891791 0.905283
O O5 0.181948 0.622993 0.404430
O O6 0.064049 0.453052 0.180125
O O7 0.366425 0.112099 0.969826
O O8 0.791735 0.654955 0.299768
O O9 0.845396 0.969903 0.427519
O O10 0.844784 0.967002 0.605621
O O11 0.500000 0.500000 0.500000
O O12 0.247953 0.938616 0.685511
O O13 0.484380 0.892450 0.669391
O O14 0.959513 0.231572 0.830632
O O15 0.281082 0.509557 0.111904
O O16 0.500000 0.000000 0.500000
O O17 0.308324 0.508761 0.939922
#
# Coordination Sequence:
#
# PCOD8030016 Si02
#       8
#     2   2   2   2   2   2   2   2
#     4  12  26  45  60  96 144 175 209 271 326 394
#     4  11  21  41  70  96 130 168 210 276 338 374
#     4  11  23  44  70 100 130 169 222 276 327 387
#     4  12  24  36  64  99 128 168 220 266 332 391
#     4  11  21  42  68 104 131 158 225 287 327 375
#     4  12  21  39  68  96 128 168 213 276 329 375
#     4  12  28  45  64  95 137 180 220 261 322 410
#     4  11  23  41  71  98 126 173 219 276 330 377
#
# _framework density 21.582280999999998
#
# number of rings (size 3 to 8) (size 9 to 14) (size 15 to 20)
#    0.000    0.500    5.000    4.875    1.750    4.500 
#    0.000    2.500    0.000    0.000    0.000    0.000 
#    0.000    0.000    0.000    0.000    0.000    0.000 
#
# Total GULP energy -198378.956502 kJ/mol
# GULP energy per Si atom -12398.684781 kJ/mol
# Density = 2.153316 g / cm^3
# Si number density = 21.582281 Si / 1000 Ang^3
#
#
#
# Elastic Constant Matrix: (Units=GPa)
#
#
# Indices 1 2 3 4 5 6 
#
# 1 116.3379 53.7628 36.3669 10.3936 19.1284 -0.7272
# 2 53.7628 118.2867 40.2545 20.9045 4.1356 -3.4809
# 3 36.3669 40.2545 82.4045 5.8989 6.6402 1.7213
# 4 10.3936 20.9045 5.8989 36.4987 5.3062 5.0729
# 5 19.1284 4.1356 6.6402 5.3062 33.1265 0.3716
# 6 -0.7272 -3.4809 1.7213 5.0729 0.3716 40.6516
#
#
#
# Elastic Compliance Matrix: (Units=1/GPa)
#
#
# Indices 1 2 3 4 5 6 
#
# 1 0.012597 -0.004622 -0.002832 0.000425 -0.006197 -0.000047
# 2 -0.004622 0.013010 -0.004145 -0.006149 0.002838 0.001948
# 3 -0.002832 -0.004145 0.015450 0.001005 -0.001092 -0.001175
# 4 0.000425 -0.006149 0.001005 0.031953 -0.004747 -0.004505
# 5 -0.006197 0.002838 -0.001092 -0.004747 0.034386 0.000457
# 6 -0.000047 0.001948 -0.001175 -0.004505 0.000457 0.025373
#
#
# Mechanical properties :
#
#
# Convention : Reuss Voigt Hill
#
# Bulk Modulus (GPa) = 55.98888 64.19970 60.09429
# Shear Modulus (GPa) = 30.87945 34.49835 32.68890
#
# Velocity S-wave (km/s) = 3.78667 4.00241 3.89603
# Velocity P-wave (km/s) = 6.71691 7.15333 6.93855
#
# Compressibility (1/GPa) = 0.01786069
#
# Stress axis : x y z
#
# Youngs Moduli (GPa) = 79.38154 76.86377 64.72319
#
# Poissons Ratio (x) = 0.35525 0.18329
# Poissons Ratio (y) = 0.36688 0.26828
# Poissons Ratio (z) = 0.22480 0.31860
#
# Static dielectric constant tensor:
#      x y z
#    x 3.856840 -0.103510 0.139700 
#    y -0.103510 3.843320 0.070090 
#    z 0.139700 0.070090 4.123270 
# 
# 
# High freq. dielectric constant tensor:
#      x y z
#    x 1.836130 -0.017260 0.017290 
#    y -0.017260 1.841420 0.008880 
#    z 0.017290 0.008880 1.858620 
# 
# From -- ./inp_files/427537.got.cif
#   From: 2010.06.25/outbox.cif.g09.slc.cpg/sg2_214_cif.got.tgz:427537.got - 2010.06.27 13:26:56.
