data_PCOD8030889
_publ_section_title
;
Structure prediction by ZEFSAII (Michael W. Deem and Ramdas Pophale) SiO2 
 PCOD8030889
Probable space group: P -1
;
_chemical_formula_sum "Si O2"
_cell_formula_units_Z 16
_cell_length_a 26.431749
_cell_length_b 8.089662
_cell_length_c 7.503634
_cell_angle_alpha 37.245755
_cell_angle_beta 44.078575
_cell_angle_gamma 41.630661
_cell_volume 613.982413
_symmetry_space_group_name_H-M "P -1"
_symmetry_group_IT_number 2
_symmetry_cell_setting 'triclinic'
loop_
_space_group_symop_operation_xyz
x,y,z
-x,-y,-z
loop_
_atom_site_type_symbol
_atom_site_label
_atom_site_fract_x
_atom_site_fract_y
_atom_site_fract_z
Si Si1 0.912360 0.286412 0.666394
Si Si2 0.448466 0.813195 0.274794
Si Si3 0.721062 0.709310 0.610489
Si Si4 0.856730 0.660476 0.805099
Si Si5 0.904880 0.158074 0.396470
Si Si6 0.360503 0.687109 0.299351
Si Si7 0.308099 0.224732 0.760781
Si Si8 0.773490 0.164835 0.206472
O O1 0.896267 0.586640 0.568906
O O2 0.875429 0.322144 0.525425
O O3 0.863121 0.136920 0.033476
O O4 0.005153 0.086158 0.596536
O O5 0.500000 0.500000 0.500000
O O6 0.429510 0.738510 0.186749
O O7 0.364723 0.003211 0.418235
O O8 0.500000 0.000000 0.000000
O O9 0.734734 0.616808 0.449083
O O10 0.786289 0.839485 0.376845
O O11 0.723065 0.444000 0.961454
O O12 0.853372 0.977051 0.616205
O O13 0.906451 0.400397 0.043345
O O14 0.766886 0.672080 0.000325
O O15 0.377947 0.339157 0.525109
O O16 0.274533 0.807340 0.513598
O O17 0.350942 0.862553 0.984087
#
# Coordination Sequence:
#
# PCOD8030889 Si02
#       8
#     2   2   2   2   2   2   2   2
#     4  11  25  43  71  92 140 180 235 280 357 393
#     4  11  23  43  67  93 129 171 209 252 318 401
#     4  11  24  41  68  97 132 163 220 274 325 387
#     4  12  25  44  68  95 140 177 232 280 359 389
#     4  11  27  44  61 103 133 183 231 290 332 434
#     4  11  23  41  66  96 129 163 219 260 321 396
#     4  12  23  42  65  99 130 167 216 282 326 386
#     4  11  22  41  65  96 122 177 221 274 325 394
#
# _framework density 26.059377999999999
#
# number of rings (size 3 to 8) (size 9 to 14) (size 15 to 20)
#    0.000    0.750    1.250    7.500    0.000    4.000 
#    0.000    3.750    0.000    0.000    0.000    0.000 
#    0.000    0.000    0.000    0.000    0.000    0.000 
#
# Total GULP energy -198236.267677 kJ/mol
# GULP energy per Si atom -12389.766730 kJ/mol
# Density = 2.600007 g / cm^3
# Si number density = 26.059378 Si / 1000 Ang^3
#
#
#
# Elastic Constant Matrix: (Units=GPa)
#
#
# Indices 1 2 3 4 5 6 
#
# 1 112.8987 1.5356 60.8003 -8.6072 3.5895 14.3411
# 2 1.5356 51.9815 19.3227 -11.5148 4.5969 26.0329
# 3 60.8003 19.3227 149.4535 -34.0867 6.2525 11.4967
# 4 -8.6072 -11.5148 -34.0867 31.1712 -0.8501 -5.8237
# 5 3.5895 4.5969 6.2525 -0.8501 54.5994 6.4142
# 6 14.3411 26.0329 11.4967 -5.8237 6.4142 36.8967
#
#
#
# Elastic Compliance Matrix: (Units=1/GPa)
#
#
# Indices 1 2 3 4 5 6 
#
# 1 0.012549 0.004595 -0.005726 -0.002353 0.000199 -0.006742
# 2 0.004595 0.033226 -0.003034 0.005860 0.000085 -0.023374
# 3 -0.005726 -0.003034 0.011643 0.010481 -0.000836 0.002538
# 4 -0.002353 0.005860 0.010481 0.045183 -0.000930 0.000807
# 5 0.000199 0.000085 -0.000836 -0.000930 0.018762 -0.003285
# 6 -0.006742 -0.023374 0.002538 0.000807 -0.003285 0.046122
#
#
# Mechanical properties :
#
#
# Convention : Reuss Voigt Hill
#
# Bulk Modulus (GPa) = 20.37112 53.07232 36.72172
# Shear Modulus (GPa) = 26.01752 40.04514 33.03133
#
# Velocity S-wave (km/s) = 3.16316 3.92431 3.56412
# Velocity P-wave (km/s) = 4.60163 6.39873 5.57309
#
# Compressibility (1/GPa) = 0.04908909
#
# Stress axis : x y z
#
# Youngs Moduli (GPa) = 79.68662 30.09681 85.88901
#
# Poissons Ratio (x) = -0.13830 0.49177
# Poissons Ratio (y) = -0.36618 0.26060
# Poissons Ratio (z) = 0.45626 0.09132
#
# Static dielectric constant tensor:
#      x y z
#    x 5.251800 0.236350 -0.261510 
#    y 0.236350 4.748870 -0.246410 
#    z -0.261510 -0.246410 4.867920 
# 
# 
# High freq. dielectric constant tensor:
#      x y z
#    x 2.057270 0.003900 -0.000380 
#    y 0.003900 2.032470 -0.018910 
#    z -0.000380 -0.018910 2.050900 
# 
# From -- ./inp_files/358447.got.cif
#   From: 2010.06.25/outbox.cif.g09.slc.cpg/sg2_180_cif.got.tgz:358447.got - 2010.06.27 13:26:56.
