data_PCOD8030629
_publ_section_title
;
Structure prediction by ZEFSAII (Michael W. Deem and Ramdas Pophale) SiO2 
 PCOD8030629
Probable space group: P -1
;
_chemical_formula_sum "Si O2"
_cell_formula_units_Z 12
_cell_length_a 9.898794
_cell_length_b 9.618955
_cell_length_c 17.630820
_cell_angle_alpha 34.020237
_cell_angle_beta 140.552652
_cell_angle_gamma 137.511660
_cell_volume 573.930599
_symmetry_space_group_name_H-M "P -1"
_symmetry_group_IT_number 2
_symmetry_cell_setting 'triclinic'
loop_
_space_group_symop_operation_xyz
x,y,z
-x,-y,-z
loop_
_atom_site_type_symbol
_atom_site_label
_atom_site_fract_x
_atom_site_fract_y
_atom_site_fract_z
Si Si1 0.620948 0.186735 0.168803
Si Si2 0.904655 0.782154 0.655119
Si Si3 0.393609 0.503379 0.831102
Si Si4 0.237337 0.282337 0.536420
Si Si5 0.667920 0.847249 0.670528
Si Si6 0.060638 0.644287 0.382216
O O1 0.566987 0.273397 0.189643
O O2 0.879194 0.327587 0.196937
O O3 0.583120 0.873983 0.293322
O O4 0.462800 0.257665 0.005617
O O5 0.744294 0.647444 0.577100
O O6 0.770700 0.727526 0.699540
O O7 0.989380 0.091770 0.533370
O O8 0.140695 0.406981 0.740314
O O9 0.546725 0.608671 0.777939
O O10 0.258272 0.540671 0.477653
O O11 0.859158 0.049106 0.708971
O O12 0.500000 0.000000 0.500000
O O13 0.000000 0.500000 0.500000
#
# Coordination Sequence:
#
# PCOD8030629 Si02
#       6
#     2   2   2   2   2   2
#     4   9  19  39  64  85 122 165 188 242 309 349
#     4   9  17  35  62  85 119 155 197 240 293 348
#     4  11  22  39  64  89 119 160 201 239 299 357
#     4   9  16  35  62  83 113 162 194 232 299 347
#     4  12  23  36  62  94 115 155 207 244 290 354
#     4  12  20  38  63  88 122 152 198 253 291 345
#
# _framework density 20.908449999999998
#
# number of rings (size 3 to 8) (size 9 to 14) (size 15 to 20)
#    1.000    0.667    5.000    1.000    0.000    0.667 
#    0.000   10.000    3.667    0.000    0.000    0.000 
#    0.000    0.000    0.000    0.000    0.000    0.000 
#
# Total GULP energy -148752.537716 kJ/mol
# GULP energy per Si atom -12396.044810 kJ/mol
# Density = 2.086086 g / cm^3
# Si number density = 20.908450 Si / 1000 Ang^3
#
#
#
# Elastic Constant Matrix: (Units=GPa)
#
#
# Indices 1 2 3 4 5 6 
#
# 1 127.5036 16.9976 33.6731 -5.5674 -10.7225 -30.4550
# 2 16.9976 48.7102 25.0977 -1.1626 -8.0089 -17.9079
# 3 33.6731 25.0977 133.2860 11.0124 9.2988 -15.6414
# 4 -5.5674 -1.1626 11.0124 16.7042 -6.7420 0.6071
# 5 -10.7225 -8.0089 9.2988 -6.7420 28.2539 -0.6208
# 6 -30.4550 -17.9079 -15.6414 0.6071 -0.6208 33.8648
#
#
#
# Elastic Compliance Matrix: (Units=1/GPa)
#
#
# Indices 1 2 3 4 5 6 
#
# 1 0.012421 0.003830 -0.004117 0.010732 0.009963 0.011285
# 2 0.003830 0.032534 -0.007473 0.014712 0.017025 0.017245
# 3 -0.004117 -0.007473 0.011584 -0.013822 -0.010841 -0.002255
# 4 0.010732 0.014712 -0.013822 0.086826 0.033733 0.010108
# 5 0.009963 0.017025 -0.010841 0.033733 0.055911 0.013376
# 6 0.011285 0.017245 -0.002255 0.010108 0.013376 0.047820
#
#
# Mechanical properties :
#
#
# Convention : Reuss Voigt Hill
#
# Bulk Modulus (GPa) = 24.37915 51.22627 37.80271
# Shear Modulus (GPa) = 18.09695 31.34666 24.72181
#
# Velocity S-wave (km/s) = 2.94519 3.87620 3.44231
# Velocity P-wave (km/s) = 4.82190 6.67732 5.82398
#
# Compressibility (1/GPa) = 0.04101865
#
# Stress axis : x y z
#
# Youngs Moduli (GPa) = 80.50563 30.73706 86.32852
#
# Poissons Ratio (x) = -0.11771 0.35539
# Poissons Ratio (y) = -0.30831 0.64515
# Poissons Ratio (z) = 0.33142 0.22970
#
# Static dielectric constant tensor:
#      x y z
#    x 3.939790 -0.138430 -0.038780 
#    y -0.138430 3.639910 0.100060 
#    z -0.038780 0.100060 3.703420 
# 
# 
# High freq. dielectric constant tensor:
#      x y z
#    x 1.825360 -0.020000 0.001990 
#    y -0.020000 1.793090 0.012170 
#    z 0.001990 0.012170 1.802270 
# 
# From -- ./inp_files/492170.got.cif
#   From: 2010.06.25/outbox.cif.g09.slc.cpg/sg2_247_cif.got.tgz:492170.got - 2010.06.27 13:26:56.
