data_PCOD8030078
_publ_section_title
;
Structure prediction by ZEFSAII (Michael W. Deem and Ramdas Pophale) SiO2 
 PCOD8030078
Probable space group: P -1
;
_chemical_formula_sum "Si O2"
_cell_formula_units_Z 14
_cell_length_a 8.500714
_cell_length_b 8.809205
_cell_length_c 12.871524
_cell_angle_alpha 75.479530
_cell_angle_beta 119.768516
_cell_angle_gamma 129.706769
_cell_volume 640.484441
_symmetry_space_group_name_H-M "P -1"
_symmetry_group_IT_number 2
_symmetry_cell_setting 'triclinic'
loop_
_space_group_symop_operation_xyz
x,y,z
-x,-y,-z
loop_
_atom_site_type_symbol
_atom_site_label
_atom_site_fract_x
_atom_site_fract_y
_atom_site_fract_z
Si Si1 0.418708 0.852307 0.403810
Si Si2 0.162896 0.018692 0.963106
Si Si3 0.932097 0.566598 0.670155
Si Si4 0.444440 0.936591 0.795315
Si Si5 0.771681 0.782139 0.461379
Si Si6 0.123056 0.427594 0.112246
Si Si7 0.380608 0.250283 0.803222
O O1 0.162046 0.646465 0.374859
O O2 0.578196 0.784688 0.451629
O O3 0.500000 0.000000 0.500000
O O4 0.420720 0.964464 0.284429
O O5 0.405296 0.095072 0.077173
O O6 0.217227 0.176238 0.864004
O O7 0.000000 0.000000 0.000000
O O8 0.029198 0.806603 0.902285
O O9 0.804028 0.641445 0.559693
O O10 0.841642 0.509307 0.767690
O O11 0.205827 0.722957 0.727220
O O12 0.402119 0.076487 0.816313
O O13 0.721187 0.714013 0.335934
O O14 0.000000 0.000000 0.500000
O O15 0.375009 0.541310 0.125323
O O16 0.000000 0.500000 0.000000
#
# Coordination Sequence:
#
# PCOD8030078 Si02
#       7
#     2   2   2   2   2   2   2
#     4  11  25  42  65 100 141 170 216 284 333 383
#     4  12  26  44  67 102 135 166 217 290 337 376
#     4  12  22  42  75  98 127 185 228 264 327 401
#     4  11  22  44  68  98 129 178 229 263 328 410
#     4  11  21  42  67  98 131 174 232 265 314 403
#     4  12  22  40  72  96 128 180 224 264 323 402
#     4  11  22  41  69  96 128 177 224 266 319 407
#
# _framework density 21.858453999999998
#
# number of rings (size 3 to 8) (size 9 to 14) (size 15 to 20)
#    0.000    0.571    8.571    1.714    0.000    3.429 
#    0.000    0.000    0.000    0.000    0.000    0.000 
#    0.000    0.000    0.000    0.000    0.000    0.000 
#
# Total GULP energy -173607.946439 kJ/mol
# GULP energy per Si atom -12400.567603 kJ/mol
# Density = 2.180870 g / cm^3
# Si number density = 21.858454 Si / 1000 Ang^3
#
#
#
# Elastic Constant Matrix: (Units=GPa)
#
#
# Indices 1 2 3 4 5 6 
#
# 1 52.2663 22.9013 43.5156 -2.7734 -3.8982 16.4774
# 2 22.9013 139.0154 58.8102 12.7425 4.2136 29.5584
# 3 43.5156 58.8102 152.8144 -9.5106 -1.7315 8.4040
# 4 -2.7734 12.7425 -9.5106 44.8876 13.6869 0.5045
# 5 -3.8982 4.2136 -1.7315 13.6869 31.3637 6.3986
# 6 16.4774 29.5584 8.4040 0.5045 6.3986 32.1756
#
#
#
# Elastic Compliance Matrix: (Units=1/GPa)
#
#
# Indices 1 2 3 4 5 6 
#
# 1 0.031572 0.002361 -0.009024 -0.002851 0.007926 -0.017511
# 2 0.002361 0.011537 -0.004776 -0.004892 0.002870 -0.011054
# 3 -0.009024 -0.004776 0.010792 0.003913 -0.002962 0.006718
# 4 -0.002851 -0.004892 0.003913 0.028289 -0.013281 0.007130
# 5 0.007926 0.002870 -0.002962 -0.013281 0.040942 -0.013855
# 6 -0.017511 -0.011054 0.006718 0.007130 -0.013855 0.051091
#
#
# Mechanical properties :
#
#
# Convention : Reuss Voigt Hill
#
# Bulk Modulus (GPa) = 32.23450 66.06115 49.14783
# Shear Modulus (GPa) = 24.10318 36.27663 30.18990
#
# Velocity S-wave (km/s) = 3.32429 4.07826 3.72042
# Velocity P-wave (km/s) = 5.43263 7.24321 6.40225
#
# Compressibility (1/GPa) = 0.03102266
#
# Stress axis : x y z
#
# Youngs Moduli (GPa) = 31.67401 86.67835 92.66057
#
# Poissons Ratio (x) = -0.20463 0.83613
# Poissons Ratio (y) = -0.07478 0.44257
# Poissons Ratio (z) = 0.28581 0.41400
#
# Static dielectric constant tensor:
#      x y z
#    x 3.447580 0.379880 -0.267860 
#    y 0.379880 3.749520 -0.136820 
#    z -0.267860 -0.136820 3.844470 
# 
# 
# High freq. dielectric constant tensor:
#      x y z
#    x 1.824910 0.031430 0.003220 
#    y 0.031430 1.875700 0.001620 
#    z 0.003220 0.001620 1.880610 
# 
# From -- ./inp_files/185464.got.cif
#   From: 2010.06.25/outbox.cif.g09.slc.cpg/sg2_93_cif.got.tgz:185464.got - 2010.06.27 13:26:56.
