data_PCOD8030702
_publ_section_title
;
Structure prediction by ZEFSAII (Michael W. Deem and Ramdas Pophale) SiO2 
 PCOD8030702
Probable space group: P -1
;
_chemical_formula_sum "Si O2"
_cell_formula_units_Z 16
_cell_length_a 9.474629
_cell_length_b 13.120133
_cell_length_c 15.405447
_cell_angle_alpha 65.394470
_cell_angle_beta 76.228957
_cell_angle_gamma 28.676848
_cell_volume 799.187228
_symmetry_space_group_name_H-M "P -1"
_symmetry_group_IT_number 2
_symmetry_cell_setting 'triclinic'
loop_
_space_group_symop_operation_xyz
x,y,z
-x,-y,-z
loop_
_atom_site_type_symbol
_atom_site_label
_atom_site_fract_x
_atom_site_fract_y
_atom_site_fract_z
Si Si1 0.814118 0.074683 0.778529
Si Si2 0.043171 0.362365 0.681922
Si Si3 0.232025 0.489593 0.830796
Si Si4 0.221866 0.009746 0.716790
Si Si5 0.772067 0.389056 0.037319
Si Si6 0.700174 0.008266 0.661789
Si Si7 0.549550 0.099240 0.462626
Si Si8 0.103639 0.500403 0.149470
O O1 0.495855 0.326629 0.778922
O O2 0.760834 0.078549 0.684227
O O3 0.056884 0.009021 0.770462
O O4 0.943044 0.882054 0.881664
O O5 0.015288 0.253017 0.693850
O O6 0.360528 0.195593 0.661778
O O7 0.777521 0.617017 0.587973
O O8 0.026343 0.375081 0.783058
O O9 0.351119 0.459652 0.914518
O O10 0.132808 0.428338 0.882192
O O11 0.936140 0.751851 0.743487
O O12 0.248585 0.996131 0.613795
O O13 0.557142 0.783574 0.792096
O O14 0.500000 0.500000 0.000000
O O15 0.899579 0.387508 0.948321
O O16 0.734236 0.009327 0.553975
O O17 0.500000 0.000000 0.500000
#
# Coordination Sequence:
#
# PCOD8030702 Si02
#       8
#     2   2   2   2   2   2   2   2
#     4  11  26  43  64  95 133 172 208 265 331 369
#     4  11  22  39  71  96 125 172 215 259 315 380
#     4  11  24  42  66  94 130 170 212 268 319 375
#     4  11  24  41  65  97 130 170 213 263 319 377
#     4  11  25  43  66  95 131 167 217 266 318 387
#     4  11  22  42  65  94 133 167 213 266 314 381
#     4  11  23  39  70 100 126 164 220 263 311 380
#     4  11  22  43  66  95 129 168 218 265 313 378
#
# _framework density 20.020340000000001
#
# number of rings (size 3 to 8) (size 9 to 14) (size 15 to 20)
#    0.000    1.000    5.000    1.500    1.750    3.500 
#    0.000    1.250    0.000    0.000    0.000    0.000 
#    0.000    0.000    0.000    0.000    0.000    0.000 
#
# Total GULP energy -198478.607678 kJ/mol
# GULP energy per Si atom -12404.912980 kJ/mol
# Density = 1.997477 g / cm^3
# Si number density = 20.020340 Si / 1000 Ang^3
#
#
#
# Elastic Constant Matrix: (Units=GPa)
#
#
# Indices 1 2 3 4 5 6 
#
# 1 120.7430 47.3770 48.7684 13.5225 6.8578 4.5020
# 2 47.3770 49.3808 21.2114 16.4192 -5.7387 26.1339
# 3 48.7684 21.2114 109.4860 7.4551 5.1920 14.2123
# 4 13.5225 16.4192 7.4551 13.5599 3.1970 -6.2277
# 5 6.8578 -5.7387 5.1920 3.1970 38.6095 6.5149
# 6 4.5020 26.1339 14.2123 -6.2277 6.5149 26.6454
#
#
#
# Elastic Compliance Matrix: (Units=1/GPa)
#
#
# Indices 1 2 3 4 5 6 
#
# 1 0.009631 0.006178 -0.002535 -0.022192 0.003473 -0.012370
# 2 0.006178 -0.026509 -0.006343 0.053870 -0.016221 0.044896
# 3 -0.002535 -0.006343 0.010791 0.006420 -0.003003 0.003129
# 4 -0.022192 0.053870 0.006420 -0.004998 0.021441 -0.058921
# 5 0.003473 -0.016221 -0.003003 0.021441 0.018565 0.017397
# 6 -0.012370 0.044896 0.003129 -0.058921 0.017397 -0.024108
#
#
# Mechanical properties :
#
#
# Convention : Reuss Voigt Hill
#
# Bulk Modulus (GPa) = -87.05457 57.14705 -14.95376
# Shear Modulus (GPa) = -332.05594 26.57982 -152.73806
#
# Velocity S-wave (km/s) = -12.89261 3.64763 -8.74397
# Velocity P-wave (km/s) = 16.28506 6.80785 10.46080
#
# Compressibility (1/GPa) = -0.01148705
#
# Stress axis : x y z
#
# Youngs Moduli (GPa) = 103.83013 -37.72261 92.67359
#
# Poissons Ratio (x) = 0.23304 0.23490
# Poissons Ratio (y) = -0.64143 0.58781
# Poissons Ratio (z) = 0.26318 -0.23927
#
# Static dielectric constant tensor:
#      x y z
#    x 3.709120 0.263260 0.184090 
#    y 0.263260 3.934410 0.262570 
#    z 0.184090 0.262570 4.021610 
# 
# 
# High freq. dielectric constant tensor:
#      x y z
#    x 1.783500 0.009870 0.003360 
#    y 0.009870 1.790250 0.004200 
#    z 0.003360 0.004200 1.787340 
# 
# From -- ./inp_files/37244.got.cif
#   From: 2010.06.25/outbox.cif.g09.slc.cpg/sg2_19_cif.got.tgz:37244.got - 2010.06.27 13:26:56.
