data_PCOD8030280
_publ_section_title
;
Structure prediction by ZEFSAII (Michael W. Deem and Ramdas Pophale) SiO2 
 PCOD8030280
Probable space group: P -1
;
_chemical_formula_sum "Si O2"
_cell_formula_units_Z 16
_cell_length_a 9.507038
_cell_length_b 22.064335
_cell_length_c 6.653499
_cell_angle_alpha 109.718484
_cell_angle_beta 129.816233
_cell_angle_gamma 42.683412
_cell_volume 702.555951
_symmetry_space_group_name_H-M "P -1"
_symmetry_group_IT_number 2
_symmetry_cell_setting 'triclinic'
loop_
_space_group_symop_operation_xyz
x,y,z
-x,-y,-z
loop_
_atom_site_type_symbol
_atom_site_label
_atom_site_fract_x
_atom_site_fract_y
_atom_site_fract_z
Si Si1 0.059246 0.724791 0.815132
Si Si2 0.645035 0.599296 0.117942
Si Si3 0.624335 0.697402 0.876936
Si Si4 0.159786 0.807540 0.266222
Si Si5 0.518596 0.921479 0.485591
Si Si6 0.716284 0.142077 0.963816
Si Si7 0.049951 0.388362 0.292305
Si Si8 0.125053 0.030667 0.552316
O O1 0.811048 0.822682 0.596153
O O2 0.009400 0.661586 0.698350
O O3 0.331440 0.670279 0.889860
O O4 0.085045 0.752711 0.086886
O O5 0.725434 0.625802 0.407385
O O6 0.780422 0.496281 0.155407
O O7 0.728267 0.608061 0.990159
O O8 0.374616 0.748496 0.567634
O O9 0.861508 0.656496 0.899460
O O10 0.545627 0.769679 0.054246
O O11 0.260613 0.822060 0.179381
O O12 0.900244 0.906892 0.234482
O O13 0.318697 0.925173 0.186029
O O14 0.500000 0.000000 0.500000
O O15 0.426935 0.941128 0.660091
O O16 0.974311 0.087987 0.272575
O O17 0.000000 0.000000 0.500000
#
# Coordination Sequence:
#
# PCOD8030280 Si02
#       8
#     2   2   2   2   2   2   2   2
#     4  12  25  46  70 100 149 180 233 287 356 412
#     4  11  24  48  74 101 146 182 226 296 349 422
#     4  11  21  43  75 101 134 183 232 281 352 418
#     4  11  23  43  70  97 136 187 226 286 351 408
#     4  12  27  42  66 107 139 186 237 290 348 409
#     4  11  23  45  70  95 142 187 228 287 353 406
#     4  11  25  46  74 108 135 185 236 282 360 420
#     4  11  25  42  72  95 133 190 240 284 344 413
#
# _framework density 22.773987999999999
#
# number of rings (size 3 to 8) (size 9 to 14) (size 15 to 20)
#    0.000    0.750    3.750    3.375    5.250    1.500 
#    2.250    0.625    0.000    0.000    0.000    0.000 
#    0.000    0.000    0.000    0.000    0.000    0.000 
#
# Total GULP energy -198281.070294 kJ/mol
# GULP energy per Si atom -12392.566893 kJ/mol
# Density = 2.272215 g / cm^3
# Si number density = 22.773988 Si / 1000 Ang^3
#
#
#
# Elastic Constant Matrix: (Units=GPa)
#
#
# Indices 1 2 3 4 5 6 
#
# 1 85.4807 24.9296 25.8661 -0.3845 2.0171 -0.0584
# 2 24.9296 108.6117 27.6293 4.6936 3.8575 14.3498
# 3 25.8661 27.6293 61.9972 2.6714 -10.9356 0.6254
# 4 -0.3845 4.6936 2.6714 44.3721 1.7235 -1.9712
# 5 2.0171 3.8575 -10.9356 1.7235 34.9129 1.1442
# 6 -0.0584 14.3498 0.6254 -1.9712 1.1442 48.2392
#
#
#
# Elastic Compliance Matrix: (Units=1/GPa)
#
#
# Indices 1 2 3 4 5 6 
#
# 1 0.013950 -0.001861 -0.005449 0.000770 -0.002369 0.000729
# 2 -0.001861 0.011386 -0.004654 -0.000992 -0.002451 -0.003311
# 3 -0.005449 -0.004654 0.021877 -0.001133 0.007709 0.000865
# 4 0.000770 -0.000992 -0.001133 0.022830 -0.001459 0.001278
# 5 -0.002369 -0.002451 0.007709 -0.001459 0.031543 -0.000182
# 6 0.000729 -0.003311 0.000865 0.001278 -0.000182 0.021761
#
#
# Mechanical properties :
#
#
# Convention : Reuss Voigt Hill
#
# Bulk Modulus (GPa) = 42.94655 45.88218 44.41436
# Shear Modulus (GPa) = 32.25052 37.34914 34.79983
#
# Velocity S-wave (km/s) = 3.76721 4.05407 3.91327
# Velocity P-wave (km/s) = 6.14989 6.48880 6.32162
#
# Compressibility (1/GPa) = 0.02328476
#
# Stress axis : x y z
#
# Youngs Moduli (GPa) = 71.68407 87.83092 45.71010
#
# Poissons Ratio (x) = 0.16347 0.24908
# Poissons Ratio (y) = 0.13342 0.21272
# Poissons Ratio (z) = 0.39062 0.40873
#
# Static dielectric constant tensor:
#      x y z
#    x 4.132160 -0.381350 -0.106990 
#    y -0.381350 4.807630 0.208860 
#    z -0.106990 0.208860 4.182920 
# 
# 
# High freq. dielectric constant tensor:
#      x y z
#    x 1.888430 -0.009930 -0.005770 
#    y -0.009930 1.920950 0.004330 
#    z -0.005770 0.004330 1.887190 
# 
# From -- ./inp_files/53313.got.cif
#   From: 2010.06.25/outbox.cif.g09.slc.cpg/sg2_27_cif.got.tgz:53313.got - 2010.06.27 13:26:56.
