data_PCOD8030621
_publ_section_title
;
Structure prediction by ZEFSAII (Michael W. Deem and Ramdas Pophale) SiO2 
 PCOD8030621
Probable space group: P -1
;
_chemical_formula_sum "Si O2"
_cell_formula_units_Z 16
_cell_length_a 13.516080
_cell_length_b 8.838452
_cell_length_c 14.545473
_cell_angle_alpha 83.025279
_cell_angle_beta 136.612610
_cell_angle_gamma 63.906844
_cell_volume 749.484115
_symmetry_space_group_name_H-M "P -1"
_symmetry_group_IT_number 2
_symmetry_cell_setting 'triclinic'
loop_
_space_group_symop_operation_xyz
x,y,z
-x,-y,-z
loop_
_atom_site_type_symbol
_atom_site_label
_atom_site_fract_x
_atom_site_fract_y
_atom_site_fract_z
Si Si1 0.584171 0.640352 0.249681
Si Si2 0.191120 0.055171 0.395012
Si Si3 0.267763 0.894699 0.269669
Si Si4 0.730793 0.311969 0.869871
Si Si5 0.475064 0.983965 0.281603
Si Si6 0.471664 0.703240 0.969535
Si Si7 0.265271 0.426687 0.022462
Si Si8 0.970622 0.081713 0.576464
O O1 0.339665 0.763917 0.100089
O O2 0.779221 0.366165 0.436046
O O3 0.610368 0.777070 0.311227
O O4 0.598643 0.661858 0.149150
O O5 0.329659 0.851196 0.422855
O O6 0.345881 0.047352 0.552224
O O7 0.085159 0.020015 0.393860
O O8 0.990775 0.316142 0.191939
O O9 0.363251 0.665816 0.296480
O O10 0.365366 0.968372 0.285699
O O11 0.998461 0.110874 0.060128
O O12 0.628477 0.553306 0.824519
O O13 0.273941 0.246386 0.077856
O O14 0.577432 0.692511 0.952059
O O15 0.500000 0.500000 0.000000
O O16 0.206110 0.963922 0.777557
O O17 0.000000 0.000000 0.500000
#
# Coordination Sequence:
#
# PCOD8030621 Si02
#       8
#     2   2   2   2   2   2   2   2
#     4  11  23  40  61  93 124 160 200 255 304 357
#     4  11  22  39  63  91 122 160 205 248 306 368
#     4   9  20  38  62  90 119 162 206 254 301 354
#     4   9  17  37  63  87 116 152 210 253 292 344
#     4  11  25  41  58  87 134 163 197 247 310 368
#     4  12  20  39  68  92 118 154 208 254 297 359
#     4  11  22  40  64  91 121 164 201 249 310 362
#     4  12  22  39  68  92 117 156 207 257 304 352
#
# _framework density 21.348019000000001
#
# number of rings (size 3 to 8) (size 9 to 14) (size 15 to 20)
#    0.000    1.250    3.750    2.625    0.000    3.500 
#    0.000   12.500    0.000    0.000    0.000    0.000 
#    0.000    0.000    0.000    0.000    0.000    0.000 
#
# Total GULP energy -198336.889769 kJ/mol
# GULP energy per Si atom -12396.055611 kJ/mol
# Density = 2.129943 g / cm^3
# Si number density = 21.348019 Si / 1000 Ang^3
#
#
#
# Elastic Constant Matrix: (Units=GPa)
#
#
# Indices 1 2 3 4 5 6 
#
# 1 77.3340 30.1062 9.2099 3.9499 -1.6921 -22.8593
# 2 30.1062 136.9713 36.8997 14.6150 -13.9076 -17.9376
# 3 9.2099 36.8997 74.1834 0.8872 -1.4621 -3.0772
# 4 3.9499 14.6150 0.8872 29.1780 -2.0716 -10.3707
# 5 -1.6921 -13.9076 -1.4621 -2.0716 29.6240 3.7587
# 6 -22.8593 -17.9376 -3.0772 -10.3707 3.7587 31.4069
#
#
#
# Elastic Compliance Matrix: (Units=1/GPa)
#
#
# Indices 1 2 3 4 5 6 
#
# 1 0.017478 -0.002605 -0.000428 0.003268 -0.001599 0.012461
# 2 -0.002605 0.010105 -0.004510 -0.003672 0.003893 0.001755
# 3 -0.000428 -0.004510 0.015706 0.001503 -0.001171 -0.000711
# 4 0.003268 -0.003672 0.001503 0.040520 -0.000387 0.013855
# 5 -0.001599 0.003893 -0.001171 -0.000387 0.035849 -0.003473
# 6 0.012461 0.001755 -0.000711 0.013855 -0.003473 0.046833
#
#
# Mechanical properties :
#
#
# Convention : Reuss Voigt Hill
#
# Bulk Modulus (GPa) = 35.45650 48.99115 42.22383
# Shear Modulus (GPa) = 26.18110 32.19331 29.18721
#
# Velocity S-wave (km/s) = 3.50579 3.88754 3.70159
# Velocity P-wave (km/s) = 5.74737 6.56881 6.17177
#
# Compressibility (1/GPa) = 0.02820357
#
# Stress axis : x y z
#
# Youngs Moduli (GPa) = 57.21558 98.95841 63.67106
#
# Poissons Ratio (x) = 0.25783 0.02722
# Poissons Ratio (y) = 0.14907 0.28713
# Poissons Ratio (z) = 0.02446 0.44626
#
# Static dielectric constant tensor:
#      x y z
#    x 4.127230 -0.414510 -0.127300 
#    y -0.414510 4.349010 0.154560 
#    z -0.127300 0.154560 3.927770 
# 
# 
# High freq. dielectric constant tensor:
#      x y z
#    x 1.841260 -0.020430 -0.001110 
#    y -0.020430 1.845800 0.007620 
#    z -0.001110 0.007620 1.827150 
# 
# From -- ./inp_files/304563.got.cif
#   From: 2010.06.25/outbox.cif.g09.slc.cpg/sg2_153_cif.got.tgz:304563.got - 2010.06.27 13:26:56.
