data_PCOD8030820
_publ_section_title
;
Structure prediction by ZEFSAII (Michael W. Deem and Ramdas Pophale) SiO2 
 PCOD8030820
Probable space group: P -1
;
_chemical_formula_sum "Si O2"
_cell_formula_units_Z 16
_cell_length_a 21.094189
_cell_length_b 17.778244
_cell_length_c 11.640986
_cell_angle_alpha 149.072317
_cell_angle_beta 139.881589
_cell_angle_gamma 19.584253
_cell_volume 727.731353
_symmetry_space_group_name_H-M "P -1"
_symmetry_group_IT_number 2
_symmetry_cell_setting 'triclinic'
loop_
_space_group_symop_operation_xyz
x,y,z
-x,-y,-z
loop_
_atom_site_type_symbol
_atom_site_label
_atom_site_fract_x
_atom_site_fract_y
_atom_site_fract_z
Si Si1 0.398568 0.286991 0.229628
Si Si2 0.016112 0.906233 0.598011
Si Si3 0.737376 0.204979 0.061672
Si Si4 0.069049 0.112439 0.313412
Si Si5 0.453114 0.824110 0.140771
Si Si6 0.419320 0.843277 0.471796
Si Si7 0.351143 0.263423 0.507291
Si Si8 0.379259 0.522424 0.307188
O O1 0.171188 0.582992 0.345683
O O2 0.535058 0.208252 0.397897
O O3 0.408993 0.339941 0.186191
O O4 0.500000 0.000000 0.000000
O O5 0.145907 0.882546 0.780064
O O6 0.890381 0.024316 0.691020
O O7 0.854051 0.143873 0.585960
O O8 0.542553 0.545880 0.206241
O O9 0.685022 0.102181 0.876739
O O10 0.874946 0.047114 0.933488
O O11 0.841737 0.435449 0.427064
O O12 0.191835 0.105366 0.478614
O O13 0.621927 0.684295 0.267253
O O14 0.328570 0.118847 0.303631
O O15 0.543491 0.609207 0.885112
O O16 0.474192 0.921052 0.580938
O O17 0.500000 0.500000 0.500000
#
# Coordination Sequence:
#
# PCOD8030820 Si02
#       8
#     2   2   2   2   2   2   2   2
#     4  11  24  46  69  94 138 186 226 287 344 400
#     4  11  24  42  70 105 134 176 246 280 340 413
#     4  11  22  40  70 101 137 175 224 281 347 413
#     4  12  22  39  71 102 135 178 224 280 351 408
#     4  11  25  44  66 100 143 180 223 281 358 404
#     4  11  23  43  69 101 133 176 233 281 338 417
#     4  11  24  45  66  99 145 177 222 285 352 420
#     4  12  25  45  70  97 139 186 234 290 338 400
#
# _framework density 21.986136999999999
#
# number of rings (size 3 to 8) (size 9 to 14) (size 15 to 20)
#    0.000    0.750    3.750    5.625    1.750    0.500 
#    6.750    1.250    0.000    0.000    0.000    0.000 
#    0.000    0.000    0.000    0.000    0.000    0.000 
#
# Total GULP energy -198379.798320 kJ/mol
# GULP energy per Si atom -12398.737395 kJ/mol
# Density = 2.193610 g / cm^3
# Si number density = 21.986137 Si / 1000 Ang^3
#
#
#
# Elastic Constant Matrix: (Units=GPa)
#
#
# Indices 1 2 3 4 5 6 
#
# 1 110.0636 15.4529 30.2450 7.2332 13.6863 -0.0409
# 2 15.4529 93.3939 38.9249 -3.7294 1.7172 2.9020
# 3 30.2450 38.9249 94.2381 3.2355 9.9719 -3.2074
# 4 7.2332 -3.7294 3.2355 19.5886 3.0357 4.0946
# 5 13.6863 1.7172 9.9719 3.0357 40.0936 -0.2332
# 6 -0.0409 2.9020 -3.2074 4.0946 -0.2332 35.9550
#
#
#
# Elastic Compliance Matrix: (Units=1/GPa)
#
#
# Indices 1 2 3 4 5 6 
#
# 1 0.010455 -0.000700 -0.002673 -0.003181 -0.002632 0.000175
# 2 -0.000700 0.013359 -0.005579 0.004034 0.000737 -0.002031
# 3 -0.002673 -0.005579 0.014156 -0.002491 -0.002169 0.001980
# 4 -0.003181 0.004034 -0.002491 0.055255 -0.002691 -0.006861
# 5 -0.002632 0.000737 -0.002169 -0.002691 0.026553 0.000223
# 6 0.000175 -0.002031 0.001980 -0.006861 0.000223 0.028936
#
#
# Mechanical properties :
#
#
# Convention : Reuss Voigt Hill
#
# Bulk Modulus (GPa) = 49.83343 51.88238 50.85790
# Shear Modulus (GPa) = 28.85068 33.33229 31.09148
#
# Velocity S-wave (km/s) = 3.62639 3.89788 3.76459
# Velocity P-wave (km/s) = 6.34423 6.62624 6.48677
#
# Compressibility (1/GPa) = 0.02006685
#
# Stress axis : x y z
#
# Youngs Moduli (GPa) = 95.65003 74.85610 70.64168
#
# Poissons Ratio (x) = 0.05240 0.18879
# Poissons Ratio (y) = 0.06696 0.39410
# Poissons Ratio (z) = 0.25563 0.41761
#
# Static dielectric constant tensor:
#      x y z
#    x 4.079450 0.094610 -0.113370 
#    y 0.094610 3.974960 -0.111640 
#    z -0.113370 -0.111640 3.888820 
# 
# 
# High freq. dielectric constant tensor:
#      x y z
#    x 1.875500 0.007040 -0.006870 
#    y 0.007040 1.867410 -0.013200 
#    z -0.006870 -0.013200 1.849450 
# 
# From -- ./inp_files/472513.got.cif
#   From: 2010.06.25/outbox.cif.g09.slc.cpg/sg2_237_cif.got.tgz:472513.got - 2010.06.27 13:26:56.
