data_PCOD8030284
_publ_section_title
;
Structure prediction by ZEFSAII (Michael W. Deem and Ramdas Pophale) SiO2 
 PCOD8030284
Probable space group: P -1
;
_chemical_formula_sum "Si O2"
_cell_formula_units_Z 16
_cell_length_a 15.320290
_cell_length_b 9.655246
_cell_length_c 11.092663
_cell_angle_alpha 105.719181
_cell_angle_beta 60.591909
_cell_angle_gamma 54.628960
_cell_volume 727.152860
_symmetry_space_group_name_H-M "P -1"
_symmetry_group_IT_number 2
_symmetry_cell_setting 'triclinic'
loop_
_space_group_symop_operation_xyz
x,y,z
-x,-y,-z
loop_
_atom_site_type_symbol
_atom_site_label
_atom_site_fract_x
_atom_site_fract_y
_atom_site_fract_z
Si Si1 0.025742 0.301295 0.956108
Si Si2 0.103832 0.223392 0.363097
Si Si3 0.765972 0.397196 0.050236
Si Si4 0.595262 0.248595 0.515145
Si Si5 0.887223 0.279405 0.669400
Si Si6 0.588402 0.586425 0.571980
Si Si7 0.015928 0.155736 0.169678
Si Si8 0.492289 0.177926 0.074606
O O1 0.831799 0.455303 0.094562
O O2 0.184980 0.059937 0.694101
O O3 0.084718 0.181187 0.023692
O O4 0.000000 0.500000 0.000000
O O5 0.030899 0.217882 0.300260
O O6 0.000000 0.500000 0.500000
O O7 0.034740 0.229119 0.533164
O O8 0.330429 0.962960 0.145321
O O9 0.823561 0.355536 0.866392
O O10 0.853353 0.145858 0.990618
O O11 0.537437 0.666124 0.275125
O O12 0.578054 0.438450 0.595230
O O13 0.531746 0.263662 0.432596
O O14 0.701776 0.515833 0.767561
O O15 0.000000 0.000000 0.500000
O O16 0.497037 0.805499 0.784865
O O17 0.801545 0.369318 0.343479
O O18 0.500000 0.000000 0.000000
#
# Coordination Sequence:
#
# PCOD8030284 Si02
#       8
#     2   2   2   2   2   2   2   2
#     4  12  28  45  69 106 143 184 232 300 363 424
#     4  12  25  46  74 105 147 194 236 298 368 424
#     4  12  25  47  71 101 143 185 240 295 351 428
#     4  11  24  43  72 106 135 185 239 296 354 425
#     4  12  27  47  70 109 145 190 246 298 352 433
#     4  11  21  43  78 104 135 185 246 288 353 434
#     4  12  22  49  74 100 142 188 234 291 359 430
#     4  12  25  47  74 107 144 196 243 298 367 433
#
# _framework density 22.003626000000001
#
# number of rings (size 3 to 8) (size 9 to 14) (size 15 to 20)
#    0.000    0.250    6.250    3.375    1.750    3.000 
#    2.250    0.000    0.000    0.000    0.000    0.000 
#    0.000    0.000    0.000    0.000    0.000    0.000 
#
# Total GULP energy -198425.369602 kJ/mol
# GULP energy per Si atom -12401.585600 kJ/mol
# Density = 2.195354 g / cm^3
# Si number density = 22.003626 Si / 1000 Ang^3
#
#
#
# Elastic Constant Matrix: (Units=GPa)
#
#
# Indices 1 2 3 4 5 6 
#
# 1 102.8653 33.1322 32.6923 -4.3188 2.9105 23.7055
# 2 33.1322 109.9467 41.7333 -21.6928 3.8273 22.9691
# 3 32.6923 41.7333 155.5145 -24.3794 -19.4986 13.4027
# 4 -4.3188 -21.6928 -24.3794 40.5617 1.5180 -2.6841
# 5 2.9105 3.8273 -19.4986 1.5180 51.1123 0.4361
# 6 23.7055 22.9691 13.4027 -2.6841 0.4361 32.0161
#
#
#
# Elastic Compliance Matrix: (Units=1/GPa)
#
#
# Indices 1 2 3 4 5 6 
#
# 1 0.012552 -0.001720 -0.001875 -0.001152 -0.001204 -0.007355
# 2 -0.001720 0.012800 -0.001905 0.005140 -0.001683 -0.006659
# 3 -0.001875 -0.001905 0.008369 0.003655 0.003338 -0.000488
# 4 -0.001152 0.005140 0.003655 0.029342 0.000220 -0.001908
# 5 -0.001204 -0.001683 0.003338 0.000220 0.021022 0.000434
# 6 -0.007355 -0.006659 -0.000488 -0.001908 0.000434 0.041496
#
#
# Mechanical properties :
#
#
# Convention : Reuss Voigt Hill
#
# Bulk Modulus (GPa) = 44.00880 64.82690 54.41785
# Shear Modulus (GPa) = 34.68493 42.12261 38.40377
#
# Velocity S-wave (km/s) = 3.97461 4.38007 4.18226
# Velocity P-wave (km/s) = 6.41151 7.42334 6.93590
#
# Compressibility (1/GPa) = 0.02272273
#
# Stress axis : x y z
#
# Youngs Moduli (GPa) = 79.66893 78.12241 119.48806
#
# Poissons Ratio (x) = 0.13433 0.22402
# Poissons Ratio (y) = 0.13699 0.22762
# Poissons Ratio (z) = 0.14937 0.14882
#
# Static dielectric constant tensor:
#      x y z
#    x 4.123670 0.044730 -0.150630 
#    y 0.044730 3.838890 -0.108380 
#    z -0.150630 -0.108380 4.327230 
# 
# 
# High freq. dielectric constant tensor:
#      x y z
#    x 1.876200 0.010440 -0.008770 
#    y 0.010440 1.843500 -0.008180 
#    z -0.008770 -0.008180 1.893390 
# 
# From -- ./inp_files/399422.got.cif
#   From: 2010.06.25/outbox.cif.g09.slc.cpg/sg2_200_cif.got.tgz:399422.got - 2010.06.27 13:26:56.
