data_PCOD8030242
_publ_section_title
;
Structure prediction by ZEFSAII (Michael W. Deem and Ramdas Pophale) SiO2 
 PCOD8030242
Probable space group: P -1
;
_chemical_formula_sum "Si O2"
_cell_formula_units_Z 16
_cell_length_a 18.610852
_cell_length_b 9.438411
_cell_length_c 6.669033
_cell_angle_alpha 127.786689
_cell_angle_beta 110.680159
_cell_angle_gamma 53.016296
_cell_volume 739.315849
_symmetry_space_group_name_H-M "P -1"
_symmetry_group_IT_number 2
_symmetry_cell_setting 'triclinic'
loop_
_space_group_symop_operation_xyz
x,y,z
-x,-y,-z
loop_
_atom_site_type_symbol
_atom_site_label
_atom_site_fract_x
_atom_site_fract_y
_atom_site_fract_z
Si Si1 0.998046 0.694035 0.264222
Si Si2 0.356688 0.283222 0.041977
Si Si3 0.825583 0.325645 0.677445
Si Si4 0.433229 0.474410 0.553454
Si Si5 0.656180 0.069627 0.085974
Si Si6 0.832461 0.015541 0.132667
Si Si7 0.510115 0.794079 0.241258
Si Si8 0.925357 0.971592 0.792304
O O1 0.099528 0.634457 0.299325
O O2 0.927284 0.890413 0.233286
O O3 0.969139 0.750626 0.519740
O O4 0.000000 0.500000 0.000000
O O5 0.253211 0.465185 0.113030
O O6 0.408801 0.308927 0.301712
O O7 0.403588 0.300362 0.902957
O O8 0.364534 0.056682 0.875467
O O9 0.790897 0.250499 0.387374
O O10 0.867230 0.157712 0.746853
O O11 0.500000 0.500000 0.500000
O O12 0.350463 0.714165 0.668629
O O13 0.472266 0.385895 0.736321
O O14 0.762507 0.932832 0.014823
O O15 0.584717 0.135831 0.894325
O O16 0.853353 0.987958 0.894647
O O17 0.500000 0.000000 0.500000
O O18 0.000000 0.000000 0.000000
#
# Coordination Sequence:
#
# PCOD8030242 Si02
#       8
#     2   2   2   2   2   2   2   2
#     4  11  23  43  65  98 140 181 230 290 354 422
#     4  12  26  46  70 102 138 188 232 296 352 416
#     4  11  23  42  70  96 138 180 235 288 353 425
#     4  12  25  45  74  97 137 187 231 288 358 415
#     4  12  25  46  71 100 142 181 236 295 351 420
#     4  11  23  43  69 100 134 182 236 285 356 422
#     4  12  26  48  71 104 142 185 237 290 355 428
#     4  11  21  43  71  94 134 190 232 289 354 423
#
# _framework density 21.641629999999999
#
# number of rings (size 3 to 8) (size 9 to 14) (size 15 to 20)
#    0.000    0.500    6.250    3.000    1.750    0.500 
#    6.750    0.000    0.000    0.000    0.000    0.000 
#    0.000    0.000    0.000    0.000    0.000    0.000 
#
# Total GULP energy -198213.759692 kJ/mol
# GULP energy per Si atom -12388.359981 kJ/mol
# Density = 2.159237 g / cm^3
# Si number density = 21.641630 Si / 1000 Ang^3
#
#
#
# Elastic Constant Matrix: (Units=GPa)
#
#
# Indices 1 2 3 4 5 6 
#
# 1 157.1055 42.6210 51.9736 -12.4035 -5.2380 -0.9705
# 2 42.6210 87.1133 42.6810 -0.5560 -11.4282 6.5813
# 3 51.9736 42.6810 134.8796 3.6286 -15.0682 7.5185
# 4 -12.4035 -0.5560 3.6286 32.4324 10.7136 -4.0839
# 5 -5.2380 -11.4282 -15.0682 10.7136 28.1065 1.9827
# 6 -0.9705 6.5813 7.5185 -4.0839 1.9827 37.8877
#
#
#
# Elastic Compliance Matrix: (Units=1/GPa)
#
#
# Indices 1 2 3 4 5 6 
#
# 1 0.008488 -0.003320 -0.002831 0.004847 -0.003278 0.002050
# 2 -0.003320 0.015352 -0.002738 -0.002849 0.005439 -0.002800
# 3 -0.002831 -0.002738 0.010268 -0.004480 0.005742 -0.002418
# 4 0.004847 -0.002849 -0.004480 0.040077 -0.018413 0.006792
# 5 -0.003278 0.005439 0.005742 -0.018413 0.047746 -0.006652
# 6 0.002050 -0.002800 -0.002418 0.006792 -0.006652 0.028493
#
#
# Mechanical properties :
#
#
# Convention : Reuss Voigt Hill
#
# Bulk Modulus (GPa) = 61.23709 72.62773 66.93241
# Shear Modulus (GPa) = 28.79410 35.80683 32.30046
#
# Velocity S-wave (km/s) = 3.65155 4.07201 3.86750
# Velocity P-wave (km/s) = 6.79234 7.46595 7.13710
#
# Compressibility (1/GPa) = 0.01632997
#
# Stress axis : x y z
#
# Youngs Moduli (GPa) = 117.80659 65.13737 97.38725
#
# Poissons Ratio (x) = 0.21625 0.27573
# Poissons Ratio (y) = 0.39111 0.26668
# Poissons Ratio (z) = 0.33354 0.17837
#
# Static dielectric constant tensor:
#      x y z
#    x 1.721090 0.181020 -0.413720 
#    y 0.181020 2.743210 -0.615370 
#    z -0.413720 -0.615370 3.736250 
# 
# 
# High freq. dielectric constant tensor:
#      x y z
#    x 1.870420 -0.008940 -0.000360 
#    y -0.008940 1.840080 0.008920 
#    z -0.000360 0.008920 1.856360 
# 
# From -- ./inp_files/107630.got.cif
#   From: 2010.06.25/outbox.cif.g09.slc.cpg/sg2_54_cif.got.tgz:107630.got - 2010.06.27 13:26:56.
