data_PCOD8030294
_publ_section_title
;
Structure prediction by ZEFSAII (Michael W. Deem and Ramdas Pophale) SiO2 
 PCOD8030294
Probable space group: P -1
;
_chemical_formula_sum "Si O2"
_cell_formula_units_Z 16
_cell_length_a 15.280994
_cell_length_b 8.168741
_cell_length_c 10.907406
_cell_angle_alpha 36.563638
_cell_angle_beta 73.513946
_cell_angle_gamma 85.890018
_cell_volume 748.075534
_symmetry_space_group_name_H-M "P -1"
_symmetry_group_IT_number 2
_symmetry_cell_setting 'triclinic'
loop_
_space_group_symop_operation_xyz
x,y,z
-x,-y,-z
loop_
_atom_site_type_symbol
_atom_site_label
_atom_site_fract_x
_atom_site_fract_y
_atom_site_fract_z
Si Si1 0.345804 0.399658 0.430645
Si Si2 0.131699 0.339398 0.965268
Si Si3 0.171314 0.900885 0.754137
Si Si4 0.684218 0.591811 0.294659
Si Si5 0.569967 0.056908 0.054562
Si Si6 0.486728 0.852208 0.461655
Si Si7 0.027804 0.720612 0.111570
Si Si8 0.009961 0.117784 0.561576
O O1 0.306480 0.499377 0.512795
O O2 0.450711 0.370836 0.432715
O O3 0.277338 0.103145 0.589101
O O4 0.355172 0.634043 0.179690
O O5 0.178275 0.604511 0.873394
O O6 0.211078 0.288061 0.873759
O O7 0.046426 0.423343 0.878523
O O8 0.087038 0.043884 0.232830
O O9 0.102451 0.056047 0.619964
O O10 0.134058 0.828511 0.951254
O O11 0.623583 0.318454 0.407101
O O12 0.631842 0.836820 0.165327
O O13 0.516778 0.059172 0.205560
O O14 0.500000 0.000000 0.000000
O O15 0.500000 0.000000 0.500000
O O16 0.022185 0.459927 0.364628
O O17 0.000000 0.000000 0.000000
O O18 0.000000 0.000000 0.500000
#
# Coordination Sequence:
#
# PCOD8030294 Si02
#       8
#     2   2   2   2   2   2   2   2
#     4  11  23  42  65  94 130 173 222 274 338 404
#     4  11  23  40  63  96 127 172 226 277 335 398
#     4  11  23  40  65  94 129 170 226 280 334 398
#     4  11  23  41  65  92 133 172 219 278 341 403
#     4  11  21  45  68  90 133 180 219 274 339 403
#     4  11  23  42  66  94 130 171 217 278 340 402
#     4  11  23  41  65  92 130 173 218 276 336 403
#     4  11  21  44  67  89 134 179 217 276 347 395
#
# _framework density 21.388214000000001
#
# number of rings (size 3 to 8) (size 9 to 14) (size 15 to 20)
#    0.000    1.000    5.000    3.000    0.000    7.500 
#    2.250    0.000    0.000    0.000    0.000    0.000 
#    0.000    0.000    0.000    0.000    0.000    0.000 
#
# Total GULP energy -198352.507932 kJ/mol
# GULP energy per Si atom -12397.031746 kJ/mol
# Density = 2.133953 g / cm^3
# Si number density = 21.388214 Si / 1000 Ang^3
#
#
#
# Elastic Constant Matrix: (Units=GPa)
#
#
# Indices 1 2 3 4 5 6 
#
# 1 49.6197 -0.3984 31.9580 7.1966 -8.0823 0.2983
# 2 -0.3984 87.5101 40.2940 11.6594 4.8187 0.7484
# 3 31.9580 40.2940 172.2226 6.3774 -2.2958 -2.9643
# 4 7.1966 11.6594 6.3774 44.9164 -0.8543 -4.7475
# 5 -8.0823 4.8187 -2.2958 -0.8543 33.4781 0.3783
# 6 0.2983 0.7484 -2.9643 -4.7475 0.3783 34.5609
#
#
#
# Elastic Compliance Matrix: (Units=1/GPa)
#
#
# Indices 1 2 3 4 5 6 
#
# 1 0.024860 0.002698 -0.005049 -0.004007 0.005180 -0.001313
# 2 0.002698 0.013684 -0.003609 -0.003620 -0.001646 -0.001108
# 3 -0.005049 -0.003609 0.007573 0.000760 -0.000171 0.000878
# 4 -0.004007 -0.003620 0.000760 0.024109 0.000182 0.003488
# 5 0.005180 -0.001646 -0.000171 0.000182 0.031354 -0.000342
# 6 -0.001313 -0.001108 0.000878 0.003488 -0.000342 0.029528
#
#
# Mechanical properties :
#
#
# Convention : Reuss Voigt Hill
#
# Bulk Modulus (GPa) = 29.24401 50.33995 39.79198
# Shear Modulus (GPa) = 32.37766 38.42433 35.40100
#
# Velocity S-wave (km/s) = 3.89499 4.24313 4.07278
# Velocity P-wave (km/s) = 5.82500 6.89877 6.38450
#
# Compressibility (1/GPa) = 0.03419504
#
# Stress axis : x y z
#
# Youngs Moduli (GPa) = 40.22554 73.07907 132.05649
#
# Poissons Ratio (x) = -0.19717 0.66682
# Poissons Ratio (y) = -0.10853 0.47661
# Poissons Ratio (z) = 0.20312 0.26375
#
# Static dielectric constant tensor:
#      x y z
#    x 3.855520 0.130010 -0.072380 
#    y 0.130010 3.800380 0.212490 
#    z -0.072380 0.212490 4.287990 
# 
# 
# High freq. dielectric constant tensor:
#      x y z
#    x 1.831500 0.007190 -0.011600 
#    y 0.007190 1.835900 0.005240 
#    z -0.011600 0.005240 1.853060 
# 
# From -- ./inp_files/142550.got.cif
#   From: 2010.06.25/outbox.cif.g09.slc.cpg/sg2_72_cif.got.tgz:142550.got - 2010.06.27 13:26:56.
