data_PCOD8030739
_publ_section_title
;
Structure prediction by ZEFSAII (Michael W. Deem and Ramdas Pophale) SiO2 
 PCOD8030739
Probable space group: P -1
;
_chemical_formula_sum "Si O2"
_cell_formula_units_Z 16
_cell_length_a 9.663797
_cell_length_b 11.675066
_cell_length_c 14.964704
_cell_angle_alpha 28.584322
_cell_angle_beta 109.516079
_cell_angle_gamma 100.404378
_cell_volume 737.221143
_symmetry_space_group_name_H-M "P -1"
_symmetry_group_IT_number 2
_symmetry_cell_setting 'triclinic'
loop_
_space_group_symop_operation_xyz
x,y,z
-x,-y,-z
loop_
_atom_site_type_symbol
_atom_site_label
_atom_site_fract_x
_atom_site_fract_y
_atom_site_fract_z
Si Si1 0.084724 0.985731 0.159464
Si Si2 0.011704 0.231242 0.551340
Si Si3 0.789385 0.250727 0.138146
Si Si4 0.832826 0.357008 0.745888
Si Si5 0.602423 0.063798 0.368892
Si Si6 0.721573 0.714184 0.914388
Si Si7 0.315563 0.580159 0.723948
Si Si8 0.624759 0.501011 0.759702
O O1 0.989739 0.826786 0.303254
O O2 0.187591 0.811410 0.227139
O O3 0.188750 0.077207 0.192296
O O4 0.976747 0.221898 0.928328
O O5 0.845968 0.384384 0.381477
O O6 0.135903 0.386261 0.456148
O O7 0.060516 0.973831 0.682730
O O8 0.660102 0.157506 0.225874
O O9 0.826503 0.477703 0.046586
O O10 0.729504 0.329229 0.972679
O O11 0.679728 0.401420 0.740857
O O12 0.420966 0.168869 0.259440
O O13 0.669794 0.168094 0.398475
O O14 0.651901 0.771843 0.588429
O O15 0.666021 0.635360 0.051364
O O16 0.449072 0.497935 0.735570
#
# Coordination Sequence:
#
# PCOD8030739 Si02
#       8
#     2   2   2   2   2   2   2   2
#     4  11  25  44  69  92 132 180 222 275 323 384
#     4  12  24  44  67 102 132 172 221 275 329 391
#     4  11  23  38  67 101 135 171 212 270 335 396
#     4  11  25  46  68  93 131 178 230 269 321 386
#     4  11  22  40  65  96 144 171 211 270 334 396
#     4  11  22  43  65 101 140 170 216 273 331 396
#     4  11  23  39  68 101 137 171 214 264 341 396
#     4  12  22  42  69  98 130 179 218 267 331 395
#
# _framework density 21.703120999999999
#
# number of rings (size 3 to 8) (size 9 to 14) (size 15 to 20)
#    0.000    0.750    6.250    2.250    1.750    3.500 
#    0.000    3.125    0.000    0.000    0.000    0.000 
#    0.000    0.000    0.000    0.000    0.000    0.000 
#
# Total GULP energy -198459.604146 kJ/mol
# GULP energy per Si atom -12403.725259 kJ/mol
# Density = 2.165372 g / cm^3
# Si number density = 21.703121 Si / 1000 Ang^3
#
#
#
# Elastic Constant Matrix: (Units=GPa)
#
#
# Indices 1 2 3 4 5 6 
#
# 1 101.2079 37.5248 21.8399 -7.6808 -2.8592 -29.9533
# 2 37.5248 48.1318 4.2989 -5.9799 2.2442 -18.4122
# 3 21.8399 4.2989 68.1359 -6.3855 -7.1440 -10.0019
# 4 -7.6808 -5.9799 -6.3855 24.6052 -6.4029 2.9005
# 5 -2.8592 2.2442 -7.1440 -6.4029 34.0602 5.2757
# 6 -29.9533 -18.4122 -10.0019 2.9005 5.2757 41.7531
#
#
#
# Elastic Compliance Matrix: (Units=1/GPa)
#
#
# Indices 1 2 3 4 5 6 
#
# 1 0.016255 -0.009810 -0.003496 0.001168 0.000513 0.006352
# 2 -0.009810 0.031716 0.002289 0.003576 -0.002941 0.007620
# 3 -0.003496 0.002289 0.016715 0.004549 0.003649 0.001729
# 4 0.001168 0.003576 0.004549 0.045639 0.009531 -0.000870
# 5 0.000513 -0.002941 0.003649 0.009531 0.032909 -0.004875
# 6 0.006352 0.007620 0.001729 -0.000870 -0.004875 0.032958
#
#
# Mechanical properties :
#
#
# Convention : Reuss Voigt Hill
#
# Bulk Modulus (GPa) = 23.44493 38.31143 30.87818
# Shear Modulus (GPa) = 23.53563 30.33782 26.93673
#
# Velocity S-wave (km/s) = 3.29665 3.74285 3.52681
# Velocity P-wave (km/s) = 5.03155 6.03070 5.55364
#
# Compressibility (1/GPa) = 0.04265315
#
# Stress axis : x y z
#
# Youngs Moduli (GPa) = 61.51866 31.52956 59.82543
#
# Poissons Ratio (x) = 0.30930 0.20913
# Poissons Ratio (y) = 0.60348 -0.13692
# Poissons Ratio (z) = 0.21505 -0.07216
#
# Static dielectric constant tensor:
#      x y z
#    x 3.993310 -0.317560 -0.208850 
#    y -0.317560 3.669790 -0.072580 
#    z -0.208850 -0.072580 4.029270 
# 
# 
# High freq. dielectric constant tensor:
#      x y z
#    x 1.850740 -0.022620 -0.017680 
#    y -0.022620 1.828630 -0.001820 
#    z -0.017680 -0.001820 1.868740 
# 
# From -- ./inp_files/176680.got.cif
#   From: 2010.06.25/outbox.cif.g09.slc.cpg/sg2_89_cif.got.tgz:176680.got - 2010.06.27 13:26:56.
