data_PCOD8030868
_publ_section_title
;
Structure prediction by ZEFSAII (Michael W. Deem and Ramdas Pophale) SiO2 
 PCOD8030868
Probable space group: P -1
;
_chemical_formula_sum "Si O2"
_cell_formula_units_Z 16
_cell_length_a 11.710880
_cell_length_b 15.089632
_cell_length_c 9.329495
_cell_angle_alpha 115.548486
_cell_angle_beta 74.109687
_cell_angle_gamma 148.788755
_cell_volume 754.683555
_symmetry_space_group_name_H-M "P -1"
_symmetry_group_IT_number 2
_symmetry_cell_setting 'triclinic'
loop_
_space_group_symop_operation_xyz
x,y,z
-x,-y,-z
loop_
_atom_site_type_symbol
_atom_site_label
_atom_site_fract_x
_atom_site_fract_y
_atom_site_fract_z
Si Si1 0.643791 0.214735 0.706553
Si Si2 0.195754 0.873940 0.479209
Si Si3 0.423759 0.846688 0.989222
Si Si4 0.975549 0.612249 0.904977
Si Si5 0.984602 0.776896 0.781045
Si Si6 0.451598 0.438026 0.309471
Si Si7 0.771574 0.931621 0.882284
Si Si8 0.066891 0.241786 0.771805
O O1 0.824843 0.256172 0.641869
O O2 0.752214 0.397898 0.789930
O O3 0.457493 0.083753 0.554885
O O4 0.526430 0.116654 0.832746
O O5 0.055817 0.801106 0.615267
O O6 0.098029 0.872196 0.386129
O O7 0.556740 0.851440 0.871939
O O8 0.156927 0.655475 0.915246
O O9 0.500000 0.000000 0.000000
O O10 0.050908 0.733178 0.831175
O O11 0.927122 0.646814 0.081331
O O12 0.715993 0.604769 0.743736
O O13 0.115263 0.964871 0.929324
O O14 0.500000 0.500000 0.500000
O O15 0.323055 0.243800 0.215134
O O16 0.679665 0.603846 0.255504
O O17 0.966437 0.088304 0.805641
#
# Coordination Sequence:
#
# PCOD8030868 Si02
#       8
#     2   2   2   2   2   2   2   2
#     4  11  23  37  66 100 135 176 216 268 339 404
#     4  11  22  41  63  97 142 171 212 277 338 395
#     4  12  19  40  68 100 134 169 214 271 335 397
#     4  11  24  40  69  99 131 175 225 272 325 411
#     4  11  24  47  63  95 135 176 224 273 333 387
#     4  12  27  46  71  96 134 177 228 284 327 386
#     4  11  25  44  73  98 133 180 220 274 337 395
#     4  11  24  45  68 100 130 173 229 273 332 397
#
# _framework density 21.200939999999999
#
# number of rings (size 3 to 8) (size 9 to 14) (size 15 to 20)
#    0.000    0.750    6.250    1.500    1.750    5.000 
#    2.250    0.000    0.000    0.000    0.000    0.000 
#    0.000    0.000    0.000    0.000    0.000    0.000 
#
# Total GULP energy -198409.043207 kJ/mol
# GULP energy per Si atom -12400.565200 kJ/mol
# Density = 2.115269 g / cm^3
# Si number density = 21.200940 Si / 1000 Ang^3
#
#
#
# Elastic Constant Matrix: (Units=GPa)
#
#
# Indices 1 2 3 4 5 6 
#
# 1 61.6344 25.6581 21.1967 -0.2005 5.6152 20.6307
# 2 25.6581 102.3346 41.2970 -5.2473 -20.4193 7.4193
# 3 21.1967 41.2970 107.4613 -7.0672 -2.7230 -5.8142
# 4 -0.2005 -5.2473 -7.0672 35.6264 7.0762 -4.5084
# 5 5.6152 -20.4193 -2.7230 7.0762 27.6829 5.4995
# 6 20.6307 7.4193 -5.8142 -4.5084 5.4995 38.0257
#
#
#
# Elastic Compliance Matrix: (Units=1/GPa)
#
#
# Indices 1 2 3 4 5 6 
#
# 1 0.024172 -0.004975 -0.003771 -0.001649 -0.006133 -0.012029
# 2 -0.004975 0.015878 -0.005078 -0.001764 0.013330 -0.003312
# 3 -0.003771 -0.005078 0.012432 0.003179 -0.003734 0.005854
# 4 -0.001649 -0.001764 0.003179 0.031292 -0.010020 0.006884
# 5 -0.006133 0.013330 -0.003734 -0.010020 0.051066 -0.008418
# 6 -0.012029 -0.003312 0.005854 0.006884 -0.008418 0.036399
#
#
# Mechanical properties :
#
#
# Convention : Reuss Voigt Hill
#
# Bulk Modulus (GPa) = 40.26574 49.74821 45.00697
# Shear Modulus (GPa) = 24.13521 32.48556 28.31038
#
# Velocity S-wave (km/s) = 3.37768 3.91867 3.65819
# Velocity P-wave (km/s) = 5.85195 6.63254 6.25444
#
# Compressibility (1/GPa) = 0.02483501
#
# Stress axis : x y z
#
# Youngs Moduli (GPa) = 41.36940 62.98017 80.43672
#
# Poissons Ratio (x) = 0.31333 0.30331
# Poissons Ratio (y) = 0.20582 0.40845
# Poissons Ratio (z) = 0.15599 0.31981
#
# Static dielectric constant tensor:
#      x y z
#    x 2.619550 -0.883200 -0.074990 
#    y -0.883200 2.764730 -0.105960 
#    z -0.074990 -0.105960 4.018730 
# 
# 
# High freq. dielectric constant tensor:
#      x y z
#    x 1.830810 0.017540 0.005760 
#    y 0.017540 1.830100 0.001600 
#    z 0.005760 0.001600 1.840700 
# 
# From -- ./inp_files/187938.got.cif
#   From: 2010.06.25/outbox.cif.g09.slc.cpg/sg2_94_cif.got.tgz:187938.got - 2010.06.27 13:26:56.
