data_PCOD8030933
_publ_section_title
;
Structure prediction by ZEFSAII (Michael W. Deem and Ramdas Pophale) SiO2 
 PCOD8030933
Probable space group: P -1
;
_chemical_formula_sum "Si O2"
_cell_formula_units_Z 16
_cell_length_a 8.477131
_cell_length_b 14.071651
_cell_length_c 9.422368
_cell_angle_alpha 107.531725
_cell_angle_beta 89.304861
_cell_angle_gamma 131.566303
_cell_volume 773.618805
_symmetry_space_group_name_H-M "P -1"
_symmetry_group_IT_number 2
_symmetry_cell_setting 'triclinic'
loop_
_space_group_symop_operation_xyz
x,y,z
-x,-y,-z
loop_
_atom_site_type_symbol
_atom_site_label
_atom_site_fract_x
_atom_site_fract_y
_atom_site_fract_z
Si Si1 0.713808 0.652967 0.020910
Si Si2 0.730874 0.812496 0.309710
Si Si3 0.218510 0.149773 0.112384
Si Si4 0.556267 0.121558 0.146616
Si Si5 0.976132 0.882046 0.616677
Si Si6 0.933225 0.351025 0.063813
Si Si7 0.316826 0.867342 0.536346
Si Si8 0.753540 0.332726 0.770005
O O1 0.671399 0.725136 0.943423
O O2 0.886417 0.654377 0.954627
O O3 0.500000 0.500000 0.000000
O O4 0.811922 0.746650 0.203770
O O5 0.470907 0.704416 0.246013
O O6 0.799393 0.839778 0.484177
O O7 0.837854 0.952975 0.291972
O O8 0.385502 0.134719 0.133476
O O9 0.160812 0.189947 0.270279
O O10 0.000000 0.000000 0.000000
O O11 0.793366 0.263224 0.162853
O O12 0.563040 0.100818 0.303096
O O13 0.500000 0.000000 0.000000
O O14 0.097506 0.834652 0.548516
O O15 0.041044 0.503943 0.165392
O O16 0.778223 0.283753 0.895803
O O17 0.237605 0.733745 0.397165
O O18 0.500000 0.000000 0.500000
#
# Coordination Sequence:
#
# PCOD8030933 Si02
#       8
#     2   2   2   2   2   2   2   2
#     4  12  24  43  72 100 140 182 227 276 343 412
#     4  11  22  41  68 101 136 176 224 285 339 407
#     4  12  25  44  68 101 136 178 228 286 334 402
#     4  12  27  44  70 103 138 177 229 287 346 408
#     4  11  24  41  69 100 137 176 226 284 345 398
#     4  11  25  43  69  99 135 184 227 278 345 406
#     4  12  24  42  69  99 135 179 226 284 345 401
#     4  11  23  43  69  97 139 179 230 280 340 411
#
# _framework density 20.682020999999999
#
# number of rings (size 3 to 8) (size 9 to 14) (size 15 to 20)
#    0.000    0.500    3.750    5.250    3.500    0.500 
#    0.000    0.625    0.000    0.000    0.000    0.000 
#    0.000    0.000    0.000    0.000    0.000    0.000 
#
# Total GULP energy -198442.306330 kJ/mol
# GULP energy per Si atom -12402.644146 kJ/mol
# Density = 2.063495 g / cm^3
# Si number density = 20.682021 Si / 1000 Ang^3
#
#
#
# Elastic Constant Matrix: (Units=GPa)
#
#
# Indices 1 2 3 4 5 6 
#
# 1 139.5673 41.4949 45.9277 -8.5134 -3.5864 6.0877
# 2 41.4949 121.8665 60.4137 -16.1065 4.9138 0.0661
# 3 45.9277 60.4137 138.9894 -2.7482 -9.9611 -6.7975
# 4 -8.5134 -16.1065 -2.7482 35.6089 -2.7366 -3.3383
# 5 -3.5864 4.9138 -9.9611 -2.7366 44.0530 -0.4022
# 6 6.0877 0.0661 -6.7975 -3.3383 -0.4022 34.9104
#
#
#
# Elastic Compliance Matrix: (Units=1/GPa)
#
#
# Indices 1 2 3 4 5 6 
#
# 1 0.008523 -0.001759 -0.002087 0.000948 0.000461 -0.001793
# 2 -0.001759 0.011757 -0.004614 0.004349 -0.002230 -0.000224
# 3 -0.002087 -0.004614 0.010157 -0.001393 0.002575 0.002247
# 4 0.000948 0.004349 -0.001393 0.030494 0.001194 0.002485
# 5 0.000461 -0.002230 0.002575 0.001194 0.023650 0.000812
# 6 -0.001793 -0.000224 0.002247 0.002485 0.000812 0.029642
#
#
# Mechanical properties :
#
#
# Convention : Reuss Voigt Hill
#
# Bulk Modulus (GPa) = 73.98972 77.34400 75.66686
# Shear Modulus (GPa) = 36.85991 39.75357 38.30674
#
# Velocity S-wave (km/s) = 4.22621 4.38897 4.30836
# Velocity P-wave (km/s) = 7.72445 7.94745 7.83674
#
# Compressibility (1/GPa) = 0.01351539
#
# Stress axis : x y z
#
# Youngs Moduli (GPa) = 117.33046 85.05801 98.45584
#
# Poissons Ratio (x) = 0.14966 0.20553
# Poissons Ratio (y) = 0.20644 0.45423
# Poissons Ratio (z) = 0.24493 0.39242
#
# Static dielectric constant tensor:
#      x y z
#    x 3.821060 -0.037340 -0.116060 
#    y -0.037340 3.856400 -0.071240 
#    z -0.116060 -0.071240 3.991780 
# 
# 
# High freq. dielectric constant tensor:
#      x y z
#    x 1.823630 0.000360 -0.007620 
#    y 0.000360 1.806600 -0.003100 
#    z -0.007620 -0.003100 1.821470 
# 
# From -- ./inp_files/208315.got.cif
#   From: 2010.06.25/outbox.cif.g09.slc.cpg/sg2_105_cif.got.tgz:208315.got - 2010.06.27 13:26:56.
