data_PCOD8030981
_publ_section_title
;
Structure prediction by ZEFSAII (Michael W. Deem and Ramdas Pophale) SiO2 
 PCOD8030981
Probable space group: P -1
;
_chemical_formula_sum "Si O2"
_cell_formula_units_Z 16
_cell_length_a 22.069951
_cell_length_b 8.589014
_cell_length_c 9.381079
_cell_angle_alpha 79.959296
_cell_angle_beta 134.418192
_cell_angle_gamma 134.597907
_cell_volume 707.132750
_symmetry_space_group_name_H-M "P -1"
_symmetry_group_IT_number 2
_symmetry_cell_setting 'triclinic'
loop_
_space_group_symop_operation_xyz
x,y,z
-x,-y,-z
loop_
_atom_site_type_symbol
_atom_site_label
_atom_site_fract_x
_atom_site_fract_y
_atom_site_fract_z
Si Si1 0.628290 0.119238 0.049259
Si Si2 0.905035 0.478495 0.252900
Si Si3 0.837521 0.921200 0.493673
Si Si4 0.630341 0.484038 0.987757
Si Si5 0.559757 0.417782 0.584755
Si Si6 0.302391 0.009778 0.577061
Si Si7 0.317823 0.545372 0.489465
Si Si8 0.744053 0.206272 0.754434
O O1 0.747929 0.281954 0.095107
O O2 0.611767 0.275616 0.042886
O O3 0.691966 0.135785 0.292061
O O4 0.468851 0.803967 0.787838
O O5 0.000000 0.500000 0.500000
O O6 0.865772 0.346302 0.053084
O O7 0.993544 0.780162 0.325160
O O8 0.748818 0.767261 0.224767
O O9 0.812644 0.727698 0.580110
O O10 0.784763 0.991108 0.483183
O O11 0.673734 0.553316 0.880912
O O12 0.470562 0.326635 0.768670
O O13 0.500000 0.500000 0.500000
O O14 0.648375 0.532747 0.564870
O O15 0.423121 0.083728 0.417586
O O16 0.218536 0.836859 0.318937
O O17 0.250315 0.598757 0.301257
#
# Coordination Sequence:
#
# PCOD8030981 Si02
#       8
#     2   2   2   2   2   2   2   2
#     4  12  22  44  75 100 136 181 232 281 346 407
#     4  12  28  48  67  98 144 191 222 273 351 425
#     4  12  27  43  66 103 147 183 221 282 345 414
#     4  11  23  40  69 106 133 171 233 291 343 388
#     4  11  23  37  67 109 133 169 227 298 341 387
#     4  11  22  41  70 107 130 178 232 290 332 394
#     4  12  22  44  74 105 134 175 235 299 332 397
#     4  11  24  44  73 101 138 179 234 281 347 401
#
# _framework density 22.626584999999999
#
# number of rings (size 3 to 8) (size 9 to 14) (size 15 to 20)
#    0.000    0.500    6.250    4.125    3.500    1.500 
#    0.000    0.000    0.000    0.000    0.000    0.000 
#    0.000    0.000    0.000    0.000    0.000    0.000 
#
# Total GULP energy -198403.761192 kJ/mol
# GULP energy per Si atom -12400.235074 kJ/mol
# Density = 2.257509 g / cm^3
# Si number density = 22.626585 Si / 1000 Ang^3
#
#
#
# Elastic Constant Matrix: (Units=GPa)
#
#
# Indices 1 2 3 4 5 6 
#
# 1 63.9436 13.9605 36.7107 3.4395 -24.2706 -5.7534
# 2 13.9605 117.4469 44.8905 0.6085 -5.9786 13.5129
# 3 36.7107 44.8905 132.8961 -13.8444 -43.1803 8.1370
# 4 3.4395 0.6085 -13.8444 34.8023 -0.2659 2.3250
# 5 -24.2706 -5.9786 -43.1803 -0.2659 36.5689 -5.4161
# 6 -5.7534 13.5129 8.1370 2.3250 -5.4161 35.5173
#
#
#
# Elastic Compliance Matrix: (Units=1/GPa)
#
#
# Indices 1 2 3 4 5 6 
#
# 1 0.023382 -0.002115 -0.002083 -0.003491 0.013784 0.007400
# 2 -0.002115 0.010857 -0.005020 -0.001748 -0.006184 -0.004152
# 3 -0.002083 -0.005020 0.015897 0.006743 0.016621 0.000024
# 4 -0.003491 -0.001748 0.006743 0.032015 0.005184 -0.002751
# 5 0.013784 -0.006184 0.016621 0.005184 0.056487 0.009052
# 6 0.007400 -0.004152 0.000024 -0.002751 0.009052 0.032488
#
#
# Mechanical properties :
#
#
# Convention : Reuss Voigt Hill
#
# Bulk Modulus (GPa) = 31.54582 56.15668 43.85125
# Shear Modulus (GPa) = 24.98399 35.95936 30.47168
#
# Velocity S-wave (km/s) = 3.32654 3.99087 3.67375
# Velocity P-wave (km/s) = 5.35973 6.79035 6.11700
#
# Compressibility (1/GPa) = 0.03169993
#
# Stress axis : x y z
#
# Youngs Moduli (GPa) = 42.76855 92.10963 62.90468
#
# Poissons Ratio (x) = 0.19481 0.13100
# Poissons Ratio (y) = 0.09045 0.31580
# Poissons Ratio (z) = 0.08907 0.46241
#
# Static dielectric constant tensor:
#      x y z
#    x 4.047000 0.264680 -0.295950 
#    y 0.264680 4.430150 -0.135250 
#    z -0.295950 -0.135250 4.058500 
# 
# 
# High freq. dielectric constant tensor:
#      x y z
#    x 1.887850 0.008260 -0.028240 
#    y 0.008260 1.904710 -0.013450 
#    z -0.028240 -0.013450 1.882170 
# 
# From -- ./inp_files/262912.got.cif
#   From: 2010.06.25/outbox.cif.g09.slc.cpg/sg2_132_cif.got.tgz:262912.got - 2010.06.27 13:26:56.
