data_PCOD8030754
_publ_section_title
;
Structure prediction by ZEFSAII (Michael W. Deem and Ramdas Pophale) SiO2 
 PCOD8030754
Probable space group: P -1
;
_chemical_formula_sum "Si O2"
_cell_formula_units_Z 16
_cell_length_a 28.068318
_cell_length_b 9.008078
_cell_length_c 9.470353
_cell_angle_alpha 65.757253
_cell_angle_beta 143.692640
_cell_angle_gamma 139.974628
_cell_volume 766.153389
_symmetry_space_group_name_H-M "P -1"
_symmetry_group_IT_number 2
_symmetry_cell_setting 'triclinic'
loop_
_space_group_symop_operation_xyz
x,y,z
-x,-y,-z
loop_
_atom_site_type_symbol
_atom_site_label
_atom_site_fract_x
_atom_site_fract_y
_atom_site_fract_z
Si Si1 0.818950 0.220978 0.811035
Si Si2 0.932404 0.582705 0.679121
Si Si3 0.698023 0.734964 0.245948
Si Si4 0.036507 0.032054 0.237714
Si Si5 0.419605 0.631969 0.624251
Si Si6 0.787764 0.419949 0.901232
Si Si7 0.723651 0.148376 0.136183
Si Si8 0.458735 0.416690 0.594823
O O1 0.859591 0.338664 0.705322
O O2 0.825656 0.387495 0.862435
O O3 0.668348 0.907933 0.569130
O O4 0.926078 0.259304 0.103631
O O5 0.965309 0.804757 0.745045
O O6 0.828465 0.433732 0.359117
O O7 0.816896 0.808217 0.455538
O O8 0.637398 0.582887 0.310280
O O9 0.758463 0.015072 0.294701
O O10 0.582140 0.536969 0.928317
O O11 0.000000 0.000000 0.000000
O O12 0.922473 0.732400 0.153016
O O13 0.330035 0.644885 0.389401
O O14 0.424106 0.538863 0.525129
O O15 0.571178 0.936745 0.907712
O O16 0.736611 0.210061 0.977635
O O17 0.500000 0.500000 0.500000
#
# Coordination Sequence:
#
# PCOD8030754 Si02
#       8
#     2   2   2   2   2   2   2   2
#     4  11  22  40  66  94 129 167 219 259 323 381
#     4  11  24  40  66  95 125 169 216 273 313 387
#     4  11  23  43  71  92 130 176 216 260 320 393
#     4  12  24  44  66  95 128 169 224 265 324 379
#     4  11  22  44  68  92 133 177 214 259 321 390
#     4  12  25  42  67  95 134 174 209 275 325 378
#     4  11  25  41  64 101 130 166 218 267 328 381
#     4  11  24  40  64  99 133 170 211 266 325 384
#
# _framework density 20.883544000000001
#
# number of rings (size 3 to 8) (size 9 to 14) (size 15 to 20)
#    0.000    0.750    2.500    6.375    1.750    5.500 
#    0.000    2.500    0.000    0.000    0.000    0.000 
#    0.000    0.000    0.000    0.000    0.000    0.000 
#
# Total GULP energy -198496.327274 kJ/mol
# GULP energy per Si atom -12406.020455 kJ/mol
# Density = 2.083601 g / cm^3
# Si number density = 20.883544 Si / 1000 Ang^3
#
#
#
# Elastic Constant Matrix: (Units=GPa)
#
#
# Indices 1 2 3 4 5 6 
#
# 1 122.7248 39.8253 68.1829 -14.1610 15.8200 -22.8783
# 2 39.8253 96.1110 45.6694 2.2638 5.6144 -4.3905
# 3 68.1829 45.6694 126.6175 9.2279 12.3987 -16.8074
# 4 -14.1610 2.2638 9.2279 38.4657 1.3582 -9.6576
# 5 15.8200 5.6144 12.3987 1.3582 41.6802 0.6549
# 6 -22.8783 -4.3905 -16.8074 -9.6576 0.6549 34.9696
#
#
#
# Elastic Compliance Matrix: (Units=1/GPa)
#
#
# Indices 1 2 3 4 5 6 
#
# 1 0.016695 -0.003203 -0.006821 0.010707 -0.004387 0.010281
# 2 -0.003203 0.013191 -0.003287 -0.001821 0.000516 -0.002532
# 3 -0.006821 -0.003287 0.013224 -0.005468 -0.000724 -0.000016
# 4 0.010707 -0.001821 -0.005468 0.034966 -0.003549 0.013871
# 5 -0.004387 0.000516 -0.000724 -0.003549 0.025991 -0.004620
# 6 0.010281 -0.002532 -0.000016 0.013871 -0.004620 0.038914
#
#
# Mechanical properties :
#
#
# Convention : Reuss Voigt Hill
#
# Bulk Modulus (GPa) = 60.65097 72.53427 66.59262
# Shear Modulus (GPa) = 28.55555 35.80815 32.18185
#
# Velocity S-wave (km/s) = 3.70181 4.14534 3.92983
# Velocity P-wave (km/s) = 6.88307 7.59736 7.24902
#
# Compressibility (1/GPa) = 0.01648778
#
# Stress axis : x y z
#
# Youngs Moduli (GPa) = 59.89938 75.81064 75.62273
#
# Poissons Ratio (x) = 0.24282 0.51581
# Poissons Ratio (y) = 0.19186 0.24856
# Poissons Ratio (z) = 0.40856 0.24918
#
# Static dielectric constant tensor:
#      x y z
#    x 4.368560 0.208580 0.728750 
#    y 0.208580 3.873550 0.202010 
#    z 0.728750 0.202010 4.708200 
# 
# 
# High freq. dielectric constant tensor:
#      x y z
#    x 1.822040 0.003540 0.008500 
#    y 0.003540 1.825290 0.010500 
#    z 0.008500 0.010500 1.828470 
# 
# From -- ./inp_files/186514.got.cif
#   From: 2010.06.25/outbox.cif.g09.slc.cpg/sg2_94_cif.got.tgz:186514.got - 2010.06.27 13:26:56.
