data_PCOD8030073
_publ_section_title
;
Structure prediction by ZEFSAII (Michael W. Deem and Ramdas Pophale) SiO2 
 PCOD8030073
Probable space group: P -1
;
_chemical_formula_sum "Si O2"
_cell_formula_units_Z 14
_cell_length_a 9.547704
_cell_length_b 11.258949
_cell_length_c 9.553633
_cell_angle_alpha 122.286925
_cell_angle_beta 59.229854
_cell_angle_gamma 119.173816
_cell_volume 712.811168
_symmetry_space_group_name_H-M "P -1"
_symmetry_group_IT_number 2
_symmetry_cell_setting 'triclinic'
loop_
_space_group_symop_operation_xyz
x,y,z
-x,-y,-z
loop_
_atom_site_type_symbol
_atom_site_label
_atom_site_fract_x
_atom_site_fract_y
_atom_site_fract_z
Si Si1 0.638636 0.628653 0.585497
Si Si2 0.185124 0.526783 0.073529
Si Si3 0.202768 0.551537 0.401822
Si Si4 0.543527 0.136916 0.163430
Si Si5 0.107626 0.717253 0.022458
Si Si6 0.519838 0.146477 0.496554
Si Si7 0.232767 0.285885 0.719759
O O1 0.500000 0.500000 0.500000
O O2 0.726929 0.564337 0.622821
O O3 0.548257 0.744021 0.768864
O O4 0.769613 0.702894 0.440931
O O5 0.246858 0.538933 0.208615
O O6 0.199628 0.685715 0.098659
O O7 0.291215 0.445079 0.869088
O O8 0.983214 0.434760 0.109620
O O9 0.300436 0.721870 0.500326
O O10 0.000000 0.500000 0.500000
O O11 0.486499 0.091285 0.320515
O O12 0.748812 0.191923 0.097207
O O13 0.500000 0.000000 0.000000
O O14 0.963661 0.798071 0.186031
O O15 0.362510 0.203698 0.660024
O O16 0.500000 0.000000 0.500000
#
# Coordination Sequence:
#
# PCOD8030073 Si02
#       7
#     2   2   2   2   2   2   2
#     4  11  21  42  67  93 131 169 216 273 321 379
#     4   9  20  33  67  95 121 153 210 271 316 372
#     4  12  24  39  68 102 126 166 228 274 318 379
#     4  11  24  42  66  89 129 180 212 256 332 404
#     4   9  19  39  63  94 126 161 211 262 326 381
#     4  11  26  44  59  91 138 167 210 276 330 377
#     4   9  19  40  65  86 125 169 203 263 330 376
#
# _framework density 19.640544999999999
#
# number of rings (size 3 to 8) (size 9 to 14) (size 15 to 20)
#    0.857    0.857    2.857    2.571    2.000    1.714 
#    2.571    2.143    0.000    0.000    0.000    0.000 
#    0.000    0.000    0.000    0.000    0.000    0.000 
#
# Total GULP energy -173438.667640 kJ/mol
# GULP energy per Si atom -12388.476260 kJ/mol
# Density = 1.959584 g / cm^3
# Si number density = 19.640545 Si / 1000 Ang^3
#
#
#
# Elastic Constant Matrix: (Units=GPa)
#
#
# Indices 1 2 3 4 5 6 
#
# 1 127.9975 51.7804 51.8161 -0.2979 -10.8345 -18.6827
# 2 51.7804 88.8009 29.7274 9.1896 -11.7661 -12.0651
# 3 51.8161 29.7274 108.7986 14.2763 -5.2335 -2.9895
# 4 -0.2979 9.1896 14.2763 27.5056 0.8856 -0.7728
# 5 -10.8345 -11.7661 -5.2335 0.8856 43.1111 -9.1341
# 6 -18.6827 -12.0651 -2.9895 -0.7728 -9.1341 27.3809
#
#
#
# Elastic Compliance Matrix: (Units=1/GPa)
#
#
# Indices 1 2 3 4 5 6 
#
# 1 0.013317 -0.005146 -0.005218 0.004688 0.002760 0.007302
# 2 -0.005146 0.016326 -0.001024 -0.004977 0.004161 0.004819
# 3 -0.005218 -0.001024 0.012682 -0.006363 -0.000555 -0.002992
# 4 0.004688 -0.004977 -0.006363 0.041451 -0.001604 0.000946
# 5 0.002760 0.004161 -0.000555 -0.001604 0.027715 0.012856
# 6 0.007302 0.004819 -0.002992 0.000946 0.012856 0.047617
#
#
# Mechanical properties :
#
#
# Convention : Reuss Voigt Hill
#
# Bulk Modulus (GPa) = 51.15430 65.80497 58.47963
# Shear Modulus (GPa) = 26.53927 32.41773 29.47850
#
# Velocity S-wave (km/s) = 3.67992 4.06711 3.87835
# Velocity P-wave (km/s) = 6.64512 7.45872 7.06364
#
# Compressibility (1/GPa) = 0.01954870
#
# Stress axis : x y z
#
# Youngs Moduli (GPa) = 75.09109 61.25308 78.84921
#
# Poissons Ratio (x) = 0.31519 0.41145
# Poissons Ratio (y) = 0.38640 0.08077
# Poissons Ratio (z) = 0.39184 0.06275
#
# Static dielectric constant tensor:
#      x y z
#    x 3.413580 0.097610 -0.176700 
#    y 0.097610 2.695110 0.097490 
#    z -0.176700 0.097490 3.564150 
# 
# 
# High freq. dielectric constant tensor:
#      x y z
#    x 1.764000 -0.001710 -0.009530 
#    y -0.001710 1.741210 -0.016540 
#    z -0.009530 -0.016540 1.769030 
# 
# From -- ./inp_files/182293.got.cif
#   From: 2010.06.25/outbox.cif.g09.slc.cpg/sg2_92_cif.got.tgz:182293.got - 2010.06.27 13:26:56.
