data_PCOD8030410
_publ_section_title
;
Structure prediction by ZEFSAII (Michael W. Deem and Ramdas Pophale) SiO2 
 PCOD8030410
Probable space group: P -1
;
_chemical_formula_sum "Si O2"
_cell_formula_units_Z 14
_cell_length_a 9.178030
_cell_length_b 16.968902
_cell_length_c 8.620065
_cell_angle_alpha 112.973293
_cell_angle_beta 31.583300
_cell_angle_gamma 120.054833
_cell_volume 606.621361
_symmetry_space_group_name_H-M "P -1"
_symmetry_group_IT_number 2
_symmetry_cell_setting 'triclinic'
loop_
_space_group_symop_operation_xyz
x,y,z
-x,-y,-z
loop_
_atom_site_type_symbol
_atom_site_label
_atom_site_fract_x
_atom_site_fract_y
_atom_site_fract_z
Si Si1 0.216415 0.602878 0.378164
Si Si2 0.849218 0.000579 0.974298
Si Si3 0.574724 0.893583 0.630307
Si Si4 0.459740 0.691890 0.540315
Si Si5 0.992590 0.321011 0.806071
Si Si6 0.247236 0.334792 0.288202
Si Si7 0.455121 0.173503 0.055366
O O1 0.375090 0.627617 0.418648
O O2 0.000000 0.500000 0.500000
O O3 0.031603 0.670816 0.572715
O O4 0.448945 0.609695 0.033660
O O5 0.686128 0.073082 0.164540
O O6 0.613118 0.899330 0.077659
O O7 0.000000 0.000000 0.000000
O O8 0.116071 0.030698 0.635151
O O9 0.478069 0.793944 0.560990
O O10 0.621056 0.884269 0.762794
O O11 0.795050 0.703170 0.285354
O O12 0.237594 0.648333 0.856142
O O13 0.196432 0.386675 0.535006
O O14 0.801114 0.235385 0.805397
O O15 0.255262 0.236327 0.255397
#
# Coordination Sequence:
#
# PCOD8030410 Si02
#       7
#     2   2   2   2   2   2   2
#     4  12  28  48  72 107 143 180 223 290 367 427
#     4  12  28  40  63 104 142 181 234 290 333 400
#     4  11  24  43  66  93 140 186 233 282 344 398
#     4  11  24  44  75  98 138 181 236 282 356 417
#     4  11  21  45  71 105 128 188 235 284 330 421
#     4  12  24  45  76 101 141 182 235 282 354 418
#     4  11  25  43  73  97 141 184 243 278 349 398
#
# _framework density 23.078645999999999
#
# number of rings (size 3 to 8) (size 9 to 14) (size 15 to 20)
#    0.000    0.571    4.286    4.286    6.000    0.000 
#    0.000    4.286    0.000    0.000    0.000    0.000 
#    0.000    0.000    0.000    0.000    0.000    0.000 
#
# Total GULP energy -173440.220402 kJ/mol
# GULP energy per Si atom -12388.587172 kJ/mol
# Density = 2.302612 g / cm^3
# Si number density = 23.078646 Si / 1000 Ang^3
#
#
#
# Elastic Constant Matrix: (Units=GPa)
#
#
# Indices 1 2 3 4 5 6 
#
# 1 173.1376 65.7093 50.6936 -8.1604 -8.4712 6.1887
# 2 65.7093 60.4622 15.1797 -2.7714 -0.1384 21.9781
# 3 50.6936 15.1797 136.6239 -11.0110 -5.5366 -3.7142
# 4 -8.1604 -2.7714 -11.0110 21.3630 -10.2558 -1.2896
# 5 -8.4712 -0.1384 -5.5366 -10.2558 53.4331 -5.3524
# 6 6.1887 21.9781 -3.7142 -1.2896 -5.3524 32.0672
#
#
#
# Elastic Compliance Matrix: (Units=1/GPa)
#
#
# Indices 1 2 3 4 5 6 
#
# 1 0.012638 -0.016367 -0.002179 0.003763 0.003384 0.009242
# 2 -0.016367 0.044604 -0.000368 -0.005488 -0.006451 -0.028752
# 3 -0.002179 -0.000368 0.008654 0.004489 0.001625 0.002127
# 4 0.003763 -0.005488 0.004489 0.056411 0.012670 0.007938
# 5 0.003384 -0.006451 0.001625 0.012670 0.022661 0.008248
# 6 0.009242 -0.028752 0.002127 0.007938 0.008248 0.051049
#
#
# Mechanical properties :
#
#
# Convention : Reuss Voigt Hill
#
# Bulk Modulus (GPa) = 35.62806 70.37654 53.00230
# Shear Modulus (GPa) = 20.55903 37.28207 28.92055
#
# Velocity S-wave (km/s) = 2.98791 4.02361 3.54380
# Velocity P-wave (km/s) = 5.23208 7.22124 6.30559
#
# Compressibility (1/GPa) = 0.02806776
#
# Stress axis : x y z
#
# Youngs Moduli (GPa) = 79.12694 22.41950 115.54973
#
# Poissons Ratio (x) = 0.36694 0.25180
# Poissons Ratio (y) = 1.29506 0.04255
# Poissons Ratio (z) = 0.17243 0.00826
#
# Static dielectric constant tensor:
#      x y z
#    x 4.428040 -0.198300 0.061770 
#    y -0.198300 3.839740 -0.089040 
#    z 0.061770 -0.089040 4.578700 
# 
# 
# High freq. dielectric constant tensor:
#      x y z
#    x 1.931290 -0.012500 -0.008170 
#    y -0.012500 1.872580 -0.005490 
#    z -0.008170 -0.005490 1.935760 
# 
# From -- ./inp_files/217955.got.cif
#   From: 2010.06.25/outbox.cif.g09.slc.cpg/sg2_109_cif.got.tgz:217955.got - 2010.06.27 13:26:56.
