data_PCOD8030844
_publ_section_title
;
Structure prediction by ZEFSAII (Michael W. Deem and Ramdas Pophale) SiO2 
 PCOD8030844
Probable space group: P -1
;
_chemical_formula_sum "Si O2"
_cell_formula_units_Z 16
_cell_length_a 18.516328
_cell_length_b 12.661426
_cell_length_c 8.932239
_cell_angle_alpha 136.396969
_cell_angle_beta 41.319518
_cell_angle_gamma 144.902511
_cell_volume 761.094012
_symmetry_space_group_name_H-M "P -1"
_symmetry_group_IT_number 2
_symmetry_cell_setting 'triclinic'
loop_
_space_group_symop_operation_xyz
x,y,z
-x,-y,-z
loop_
_atom_site_type_symbol
_atom_site_label
_atom_site_fract_x
_atom_site_fract_y
_atom_site_fract_z
Si Si1 0.300773 0.962377 0.401103
Si Si2 0.272466 0.873689 0.009361
Si Si3 0.869925 0.955559 0.069740
Si Si4 0.220706 0.484152 0.652653
Si Si5 0.950931 0.111250 0.770912
Si Si6 0.647421 0.548669 0.865627
Si Si7 0.453443 0.627058 0.658407
Si Si8 0.425413 0.783970 0.157190
O O1 0.267748 0.866889 0.190351
O O2 0.330200 0.852620 0.361291
O O3 0.173530 0.944100 0.649907
O O4 0.431203 0.183434 0.416012
O O5 0.180549 0.934394 0.156058
O O6 0.233525 0.675870 0.800596
O O7 0.419871 0.032629 0.875469
O O8 0.738528 0.731204 0.022600
O O9 0.917932 0.059127 0.942067
O O10 0.000000 0.000000 0.000000
O O11 0.251422 0.403003 0.378964
O O12 0.322207 0.500176 0.631367
O O13 0.068721 0.335878 0.799590
O O14 0.000000 0.000000 0.500000
O O15 0.617420 0.357055 0.783236
O O16 0.500000 0.500000 0.000000
O O17 0.500000 0.500000 0.500000
O O18 0.405196 0.672342 0.925192
#
# Coordination Sequence:
#
# PCOD8030844 Si02
#       8
#     2   2   2   2   2   2   2   2
#     4  11  23  45  71 104 141 176 232 289 346 416
#     4  11  24  46  70 103 140 182 228 283 351 428
#     4  12  28  48  70 104 141 186 239 289 344 420
#     4  12  25  45  69  99 143 178 233 282 352 420
#     4  12  27  47  69  98 137 191 230 280 352 416
#     4  12  27  46  70 108 141 182 239 296 349 409
#     4  11  22  40  72 104 135 181 229 284 346 413
#     4  11  23  43  73 104 140 180 229 293 352 410
#
# _framework density 21.022369999999999
#
# number of rings (size 3 to 8) (size 9 to 14) (size 15 to 20)
#    0.000    0.500    3.750    4.875    8.750    0.500 
#    0.000    1.250    0.000    0.000    0.000    0.000 
#    0.000    0.000    0.000    0.000    0.000    0.000 
#
# Total GULP energy -198404.456172 kJ/mol
# GULP energy per Si atom -12400.278511 kJ/mol
# Density = 2.097452 g / cm^3
# Si number density = 21.022370 Si / 1000 Ang^3
#
#
#
# Elastic Constant Matrix: (Units=GPa)
#
#
# Indices 1 2 3 4 5 6 
#
# 1 179.9476 44.4024 76.3753 -15.7429 -27.4180 -29.9941
# 2 44.4024 84.4129 30.0158 3.5665 2.5715 -8.8719
# 3 76.3753 30.0158 154.5717 -20.5373 -15.2762 -29.5833
# 4 -15.7429 3.5665 -20.5373 43.7111 -8.3770 11.7586
# 5 -27.4180 2.5715 -15.2762 -8.3770 39.9162 -1.0539
# 6 -29.9941 -8.8719 -29.5833 11.7586 -1.0539 59.8436
#
#
#
# Elastic Compliance Matrix: (Units=1/GPa)
#
#
# Indices 1 2 3 4 5 6 
#
# 1 0.009173 -0.004119 -0.002215 0.003196 0.006452 0.002377
# 2 -0.004119 0.015128 -0.002094 -0.004771 -0.005607 -0.000018
# 3 -0.002215 -0.002094 0.009217 0.003604 0.002963 0.002480
# 4 0.003196 -0.004771 0.003604 0.028750 0.009842 -0.002800
# 5 0.006452 -0.005607 0.002963 0.009842 0.033111 0.002516
# 6 0.002377 -0.000018 0.002480 -0.002800 0.002516 0.019719
#
#
# Mechanical properties :
#
#
# Convention : Reuss Voigt Hill
#
# Bulk Modulus (GPa) = 60.01911 80.05769 70.03840
# Shear Modulus (GPa) = 36.36137 46.57007 41.46572
#
# Velocity S-wave (km/s) = 4.16342 4.71176 4.44605
# Velocity P-wave (km/s) = 7.19195 8.23200 7.72949
#
# Compressibility (1/GPa) = 0.01666136
#
# Stress axis : x y z
#
# Youngs Moduli (GPa) = 109.02070 66.10142 108.49607
#
# Poissons Ratio (x) = 0.27227 0.24034
# Poissons Ratio (y) = 0.44905 0.22720
# Poissons Ratio (z) = 0.24150 0.13842
#
# Static dielectric constant tensor:
#      x y z
#    x 3.936630 0.068550 -0.052020 
#    y 0.068550 3.862260 -0.173230 
#    z -0.052020 -0.173230 4.778120 
# 
# 
# High freq. dielectric constant tensor:
#      x y z
#    x 1.834120 -0.002820 -0.006330 
#    y -0.002820 1.829260 0.003600 
#    z -0.006330 0.003600 1.838120 
# 
# From -- ./inp_files/182601.got.cif
#   From: 2010.06.25/outbox.cif.g09.slc.cpg/sg2_92_cif.got.tgz:182601.got - 2010.06.27 13:26:56.
