data_PCOD8030412
_publ_section_title
;
Structure prediction by ZEFSAII (Michael W. Deem and Ramdas Pophale) SiO2 
 PCOD8030412
Probable space group: P -1
;
_chemical_formula_sum "Si O2"
_cell_formula_units_Z 16
_cell_length_a 10.936513
_cell_length_b 7.875318
_cell_length_c 8.383642
_cell_angle_alpha 72.338314
_cell_angle_beta 105.183435
_cell_angle_gamma 102.593888
_cell_volume 656.435211
_symmetry_space_group_name_H-M "P -1"
_symmetry_group_IT_number 2
_symmetry_cell_setting 'triclinic'
loop_
_space_group_symop_operation_xyz
x,y,z
-x,-y,-z
loop_
_atom_site_type_symbol
_atom_site_label
_atom_site_fract_x
_atom_site_fract_y
_atom_site_fract_z
Si Si1 0.085003 0.687446 0.505473
Si Si2 0.451291 0.244516 0.300077
Si Si3 0.121739 0.288375 0.342315
Si Si4 0.258530 0.179115 0.719778
Si Si5 0.714696 0.447174 0.850305
Si Si6 0.701129 0.447420 0.207044
Si Si7 0.994544 0.019438 0.807225
Si Si8 0.524660 0.135416 0.702518
O O1 0.228955 0.665384 0.607550
O O2 0.000000 0.500000 0.500000
O O3 0.018498 0.763168 0.613111
O O4 0.075893 0.811141 0.313410
O O5 0.334889 0.357733 0.235101
O O6 0.552602 0.372442 0.190647
O O7 0.504029 0.224126 0.500768
O O8 0.419015 0.051365 0.253787
O O9 0.230270 0.252755 0.515094
O O10 0.156435 0.496934 0.229502
O O11 0.107285 0.150179 0.231499
O O12 0.276455 0.340968 0.807546
O O13 0.139262 0.034272 0.780364
O O14 0.390662 0.094839 0.768399
O O15 0.624743 0.275533 0.796401
O O16 0.748728 0.411697 0.054856
O O17 0.000000 0.000000 0.000000
#
# Coordination Sequence:
#
# PCOD8030412 Si02
#       8
#     2   2   2   2   2   2   2   2
#     4  11  24  45  71 102 138 188 239 284 363 431
#     4  11  25  44  71 103 140 194 244 293 362 428
#     4  11  24  43  73  99 141 189 232 290 362 429
#     4  11  21  45  71  99 144 190 230 297 364 425
#     4  12  25  48  68 107 148 186 242 303 361 420
#     4  12  25  43  71 102 144 187 236 302 358 429
#     4  11  25  46  70 107 140 186 239 299 357 425
#     4  11  25  44  73 105 139 191 247 292 362 432
#
# _framework density 24.374074
#
# number of rings (size 3 to 8) (size 9 to 14) (size 15 to 20)
#    0.000    0.750    5.000    3.750    3.500    1.000 
#    0.000    0.000    0.000    0.000    0.000    0.000 
#    0.000    0.000    0.000    0.000    0.000    0.000 
#
# Total GULP energy -198325.048226 kJ/mol
# GULP energy per Si atom -12395.315514 kJ/mol
# Density = 2.431860 g / cm^3
# Si number density = 24.374074 Si / 1000 Ang^3
#
#
#
# Elastic Constant Matrix: (Units=GPa)
#
#
# Indices 1 2 3 4 5 6 
#
# 1 48.8404 24.7034 10.8684 -6.4129 -7.5244 4.9764
# 2 24.7034 145.9741 48.3261 27.6236 8.1476 11.5245
# 3 10.8684 48.3261 131.0650 11.0442 -18.2017 5.1933
# 4 -6.4129 27.6236 11.0442 38.2694 -0.7352 -3.8318
# 5 -7.5244 8.1476 -18.2017 -0.7352 26.5981 -12.7283
# 6 4.9764 11.5245 5.1933 -3.8318 -12.7283 42.0495
#
#
#
# Elastic Compliance Matrix: (Units=1/GPa)
#
#
# Indices 1 2 3 4 5 6 
#
# 1 0.027397 -0.008261 0.001594 0.010744 0.013535 0.003901
# 2 -0.008261 0.013118 -0.004845 -0.010411 -0.013306 -0.006996
# 3 0.001594 -0.004845 0.010540 0.001248 0.010710 0.003193
# 4 0.010744 -0.010411 0.001248 0.036157 0.012094 0.008383
# 5 0.013535 -0.013306 0.010710 0.012094 0.063192 0.020952
# 6 0.003901 -0.006996 0.003193 0.008383 0.020952 0.031949
#
#
# Mechanical properties :
#
#
# Convention : Reuss Voigt Hill
#
# Bulk Modulus (GPa) = 35.67578 54.85281 45.26429
# Shear Modulus (GPa) = 23.28613 37.51550 30.40081
#
# Velocity S-wave (km/s) = 3.09425 3.92746 3.53549
# Velocity P-wave (km/s) = 5.23779 6.56659 5.93946
#
# Compressibility (1/GPa) = 0.02803022
#
# Stress axis : x y z
#
# Youngs Moduli (GPa) = 36.50029 76.23333 94.87818
#
# Poissons Ratio (x) = 0.62975 -0.15122
# Poissons Ratio (y) = 0.30152 0.45970
# Poissons Ratio (z) = -0.05818 0.36936
#
# Static dielectric constant tensor:
#      x y z
#    x 4.025570 0.285200 -0.026440 
#    y 0.285200 4.187190 -0.112920 
#    z -0.026440 -0.112920 4.120070 
# 
# 
# High freq. dielectric constant tensor:
#      x y z
#    x 1.968020 0.010290 -0.016010 
#    y 0.010290 1.976350 0.010680 
#    z -0.016010 0.010680 1.965070 
# 
# From -- ./inp_files/237891.got.cif
#   From: 2010.06.25/outbox.cif.g09.slc.cpg/sg2_119_cif.got.tgz:237891.got - 2010.06.27 13:26:56.
