data_PCOD8030014
_publ_section_title
;
Structure prediction by ZEFSAII (Michael W. Deem and Ramdas Pophale) SiO2 
 PCOD8030014
Probable space group: P -1
;
_chemical_formula_sum "Si O2"
_cell_formula_units_Z 16
_cell_length_a 18.395231
_cell_length_b 10.627413
_cell_length_c 6.484258
_cell_angle_alpha 60.471507
_cell_angle_beta 55.982335
_cell_angle_gamma 46.579617
_cell_volume 750.697288
_symmetry_space_group_name_H-M "P -1"
_symmetry_group_IT_number 2
_symmetry_cell_setting 'triclinic'
loop_
_space_group_symop_operation_xyz
x,y,z
-x,-y,-z
loop_
_atom_site_type_symbol
_atom_site_label
_atom_site_fract_x
_atom_site_fract_y
_atom_site_fract_z
Si Si1 0.402926 0.481289 0.643734
Si Si2 0.801393 0.591324 0.646544
Si Si3 0.026008 0.049090 0.206269
Si Si4 0.714214 0.839458 0.964913
Si Si5 0.506410 0.138459 0.012057
Si Si6 0.091367 0.314457 0.922796
Si Si7 0.835757 0.260690 0.038537
Si Si8 0.625421 0.695390 0.529028
O O1 0.500000 0.500000 0.500000
O O2 0.431227 0.327264 0.878370
O O3 0.286695 0.649806 0.765430
O O4 0.397910 0.432982 0.452169
O O5 0.733133 0.746297 0.791599
O O6 0.874861 0.642640 0.379936
O O7 0.731259 0.577677 0.594663
O O8 0.860924 0.405465 0.823333
O O9 0.917100 0.129811 0.188422
O O10 0.046977 0.198577 0.052886
O O11 0.000000 0.000000 0.500000
O O12 0.133324 0.870178 0.096984
O O13 0.634943 0.052249 0.882245
O O14 0.819313 0.785243 0.962410
O O15 0.643040 0.798468 0.245717
O O16 0.470918 0.161521 0.288732
O O17 0.500000 0.000000 0.000000
O O18 0.000000 0.500000 0.000000
#
# Coordination Sequence:
#
# PCOD8030014 Si02
#       8
#     2   2   2   2   2   2   2   2
#     4  12  28  43  66 103 140 186 233 285 347 423
#     4  11  22  43  74  96 138 178 231 289 339 412
#     4  11  27  45  73 101 139 186 227 286 353 416
#     4  11  23  39  68 103 133 175 227 292 333 406
#     4  12  22  41  66  99 133 180 232 276 343 406
#     4  11  26  42  70 109 132 176 233 284 351 407
#     4  11  24  48  68  98 139 187 232 283 350 412
#     4  11  21  41  70  95 135 184 225 276 351 401
#
# _framework density 21.313516
#
# number of rings (size 3 to 8) (size 9 to 14) (size 15 to 20)
#    0.000    0.750    5.000    1.875    3.500    7.500 
#    0.000    0.000    0.000    0.000    0.000    0.000 
#    0.000    0.000    0.000    0.000    0.000    0.000 
#
# Total GULP energy -198271.036908 kJ/mol
# GULP energy per Si atom -12391.939807 kJ/mol
# Density = 2.126501 g / cm^3
# Si number density = 21.313516 Si / 1000 Ang^3
#
#
#
# Elastic Constant Matrix: (Units=GPa)
#
#
# Indices 1 2 3 4 5 6 
#
# 1 73.8039 23.8268 48.6375 25.6178 -5.6083 -0.9752
# 2 23.8268 132.6976 62.0352 40.9350 -6.7680 -10.0073
# 3 48.6375 62.0352 148.2834 25.4439 6.2988 11.8893
# 4 25.6178 40.9350 25.4439 40.3970 4.4123 4.0134
# 5 -5.6083 -6.7680 6.2988 4.4123 35.8353 -2.4705
# 6 -0.9752 -10.0073 11.8893 4.0134 -2.4705 44.0659
#
#
#
# Elastic Compliance Matrix: (Units=1/GPa)
#
#
# Indices 1 2 3 4 5 6 
#
# 1 0.023840 0.005819 -0.008122 -0.017472 0.008831 0.006127
# 2 0.005819 0.015768 -0.006483 -0.017161 0.007655 0.007451
# 3 -0.008122 -0.006483 0.011886 0.005414 -0.005642 -0.005668
# 4 -0.017472 -0.017161 0.005414 0.052486 -0.014170 -0.011319
# 5 0.008831 0.007655 -0.005642 -0.014170 0.033928 0.006649
# 6 0.006127 0.007451 -0.005668 -0.011319 0.006649 0.027454
#
#
# Mechanical properties :
#
#
# Convention : Reuss Voigt Hill
#
# Bulk Modulus (GPa) = 29.48073 69.30932 49.39502
# Shear Modulus (GPa) = 25.74089 38.74534 32.24311
#
# Velocity S-wave (km/s) = 3.47901 4.26828 3.89369
# Velocity P-wave (km/s) = 5.47722 7.54192 6.59092
#
# Compressibility (1/GPa) = 0.03392047
#
# Stress axis : x y z
#
# Youngs Moduli (GPa) = 41.94565 63.41842 84.13591
#
# Poissons Ratio (x) = -0.36902 0.68339
# Poissons Ratio (y) = -0.24407 0.54547
# Poissons Ratio (z) = 0.34070 0.41116
#
# Static dielectric constant tensor:
#      x y z
#    x 3.943940 -0.204460 0.332510 
#    y -0.204460 4.404030 -0.153350 
#    z 0.332510 -0.153350 4.167500 
# 
# 
# High freq. dielectric constant tensor:
#      x y z
#    x 1.832460 -0.016230 0.018470 
#    y -0.016230 1.849210 0.011970 
#    z 0.018470 0.011970 1.843780 
# 
# From -- ./inp_files/46216.got.cif
#   From: 2010.06.25/outbox.cif.g09.slc.cpg/sg2_24_cif.got.tgz:46216.got - 2010.06.27 13:26:56.
