data_PCOD8030321
_publ_section_title
;
Structure prediction by ZEFSAII (Michael W. Deem and Ramdas Pophale) SiO2 
 PCOD8030321
Probable space group: P -1
;
_chemical_formula_sum "Si O2"
_cell_formula_units_Z 14
_cell_length_a 9.324994
_cell_length_b 9.158565
_cell_length_c 21.066208
_cell_angle_alpha 128.889954
_cell_angle_beta 149.506227
_cell_angle_gamma 50.436740
_cell_volume 689.321331
_symmetry_space_group_name_H-M "P -1"
_symmetry_group_IT_number 2
_symmetry_cell_setting 'triclinic'
loop_
_space_group_symop_operation_xyz
x,y,z
-x,-y,-z
loop_
_atom_site_type_symbol
_atom_site_label
_atom_site_fract_x
_atom_site_fract_y
_atom_site_fract_z
Si Si1 0.173670 0.477902 0.994979
Si Si2 0.756508 0.190672 0.297420
Si Si3 0.224594 0.521420 0.719191
Si Si4 0.816084 0.934331 0.131665
Si Si5 0.178540 0.103201 0.550625
Si Si6 0.141066 0.178170 0.114990
Si Si7 0.803592 0.841506 0.722460
O O1 0.515283 0.452050 0.129304
O O2 0.108803 0.290922 0.886043
O O3 0.000000 0.500000 0.000000
O O4 0.075240 0.645882 0.953320
O O5 0.718200 0.402597 0.308787
O O6 0.460873 0.150102 0.200216
O O7 0.004973 0.167849 0.437965
O O8 0.869218 0.033915 0.243878
O O9 0.224645 0.296616 0.655023
O O10 0.928588 0.653754 0.674000
O O11 0.025852 0.989946 0.173986
O O12 0.500000 0.000000 0.000000
O O13 0.474045 0.943411 0.604841
O O14 0.000000 0.000000 0.500000
O O15 0.167851 0.224513 0.211733
O O16 0.000000 0.000000 0.000000
#
# Coordination Sequence:
#
# PCOD8030321 Si02
#       7
#     2   2   2   2   2   2   2
#     4  12  22  40  71 100 134 177 217 278 351 404
#     4  11  24  45  68  97 135 181 225 277 333 410
#     4  11  25  45  70  98 133 178 232 278 334 411
#     4  11  21  44  70 100 137 167 224 285 338 410
#     4  12  26  47  69  95 139 184 230 282 337 390
#     4  12  24  40  67 101 139 176 221 280 351 401
#     4  11  25  45  68 100 138 179 225 286 334 403
#
# _framework density 20.309830000000002
#
# number of rings (size 3 to 8) (size 9 to 14) (size 15 to 20)
#    0.000    0.571    5.714    3.857    0.000    4.571 
#    2.571    0.000    0.000    0.000    0.000    0.000 
#    0.000    0.000    0.000    0.000    0.000    0.000 
#
# Total GULP energy -173603.224998 kJ/mol
# GULP energy per Si atom -12400.230357 kJ/mol
# Density = 2.026360 g / cm^3
# Si number density = 20.309830 Si / 1000 Ang^3
#
#
#
# Elastic Constant Matrix: (Units=GPa)
#
#
# Indices 1 2 3 4 5 6 
#
# 1 103.5558 44.8709 30.0735 -4.1708 12.0673 15.6280
# 2 44.8709 129.9835 33.6587 1.3219 6.9442 8.9762
# 3 30.0735 33.6587 75.8103 -11.7405 7.6937 4.8505
# 4 -4.1708 1.3219 -11.7405 49.0413 0.9426 -0.2158
# 5 12.0673 6.9442 7.6937 0.9426 40.9792 -6.7972
# 6 15.6280 8.9762 4.8505 -0.2158 -6.7972 40.5407
#
#
#
# Elastic Compliance Matrix: (Units=1/GPa)
#
#
# Indices 1 2 3 4 5 6 
#
# 1 0.013043 -0.003227 -0.003016 0.000521 -0.003492 -0.004535
# 2 -0.003227 0.009688 -0.003170 -0.001294 -0.000159 -0.000555
# 3 -0.003016 -0.003170 0.016603 0.003837 -0.001848 -0.000411
# 4 0.000521 -0.001294 0.003837 0.021410 -0.001224 -0.000465
# 5 -0.003492 -0.000159 -0.001848 -0.001224 0.026844 0.006097
# 6 -0.004535 -0.000555 -0.000411 -0.000465 0.006097 0.027607
#
#
# Mechanical properties :
#
#
# Convention : Reuss Voigt Hill
#
# Bulk Modulus (GPa) = 48.76166 58.50623 53.63395
# Shear Modulus (GPa) = 35.49678 39.49534 37.49606
#
# Velocity S-wave (km/s) = 4.18516 4.41459 4.30141
# Velocity P-wave (km/s) = 6.88586 7.40636 7.15085
#
# Compressibility (1/GPa) = 0.02050791
#
# Stress axis : x y z
#
# Youngs Moduli (GPa) = 76.66820 103.21906 60.23054
#
# Poissons Ratio (x) = 0.33310 0.18166
# Poissons Ratio (y) = 0.24742 0.19093
# Poissons Ratio (z) = 0.23123 0.32720
#
# Static dielectric constant tensor:
#      x y z
#    x 3.676300 0.471420 0.218750 
#    y 0.471420 4.262820 0.105370 
#    z 0.218750 0.105370 3.824800 
# 
# 
# High freq. dielectric constant tensor:
#      x y z
#    x 1.801940 0.008360 0.007860 
#    y 0.008360 1.804940 -0.002460 
#    z 0.007860 -0.002460 1.798000 
# 
# From -- ./inp_files/157866.got.cif
#   From: 2010.06.25/outbox.cif.g09.slc.cpg/sg2_79_cif.got.tgz:157866.got - 2010.06.27 13:26:56.
