data_PCOD8030509
_publ_section_title
;
Structure prediction by ZEFSAII (Michael W. Deem and Ramdas Pophale) SiO2 
 PCOD8030509
Probable space group: P -1
;
_chemical_formula_sum "Si O2"
_cell_formula_units_Z 16
_cell_length_a 11.952250
_cell_length_b 14.101427
_cell_length_c 8.849978
_cell_angle_alpha 68.348760
_cell_angle_beta 124.244715
_cell_angle_gamma 67.077211
_cell_volume 721.191969
_symmetry_space_group_name_H-M "P -1"
_symmetry_group_IT_number 2
_symmetry_cell_setting 'triclinic'
loop_
_space_group_symop_operation_xyz
x,y,z
-x,-y,-z
loop_
_atom_site_type_symbol
_atom_site_label
_atom_site_fract_x
_atom_site_fract_y
_atom_site_fract_z
Si Si1 0.943109 0.874369 0.219143
Si Si2 0.365057 0.432688 0.847502
Si Si3 0.479957 0.853502 0.758868
Si Si4 0.963096 0.650902 0.249996
Si Si5 0.835907 0.610531 0.676929
Si Si6 0.411387 0.808311 0.401328
Si Si7 0.580390 0.391464 0.311887
Si Si8 0.274566 0.110916 0.684160
O O1 0.860268 0.884043 0.313005
O O2 0.931697 0.791241 0.132069
O O3 0.185520 0.771837 0.486656
O O4 0.806370 0.046555 0.942917
O O5 0.112305 0.547686 0.575136
O O6 0.427907 0.480894 0.737724
O O7 0.525124 0.242374 0.077727
O O8 0.389265 0.474693 0.002645
O O9 0.409387 0.866306 0.528625
O O10 0.320390 0.030743 0.603370
O O11 0.729081 0.739796 0.020514
O O12 0.116719 0.512660 0.321924
O O13 0.595790 0.747884 0.475106
O O14 0.856724 0.707649 0.551994
O O15 0.000000 0.500000 0.000000
O O16 0.446049 0.665622 0.528380
O O17 0.500000 0.000000 0.000000
#
# Coordination Sequence:
#
# PCOD8030509 Si02
#       8
#     2   2   2   2   2   2   2   2
#     4  11  24  42  69  91 129 171 218 262 315 390
#     4   9  20  37  63  94 121 159 216 265 310 376
#     4  11  22  38  66  95 131 165 208 262 327 388
#     4  11  22  36  65  96 126 165 206 261 328 381
#     4  12  26  38  63 100 136 165 209 267 326 386
#     4  11  23  43  64  92 132 173 210 266 316 385
#     4   9  21  41  66  89 123 175 216 259 319 373
#     4  12  24  41  64  99 130 167 211 266 326 385
#
# _framework density 22.185495
#
# number of rings (size 3 to 8) (size 9 to 14) (size 15 to 20)
#    0.000    1.250    3.750    1.500    5.250    2.000 
#    0.000    5.000    5.500    0.000    0.000    0.000 
#    0.000    0.000    0.000    0.000    0.000    0.000 
#
# Total GULP energy -198225.777004 kJ/mol
# GULP energy per Si atom -12389.111063 kJ/mol
# Density = 2.213500 g / cm^3
# Si number density = 22.185495 Si / 1000 Ang^3
#
#
#
# Elastic Constant Matrix: (Units=GPa)
#
#
# Indices 1 2 3 4 5 6 
#
# 1 84.2903 18.3103 25.8370 5.4211 -16.7065 -3.6915
# 2 18.3103 89.1169 3.9297 -8.4785 -6.3156 -9.7954
# 3 25.8370 3.9297 113.9020 8.1822 -9.0118 -3.8045
# 4 5.4211 -8.4785 8.1822 24.4836 9.8334 -2.7272
# 5 -16.7065 -6.3156 -9.0118 9.8334 40.6833 -7.2977
# 6 -3.6915 -9.7954 -3.8045 -2.7272 -7.2977 23.6256
#
#
#
# Elastic Compliance Matrix: (Units=1/GPa)
#
#
# Indices 1 2 3 4 5 6 
#
# 1 0.015085 -0.002826 -0.002234 -0.006195 0.007176 0.002327
# 2 -0.002826 0.013000 0.000032 0.005534 0.000562 0.005766
# 3 -0.002234 0.000032 0.009782 -0.003550 0.002394 0.001569
# 4 -0.006195 0.005534 -0.003550 0.051386 -0.014495 0.002209
# 5 0.007176 0.000562 0.002394 -0.014495 0.033517 0.010419
# 6 0.002327 0.005766 0.001569 0.002209 0.010419 0.048807
#
#
# Mechanical properties :
#
#
# Convention : Reuss Voigt Hill
#
# Bulk Modulus (GPa) = 35.95596 42.60702 39.28149
# Shear Modulus (GPa) = 26.19120 33.70730 29.94925
#
# Velocity S-wave (km/s) = 3.43965 3.90210 3.67815
# Velocity P-wave (km/s) = 5.65836 6.28875 5.98187
#
# Compressibility (1/GPa) = 0.02781180
#
# Stress axis : x y z
#
# Youngs Moduli (GPa) = 66.29103 76.92015 102.22941
#
# Poissons Ratio (x) = 0.21738 0.22836
# Poissons Ratio (y) = 0.18734 -0.00327
# Poissons Ratio (z) = 0.14808 -0.00246
#
# Static dielectric constant tensor:
#      x y z
#    x 4.568560 1.021950 -0.088360 
#    y 1.021950 5.018930 0.011230 
#    z -0.088360 0.011230 4.145090 
# 
# 
# High freq. dielectric constant tensor:
#      x y z
#    x 1.868990 0.022340 -0.007770 
#    y 0.022340 1.847920 -0.004170 
#    z -0.007770 -0.004170 1.889620 
# 
# From -- ./inp_files/272669.got.cif
#   From: 2010.06.25/outbox.cif.g09.slc.cpg/sg2_137_cif.got.tgz:272669.got - 2010.06.27 13:26:56.
