data_PCOD8030401
_publ_section_title
;
Structure prediction by ZEFSAII (Michael W. Deem and Ramdas Pophale) SiO2 
 PCOD8030401
Probable space group: P -1
;
_chemical_formula_sum "Si O2"
_cell_formula_units_Z 16
_cell_length_a 25.173114
_cell_length_b 9.402119
_cell_length_c 8.818619
_cell_angle_alpha 42.138669
_cell_angle_beta 39.986988
_cell_angle_gamma 38.397722
_cell_volume 779.330106
_symmetry_space_group_name_H-M "P -1"
_symmetry_group_IT_number 2
_symmetry_cell_setting 'triclinic'
loop_
_space_group_symop_operation_xyz
x,y,z
-x,-y,-z
loop_
_atom_site_type_symbol
_atom_site_label
_atom_site_fract_x
_atom_site_fract_y
_atom_site_fract_z
Si Si1 0.666674 0.390782 0.822013
Si Si2 0.019581 0.737721 0.115911
Si Si3 0.491370 0.546097 0.301036
Si Si4 0.148158 0.743919 0.290783
Si Si5 0.589607 0.756384 0.442888
Si Si6 0.998758 0.256570 0.168461
Si Si7 0.663705 0.022490 0.875307
Si Si8 0.851972 0.639711 0.623231
O O1 0.769366 0.296352 0.743518
O O2 0.644230 0.622404 0.583443
O O3 0.665000 0.189221 0.876961
O O4 0.593501 0.455935 0.070562
O O5 0.924639 0.712842 0.330968
O O6 0.099433 0.524037 0.207958
O O7 0.062372 0.703230 0.881593
O O8 0.000000 0.000000 0.000000
O O9 0.500000 0.500000 0.500000
O O10 0.443087 0.401890 0.454350
O O11 0.421203 0.828000 0.179818
O O12 0.182025 0.515255 0.283415
O O13 0.054730 0.773618 0.550473
O O14 0.105180 0.016655 0.097608
O O15 0.500000 0.000000 0.500000
O O16 0.654155 0.807706 0.146535
O O17 0.000000 0.500000 0.000000
O O18 0.761375 0.895520 0.667998
#
# Coordination Sequence:
#
# PCOD8030401 Si02
#       8
#     2   2   2   2   2   2   2   2
#     4  11  25  43  66  97 132 173 223 269 326 395
#     4  11  24  44  68  90 135 177 214 269 326 387
#     4  11  25  44  66 100 133 169 215 277 328 388
#     4  11  26  42  64 100 133 163 224 274 318 395
#     4  11  21  45  69  87 129 179 220 263 322 392
#     4  11  24  45  66  91 131 178 212 265 332 385
#     4  11  25  44  67  95 133 176 222 266 328 398
#     4  11  26  42  64 102 130 169 223 270 325 390
#
# _framework density 20.530452
#
# number of rings (size 3 to 8) (size 9 to 14) (size 15 to 20)
#    0.000    1.000    5.000    0.750    7.000    3.500 
#    0.000    0.000    0.000    0.000    0.000    0.000 
#    0.000    0.000    0.000    0.000    0.000    0.000 
#
# Total GULP energy -198304.716489 kJ/mol
# GULP energy per Si atom -12394.044781 kJ/mol
# Density = 2.048372 g / cm^3
# Si number density = 20.530452 Si / 1000 Ang^3
#
#
#
# Elastic Constant Matrix: (Units=GPa)
#
#
# Indices 1 2 3 4 5 6 
#
# 1 118.8838 34.2474 34.3509 -7.1584 17.2144 -6.3623
# 2 34.2474 110.8544 33.3893 -2.7218 6.5710 -2.5357
# 3 34.3509 33.3893 75.8506 -16.9497 12.5605 -7.6860
# 4 -7.1584 -2.7218 -16.9497 35.0169 2.6664 0.1039
# 5 17.2144 6.5710 12.5605 2.6664 37.4171 2.6634
# 6 -6.3623 -2.5357 -7.6860 0.1039 2.6634 33.7691
#
#
#
# Elastic Compliance Matrix: (Units=1/GPa)
#
#
# Indices 1 2 3 4 5 6 
#
# 1 0.010513 -0.002107 -0.002887 0.000862 -0.003662 0.001451
# 2 -0.002107 0.010904 -0.004426 -0.001778 0.000712 -0.000636
# 3 -0.002887 -0.004426 0.019772 0.009040 -0.005463 0.004027
# 4 0.000862 -0.001778 0.009040 0.033396 -0.005672 0.002431
# 5 -0.003662 0.000712 -0.005463 -0.005672 0.030829 -0.004294
# 6 0.001451 -0.000636 0.004027 0.002431 -0.004294 0.031086
#
#
# Mechanical properties :
#
#
# Convention : Reuss Voigt Hill
#
# Bulk Modulus (GPa) = 44.74247 56.61822 50.68034
# Shear Modulus (GPa) = 30.71436 34.81403 32.76419
#
# Velocity S-wave (km/s) = 3.87206 4.12239 3.99918
# Velocity P-wave (km/s) = 6.46769 7.09199 6.78702
#
# Compressibility (1/GPa) = 0.02235013
#
# Stress axis : x y z
#
# Youngs Moduli (GPa) = 95.12391 91.70734 50.57563
#
# Poissons Ratio (x) = 0.19320 0.14603
# Poissons Ratio (y) = 0.20039 0.22382
# Poissons Ratio (z) = 0.27466 0.40585
#
# Static dielectric constant tensor:
#      x y z
#    x 3.614210 -0.161210 0.198400 
#    y -0.161210 4.223350 -0.921000 
#    z 0.198400 -0.921000 4.873220 
# 
# 
# High freq. dielectric constant tensor:
#      x y z
#    x 1.806700 0.003360 0.011310 
#    y 0.003360 1.812420 -0.012180 
#    z 0.011310 -0.012180 1.812650 
# 
# From -- ./inp_files/49077.got.cif
#   From: 2010.06.25/outbox.cif.g09.slc.cpg/sg2_25_cif.got.tgz:49077.got - 2010.06.27 13:26:56.
