data_PCOD8030936
_publ_section_title
;
Structure prediction by ZEFSAII (Michael W. Deem and Ramdas Pophale) SiO2 
 PCOD8030936
Probable space group: P -1
;
_chemical_formula_sum "Si O2"
_cell_formula_units_Z 14
_cell_length_a 27.039479
_cell_length_b 15.144178
_cell_length_c 14.792922
_cell_angle_alpha 160.797296
_cell_angle_beta 161.183577
_cell_angle_gamma 17.840960
_cell_volume 537.998972
_symmetry_space_group_name_H-M "P -1"
_symmetry_group_IT_number 2
_symmetry_cell_setting 'triclinic'
loop_
_space_group_symop_operation_xyz
x,y,z
-x,-y,-z
loop_
_atom_site_type_symbol
_atom_site_label
_atom_site_fract_x
_atom_site_fract_y
_atom_site_fract_z
Si Si1 0.352723 0.692219 0.698542
Si Si2 0.003344 0.676228 0.263040
Si Si3 0.006041 0.548697 0.334761
Si Si4 0.221117 0.773919 0.162519
Si Si5 0.342767 0.189826 0.685546
Si Si6 0.414179 0.353168 0.652897
Si Si7 0.215633 0.734354 0.310000
O O1 0.445599 0.376627 0.620499
O O2 0.349270 0.587126 0.486530
O O3 0.150645 0.942028 0.633011
O O4 0.458001 0.879652 0.063218
O O5 0.972958 0.510123 0.135129
O O6 0.202912 0.604665 0.551922
O O7 0.000000 0.500000 0.000000
O O8 0.217483 0.330129 0.515563
O O9 0.945906 0.907417 0.598786
O O10 0.875361 0.456879 0.066704
O O11 0.309159 0.732756 0.375651
O O12 0.329385 0.891231 0.403105
O O13 0.265023 0.440994 0.876268
O O14 0.000000 0.000000 0.000000
O O15 0.500000 0.000000 0.500000
O O16 0.500000 0.500000 0.000000
#
# Coordination Sequence:
#
# PCOD8030936 Si02
#       7
#     2   2   2   2   2   2   2
#     4  11  28  49  71 115 155 196 252 309 392 441
#     4  11  25  48  77 106 153 199 246 311 384 448
#     4  11  22  41  68 103 136 194 248 301 361 438
#     4  12  23  44  74 109 148 195 257 300 373 439
#     4  12  25  43  75 107 150 193 250 315 358 450
#     4  12  27  49  78 107 144 194 254 309 363 448
#     4  11  24  43  71 101 149 193 243 304 370 442
#
# _framework density 26.022354
#
# number of rings (size 3 to 8) (size 9 to 14) (size 15 to 20)
#    0.000    0.571    2.857    4.286    0.000   12.571 
#    0.000    0.000    0.000    0.000    0.000    0.000 
#    0.000    0.000    0.000    0.000    0.000    0.000 
#
# Total GULP energy -173502.192409 kJ/mol
# GULP energy per Si atom -12393.013743 kJ/mol
# Density = 2.596313 g / cm^3
# Si number density = 26.022354 Si / 1000 Ang^3
#
#
#
# Elastic Constant Matrix: (Units=GPa)
#
#
# Indices 1 2 3 4 5 6 
#
# 1 134.2304 47.9308 12.0276 6.3086 -16.4744 47.3754
# 2 47.9308 112.9496 47.7212 -17.4520 1.0111 27.6295
# 3 12.0276 47.7212 126.7921 -6.0076 5.4910 22.9629
# 4 6.3086 -17.4520 -6.0076 35.9751 -3.4695 0.1794
# 5 -16.4744 1.0111 5.4910 -3.4695 55.7720 -8.3985
# 6 47.3754 27.6295 22.9629 0.1794 -8.3985 43.6054
#
#
#
# Elastic Compliance Matrix: (Units=1/GPa)
#
#
# Indices 1 2 3 4 5 6 
#
# 1 0.013821 -0.004263 0.002439 -0.003856 0.001683 -0.013259
# 2 -0.004263 0.014012 -0.004082 0.006775 -0.001040 -0.002325
# 3 0.002439 -0.004082 0.010229 -0.000779 -0.001113 -0.005661
# 4 -0.003856 0.006775 -0.000779 0.031709 0.000838 0.000338
# 5 0.001683 -0.001040 -0.001113 0.000838 0.019073 0.003087
# 6 -0.013259 -0.002325 -0.005661 0.000338 0.003087 0.042386
#
#
# Mechanical properties :
#
#
# Convention : Reuss Voigt Hill
#
# Bulk Modulus (GPa) = 38.09569 65.48125 51.78847
# Shear Modulus (GPa) = 32.93985 44.82330 38.88157
#
# Velocity S-wave (km/s) = 3.56171 4.15479 3.86963
# Velocity P-wave (km/s) = 5.62012 6.94511 6.31745
#
# Compressibility (1/GPa) = 0.02624969
#
# Stress axis : x y z
#
# Youngs Moduli (GPa) = 72.35310 71.36649 97.76540
#
# Poissons Ratio (x) = 0.30423 -0.23846
# Poissons Ratio (y) = 0.30844 0.39910
# Poissons Ratio (z) = -0.17648 0.29134
#
# Static dielectric constant tensor:
#      x y z
#    x 5.271760 0.508660 -0.074270 
#    y 0.508660 4.689580 -0.177630 
#    z -0.074270 -0.177630 4.510160 
# 
# 
# High freq. dielectric constant tensor:
#      x y z
#    x 2.064640 0.013310 -0.001050 
#    y 0.013310 2.043040 -0.007220 
#    z -0.001050 -0.007220 2.046050 
# 
# From -- ./inp_files/544243.got.cif
#   From: 2010.06.25/outbox.cif.g09.slc.cpg/sg2_273_cif.got.tgz:544243.got - 2010.06.27 13:26:56.
