data_PCOD8030197
_publ_section_title
;
Structure prediction by ZEFSAII (Michael W. Deem and Ramdas Pophale) SiO2 
 PCOD8030197
Probable space group: P -1
;
_chemical_formula_sum "Si O2"
_cell_formula_units_Z 14
_cell_length_a 8.561663
_cell_length_b 8.943318
_cell_length_c 7.651620
_cell_angle_alpha 78.057533
_cell_angle_beta 86.342227
_cell_angle_gamma 67.520923
_cell_volume 529.572805
_symmetry_space_group_name_H-M "P -1"
_symmetry_group_IT_number 2
_symmetry_cell_setting 'triclinic'
loop_
_space_group_symop_operation_xyz
x,y,z
-x,-y,-z
loop_
_atom_site_type_symbol
_atom_site_label
_atom_site_fract_x
_atom_site_fract_y
_atom_site_fract_z
Si Si1 0.706741 0.142308 0.725336
Si Si2 0.671475 0.755822 0.270967
Si Si3 0.482245 0.390084 0.184134
Si Si4 0.015929 0.151472 0.302985
Si Si5 0.727603 0.415621 0.458382
Si Si6 0.179076 0.365281 0.072456
Si Si7 0.748910 0.063035 0.137406
O O1 0.524408 0.137139 0.703089
O O2 0.698891 0.331236 0.661609
O O3 0.769823 0.067409 0.927267
O O4 0.847219 0.028886 0.595510
O O5 0.732512 0.598191 0.438384
O O6 0.698576 0.677612 0.094944
O O7 0.769943 0.880593 0.251391
O O8 0.566981 0.425354 0.346135
O O9 0.569810 0.196048 0.178424
O O10 0.500000 0.500000 0.000000
O O11 0.280434 0.424697 0.200386
O O12 0.912219 0.295428 0.407469
O O13 0.894001 0.115815 0.185662
O O14 0.149191 0.206390 0.176634
O O15 0.000000 0.500000 0.000000
#
# Coordination Sequence:
#
# PCOD8030197 Si02
#       7
#     2   2   2   2   2   2   2
#     4  12  23  41  68 101 135 171 214 287 330 382
#     4  12  23  42  68 100 128 174 223 273 326 392
#     4  11  21  43  68  98 127 181 225 267 318 411
#     4  11  24  43  69  97 131 182 222 268 321 406
#     4  11  25  45  66  97 141 173 216 268 346 391
#     4  12  21  39  72  97 128 167 236 270 315 387
#     4  11  23  42  72  98 130 172 234 266 323 390
#
# _framework density 26.436402999999999
#
# number of rings (size 3 to 8) (size 9 to 14) (size 15 to 20)
#    0.000    0.571    5.714    3.429    0.000    0.000 
#    0.000    8.571    0.000    0.000    0.000    0.000 
#    0.000    0.000    0.000    0.000    0.000    0.000 
#
# Total GULP energy -173485.616217 kJ/mol
# GULP energy per Si atom -12391.829730 kJ/mol
# Density = 2.637623 g / cm^3
# Si number density = 26.436403 Si / 1000 Ang^3
#
#
#
# Elastic Constant Matrix: (Units=GPa)
#
#
# Indices 1 2 3 4 5 6 
#
# 1 144.9915 41.9575 25.2628 -10.9851 -6.7120 -6.9611
# 2 41.9575 127.5287 26.1293 -28.1647 -1.9339 -2.9760
# 3 25.2628 26.1293 62.0125 -26.8774 -8.0930 15.6031
# 4 -10.9851 -28.1647 -26.8774 46.3435 6.8453 -13.2184
# 5 -6.7120 -1.9339 -8.0930 6.8453 17.6739 -13.8219
# 6 -6.9611 -2.9760 15.6031 -13.2184 -13.8219 61.9822
#
#
#
# Elastic Compliance Matrix: (Units=1/GPa)
#
#
# Indices 1 2 3 4 5 6 
#
# 1 0.008247 -0.002234 -0.002930 -0.001025 0.003621 0.002145
# 2 -0.002234 0.010085 -0.001590 0.005297 -0.001388 0.001454
# 3 -0.002930 -0.001590 0.023911 0.010801 0.002733 -0.003512
# 4 -0.001025 0.005297 0.010801 0.032469 -0.004895 0.003253
# 5 0.003621 -0.001388 0.002733 -0.004895 0.072507 0.014777
# 6 0.002145 0.001454 -0.003512 0.003253 0.014777 0.021317
#
#
# Mechanical properties :
#
#
# Convention : Reuss Voigt Hill
#
# Bulk Modulus (GPa) = 34.80189 57.91467 46.35828
# Shear Modulus (GPa) = 26.09276 41.27879 33.68578
#
# Velocity S-wave (km/s) = 3.14507 3.95579 3.57349
# Velocity P-wave (km/s) = 5.13630 6.54363 5.88220
#
# Compressibility (1/GPa) = 0.02873407
#
# Stress axis : x y z
#
# Youngs Moduli (GPa) = 121.25690 99.15707 41.82159
#
# Poissons Ratio (x) = 0.22156 0.12253
# Poissons Ratio (y) = 0.27094 0.06651
# Poissons Ratio (z) = 0.35525 0.15769
#
# Static dielectric constant tensor:
#      x y z
#    x 5.136340 -0.282190 -0.315050 
#    y -0.282190 5.259750 -0.470000 
#    z -0.315050 -0.470000 4.930560 
# 
# 
# High freq. dielectric constant tensor:
#      x y z
#    x 2.069240 -0.014220 -0.022060 
#    y -0.014220 2.080450 -0.024340 
#    z -0.022060 -0.024340 2.045890 
# 
# From -- ./inp_files/157407.got.cif
#   From: 2010.06.25/outbox.cif.g09.slc.cpg/sg2_79_cif.got.tgz:157407.got - 2010.06.27 13:26:56.
