data_PCOD8030683
_publ_section_title
;
Structure prediction by ZEFSAII (Michael W. Deem and Ramdas Pophale) SiO2 
 PCOD8030683
Probable space group: P -1
;
_chemical_formula_sum "Si O2"
_cell_formula_units_Z 16
_cell_length_a 15.401105
_cell_length_b 12.241313
_cell_length_c 9.382361
_cell_angle_alpha 135.296553
_cell_angle_beta 44.652057
_cell_angle_gamma 142.217699
_cell_volume 714.891965
_symmetry_space_group_name_H-M "P -1"
_symmetry_group_IT_number 2
_symmetry_cell_setting 'triclinic'
loop_
_space_group_symop_operation_xyz
x,y,z
-x,-y,-z
loop_
_atom_site_type_symbol
_atom_site_label
_atom_site_fract_x
_atom_site_fract_y
_atom_site_fract_z
Si Si1 0.681808 0.112068 0.875665
Si Si2 0.241177 0.972380 0.870800
Si Si3 0.322477 0.049883 0.545736
Si Si4 0.462154 0.622508 0.064118
Si Si5 0.809309 0.513430 0.230618
Si Si6 0.081792 0.903238 0.261488
Si Si7 0.659218 0.296594 0.475492
Si Si8 0.631820 0.592497 0.317537
O O1 0.752056 0.012458 0.784651
O O2 0.719025 0.118861 0.670527
O O3 0.768622 0.324286 0.027001
O O4 0.500000 0.000000 0.000000
O O5 0.246056 0.791556 0.725196
O O6 0.207104 0.977363 0.747018
O O7 0.392971 0.164655 0.923960
O O8 0.105223 0.938648 0.096071
O O9 0.484497 0.130845 0.499293
O O10 0.322668 0.205680 0.599528
O O11 0.329557 0.616810 0.300973
O O12 0.500000 0.500000 0.000000
O O13 0.406728 0.542431 0.897495
O O14 0.719711 0.459265 0.435073
O O15 0.771908 0.625382 0.269896
O O16 0.985664 0.677453 0.203785
O O17 0.000000 0.000000 0.500000
O O18 0.500000 0.500000 0.500000
#
# Coordination Sequence:
#
# PCOD8030683 Si02
#       8
#     2   2   2   2   2   2   2   2
#     4  12  24  46  76 108 140 189 250 302 354 431
#     4  11  25  43  67  96 149 189 243 290 374 430
#     4  11  22  41  65 106 136 186 237 308 349 421
#     4  11  22  39  68 107 140 188 244 307 360 420
#     4  12  26  43  70 106 146 186 242 293 371 432
#     4  12  29  48  73 105 150 198 237 301 375 441
#     4  11  22  41  69 101 147 183 241 299 369 426
#     4  12  23  38  66 103 144 178 244 295 355 420
#
# _framework density 22.381003
#
# number of rings (size 3 to 8) (size 9 to 14) (size 15 to 20)
#    0.000    0.500    6.250    2.625   10.500    0.000 
#    0.000    4.375    0.000    0.000    0.000    0.000 
#    0.000    0.000    0.000    0.000    0.000    0.000 
#
# Total GULP energy -198322.799277 kJ/mol
# GULP energy per Si atom -12395.174955 kJ/mol
# Density = 2.233006 g / cm^3
# Si number density = 22.381003 Si / 1000 Ang^3
#
#
#
# Elastic Constant Matrix: (Units=GPa)
#
#
# Indices 1 2 3 4 5 6 
#
# 1 94.4498 25.3804 48.3266 -7.6866 -2.9664 -14.7509
# 2 25.3804 94.5267 65.9563 -4.7256 8.5856 -6.0954
# 3 48.3266 65.9563 203.3855 -19.6463 24.4915 -5.3935
# 4 -7.6866 -4.7256 -19.6463 34.4377 -8.9918 5.5522
# 5 -2.9664 8.5856 24.4915 -8.9918 49.2348 -0.2675
# 6 -14.7509 -6.0954 -5.3935 5.5522 -0.2675 32.3773
#
#
#
# Elastic Compliance Matrix: (Units=1/GPa)
#
#
# Indices 1 2 3 4 5 6 
#
# 1 0.013396 -0.001517 -0.002773 0.001060 0.002673 0.005196
# 2 -0.001517 0.013993 -0.004175 -0.001208 -0.000667 0.001449
# 3 -0.002773 -0.004175 0.007468 0.002571 -0.002692 -0.001268
# 4 0.001060 -0.001208 0.002571 0.032649 0.004932 -0.004874
# 5 0.002673 -0.000667 -0.002692 0.004932 0.022828 -0.000013
# 6 0.005196 0.001449 -0.001268 -0.004874 -0.000013 0.034150
#
#
# Mechanical properties :
#
#
# Convention : Reuss Voigt Hill
#
# Bulk Modulus (GPa) = 55.78010 74.63208 65.20609
# Shear Modulus (GPa) = 33.92357 40.05654 36.99006
#
# Velocity S-wave (km/s) = 3.89746 4.23514 4.06981
# Velocity P-wave (km/s) = 6.72538 7.57191 7.16116
#
# Compressibility (1/GPa) = 0.01792754
#
# Stress axis : x y z
#
# Youngs Moduli (GPa) = 74.65132 71.46238 133.89668
#
# Poissons Ratio (x) = 0.10839 0.37126
# Poissons Ratio (y) = 0.11323 0.55908
# Poissons Ratio (z) = 0.20699 0.29839
#
# Static dielectric constant tensor:
#      x y z
#    x 4.556480 -0.226460 0.344840 
#    y -0.226460 4.033310 0.029610 
#    z 0.344840 0.029610 4.652610 
# 
# 
# High freq. dielectric constant tensor:
#      x y z
#    x 1.870140 -0.022250 0.013120 
#    y -0.022250 1.867010 0.003590 
#    z 0.013120 0.003590 1.906640 
# 
# From -- ./inp_files/308477.got.cif
#   From: 2010.06.25/outbox.cif.g09.slc.cpg/sg2_155_cif.got.tgz:308477.got - 2010.06.27 13:26:56.
