data_PCOD8030115
_publ_section_title
;
Structure prediction by ZEFSAII (Michael W. Deem and Ramdas Pophale) SiO2 
 PCOD8030115
Probable space group: P -1
;
_chemical_formula_sum "Si O2"
_cell_formula_units_Z 14
_cell_length_a 9.156488
_cell_length_b 12.318057
_cell_length_c 8.244075
_cell_angle_alpha 129.331660
_cell_angle_beta 111.190919
_cell_angle_gamma 59.412252
_cell_volume 618.089147
_symmetry_space_group_name_H-M "P -1"
_symmetry_group_IT_number 2
_symmetry_cell_setting 'triclinic'
loop_
_space_group_symop_operation_xyz
x,y,z
-x,-y,-z
loop_
_atom_site_type_symbol
_atom_site_label
_atom_site_fract_x
_atom_site_fract_y
_atom_site_fract_z
Si Si1 0.665779 0.358718 0.984573
Si Si2 0.819696 0.423549 0.633844
Si Si3 0.812003 0.072365 0.559315
Si Si4 0.749169 0.571836 0.423083
Si Si5 0.585927 0.247901 0.377524
Si Si6 0.808621 0.779124 0.385443
Si Si7 0.578967 0.713546 0.974647
O O1 0.771145 0.240185 0.775967
O O2 0.500000 0.500000 0.000000
O O3 0.792538 0.428954 0.182183
O O4 0.598123 0.265819 0.993527
O O5 0.857918 0.511570 0.575287
O O6 0.716118 0.322429 0.435873
O O7 0.708890 0.538589 0.835761
O O8 0.998791 0.319787 0.687149
O O9 0.687229 0.095733 0.376474
O O10 0.784641 0.955269 0.565803
O O11 0.000000 0.000000 0.500000
O O12 0.550896 0.628441 0.444412
O O13 0.774848 0.713268 0.480210
O O14 0.482952 0.207794 0.151554
O O15 0.678392 0.787667 0.197453
#
# Coordination Sequence:
#
# PCOD8030115 Si02
#       7
#     2   2   2   2   2   2   2
#     4  12  21  42  73  99 127 185 239 262 329 422
#     4  11  21  42  70 103 137 179 226 284 337 400
#     4  12  27  45  66  99 147 181 214 287 357 398
#     4  11  22  41  73 103 129 183 236 280 319 415
#     4  11  21  43  72  95 136 180 234 265 339 407
#     4  12  26  40  65 104 144 173 223 290 348 388
#     4  11  22  39  71 102 127 181 234 278 318 414
#
# _framework density 22.650452999999999
#
# number of rings (size 3 to 8) (size 9 to 14) (size 15 to 20)
#    0.000    0.571    7.143    1.714    0.000    4.000 
#    0.000    4.286    0.000    0.000    0.000    0.000 
#    0.000    0.000    0.000    0.000    0.000    0.000 
#
# Total GULP energy -173521.832899 kJ/mol
# GULP energy per Si atom -12394.416636 kJ/mol
# Density = 2.259890 g / cm^3
# Si number density = 22.650453 Si / 1000 Ang^3
#
#
#
# Elastic Constant Matrix: (Units=GPa)
#
#
# Indices 1 2 3 4 5 6 
#
# 1 57.4904 33.2547 22.5920 0.2692 -3.8077 11.5780
# 2 33.2547 125.7775 29.9333 3.9733 0.9963 7.2441
# 3 22.5920 29.9333 69.7552 4.1770 -6.8013 1.6278
# 4 0.2692 3.9733 4.1770 29.6235 -2.0615 6.5466
# 5 -3.8077 0.9963 -6.8013 -2.0615 31.1483 3.9011
# 6 11.5780 7.2441 1.6278 6.5466 3.9011 37.9952
#
#
#
# Elastic Compliance Matrix: (Units=1/GPa)
#
#
# Indices 1 2 3 4 5 6 
#
# 1 0.023836 -0.004729 -0.005416 0.002919 0.002944 -0.006935
# 2 -0.004729 0.009915 -0.002817 -0.001001 -0.001577 0.000006
# 3 -0.005416 -0.002817 0.017683 -0.002193 0.002956 0.001504
# 4 0.002919 -0.001001 -0.002193 0.035971 0.003184 -0.007129
# 5 0.002944 -0.001577 0.002956 0.003184 0.033967 -0.004759
# 6 -0.006935 0.000006 0.001504 -0.007129 -0.004759 0.030084
#
#
# Mechanical properties :
#
#
# Convention : Reuss Voigt Hill
#
# Bulk Modulus (GPa) = 39.20158 47.17589 43.18874
# Shear Modulus (GPa) = 26.89834 30.90295 28.90064
#
# Velocity S-wave (km/s) = 3.44981 3.69771 3.57591
# Velocity P-wave (km/s) = 5.76307 6.25330 6.01318
#
# Compressibility (1/GPa) = 0.02550917
#
# Stress axis : x y z
#
# Youngs Moduli (GPa) = 41.95295 100.85599 56.55031
#
# Poissons Ratio (x) = 0.47697 0.30630
# Poissons Ratio (y) = 0.19840 0.15931
# Poissons Ratio (z) = 0.22724 0.28412
#
# Static dielectric constant tensor:
#      x y z
#    x 4.259220 0.019340 -0.049240 
#    y 0.019340 4.286870 -0.123200 
#    z -0.049240 -0.123200 3.844110 
# 
# 
# High freq. dielectric constant tensor:
#      x y z
#    x 1.894770 0.001590 -0.004270 
#    y 0.001590 1.899070 -0.014610 
#    z -0.004270 -0.014610 1.864540 
# 
# From -- ./inp_files/189945.got.cif
#   From: 2010.06.25/outbox.cif.g09.slc.cpg/sg2_95_cif.got.tgz:189945.got - 2010.06.27 13:26:56.
