data_PCOD8030743
_publ_section_title
;
Structure prediction by ZEFSAII (Michael W. Deem and Ramdas Pophale) SiO2 
 PCOD8030743
Probable space group: P -1
;
_chemical_formula_sum "Si O2"
_cell_formula_units_Z 16
_cell_length_a 24.555199
_cell_length_b 18.518267
_cell_length_c 14.361440
_cell_angle_alpha 149.157554
_cell_angle_beta 160.647132
_cell_angle_gamma 20.643754
_cell_volume 746.230164
_symmetry_space_group_name_H-M "P -1"
_symmetry_group_IT_number 2
_symmetry_cell_setting 'triclinic'
loop_
_space_group_symop_operation_xyz
x,y,z
-x,-y,-z
loop_
_atom_site_type_symbol
_atom_site_label
_atom_site_fract_x
_atom_site_fract_y
_atom_site_fract_z
Si Si1 0.826417 0.144828 0.965603
Si Si2 0.949504 0.698944 0.237465
Si Si3 0.666666 0.495882 0.204274
Si Si4 0.896349 0.198184 0.824337
Si Si5 0.346124 0.972979 0.183479
Si Si6 0.658566 0.618276 0.635165
Si Si7 0.489760 0.556975 0.680646
Si Si8 0.221967 0.956783 0.776557
O O1 0.581666 0.206976 0.623429
O O2 0.751791 0.357585 0.094221
O O3 0.000000 0.000000 0.000000
O O4 0.962072 0.021611 0.143802
O O5 0.095632 0.605271 0.466469
O O6 0.123415 0.568023 0.284758
O O7 0.830635 0.927095 0.276324
O O8 0.739050 0.712548 0.919589
O O9 0.492448 0.735372 0.164352
O O10 0.500000 0.500000 0.000000
O O11 0.772953 0.370793 0.898624
O O12 0.677756 0.287943 0.504784
O O13 0.095409 0.151293 0.032502
O O14 0.500000 0.000000 0.500000
O O15 0.283134 0.032480 0.038832
O O16 0.594911 0.540579 0.523659
O O17 0.455174 0.705214 0.862212
O O18 0.000000 0.000000 0.500000
#
# Coordination Sequence:
#
# PCOD8030743 Si02
#       8
#     2   2   2   2   2   2   2   2
#     4  12  24  42  69  96 131 171 219 268 325 390
#     4  11  24  38  68  98 134 162 218 278 324 374
#     4  12  23  42  68  98 125 172 224 262 316 396
#     4  11  23  41  68  94 133 167 220 266 330 379
#     4  12  27  42  66 100 136 167 213 276 331 378
#     4  11  22  40  65  99 129 170 211 272 334 379
#     4  11  23  41  69  96 127 176 222 265 321 396
#     4  12  22  41  67  97 127 171 226 262 314 392
#
# _framework density 21.441106000000001
#
# number of rings (size 3 to 8) (size 9 to 14) (size 15 to 20)
#    0.000    0.500    6.250    2.250    7.000    0.000 
#    0.000    2.500    0.000    0.000    0.000    0.000 
#    0.000    0.000    0.000    0.000    0.000    0.000 
#
# Total GULP energy -198312.107629 kJ/mol
# GULP energy per Si atom -12394.506727 kJ/mol
# Density = 2.139231 g / cm^3
# Si number density = 21.441106 Si / 1000 Ang^3
#
#
#
# Elastic Constant Matrix: (Units=GPa)
#
#
# Indices 1 2 3 4 5 6 
#
# 1 69.6384 29.2113 21.7863 -7.1698 -0.0215 -15.7429
# 2 29.2113 115.4825 39.6171 -11.3515 13.7362 -21.4925
# 3 21.7863 39.6171 115.0446 -3.1830 -13.5069 -12.4143
# 4 -7.1698 -11.3515 -3.1830 30.2194 1.6101 -8.9050
# 5 -0.0215 13.7362 -13.5069 1.6101 26.1726 -7.2914
# 6 -15.7429 -21.4925 -12.4143 -8.9050 -7.2914 48.0581
#
#
#
# Elastic Compliance Matrix: (Units=1/GPa)
#
#
# Indices 1 2 3 4 5 6 
#
# 1 0.017629 -0.002763 -0.001472 0.004442 0.001899 0.005270
# 2 -0.002763 0.013061 -0.004454 0.005257 -0.008513 0.003468
# 3 -0.001472 -0.004454 0.011724 -0.000742 0.008926 0.001771
# 4 0.004442 0.005257 -0.000742 0.039274 -0.002631 0.010493
# 5 0.001899 -0.008513 0.008926 -0.002631 0.049142 0.006089
# 6 0.005270 0.003468 0.001771 0.010493 0.006089 0.027411
#
#
# Mechanical properties :
#
#
# Convention : Reuss Voigt Hill
#
# Bulk Modulus (GPa) = 39.94504 53.48832 46.71668
# Shear Modulus (GPa) = 27.17932 34.86009 31.01971
#
# Velocity S-wave (km/s) = 3.56424 4.03656 3.80773
# Velocity P-wave (km/s) = 5.96732 6.83563 6.41618
#
# Compressibility (1/GPa) = 0.02503440
#
# Stress axis : x y z
#
# Youngs Moduli (GPa) = 56.72583 76.56386 85.29851
#
# Poissons Ratio (x) = 0.21151 0.12560
# Poissons Ratio (y) = 0.15671 0.37995
# Poissons Ratio (z) = 0.08353 0.34104
#
# Static dielectric constant tensor:
#      x y z
#    x 4.052400 -0.112090 -0.247850 
#    y -0.112090 4.033940 -0.186300 
#    z -0.247850 -0.186300 3.927990 
# 
# 
# High freq. dielectric constant tensor:
#      x y z
#    x 1.840590 0.000160 -0.022080 
#    y 0.000160 1.857110 -0.017240 
#    z -0.022080 -0.017240 1.821790 
# 
# From -- ./inp_files/543183.got.cif
#   From: 2010.06.25/outbox.cif.g09.slc.cpg/sg2_272_cif.got.tgz:543183.got - 2010.06.27 13:26:56.
