data_PCOD8030716
_publ_section_title
;
Structure prediction by ZEFSAII (Michael W. Deem and Ramdas Pophale) SiO2 
 PCOD8030716
Probable space group: P -1
;
_chemical_formula_sum "Si O2"
_cell_formula_units_Z 16
_cell_length_a 9.696300
_cell_length_b 17.344222
_cell_length_c 21.043981
_cell_angle_alpha 159.669846
_cell_angle_beta 136.191147
_cell_angle_gamma 54.801643
_cell_volume 773.646469
_symmetry_space_group_name_H-M "P -1"
_symmetry_group_IT_number 2
_symmetry_cell_setting 'triclinic'
loop_
_space_group_symop_operation_xyz
x,y,z
-x,-y,-z
loop_
_atom_site_type_symbol
_atom_site_label
_atom_site_fract_x
_atom_site_fract_y
_atom_site_fract_z
Si Si1 0.575381 0.720617 0.947008
Si Si2 0.248357 0.665338 0.694627
Si Si3 0.442017 0.498396 0.406810
Si Si4 0.328789 0.193388 0.500871
Si Si5 0.463351 0.132100 0.728588
Si Si6 0.134252 0.054275 0.895784
Si Si7 0.718604 0.124658 0.405134
Si Si8 0.775666 0.658952 0.282271
O O1 0.375969 0.759550 0.876431
O O2 0.513174 0.438007 0.721964
O O3 0.788920 0.821731 0.051494
O O4 0.637329 0.861052 0.142178
O O5 0.362921 0.515470 0.580615
O O6 0.000000 0.500000 0.500000
O O7 0.262038 0.887429 0.826287
O O8 0.500000 0.500000 0.500000
O O9 0.423606 0.744749 0.571358
O O10 0.208043 0.269477 0.138994
O O11 0.258878 0.245921 0.587267
O O12 0.418456 0.983343 0.370056
O O13 0.124874 0.103149 0.314161
O O14 0.292383 0.198738 0.684184
O O15 0.327991 0.923580 0.573045
O O16 0.639633 0.368904 0.005867
O O17 0.972902 0.287885 0.602998
#
# Coordination Sequence:
#
# PCOD8030716 Si02
#       8
#     2   2   2   2   2   2   2   2
#     4  11  22  40  66  92 130 179 211 270 330 385
#     4  11  22  40  62  91 128 173 218 266 320 387
#     4  11  24  41  65  98 131 173 218 273 323 390
#     4  12  23  43  69  98 130 175 222 269 335 393
#     4  11  25  44  69 102 131 170 226 277 328 400
#     4  11  22  41  66  89 134 176 216 266 331 388
#     4  12  23  44  67  95 137 173 218 274 333 390
#     4  11  25  46  69  97 135 175 217 279 338 386
#
# _framework density 20.681281999999999
#
# number of rings (size 3 to 8) (size 9 to 14) (size 15 to 20)
#    0.000    0.750    3.750    6.000    0.000    0.000 
#    2.250    1.875    0.000    0.000    0.000    0.000 
#    0.000    0.000    0.000    0.000    0.000    0.000 
#
# Total GULP energy -198449.504649 kJ/mol
# GULP energy per Si atom -12403.094041 kJ/mol
# Density = 2.063421 g / cm^3
# Si number density = 20.681282 Si / 1000 Ang^3
#
#
#
# Elastic Constant Matrix: (Units=GPa)
#
#
# Indices 1 2 3 4 5 6 
#
# 1 91.1845 32.3158 36.1510 2.5821 -2.5597 1.7922
# 2 32.3158 95.4911 27.9675 11.1583 -2.9095 3.8900
# 3 36.1510 27.9675 105.8388 1.0342 -9.2420 -0.2240
# 4 2.5821 11.1583 1.0342 35.2485 1.3276 -1.2583
# 5 -2.5597 -2.9095 -9.2420 1.3276 30.8256 1.1693
# 6 1.7922 3.8900 -0.2240 -1.2583 1.1693 35.7303
#
#
#
# Elastic Compliance Matrix: (Units=1/GPa)
#
#
# Indices 1 2 3 4 5 6 
#
# 1 0.013716 -0.003561 -0.003775 0.000235 -0.000328 -0.000305
# 2 -0.003561 0.012805 -0.002089 -0.003799 0.000502 -0.001379
# 3 -0.003775 -0.002089 0.011540 0.000504 0.002912 0.000412
# 4 0.000235 -0.003799 0.000504 0.029652 -0.001522 0.001499
# 5 -0.000328 0.000502 0.002912 -0.001522 0.033444 -0.001168
# 6 -0.000305 -0.001379 0.000412 0.001499 -0.001168 0.028246
#
#
# Mechanical properties :
#
#
# Convention : Reuss Voigt Hill
#
# Bulk Modulus (GPa) = 52.05770 53.93144 52.99457
# Shear Modulus (GPa) = 32.32974 33.43287 32.88130
#
# Velocity S-wave (km/s) = 3.95807 4.02503 3.99169
# Velocity P-wave (km/s) = 6.79076 6.90906 6.85017
#
# Compressibility (1/GPa) = 0.01920945
#
# Stress axis : x y z
#
# Youngs Moduli (GPa) = 72.90915 78.09713 86.65387
#
# Poissons Ratio (x) = 0.27809 0.32716
# Poissons Ratio (y) = 0.25962 0.18104
# Poissons Ratio (z) = 0.27526 0.16316
#
# Static dielectric constant tensor:
#      x y z
#    x 3.624610 0.061270 -0.050970 
#    y 0.061270 3.783700 -0.030550 
#    z -0.050970 -0.030550 3.922800 
# 
# 
# High freq. dielectric constant tensor:
#      x y z
#    x 1.804610 0.004190 0.001200 
#    y 0.004190 1.814000 0.001620 
#    z 0.001200 0.001620 1.822080 
# 
# From -- ./inp_files/590864.got.cif
#   From: 2010.06.25/outbox.cif.g09.slc.cpg/sg2_296_cif.got.tgz:590864.got - 2010.06.27 13:26:56.
