data_PCOD8030795
_publ_section_title
;
Structure prediction by ZEFSAII (Michael W. Deem and Ramdas Pophale) SiO2 
 PCOD8030795
Probable space group: P -1
;
_chemical_formula_sum "Si O2"
_cell_formula_units_Z 16
_cell_length_a 14.305934
_cell_length_b 8.335306
_cell_length_c 13.891339
_cell_angle_alpha 69.418250
_cell_angle_beta 148.392723
_cell_angle_gamma 90.551583
_cell_volume 655.849847
_symmetry_space_group_name_H-M "P -1"
_symmetry_group_IT_number 2
_symmetry_cell_setting 'triclinic'
loop_
_space_group_symop_operation_xyz
x,y,z
-x,-y,-z
loop_
_atom_site_type_symbol
_atom_site_label
_atom_site_fract_x
_atom_site_fract_y
_atom_site_fract_z
Si Si1 0.634139 0.079543 0.191764
Si Si2 0.704336 0.832698 0.490711
Si Si3 0.825903 0.359128 0.087015
Si Si4 0.076743 0.022234 0.858339
Si Si5 0.573837 0.264930 0.628631
Si Si6 0.177643 0.222872 0.754965
Si Si7 0.404432 0.794754 0.554812
Si Si8 0.762905 0.366314 0.250091
O O1 0.800220 0.140630 0.353087
O O2 0.665666 0.906255 0.330527
O O3 0.698527 0.981774 0.162647
O O4 0.360948 0.278239 0.911355
O O5 0.598780 0.711814 0.450181
O O6 0.965810 0.662050 0.774313
O O7 0.585261 0.036449 0.412743
O O8 0.835319 0.378295 0.205131
O O9 0.854621 0.144815 0.131344
O O10 0.602793 0.557694 0.805942
O O11 0.156826 0.161530 0.858737
O O12 0.816869 0.181549 0.616523
O O13 0.185314 0.898905 0.079354
O O14 0.500000 0.500000 0.500000
O O15 0.578547 0.168029 0.550561
O O16 0.925600 0.392097 0.456501
O O17 0.500000 0.500000 0.000000
#
# Coordination Sequence:
#
# PCOD8030795 Si02
#       8
#     2   2   2   2   2   2   2   2
#     4  11  22  40  68  97 135 183 221 272 342 407
#     4  11  24  45  71  96 138 178 228 286 340 412
#     4  11  22  43  68  99 138 179 226 276 339 411
#     4  11  22  44  71  95 137 175 225 287 339 411
#     4  12  25  48  71  99 132 177 231 291 350 403
#     4  11  22  40  69  97 134 184 221 270 345 408
#     4  11  25  45  69 100 131 184 228 282 350 403
#     4  12  23  39  65 101 143 179 225 277 332 412
#
# _framework density 24.395828999999999
#
# number of rings (size 3 to 8) (size 9 to 14) (size 15 to 20)
#    0.000    0.750    5.000    4.125    0.000    1.000 
#    4.500    0.000    0.000    0.000    0.000    0.000 
#    0.000    0.000    0.000    0.000    0.000    0.000 
#
# Total GULP energy -198283.076181 kJ/mol
# GULP energy per Si atom -12392.692261 kJ/mol
# Density = 2.434030 g / cm^3
# Si number density = 24.395829 Si / 1000 Ang^3
#
#
#
# Elastic Constant Matrix: (Units=GPa)
#
#
# Indices 1 2 3 4 5 6 
#
# 1 107.8597 7.5870 39.3224 3.4762 -3.8360 -11.1556
# 2 7.5870 18.6828 26.8455 29.3723 19.1154 -11.4481
# 3 39.3224 26.8455 179.7470 -1.7405 16.9952 3.5323
# 4 3.4762 29.3723 -1.7405 36.1338 -4.4470 17.8833
# 5 -3.8360 19.1154 16.9952 -4.4470 50.2326 14.6255
# 6 -11.1556 -11.4481 3.5323 17.8833 14.6255 17.0794
#
#
#
# Elastic Compliance Matrix: (Units=1/GPa)
#
#
# Indices 1 2 3 4 5 6 
#
# 1 0.010548 -0.003419 -0.002042 0.000791 0.002194 0.002314
# 2 -0.003419 -0.001047 0.000704 0.016999 0.009968 -0.029415
# 3 -0.002042 0.000704 0.006164 -0.002033 -0.003579 0.003057
# 4 0.000791 0.016999 -0.002033 0.004085 -0.010263 0.016842
# 5 0.002194 0.009968 -0.003579 -0.010263 0.014490 0.007192
# 6 0.002314 -0.029415 0.003057 0.016842 0.007192 0.015919
#
#
# Mechanical properties :
#
#
# Convention : Reuss Voigt Hill
#
# Bulk Modulus (GPa) = 162.55532 50.42215 106.48873
# Shear Modulus (GPa) = 81.00783 36.19147 58.59965
#
# Velocity S-wave (km/s) = 5.76868 3.85582 4.90637
# Velocity P-wave (km/s) = 10.54264 6.36681 8.70872
#
# Compressibility (1/GPa) = 0.00615175
#
# Stress axis : x y z
#
# Youngs Moduli (GPa) = 94.80314 -955.27523 162.24269
#
# Poissons Ratio (x) = -3.26591 0.33133
# Poissons Ratio (y) = 0.32411 -0.11428
# Poissons Ratio (z) = 0.19361 0.67290
#
# Static dielectric constant tensor:
#      x y z
#    x 4.610000 0.387010 0.488360 
#    y 0.387010 5.574310 1.214050 
#    z 0.488360 1.214050 6.389350 
# 
# 
# High freq. dielectric constant tensor:
#      x y z
#    x 1.974510 0.002890 0.012240 
#    y 0.002890 1.959480 0.002930 
#    z 0.012240 0.002930 1.997430 
# 
# From -- ./inp_files/313664.got.cif
#   From: 2010.06.25/outbox.cif.g09.slc.cpg/sg2_157_cif.got.tgz:313664.got - 2010.06.27 13:26:56.
