data_PCOD8030878
_publ_section_title
;
Structure prediction by ZEFSAII (Michael W. Deem and Ramdas Pophale) SiO2 
 PCOD8030878
Probable space group: P -1
;
_chemical_formula_sum "Si O2"
_cell_formula_units_Z 16
_cell_length_a 8.112898
_cell_length_b 21.684025
_cell_length_c 9.585246
_cell_angle_alpha 50.652763
_cell_angle_beta 91.071421
_cell_angle_gamma 50.037533
_cell_volume 695.071837
_symmetry_space_group_name_H-M "P -1"
_symmetry_group_IT_number 2
_symmetry_cell_setting 'triclinic'
loop_
_space_group_symop_operation_xyz
x,y,z
-x,-y,-z
loop_
_atom_site_type_symbol
_atom_site_label
_atom_site_fract_x
_atom_site_fract_y
_atom_site_fract_z
Si Si1 0.919916 0.956178 0.400560
Si Si2 0.138224 0.364066 0.635058
Si Si3 0.221488 0.235932 0.076331
Si Si4 0.823555 0.253691 0.071693
Si Si5 0.805019 0.152268 0.967625
Si Si6 0.207662 0.575394 0.693921
Si Si7 0.862719 0.479664 0.949272
Si Si8 0.170558 0.770654 0.417016
O O1 0.158015 0.830368 0.704591
O O2 0.945347 0.882354 0.381731
O O3 0.588590 0.093748 0.272551
O O4 0.023396 0.000308 0.274759
O O5 0.502745 0.224898 0.824294
O O6 0.000000 0.500000 0.500000
O O7 0.001223 0.401865 0.426813
O O8 0.064280 0.323117 0.800728
O O9 0.135401 0.179214 0.188114
O O10 0.104319 0.347111 0.030376
O O11 0.742221 0.255025 0.914978
O O12 0.560852 0.422067 0.873286
O O13 0.941344 0.127762 0.858983
O O14 0.185320 0.569733 0.866380
O O15 0.102479 0.707452 0.467241
O O16 0.533857 0.635997 0.649136
O O17 0.000000 0.500000 0.000000
#
# Coordination Sequence:
#
# PCOD8030878 Si02
#       8
#     2   2   2   2   2   2   2   2
#     4  11  26  46  67  96 142 180 224 272 336 406
#     4  11  22  41  65 101 140 172 222 280 336 397
#     4  11  25  44  67 101 134 181 225 275 337 399
#     4  12  23  43  70 101 135 177 226 279 335 399
#     4  11  25  42  69  99 135 181 226 273 337 401
#     4  12  24  41  71 105 135 173 224 285 338 390
#     4  12  25  41  69 103 137 172 224 279 337 394
#     4  12  24  46  69 101 137 176 227 278 334 399
#
# _framework density 23.019203000000001
#
# number of rings (size 3 to 8) (size 9 to 14) (size 15 to 20)
#    0.000    0.500    3.750    5.250    1.750    2.000 
#    0.000    9.375    0.000    0.000    0.000    0.000 
#    0.000    0.000    0.000    0.000    0.000    0.000 
#
# Total GULP energy -198432.085544 kJ/mol
# GULP energy per Si atom -12402.005347 kJ/mol
# Density = 2.296681 g / cm^3
# Si number density = 23.019203 Si / 1000 Ang^3
#
#
#
# Elastic Constant Matrix: (Units=GPa)
#
#
# Indices 1 2 3 4 5 6 
#
# 1 93.4078 26.7059 23.1909 2.4418 -8.5516 8.3638
# 2 26.7059 143.3849 31.1113 0.8189 7.1393 10.7035
# 3 23.1909 31.1113 66.1632 15.2395 -23.4992 8.7835
# 4 2.4418 0.8189 15.2395 42.5519 -0.7709 -5.6777
# 5 -8.5516 7.1393 -23.4992 -0.7709 30.8362 5.7279
# 6 8.3638 10.7035 8.7835 -5.6777 5.7279 25.0226
#
#
#
# Elastic Compliance Matrix: (Units=1/GPa)
#
#
# Indices 1 2 3 4 5 6 
#
# 1 0.012271 -0.001784 -0.001798 -0.000439 0.003088 -0.003514
# 2 -0.001784 0.009282 -0.007843 0.002847 -0.008934 0.002070
# 3 -0.001798 -0.007843 0.037435 -0.015253 0.033225 -0.020251
# 4 -0.000439 0.002847 -0.015253 0.030610 -0.014335 0.014510
# 5 0.003088 -0.008934 0.033225 -0.014335 0.065347 -0.027084
# 6 -0.003514 0.002070 -0.020251 0.014510 -0.027084 0.056853
#
#
# Mechanical properties :
#
#
# Convention : Reuss Voigt Hill
#
# Bulk Modulus (GPa) = 27.67222 51.66357 39.66789
# Shear Modulus (GPa) = 20.26799 34.47866 27.37332
#
# Velocity S-wave (km/s) = 2.97051 3.87437 3.45215
# Velocity P-wave (km/s) = 4.87983 6.51972 5.75845
#
# Compressibility (1/GPa) = 0.03613733
#
# Stress axis : x y z
#
# Youngs Moduli (GPa) = 81.49264 107.73075 26.71330
#
# Poissons Ratio (x) = 0.19223 0.04803
# Poissons Ratio (y) = 0.14541 0.20951
# Poissons Ratio (z) = 0.14652 0.84494
#
# Static dielectric constant tensor:
#      x y z
#    x 4.020360 -0.036900 -0.256000 
#    y -0.036900 4.249740 0.209850 
#    z -0.256000 0.209850 4.415070 
# 
# 
# High freq. dielectric constant tensor:
#      x y z
#    x 1.903700 0.007850 -0.019340 
#    y 0.007850 1.919540 0.014050 
#    z -0.019340 0.014050 1.910910 
# 
# From -- ./inp_files/226116.got.cif
#   From: 2010.06.25/outbox.cif.g09.slc.cpg/sg2_114_cif.got.tgz:226116.got - 2010.06.27 13:26:56.
