data_PCOD8030085
_publ_section_title
;
Structure prediction by ZEFSAII (Michael W. Deem and Ramdas Pophale) SiO2 
 PCOD8030085
Probable space group: P -1
;
_chemical_formula_sum "Si O2"
_cell_formula_units_Z 16
_cell_length_a 9.232385
_cell_length_b 7.771259
_cell_length_c 22.020319
_cell_angle_alpha 73.944751
_cell_angle_beta 38.205716
_cell_angle_gamma 53.375511
_cell_volume 723.034796
_symmetry_space_group_name_H-M "P -1"
_symmetry_group_IT_number 2
_symmetry_cell_setting 'triclinic'
loop_
_space_group_symop_operation_xyz
x,y,z
-x,-y,-z
loop_
_atom_site_type_symbol
_atom_site_label
_atom_site_fract_x
_atom_site_fract_y
_atom_site_fract_z
Si Si1 0.462660 0.378495 0.886026
Si Si2 0.616913 0.880029 0.537152
Si Si3 0.824029 0.845095 0.035907
Si Si4 0.129436 0.959162 0.117876
Si Si5 0.413201 0.959869 0.777640
Si Si6 0.346673 0.640108 0.693263
Si Si7 0.260095 0.538664 0.309691
Si Si8 0.637039 0.147667 0.607751
O O1 0.342013 0.262060 0.903998
O O2 0.583000 0.286696 0.923960
O O3 0.743208 0.327494 0.760300
O O4 0.184260 0.654867 0.949942
O O5 0.492450 0.746859 0.607258
O O6 0.977270 0.692391 0.432292
O O7 0.500000 0.000000 0.500000
O O8 0.527828 0.072510 0.596820
O O9 0.686968 0.012540 0.122609
O O10 0.755440 0.985948 0.983156
O O11 0.864724 0.952218 0.184888
O O12 0.009888 0.146331 0.195232
O O13 0.697373 0.687719 0.701938
O O14 0.540847 0.095333 0.707036
O O15 0.459974 0.537067 0.733520
O O16 0.437167 0.428446 0.640970
O O17 0.000000 0.000000 0.500000
#
# Coordination Sequence:
#
# PCOD8030085 Si02
#       8
#     2   2   2   2   2   2   2   2
#     4  11  24  42  70  96 133 184 222 282 344 400
#     4  12  25  44  67 100 138 173 224 288 340 401
#     4  11  24  44  65  99 137 177 231 276 341 407
#     4  11  23  45  67  98 139 180 224 284 339 398
#     4  11  24  43  68 100 134 176 232 279 335 410
#     4  11  22  44  69  98 138 176 230 276 339 409
#     4  11  21  42  68  92 132 181 218 277 344 395
#     4  12  24  42  73  98 131 184 228 272 342 411
#
# _framework density 22.128948999999999
#
# number of rings (size 3 to 8) (size 9 to 14) (size 15 to 20)
#    0.000    0.750    6.250    3.375    1.750    1.000 
#    2.250    0.000    0.000    0.000    0.000    0.000 
#    0.000    0.000    0.000    0.000    0.000    0.000 
#
# Total GULP energy -198352.495421 kJ/mol
# GULP energy per Si atom -12397.030964 kJ/mol
# Density = 2.207858 g / cm^3
# Si number density = 22.128949 Si / 1000 Ang^3
#
#
#
# Elastic Constant Matrix: (Units=GPa)
#
#
# Indices 1 2 3 4 5 6 
#
# 1 64.5667 52.0862 29.8673 -5.1547 18.1322 -0.3606
# 2 52.0862 107.6994 41.4147 -23.6339 17.4078 4.4695
# 3 29.8673 41.4147 112.2659 -15.5024 21.8278 7.2200
# 4 -5.1547 -23.6339 -15.5024 33.2465 3.5108 3.4264
# 5 18.1322 17.4078 21.8278 3.5108 31.1958 -2.5734
# 6 -0.3606 4.4695 7.2200 3.4264 -2.5734 46.9481
#
#
#
# Elastic Compliance Matrix: (Units=1/GPa)
#
#
# Indices 1 2 3 4 5 6 
#
# 1 0.028669 -0.013116 -0.002295 -0.005401 -0.006980 0.001833
# 2 -0.013116 0.019453 -0.001041 0.012041 -0.004097 -0.002896
# 3 -0.002295 -0.001041 0.012338 0.005730 -0.007581 -0.002650
# 4 -0.005401 0.012041 0.005730 0.042434 -0.012849 -0.005870
# 5 -0.006980 -0.004097 -0.007581 -0.012849 0.045557 0.004937
# 6 0.001833 -0.002896 -0.002650 -0.005870 0.004937 0.022696
#
#
# Mechanical properties :
#
#
# Convention : Reuss Voigt Hill
#
# Bulk Modulus (GPa) = 36.29034 59.02980 47.66007
# Shear Modulus (GPa) = 23.44797 33.02234 28.23515
#
# Velocity S-wave (km/s) = 3.25869 3.86718 3.57590
# Velocity P-wave (km/s) = 5.53117 6.83179 6.21559
#
# Compressibility (1/GPa) = 0.02755554
#
# Stress axis : x y z
#
# Youngs Moduli (GPa) = 34.88058 51.40514 81.05054
#
# Poissons Ratio (x) = 0.67421 0.18605
# Poissons Ratio (y) = 0.45748 0.08441
# Poissons Ratio (z) = 0.08007 0.05354
#
# Static dielectric constant tensor:
#      x y z
#    x 3.861590 0.045960 0.094800 
#    y 0.045960 4.845050 1.238130 
#    z 0.094800 1.238130 6.147030 
# 
# 
# High freq. dielectric constant tensor:
#      x y z
#    x 1.848770 0.005230 0.008660 
#    y 0.005230 1.875820 -0.008310 
#    z 0.008660 -0.008310 1.887210 
# 
# From -- ./inp_files/587961.got.cif
#   From: 2010.06.25/outbox.cif.g09.slc.cpg/sg2_294_cif.got.tgz:587961.got - 2010.06.27 13:26:56.
