data_PCOD8030208
_publ_section_title
;
Structure prediction by ZEFSAII (Michael W. Deem and Ramdas Pophale) SiO2 
 PCOD8030208
Probable space group: P -1
;
_chemical_formula_sum "Si O2"
_cell_formula_units_Z 12
_cell_length_a 8.599196
_cell_length_b 8.588266
_cell_length_c 15.817589
_cell_angle_alpha 59.422700
_cell_angle_beta 143.963246
_cell_angle_gamma 112.186887
_cell_volume 590.357738
_symmetry_space_group_name_H-M "P -1"
_symmetry_group_IT_number 2
_symmetry_cell_setting 'triclinic'
loop_
_space_group_symop_operation_xyz
x,y,z
-x,-y,-z
loop_
_atom_site_type_symbol
_atom_site_label
_atom_site_fract_x
_atom_site_fract_y
_atom_site_fract_z
Si Si1 0.065621 0.827838 0.136044
Si Si2 0.800365 0.929138 0.157033
Si Si3 0.601702 0.696260 0.463262
Si Si4 0.771378 0.653380 0.363563
Si Si5 0.258726 0.149338 0.354076
Si Si6 0.780422 0.476577 0.841359
O O1 0.349627 0.840813 0.301863
O O2 0.077507 0.641409 0.139241
O O3 0.857086 0.822065 0.123212
O O4 0.000000 0.000000 0.000000
O O5 0.861688 0.813306 0.300133
O O6 0.500000 0.000000 0.000000
O O7 0.993424 0.092330 0.207179
O O8 0.500000 0.500000 0.500000
O O9 0.761335 0.695000 0.446820
O O10 0.794311 0.782741 0.591745
O O11 0.477513 0.615097 0.211021
O O12 0.000000 0.500000 0.500000
O O13 0.344559 0.328147 0.295627
O O14 0.500000 0.000000 0.500000
O O15 0.000000 0.500000 0.000000
#
# Coordination Sequence:
#
# PCOD8030208 Si02
#       6
#     2   2   2   2   2   2
#     4  11  22  42  69  91 130 176 214 262 322 392
#     4  12  25  43  63  99 136 165 212 278 333 368
#     4  11  21  43  69  95 125 174 224 259 320 395
#     4  11  23  41  66  94 133 164 207 282 329 365
#     4  12  23  41  71  96 126 175 225 263 310 403
#     4  11  24  44  67  95 125 178 227 254 317 403
#
# _framework density 20.326658999999999
#
# number of rings (size 3 to 8) (size 9 to 14) (size 15 to 20)
#    0.000    0.667    5.000    6.000    0.000    0.667 
#    3.000    1.667    0.000    0.000    0.000    0.000 
#    0.000    0.000    0.000    0.000    0.000    0.000 
#
# Total GULP energy -148723.162611 kJ/mol
# GULP energy per Si atom -12393.596884 kJ/mol
# Density = 2.028039 g / cm^3
# Si number density = 20.326659 Si / 1000 Ang^3
#
#
#
# Elastic Constant Matrix: (Units=GPa)
#
#
# Indices 1 2 3 4 5 6 
#
# 1 139.6713 28.9244 33.0490 -8.5928 2.0069 -19.4189
# 2 28.9244 96.5850 28.6398 6.6777 4.6553 -15.0381
# 3 33.0490 28.6398 111.6940 -10.0023 7.7236 -15.2953
# 4 -8.5928 6.6777 -10.0023 51.5657 6.8963 -7.1886
# 5 2.0069 4.6553 7.7236 6.8963 46.4516 -4.5663
# 6 -19.4189 -15.0381 -15.2953 -7.1886 -4.5663 25.7012
#
#
#
# Elastic Compliance Matrix: (Units=1/GPa)
#
#
# Indices 1 2 3 4 5 6 
#
# 1 0.008670 -0.001523 -0.001235 0.002150 0.000211 0.005564
# 2 -0.001523 0.012253 -0.002260 -0.001679 -0.000126 0.004182
# 3 -0.001235 -0.002260 0.010944 0.003090 -0.001522 0.004851
# 4 0.002150 -0.001679 0.003090 0.022093 -0.002918 0.008141
# 5 0.000211 -0.000126 -0.001522 -0.002918 0.022449 0.002353
# 6 0.005564 0.004182 0.004851 0.008141 0.002353 0.051141
#
#
# Mechanical properties :
#
#
# Convention : Reuss Voigt Hill
#
# Bulk Modulus (GPa) = 45.80644 58.79741 52.30193
# Shear Modulus (GPa) = 34.51525 41.89951 38.20738
#
# Velocity S-wave (km/s) = 4.12518 4.54509 4.34022
# Velocity P-wave (km/s) = 6.72857 7.51883 7.13465
#
# Compressibility (1/GPa) = 0.02183099
#
# Stress axis : x y z
#
# Youngs Moduli (GPa) = 115.34019 81.61214 91.37200
#
# Poissons Ratio (x) = 0.12427 0.11286
# Poissons Ratio (y) = 0.17563 0.20653
# Poissons Ratio (z) = 0.14246 0.18447
#
# Static dielectric constant tensor:
#      x y z
#    x 3.970220 -0.489520 -0.243920 
#    y -0.489520 4.176290 0.140270 
#    z -0.243920 0.140270 4.028820 
# 
# 
# High freq. dielectric constant tensor:
#      x y z
#    x 1.795080 -0.016460 -0.009180 
#    y -0.016460 1.784110 -0.005430 
#    z -0.009180 -0.005430 1.820080 
# 
# From -- ./inp_files/555044.got.cif
#   From: 2010.06.25/outbox.cif.g09.slc.cpg/sg2_278_cif.got.tgz:555044.got - 2010.06.27 13:26:56.
