data_PCOD8030468
_publ_section_title
;
Structure prediction by ZEFSAII (Michael W. Deem and Ramdas Pophale) SiO2 
 PCOD8030468
Probable space group: P -1
;
_chemical_formula_sum "Si O2"
_cell_formula_units_Z 16
_cell_length_a 6.427203
_cell_length_b 21.831215
_cell_length_c 19.097599
_cell_angle_alpha 23.387028
_cell_angle_beta 131.256647
_cell_angle_gamma 119.494925
_cell_volume 740.170436
_symmetry_space_group_name_H-M "P -1"
_symmetry_group_IT_number 2
_symmetry_cell_setting 'triclinic'
loop_
_space_group_symop_operation_xyz
x,y,z
-x,-y,-z
loop_
_atom_site_type_symbol
_atom_site_label
_atom_site_fract_x
_atom_site_fract_y
_atom_site_fract_z
Si Si1 0.764511 0.007413 0.139637
Si Si2 0.075811 0.527316 0.066923
Si Si3 0.619475 0.596099 0.078953
Si Si4 0.040466 0.722197 0.603721
Si Si5 0.759904 0.421076 0.541312
Si Si6 0.079745 0.121617 0.840655
Si Si7 0.502337 0.815404 0.695694
Si Si8 0.860319 0.325098 0.822517
O O1 0.940211 0.912011 0.210129
O O2 0.800121 0.869478 0.351242
O O3 0.414150 0.113639 0.938228
O O4 0.913818 0.139062 0.056449
O O5 0.365096 0.572790 0.094162
O O6 0.131223 0.354155 0.300985
O O7 0.000000 0.500000 0.000000
O O8 0.813677 0.684219 0.875685
O O9 0.751919 0.427543 0.240865
O O10 0.859971 0.624613 0.152940
O O11 0.466548 0.759561 0.825280
O O12 0.236081 0.806820 0.598668
O O13 0.805925 0.328021 0.724118
O O14 0.419749 0.549007 0.328317
O O15 0.000000 0.500000 0.500000
O O16 0.822384 0.297613 0.618714
O O17 0.000000 0.000000 0.000000
O O18 0.500000 0.000000 0.500000
#
# Coordination Sequence:
#
# PCOD8030468 Si02
#       8
#     2   2   2   2   2   2   2   2
#     4  11  25  44  66 100 139 171 229 287 330 406
#     4  11  21  47  71  94 132 185 224 268 342 405
#     4  11  24  43  69  98 135 179 224 273 332 409
#     4  11  24  42  69 100 134 175 223 279 334 399
#     4  11  24  44  70  95 134 181 221 278 342 402
#     4  11  24  45  68  95 133 183 221 275 347 398
#     4  11  23  44  69  99 136 170 216 282 335 390
#     4  11  25  44  66 102 137 174 229 283 333 401
#
# _framework density 21.616644999999998
#
# number of rings (size 3 to 8) (size 9 to 14) (size 15 to 20)
#    0.000    1.000    5.000    1.500    3.500    3.500 
#    2.250    0.000    0.000    0.000    0.000    0.000 
#    0.000    0.000    0.000    0.000    0.000    0.000 
#
# Total GULP energy -198399.593898 kJ/mol
# GULP energy per Si atom -12399.974619 kJ/mol
# Density = 2.156744 g / cm^3
# Si number density = 21.616645 Si / 1000 Ang^3
#
#
#
# Elastic Constant Matrix: (Units=GPa)
#
#
# Indices 1 2 3 4 5 6 
#
# 1 137.1366 50.5863 52.9757 -9.8865 -8.1234 12.3800
# 2 50.5863 123.8285 50.5840 -13.7019 0.3846 16.1713
# 3 52.9757 50.5840 131.0707 -17.5264 -20.0284 -2.1970
# 4 -9.8865 -13.7019 -17.5264 37.5913 2.4325 -2.9738
# 5 -8.1234 0.3846 -20.0284 2.4325 38.9892 -5.4415
# 6 12.3800 16.1713 -2.1970 -2.9738 -5.4415 42.7719
#
#
#
# Elastic Compliance Matrix: (Units=1/GPa)
#
#
# Indices 1 2 3 4 5 6 
#
# 1 0.009502 -0.002443 -0.002879 0.000097 0.000248 -0.001936
# 2 -0.002443 0.011312 -0.003716 0.001634 -0.003197 -0.004054
# 3 -0.002879 -0.003716 0.011596 0.003224 0.005721 0.003786
# 4 0.000097 0.001634 0.003224 0.028843 0.000075 0.001535
# 5 0.000248 -0.003197 0.005721 0.000075 0.029388 0.005175
# 6 -0.001936 -0.004054 0.003786 0.001535 0.005175 0.026432
#
#
# Mechanical properties :
#
#
# Convention : Reuss Voigt Hill
#
# Bulk Modulus (GPa) = 69.76698 77.81421 73.79059
# Shear Modulus (GPa) = 35.73297 39.72981 37.73139
#
# Velocity S-wave (km/s) = 4.07016 4.29176 4.18242
# Velocity P-wave (km/s) = 7.37787 7.78681 7.58510
#
# Compressibility (1/GPa) = 0.01433343
#
# Stress axis : x y z
#
# Youngs Moduli (GPa) = 105.24340 88.40309 86.23550
#
# Poissons Ratio (x) = 0.21594 0.24829
# Poissons Ratio (y) = 0.25708 0.32047
# Poissons Ratio (z) = 0.30302 0.32853
#
# Static dielectric constant tensor:
#      x y z
#    x 3.921320 0.079330 -0.116020 
#    y 0.079330 3.752040 0.014940 
#    z -0.116020 0.014940 3.707210 
# 
# 
# High freq. dielectric constant tensor:
#      x y z
#    x 1.862220 0.006830 -0.010310 
#    y 0.006830 1.850460 -0.011580 
#    z -0.010310 -0.011580 1.847150 
# 
# From -- ./inp_files/53735.got.cif
#   From: 2010.06.25/outbox.cif.g09.slc.cpg/sg2_27_cif.got.tgz:53735.got - 2010.06.27 13:26:56.
