data_PCOD8030398
_publ_section_title
;
Structure prediction by ZEFSAII (Michael W. Deem and Ramdas Pophale) SiO2 
 PCOD8030398
Probable space group: P -1
;
_chemical_formula_sum "Si O2"
_cell_formula_units_Z 16
_cell_length_a 18.616701
_cell_length_b 21.571784
_cell_length_c 9.154317
_cell_angle_alpha 143.596293
_cell_angle_beta 37.606488
_cell_angle_gamma 160.565449
_cell_volume 715.599627
_symmetry_space_group_name_H-M "P -1"
_symmetry_group_IT_number 2
_symmetry_cell_setting 'triclinic'
loop_
_space_group_symop_operation_xyz
x,y,z
-x,-y,-z
loop_
_atom_site_type_symbol
_atom_site_label
_atom_site_fract_x
_atom_site_fract_y
_atom_site_fract_z
Si Si1 0.112740 0.079146 0.648622
Si Si2 0.984850 0.475302 0.807331
Si Si3 0.071825 0.880705 0.120462
Si Si4 0.408438 0.331580 0.910537
Si Si5 0.680707 0.066824 0.417838
Si Si6 0.633140 0.289678 0.548831
Si Si7 0.207336 0.506537 0.048847
Si Si8 0.385441 0.324080 0.262471
O O1 0.202691 0.136695 0.776357
O O2 0.137402 0.215643 0.802101
O O3 0.208148 0.060269 0.351702
O O4 0.850212 0.874573 0.669704
O O5 0.878232 0.284781 0.574168
O O6 0.232371 0.671929 0.718724
O O7 0.835286 0.458418 0.959883
O O8 0.000000 0.500000 0.000000
O O9 0.967044 0.716802 0.085632
O O10 0.227576 0.948603 0.874713
O O11 0.572611 0.357112 0.706435
O O12 0.500000 0.500000 0.000000
O O13 0.341613 0.320644 0.157455
O O14 0.500000 0.000000 0.500000
O O15 0.576100 0.930396 0.469228
O O16 0.814239 0.438356 0.667416
O O17 0.462062 0.663058 0.939282
O O18 0.500000 0.500000 0.500000
#
# Coordination Sequence:
#
# PCOD8030398 Si02
#       8
#     2   2   2   2   2   2   2   2
#     4  11  24  43  69 109 145 184 243 299 358 437
#     4  12  28  46  72 108 144 185 239 306 363 416
#     4  11  23  41  74 103 143 185 243 291 366 425
#     4  11  26  44  68 102 148 186 233 302 360 420
#     4  12  25  46  78 102 138 194 242 296 359 427
#     4  11  24  48  73 100 144 190 240 289 358 437
#     4  11  21  45  69 103 141 186 239 295 354 438
#     4  11  23  42  69 103 140 194 235 284 367 434
#
# _framework density 22.358871000000001
#
# number of rings (size 3 to 8) (size 9 to 14) (size 15 to 20)
#    0.000    0.750    3.750    4.500    1.750    3.500 
#    0.000    0.000    0.000    0.000    0.000    0.000 
#    0.000    0.000    0.000    0.000    0.000    0.000 
#
# Total GULP energy -198334.080538 kJ/mol
# GULP energy per Si atom -12395.880034 kJ/mol
# Density = 2.230798 g / cm^3
# Si number density = 22.358871 Si / 1000 Ang^3
#
#
#
# Elastic Constant Matrix: (Units=GPa)
#
#
# Indices 1 2 3 4 5 6 
#
# 1 163.9715 42.4041 65.5767 3.9532 13.7391 -4.1021
# 2 42.4041 102.2411 51.9196 -2.0754 2.9336 -10.8251
# 3 65.5767 51.9196 146.4012 -6.0347 23.0062 0.0480
# 4 3.9532 -2.0754 -6.0347 33.7763 0.2045 0.5254
# 5 13.7391 2.9336 23.0062 0.2045 43.9537 9.1722
# 6 -4.1021 -10.8251 0.0480 0.5254 9.1722 36.5408
#
#
#
# Elastic Compliance Matrix: (Units=1/GPa)
#
#
# Indices 1 2 3 4 5 6 
#
# 1 0.007800 -0.001761 -0.002776 -0.001521 -0.000991 0.000628
# 2 -0.001761 0.012829 -0.003916 0.000236 0.001046 0.003342
# 3 -0.002776 -0.003916 0.010189 0.001937 -0.004113 -0.000481
# 4 -0.001521 0.000236 0.001937 0.030155 -0.000615 -0.000383
# 5 -0.000991 0.001046 -0.004113 -0.000615 0.026490 -0.006437
# 6 0.000628 0.003342 -0.000481 -0.000383 -0.006437 0.030049
#
#
# Mechanical properties :
#
#
# Convention : Reuss Voigt Hill
#
# Bulk Modulus (GPa) = 71.88896 81.37941 76.63419
# Shear Modulus (GPa) = 35.95674 39.70172 37.82923
#
# Velocity S-wave (km/s) = 4.01454 4.21843 4.11775
# Velocity P-wave (km/s) = 7.32877 7.75904 7.54697
#
# Compressibility (1/GPa) = 0.01391034
#
# Stress axis : x y z
#
# Youngs Moduli (GPa) = 128.20843 77.95060 98.14168
#
# Poissons Ratio (x) = 0.13727 0.27247
# Poissons Ratio (y) = 0.22577 0.38436
# Poissons Ratio (z) = 0.35595 0.30529
#
# Static dielectric constant tensor:
#      x y z
#    x 4.213790 -0.187570 0.035540 
#    y -0.187570 4.188860 -0.009030 
#    z 0.035540 -0.009030 4.513320 
# 
# 
# High freq. dielectric constant tensor:
#      x y z
#    x 1.883290 -0.014060 -0.001970 
#    y -0.014060 1.878760 0.001820 
#    z -0.001970 0.001820 1.888410 
# 
# From -- ./inp_files/338188.got.cif
#   From: 2010.06.25/outbox.cif.g09.slc.cpg/sg2_170_cif.got.tgz:338188.got - 2010.06.27 13:26:56.
