data_PCOD8030903
_publ_section_title
;
Structure prediction by ZEFSAII (Michael W. Deem and Ramdas Pophale) SiO2 
 PCOD8030903
Probable space group: P -1
;
_chemical_formula_sum "Si O2"
_cell_formula_units_Z 16
_cell_length_a 18.671137
_cell_length_b 11.577371
_cell_length_c 9.109200
_cell_angle_alpha 105.601528
_cell_angle_beta 36.137907
_cell_angle_gamma 130.363503
_cell_volume 729.760026
_symmetry_space_group_name_H-M "P -1"
_symmetry_group_IT_number 2
_symmetry_cell_setting 'triclinic'
loop_
_space_group_symop_operation_xyz
x,y,z
-x,-y,-z
loop_
_atom_site_type_symbol
_atom_site_label
_atom_site_fract_x
_atom_site_fract_y
_atom_site_fract_z
Si Si1 0.880919 0.218467 0.737119
Si Si2 0.194619 0.236130 0.656267
Si Si3 0.800354 0.004101 0.310129
Si Si4 0.859240 0.951651 0.604809
Si Si5 0.406758 0.058512 0.646811
Si Si6 0.443591 0.639962 0.312018
Si Si7 0.878352 0.449929 0.325125
Si Si8 0.285845 0.863465 0.303802
O O1 0.782693 0.226684 0.777050
O O2 0.017563 0.399921 0.668009
O O3 0.947836 0.152708 0.510800
O O4 0.750401 0.051312 0.009150
O O5 0.249377 0.175541 0.666146
O O6 0.118339 0.105659 0.599996
O O7 0.370920 0.452625 0.407522
O O8 0.020496 0.187516 0.978721
O O9 0.676436 0.984407 0.390822
O O10 0.749522 0.022650 0.559883
O O11 0.641114 0.777623 0.951735
O O12 0.000000 0.000000 0.500000
O O13 0.546584 0.272759 0.525162
O O14 0.500000 0.000000 0.500000
O O15 0.295770 0.596954 0.439212
O O16 0.815025 0.281051 0.447531
O O17 0.000000 0.500000 0.000000
O O18 0.500000 0.000000 0.000000
#
# Coordination Sequence:
#
# PCOD8030903 Si02
#       8
#     2   2   2   2   2   2   2   2
#     4  11  23  41  64  98 132 175 232 278 352 413
#     4  11  23  42  67  96 139 183 235 283 347 423
#     4  11  24  43  68  97 139 187 226 288 359 415
#     4  11  22  42  67  96 135 182 231 288 350 413
#     4  11  22  41  66  96 133 181 229 285 351 418
#     4  11  23  40  68 101 132 178 239 284 348 422
#     4  12  25  43  72 102 141 182 230 293 352 425
#     4  12  24  44  70 103 140 181 233 297 354 417
#
# _framework density 21.925018000000001
#
# number of rings (size 3 to 8) (size 9 to 14) (size 15 to 20)
#    0.000    0.750    1.250    9.000    0.000    0.500 
#    0.000    1.250    0.000    0.000    0.000    0.000 
#    0.000    0.000    0.000    0.000    0.000    0.000 
#
# Total GULP energy -198251.473719 kJ/mol
# GULP energy per Si atom -12390.717107 kJ/mol
# Density = 2.187512 g / cm^3
# Si number density = 21.925018 Si / 1000 Ang^3
#
#
#
# Elastic Constant Matrix: (Units=GPa)
#
#
# Indices 1 2 3 4 5 6 
#
# 1 141.9794 36.6790 32.7855 -2.7225 -18.5357 14.7703
# 2 36.6790 132.2525 37.9164 0.9129 -6.3417 11.8184
# 3 32.7855 37.9164 82.4009 4.2680 -21.9022 12.8285
# 4 -2.7225 0.9129 4.2680 32.5668 -5.0371 4.8869
# 5 -18.5357 -6.3417 -21.9022 -5.0371 35.0126 1.5047
# 6 14.7703 11.8184 12.8285 4.8869 1.5047 40.1813
#
#
#
# Elastic Compliance Matrix: (Units=1/GPa)
#
#
# Indices 1 2 3 4 5 6 
#
# 1 0.008572 -0.001583 -0.001367 0.001919 0.003785 -0.002624
# 2 -0.001583 0.009100 -0.003847 -0.000004 -0.001562 -0.000808
# 3 -0.001367 -0.003847 0.017761 -0.000151 0.009856 -0.004387
# 4 0.001919 -0.000004 -0.000151 0.032509 0.005805 -0.004827
# 5 0.003785 -0.001562 0.009856 0.005805 0.037549 -0.006191
# 6 -0.002624 -0.000808 -0.004387 -0.004827 -0.006191 0.028309
#
#
# Mechanical properties :
#
#
# Convention : Reuss Voigt Hill
#
# Bulk Modulus (GPa) = 45.78911 63.48828 54.63869
# Shear Modulus (GPa) = 32.32632 38.16893 35.24762
#
# Velocity S-wave (km/s) = 3.84396 4.17692 4.01389
# Velocity P-wave (km/s) = 6.37426 7.23063 6.81591
#
# Compressibility (1/GPa) = 0.02183925
#
# Stress axis : x y z
#
# Youngs Moduli (GPa) = 116.66245 109.88447 56.30442
#
# Poissons Ratio (x) = 0.17390 0.07698
# Poissons Ratio (y) = 0.18463 0.21661
# Poissons Ratio (z) = 0.15949 0.42273
#
# Static dielectric constant tensor:
#      x y z
#    x 4.191760 0.013070 0.267460 
#    y 0.013070 4.333200 -0.117340 
#    z 0.267460 -0.117340 4.581010 
# 
# 
# High freq. dielectric constant tensor:
#      x y z
#    x 1.877510 -0.001190 -0.001090 
#    y -0.001190 1.878830 0.012180 
#    z -0.001090 0.012180 1.851270 
# 
# From -- ./inp_files/333336.got.cif
#   From: 2010.06.25/outbox.cif.g09.slc.cpg/sg2_167_cif.got.tgz:333336.got - 2010.06.27 13:26:56.
