data_PCOD8030539
_publ_section_title
;
Structure prediction by ZEFSAII (Michael W. Deem and Ramdas Pophale) SiO2 
 PCOD8030539
Probable space group: P -1
;
_chemical_formula_sum "Si O2"
_cell_formula_units_Z 16
_cell_length_a 24.332857
_cell_length_b 6.041186
_cell_length_c 12.448397
_cell_angle_alpha 110.361937
_cell_angle_beta 27.389377
_cell_angle_gamma 121.029177
_cell_volume 692.845044
_symmetry_space_group_name_H-M "P -1"
_symmetry_group_IT_number 2
_symmetry_cell_setting 'triclinic'
loop_
_space_group_symop_operation_xyz
x,y,z
-x,-y,-z
loop_
_atom_site_type_symbol
_atom_site_label
_atom_site_fract_x
_atom_site_fract_y
_atom_site_fract_z
Si Si1 0.008012 0.876265 0.787249
Si Si2 0.567192 0.308454 0.390951
Si Si3 0.768211 0.441534 0.242722
Si Si4 0.532735 0.291315 0.026192
Si Si5 0.947421 0.528786 0.483164
Si Si6 0.320931 0.503209 0.981035
Si Si7 0.831329 0.014832 0.960552
Si Si8 0.713633 0.610324 0.580192
O O1 0.083843 0.724443 0.579204
O O2 0.128727 0.164972 0.658036
O O3 0.903188 0.886325 0.886142
O O4 0.918638 0.702997 0.015284
O O5 0.500000 0.500000 0.500000
O O6 0.671624 0.484971 0.332434
O O7 0.500000 0.000000 0.500000
O O8 0.643074 0.290938 0.147135
O O9 0.708826 0.407683 0.460496
O O10 0.772103 0.166772 0.162918
O O11 0.393593 0.290150 0.242433
O O12 0.558613 0.372883 0.120113
O O13 0.668434 0.479376 0.753585
O O14 0.500000 0.000000 0.000000
O O15 0.810687 0.543591 0.734092
O O16 0.000000 0.500000 0.500000
O O17 0.060685 0.799156 0.281215
O O18 0.295165 0.216547 0.926430
#
# Coordination Sequence:
#
# PCOD8030539 Si02
#       8
#     2   2   2   2   2   2   2   2
#     4  11  23  44  69 105 142 182 248 301 377 442
#     4  12  27  47  74 110 149 199 249 314 379 450
#     4  11  25  46  71 108 146 189 247 306 373 446
#     4  11  27  48  70 102 142 194 246 295 367 450
#     4  11  22  37  66 106 142 180 230 309 377 449
#     4  12  23  46  74 104 143 189 244 311 376 444
#     4  11  23  42  69 110 143 182 241 308 383 438
#     4  11  26  47  71 100 144 197 243 301 364 452
#
# _framework density 23.093187
#
# number of rings (size 3 to 8) (size 9 to 14) (size 15 to 20)
#    0.000    0.750    2.500    4.500    3.500    2.500 
#    2.250    0.000    0.000    0.000    0.000    0.000 
#    0.000    0.000    0.000    0.000    0.000    0.000 
#
# Total GULP energy -198221.142526 kJ/mol
# GULP energy per Si atom -12388.821408 kJ/mol
# Density = 2.304063 g / cm^3
# Si number density = 23.093187 Si / 1000 Ang^3
#
#
#
# Elastic Constant Matrix: (Units=GPa)
#
#
# Indices 1 2 3 4 5 6 
#
# 1 92.3854 40.5810 26.5741 -9.8871 14.6336 17.7071
# 2 40.5810 140.3303 50.4607 -3.5216 0.3384 2.3142
# 3 26.5741 50.4607 86.6635 4.5195 12.2985 3.9815
# 4 -9.8871 -3.5216 4.5195 29.8209 3.3707 -1.6858
# 5 14.6336 0.3384 12.2985 3.3707 36.9397 -1.1466
# 6 17.7071 2.3142 3.9815 -1.6858 -1.1466 35.2181
#
#
#
# Elastic Compliance Matrix: (Units=1/GPa)
#
#
# Indices 1 2 3 4 5 6 
#
# 1 0.016021 -0.003721 -0.001766 0.005442 -0.006456 -0.007561
# 2 -0.003721 0.010078 -0.005290 0.000511 0.003156 0.001934
# 3 -0.001766 -0.005290 0.015978 -0.003194 -0.004307 -0.000864
# 4 0.005442 0.000511 -0.003194 0.036338 -0.004438 -0.000814
# 5 -0.006456 0.003156 -0.004307 -0.004438 0.031573 0.004341
# 6 -0.007561 0.001934 -0.000864 -0.000814 0.004341 0.032269
#
#
# Mechanical properties :
#
#
# Convention : Reuss Voigt Hill
#
# Bulk Modulus (GPa) = 48.72890 61.62340 55.17615
# Shear Modulus (GPa) = 29.29928 33.84663 31.57295
#
# Velocity S-wave (km/s) = 3.56580 3.83254 3.70158
# Velocity P-wave (km/s) = 6.17253 6.80640 6.49720
#
# Compressibility (1/GPa) = 0.02052170
#
# Stress axis : x y z
#
# Youngs Moduli (GPa) = 62.41853 99.22899 62.58508
#
# Poissons Ratio (x) = 0.36923 0.11054
# Poissons Ratio (y) = 0.23226 0.33109
# Poissons Ratio (z) = 0.11025 0.52495
#
# Static dielectric constant tensor:
#      x y z
#    x 4.320710 -0.056090 0.236020 
#    y -0.056090 4.172250 -0.031760 
#    z 0.236020 -0.031760 4.572580 
# 
# 
# High freq. dielectric constant tensor:
#      x y z
#    x 1.910910 0.001740 0.005320 
#    y 0.001740 1.913570 -0.002850 
#    z 0.005320 -0.002850 1.936700 
# 
# From -- ./inp_files/69852.got.cif
#   From: 2010.06.25/outbox.cif.g09.slc.cpg/sg2_35_cif.got.tgz:69852.got - 2010.06.27 13:26:56.
