data_PCOD8030735
_publ_section_title
;
Structure prediction by ZEFSAII (Michael W. Deem and Ramdas Pophale) SiO2 
 PCOD8030735
Probable space group: P -1
;
_chemical_formula_sum "Si O2"
_cell_formula_units_Z 14
_cell_length_a 8.811397
_cell_length_b 13.561641
_cell_length_c 14.140902
_cell_angle_alpha 30.364057
_cell_angle_beta 54.662677
_cell_angle_gamma 73.126019
_cell_volume 600.889881
_symmetry_space_group_name_H-M "P -1"
_symmetry_group_IT_number 2
_symmetry_cell_setting 'triclinic'
loop_
_space_group_symop_operation_xyz
x,y,z
-x,-y,-z
loop_
_atom_site_type_symbol
_atom_site_label
_atom_site_fract_x
_atom_site_fract_y
_atom_site_fract_z
Si Si1 0.743014 0.107879 0.349215
Si Si2 0.832716 0.280618 0.368161
Si Si3 0.470670 0.072050 0.094834
Si Si4 0.255131 0.321369 0.260831
Si Si5 0.961804 0.676731 0.112670
Si Si6 0.799559 0.012547 0.918444
Si Si7 0.155728 0.476836 0.350932
O O1 0.806255 0.299187 0.249473
O O2 0.500000 0.000000 0.500000
O O3 0.795382 0.931743 0.527173
O O4 0.858031 0.189180 0.141178
O O5 0.785774 0.452791 0.304036
O O6 0.082434 0.352686 0.236663
O O7 0.650768 0.031339 0.676586
O O8 0.280750 0.018654 0.134484
O O9 0.631157 0.341606 0.820314
O O10 0.606136 0.955076 0.108221
O O11 0.227108 0.348457 0.358974
O O12 0.500000 0.500000 0.000000
O O13 0.054148 0.609097 0.224830
O O14 0.875396 0.832330 0.058880
O O15 0.984496 0.278250 0.646713
#
# Coordination Sequence:
#
# PCOD8030735 Si02
#       7
#     2   2   2   2   2   2   2
#     4  12  23  38  63  98 134 170 222 269 327 400
#     4  11  23  43  64  97 137 173 221 272 330 396
#     4  11  23  44  71  95 133 178 217 276 332 385
#     4  11  22  40  65  93 132 175 215 273 330 390
#     4  11  23  43  66  95 137 169 219 275 322 396
#     4  11  24  46  67  99 131 174 228 269 328 393
#     4  11  23  46  65  98 138 168 223 274 327 391
#
# _framework density 23.298777999999999
#
# number of rings (size 3 to 8) (size 9 to 14) (size 15 to 20)
#    0.000    0.857    4.286    4.714    0.000    3.429 
#    2.571    0.000    0.000    0.000    0.000    0.000 
#    0.000    0.000    0.000    0.000    0.000    0.000 
#
# Total GULP energy -173575.526078 kJ/mol
# GULP energy per Si atom -12398.251863 kJ/mol
# Density = 2.324575 g / cm^3
# Si number density = 23.298778 Si / 1000 Ang^3
#
#
#
# Elastic Constant Matrix: (Units=GPa)
#
#
# Indices 1 2 3 4 5 6 
#
# 1 65.7231 31.2730 34.5350 -6.8692 -13.1022 -3.6114
# 2 31.2730 57.0674 25.0991 -2.8889 -2.6738 -3.3709
# 3 34.5350 25.0991 103.9608 -9.8412 -18.2164 -15.5288
# 4 -6.8692 -2.8889 -9.8412 47.6563 0.5022 -4.2379
# 5 -13.1022 -2.6738 -18.2164 0.5022 35.8121 -10.2105
# 6 -3.6114 -3.3709 -15.5288 -4.2379 -10.2105 30.3194
#
#
#
# Elastic Compliance Matrix: (Units=1/GPa)
#
#
# Indices 1 2 3 4 5 6 
#
# 1 0.024069 -0.011049 -0.003560 0.002208 0.006830 0.002424
# 2 -0.011049 0.024731 -0.003482 -0.000943 -0.004526 -0.002006
# 3 -0.003560 -0.003482 0.015084 0.003221 0.009032 0.010407
# 4 0.002208 -0.000943 0.003221 0.022424 0.003839 0.006235
# 5 0.006830 -0.004526 0.009032 0.003839 0.040029 0.018953
# 6 0.002424 -0.002006 0.010407 0.006235 0.018953 0.045632
#
#
# Mechanical properties :
#
#
# Convention : Reuss Voigt Hill
#
# Bulk Modulus (GPa) = 36.09912 45.39617 40.74765
# Shear Modulus (GPa) = 23.00041 31.81385 27.40713
#
# Velocity S-wave (km/s) = 3.14537 3.69924 3.43349
# Velocity P-wave (km/s) = 5.35899 6.14593 5.76590
#
# Compressibility (1/GPa) = 0.02770150
#
# Stress axis : x y z
#
# Youngs Moduli (GPa) = 41.54698 40.43440 66.29322
#
# Poissons Ratio (x) = 0.44677 0.23601
# Poissons Ratio (y) = 0.45906 0.23087
# Poissons Ratio (z) = 0.14791 0.14081
#
# Static dielectric constant tensor:
#      x y z
#    x 3.930450 -0.034540 -0.091310 
#    y -0.034540 4.477150 -0.170230 
#    z -0.091310 -0.170230 4.327250 
# 
# 
# High freq. dielectric constant tensor:
#      x y z
#    x 1.899900 0.005320 -0.010230 
#    y 0.005320 1.934510 -0.000750 
#    z -0.010230 -0.000750 1.932390 
# 
# From -- ./inp_files/289539.got.cif
#   From: 2010.06.25/outbox.cif.g09.slc.cpg/sg2_145_cif.got.tgz:289539.got - 2010.06.27 13:26:56.
