data_PCOD8030459
_publ_section_title
;
Structure prediction by ZEFSAII (Michael W. Deem and Ramdas Pophale) SiO2 
 PCOD8030459
Probable space group: P -1
;
_chemical_formula_sum "Si O2"
_cell_formula_units_Z 16
_cell_length_a 13.750038
_cell_length_b 8.674753
_cell_length_c 17.385368
_cell_angle_alpha 42.044695
_cell_angle_beta 137.982262
_cell_angle_gamma 146.334659
_cell_volume 725.007188
_symmetry_space_group_name_H-M "P -1"
_symmetry_group_IT_number 2
_symmetry_cell_setting 'triclinic'
loop_
_space_group_symop_operation_xyz
x,y,z
-x,-y,-z
loop_
_atom_site_type_symbol
_atom_site_label
_atom_site_fract_x
_atom_site_fract_y
_atom_site_fract_z
Si Si1 0.199672 0.278418 0.490525
Si Si2 0.380819 0.460628 0.682673
Si Si3 0.207271 0.241652 0.233439
Si Si4 0.648704 0.062673 0.302572
Si Si5 0.903297 0.587489 0.357559
Si Si6 0.742454 0.351955 0.751745
Si Si7 0.028339 0.252909 0.974660
Si Si8 0.648017 0.089170 0.119718
O O1 0.304300 0.492141 0.546322
O O2 0.166374 0.430636 0.347833
O O3 0.312611 0.166545 0.572032
O O4 0.000000 0.000000 0.500000
O O5 0.608183 0.686180 0.726349
O O6 0.286720 0.507463 0.679416
O O7 0.297963 0.124548 0.775147
O O8 0.270160 0.488760 0.241866
O O9 0.084570 0.243868 0.096645
O O10 0.068241 0.925150 0.309142
O O11 0.827099 0.392641 0.307431
O O12 0.577844 0.054363 0.178140
O O13 0.463986 0.926769 0.294208
O O14 0.000000 0.500000 0.500000
O O15 0.839686 0.210665 0.883615
O O16 0.177188 0.573162 0.908557
O O17 0.000000 0.000000 0.000000
O O18 0.500000 0.000000 0.000000
#
# Coordination Sequence:
#
# PCOD8030459 Si02
#       8
#     2   2   2   2   2   2   2   2
#     4  11  22  43  72 102 135 182 240 288 346 422
#     4  11  25  45  75 104 138 192 237 289 348 426
#     4  12  25  49  72 103 142 188 244 285 348 427
#     4  11  24  42  67 108 138 179 235 292 357 414
#     4  12  28  46  69 108 151 184 229 297 365 418
#     4  12  24  44  74  98 141 184 236 294 345 426
#     4  12  27  44  69 107 140 184 234 293 356 420
#     4  11  21  46  73  98 140 184 241 286 345 423
#
# _framework density 22.068746000000001
#
# number of rings (size 3 to 8) (size 9 to 14) (size 15 to 20)
#    0.000    0.500    3.750    6.000    3.500    2.500 
#    0.000    1.875    0.000    0.000    0.000    0.000 
#    0.000    0.000    0.000    0.000    0.000    0.000 
#
# Total GULP energy -198300.701236 kJ/mol
# GULP energy per Si atom -12393.793827 kJ/mol
# Density = 2.201852 g / cm^3
# Si number density = 22.068746 Si / 1000 Ang^3
#
#
#
# Elastic Constant Matrix: (Units=GPa)
#
#
# Indices 1 2 3 4 5 6 
#
# 1 74.8006 34.1950 48.7824 -11.1140 -0.5643 20.4553
# 2 34.1950 121.4841 40.3887 1.0377 1.8968 12.5451
# 3 48.7824 40.3887 150.0864 11.8419 -4.8329 8.1673
# 4 -11.1140 1.0377 11.8419 33.2150 -0.5367 -1.7639
# 5 -0.5643 1.8968 -4.8329 -0.5367 28.0690 13.5885
# 6 20.4553 12.5451 8.1673 -1.7639 13.5885 41.2154
#
#
#
# Elastic Compliance Matrix: (Units=1/GPa)
#
#
# Indices 1 2 3 4 5 6 
#
# 1 0.023891 -0.003504 -0.006884 0.010074 0.004854 -0.010596
# 2 -0.003504 0.009781 -0.001387 -0.001036 -0.000597 -0.000811
# 3 -0.006884 -0.001387 0.009667 -0.005619 0.000830 0.001409
# 4 0.010074 -0.001036 -0.005619 0.035402 0.001163 -0.002439
# 5 0.004854 -0.000597 0.000830 0.001163 0.044102 -0.016882
# 6 -0.010596 -0.000811 0.001409 -0.002439 -0.016882 0.034951
#
#
# Mechanical properties :
#
#
# Convention : Reuss Voigt Hill
#
# Bulk Modulus (GPa) = 50.53174 65.90035 58.21605
# Shear Modulus (GPa) = 26.60413 35.36688 30.98550
#
# Velocity S-wave (km/s) = 3.47581 4.00756 3.75112
# Velocity P-wave (km/s) = 6.24944 7.16522 6.72294
#
# Compressibility (1/GPa) = 0.01978954
#
# Stress axis : x y z
#
# Youngs Moduli (GPa) = 41.85598 102.24307 103.44509
#
# Poissons Ratio (x) = 0.35823 0.71217
# Poissons Ratio (y) = 0.14665 0.14343
# Poissons Ratio (z) = 0.28816 0.14176
#
# Static dielectric constant tensor:
#      x y z
#    x 4.119980 0.072940 0.357000 
#    y 0.072940 3.806860 0.577440 
#    z 0.357000 0.577440 4.950990 
# 
# 
# High freq. dielectric constant tensor:
#      x y z
#    x 1.864920 0.011600 -0.004320 
#    y 0.011600 1.880400 0.008400 
#    z -0.004320 0.008400 1.881970 
# 
# From -- ./inp_files/280132.got.cif
#   From: 2010.06.25/outbox.cif.g09.slc.cpg/sg2_141_cif.got.tgz:280132.got - 2010.06.27 13:26:56.
