data_PCOD8030800
_publ_section_title
;
Structure prediction by ZEFSAII (Michael W. Deem and Ramdas Pophale) SiO2 
 PCOD8030800
Probable space group: P -1
;
_chemical_formula_sum "Si O2"
_cell_formula_units_Z 16
_cell_length_a 9.034587
_cell_length_b 9.137350
_cell_length_c 15.905397
_cell_angle_alpha 37.494946
_cell_angle_beta 110.598832
_cell_angle_gamma 99.791575
_cell_volume 734.293855
_symmetry_space_group_name_H-M "P -1"
_symmetry_group_IT_number 2
_symmetry_cell_setting 'triclinic'
loop_
_space_group_symop_operation_xyz
x,y,z
-x,-y,-z
loop_
_atom_site_type_symbol
_atom_site_label
_atom_site_fract_x
_atom_site_fract_y
_atom_site_fract_z
Si Si1 0.873444 0.289555 0.156510
Si Si2 0.848370 0.656165 0.231575
Si Si3 0.386174 0.026731 0.724676
Si Si4 0.062434 0.243112 0.378552
Si Si5 0.930881 0.036904 0.783968
Si Si6 0.436952 0.142767 0.505354
Si Si7 0.287546 0.220254 0.035727
Si Si8 0.307275 0.541191 0.552986
O O1 0.992968 0.333048 0.234014
O O2 0.779533 0.068916 0.255106
O O3 0.745523 0.546421 0.013108
O O4 0.988254 0.215339 0.132603
O O5 0.733588 0.566926 0.317100
O O6 0.000403 0.439053 0.348518
O O7 0.917034 0.884172 0.176958
O O8 0.752892 0.719302 0.096899
O O9 0.457413 0.969019 0.671087
O O10 0.344362 0.320300 0.594473
O O11 0.522192 0.892574 0.876484
O O12 0.249548 0.236238 0.412525
O O13 0.000000 0.000000 0.500000
O O14 0.836041 0.242874 0.607314
O O15 0.809292 0.981041 0.856642
O O16 0.529334 0.362832 0.440586
O O17 0.500000 0.000000 0.500000
#
# Coordination Sequence:
#
# PCOD8030800 Si02
#       8
#     2   2   2   2   2   2   2   2
#     4  11  24  45  70  99 136 189 234 281 348 412
#     4  11  25  45  69 104 137 190 231 285 346 416
#     4  12  25  47  70 103 144 186 228 287 353 418
#     4  11  22  40  69 100 139 175 231 292 343 402
#     4  12  23  46  72 104 137 181 240 291 347 408
#     4  12  25  42  69 107 141 177 229 295 350 406
#     4  11  27  45  68  98 150 185 231 280 350 424
#     4  12  26  45  75 107 139 181 236 293 351 403
#
# _framework density 21.789642000000001
#
# number of rings (size 3 to 8) (size 9 to 14) (size 15 to 20)
#    0.000    0.500    3.750    4.875    3.500    0.500 
#    0.000    0.000    0.000    0.000    0.000    0.000 
#    0.000    0.000    0.000    0.000    0.000    0.000 
#
# Total GULP energy -198406.105196 kJ/mol
# GULP energy per Si atom -12400.381575 kJ/mol
# Density = 2.174005 g / cm^3
# Si number density = 21.789642 Si / 1000 Ang^3
#
#
#
# Elastic Constant Matrix: (Units=GPa)
#
#
# Indices 1 2 3 4 5 6 
#
# 1 112.1548 30.1912 26.8531 14.8271 3.8541 11.2316
# 2 30.1912 85.2354 23.1595 5.1476 10.6099 -2.2142
# 3 26.8531 23.1595 86.8783 10.1012 4.0434 -6.6644
# 4 14.8271 5.1476 10.1012 32.8395 -7.5762 -3.4911
# 5 3.8541 10.6099 4.0434 -7.5762 42.4774 0.5112
# 6 11.2316 -2.2142 -6.6644 -3.4911 0.5112 47.8935
#
#
#
# Elastic Compliance Matrix: (Units=1/GPa)
#
#
# Indices 1 2 3 4 5 6 
#
# 1 0.011266 -0.003070 -0.002377 -0.004418 -0.000776 -0.003428
# 2 -0.003070 0.013942 -0.002471 -0.000646 -0.003096 0.001007
# 3 -0.002377 -0.002471 0.013420 -0.002659 -0.000944 0.002127
# 4 -0.004418 -0.000646 -0.002659 0.035331 0.007079 0.003136
# 5 -0.000776 -0.003096 -0.000944 0.007079 0.025736 0.000149
# 6 -0.003428 0.001007 0.002127 0.003136 0.000149 0.022253
#
#
# Mechanical properties :
#
#
# Convention : Reuss Voigt Hill
#
# Bulk Modulus (GPa) = 43.87706 49.40845 46.64276
# Shear Modulus (GPa) = 34.39207 38.24639 36.31923
#
# Velocity S-wave (km/s) = 3.97718 4.19412 4.08709
# Velocity P-wave (km/s) = 6.42425 6.79549 6.61247
#
# Compressibility (1/GPa) = 0.02279095
#
# Stress axis : x y z
#
# Youngs Moduli (GPa) = 88.76361 71.72710 74.51541
#
# Poissons Ratio (x) = 0.22023 0.17712
# Poissons Ratio (y) = 0.27254 0.18413
# Poissons Ratio (z) = 0.21099 0.17724
#
# Static dielectric constant tensor:
#      x y z
#    x 4.051220 -0.128280 -0.014410 
#    y -0.128280 4.332990 0.104480 
#    z -0.014410 0.104480 3.910850 
# 
# 
# High freq. dielectric constant tensor:
#      x y z
#    x 1.870710 0.001360 -0.001720 
#    y 0.001360 1.870180 0.002340 
#    z -0.001720 0.002340 1.848430 
# 
# From -- ./inp_files/206873.got.cif
#   From: 2010.06.25/outbox.cif.g09.slc.cpg/sg2_104_cif.got.tgz:206873.got - 2010.06.27 13:26:56.
