data_PCOD8030407
_publ_section_title
;
Structure prediction by ZEFSAII (Michael W. Deem and Ramdas Pophale) SiO2 
 PCOD8030407
Probable space group: P -1
;
_chemical_formula_sum "Si O2"
_cell_formula_units_Z 16
_cell_length_a 15.261897
_cell_length_b 14.354664
_cell_length_c 9.194367
_cell_angle_alpha 71.204476
_cell_angle_beta 98.520663
_cell_angle_gamma 36.873930
_cell_volume 800.490307
_symmetry_space_group_name_H-M "P -1"
_symmetry_group_IT_number 2
_symmetry_cell_setting 'triclinic'
loop_
_space_group_symop_operation_xyz
x,y,z
-x,-y,-z
loop_
_atom_site_type_symbol
_atom_site_label
_atom_site_fract_x
_atom_site_fract_y
_atom_site_fract_z
Si Si1 0.073558 0.428840 0.888675
Si Si2 0.586283 0.757313 0.980308
Si Si3 0.628624 0.869136 0.447420
Si Si4 0.461291 0.390540 0.130557
Si Si5 0.152129 0.872504 0.732574
Si Si6 0.421901 0.921689 0.183747
Si Si7 0.846805 0.177420 0.741922
Si Si8 0.546337 0.305629 0.524209
O O1 0.873331 0.627335 0.641166
O O2 0.191747 0.411196 0.889816
O O3 0.000000 0.500000 0.000000
O O4 0.208973 0.197654 0.996785
O O5 0.607309 0.630223 0.976594
O O6 0.422856 0.984890 0.734897
O O7 0.509445 0.823661 0.092579
O O8 0.587752 0.809700 0.382163
O O9 0.500000 0.000000 0.500000
O O10 0.678910 0.215417 0.217521
O O11 0.504483 0.313388 0.345043
O O12 0.271665 0.658097 0.937004
O O13 0.000000 0.000000 0.500000
O O14 0.998034 0.073493 0.712513
O O15 0.381663 0.855615 0.274830
O O16 0.733799 0.195139 0.637845
O O17 0.672485 0.432052 0.606952
O O18 0.000000 0.000000 0.000000
#
# Coordination Sequence:
#
# PCOD8030407 Si02
#       8
#     2   2   2   2   2   2   2   2
#     4  11  23  43  70  93 126 175 215 260 327 385
#     4  11  26  42  64 100 133 166 217 270 320 382
#     4  11  21  45  70  93 130 169 211 270 323 385
#     4  11  25  43  67  96 133 171 219 266 320 395
#     4  11  24  44  67  96 131 174 217 269 326 380
#     4  11  26  42  64 100 133 166 217 270 320 382
#     4  11  24  44  67  96 131 174 217 269 326 380
#     4  11  25  43  67  96 133 171 219 266 320 395
#
# _framework density 19.987749000000001
#
# number of rings (size 3 to 8) (size 9 to 14) (size 15 to 20)
#    0.000    1.000    5.000    2.250    3.500    5.000 
#    0.000    0.000    0.000    0.000    0.000    0.000 
#    0.000    0.000    0.000    0.000    0.000    0.000 
#
# Total GULP energy -198383.271403 kJ/mol
# GULP energy per Si atom -12398.954463 kJ/mol
# Density = 1.994226 g / cm^3
# Si number density = 19.987749 Si / 1000 Ang^3
#
#
#
# Elastic Constant Matrix: (Units=GPa)
#
#
# Indices 1 2 3 4 5 6 
#
# 1 107.5946 60.7257 44.7096 -9.2692 -6.7025 0.1408
# 2 60.7257 149.7680 42.0408 15.3583 8.1610 -11.8107
# 3 44.7096 42.0408 119.3109 -0.9484 25.5383 -13.0525
# 4 -9.2692 15.3583 -0.9484 42.0963 -14.3592 3.3928
# 5 -6.7025 8.1610 25.5383 -14.3592 27.5064 5.8239
# 6 0.1408 -11.8107 -13.0525 3.3928 5.8239 33.2525
#
#
#
# Elastic Compliance Matrix: (Units=1/GPa)
#
#
# Indices 1 2 3 4 5 6 
#
# 1 0.036275 -0.017698 -0.023693 0.037563 0.062146 -0.030457
# 2 -0.017698 0.016739 0.009893 -0.022957 -0.034314 0.018256
# 3 -0.023693 0.009893 0.028774 -0.029842 -0.056914 0.027921
# 4 0.037563 -0.022957 -0.029842 0.074590 0.091868 -0.043727
# 5 0.062146 -0.034314 -0.056914 0.091868 0.178448 -0.075418
# 6 -0.030457 0.018256 0.027921 -0.043727 -0.075418 0.065317
#
#
# Mechanical properties :
#
#
# Convention : Reuss Voigt Hill
#
# Bulk Modulus (GPa) = 53.21110 74.62506 63.91808
# Shear Modulus (GPa) = 10.65184 35.85088 23.25136
#
# Velocity S-wave (km/s) = 2.31101 4.23974 3.41439
# Velocity P-wave (km/s) = 5.81383 7.83477 6.89871
#
# Compressibility (1/GPa) = 0.01879307
#
# Stress axis : x y z
#
# Youngs Moduli (GPa) = 27.56705 59.73921 34.75398
#
# Poissons Ratio (x) = 1.05725 0.82342
# Poissons Ratio (y) = 0.48788 -0.34383
# Poissons Ratio (z) = 0.65314 -0.59101
#
# Static dielectric constant tensor:
#      x y z
#    x 3.622440 0.062350 0.041590 
#    y 0.062350 3.407990 0.085450 
#    z 0.041590 0.085450 3.692010 
# 
# 
# High freq. dielectric constant tensor:
#      x y z
#    x 1.777730 -0.006840 0.006570 
#    y -0.006840 1.795190 0.004160 
#    z 0.006570 0.004160 1.797470 
# 
# From -- ./inp_files/314915.got.cif
#   From: 2010.06.25/outbox.cif.g09.slc.cpg/sg2_158_cif.got.tgz:314915.got - 2010.06.27 13:26:56.
