data_PCOD8030908
_publ_section_title
;
Structure prediction by ZEFSAII (Michael W. Deem and Ramdas Pophale) SiO2 
 PCOD8030908
Probable space group: P -1
;
_chemical_formula_sum "Si O2"
_cell_formula_units_Z 16
_cell_length_a 12.933920
_cell_length_b 6.494773
_cell_length_c 28.928250
_cell_angle_alpha 116.622887
_cell_angle_beta 154.495440
_cell_angle_gamma 51.796305
_cell_volume 777.506521
_symmetry_space_group_name_H-M "P -1"
_symmetry_group_IT_number 2
_symmetry_cell_setting 'triclinic'
loop_
_space_group_symop_operation_xyz
x,y,z
-x,-y,-z
loop_
_atom_site_type_symbol
_atom_site_label
_atom_site_fract_x
_atom_site_fract_y
_atom_site_fract_z
Si Si1 0.087895 0.610496 0.826191
Si Si2 0.922739 0.455122 0.914241
Si Si3 0.845909 0.692325 0.565185
Si Si4 0.640541 0.067559 0.022428
Si Si5 0.294382 0.206806 0.223956
Si Si6 0.631826 0.685916 0.576288
Si Si7 0.756611 0.318944 0.427176
Si Si8 0.617883 0.574663 0.300883
O O1 0.387219 0.312839 0.913777
O O2 0.979520 0.674139 0.841644
O O3 0.847319 0.609551 0.698423
O O4 0.152323 0.843917 0.862805
O O5 0.817711 0.726977 0.867761
O O6 0.670585 0.412192 0.818521
O O7 0.000000 0.500000 0.000000
O O8 0.184287 0.189906 0.967174
O O9 0.819712 0.662221 0.605840
O O10 0.767909 0.496136 0.489894
O O11 0.172329 0.593232 0.674531
O O12 0.637602 0.003006 0.494292
O O13 0.500000 0.000000 0.000000
O O14 0.440274 0.376135 0.309187
O O15 0.538005 0.885933 0.298238
O O16 0.500000 0.500000 0.500000
O O17 0.793063 0.426033 0.403415
O O18 0.000000 0.000000 0.500000
#
# Coordination Sequence:
#
# PCOD8030908 Si02
#       8
#     2   2   2   2   2   2   2   2
#     4  11  24  43  72  95 131 180 239 280 339 420
#     4  11  26  44  66 102 138 176 227 293 353 407
#     4  11  25  42  63 104 137 178 226 274 345 412
#     4  11  24  45  71  99 131 181 237 287 344 409
#     4  11  22  41  67 100 132 178 223 283 336 411
#     4  11  27  44  68  99 142 185 226 285 343 411
#     4  11  23  38  69  99 133 179 220 274 336 414
#     4  11  24  41  65  99 138 174 228 274 343 414
#
# _framework density 20.578605
#
# number of rings (size 3 to 8) (size 9 to 14) (size 15 to 20)
#    0.000    1.000    3.750    1.875    5.250    5.500 
#    0.000    0.000    0.000    0.000    0.000    0.000 
#    0.000    0.000    0.000    0.000    0.000    0.000 
#
# Total GULP energy -198404.601446 kJ/mol
# GULP energy per Si atom -12400.287590 kJ/mol
# Density = 2.053177 g / cm^3
# Si number density = 20.578605 Si / 1000 Ang^3
#
#
#
# Elastic Constant Matrix: (Units=GPa)
#
#
# Indices 1 2 3 4 5 6 
#
# 1 126.8874 54.9617 60.7621 -3.1598 13.5875 -4.8791
# 2 54.9617 141.6749 47.6355 -10.3708 -4.6371 -0.8987
# 3 60.7621 47.6355 96.2958 8.1586 -1.4755 -0.1367
# 4 -3.1598 -10.3708 8.1586 38.7347 0.3961 5.0259
# 5 13.5875 -4.6371 -1.4755 0.3961 43.2078 -4.0146
# 6 -4.8791 -0.8987 -0.1367 5.0259 -4.0146 37.8612
#
#
#
# Elastic Compliance Matrix: (Units=1/GPa)
#
#
# Indices 1 2 3 4 5 6 
#
# 1 0.013005 -0.002670 -0.007104 0.001776 -0.004554 0.000868
# 2 -0.002670 0.009451 -0.003221 0.003020 0.001683 -0.000354
# 3 -0.007104 -0.003221 0.016926 -0.005033 0.002513 0.000004
# 4 0.001776 0.003020 -0.005033 0.028305 -0.000999 -0.003581
# 5 -0.004554 0.001683 0.002513 -0.000999 0.025061 0.002252
# 6 0.000868 -0.000354 0.000004 -0.003581 0.002252 0.027230
#
#
# Mechanical properties :
#
#
# Convention : Reuss Voigt Hill
#
# Bulk Modulus (GPa) = 74.67651 76.84186 75.75919
# Shear Modulus (GPa) = 33.23763 37.39399 35.31581
#
# Velocity S-wave (km/s) = 4.02326 4.26740 4.14713
# Velocity P-wave (km/s) = 7.61245 7.85511 7.73473
#
# Compressibility (1/GPa) = 0.01339109
#
# Stress axis : x y z
#
# Youngs Moduli (GPa) = 76.89470 105.80721 59.08162
#
# Poissons Ratio (x) = 0.28250 0.41973
# Poissons Ratio (y) = 0.20531 0.19031
# Poissons Ratio (z) = 0.54628 0.34082
#
# Static dielectric constant tensor:
#      x y z
#    x 3.897060 0.208930 0.208790 
#    y 0.208930 3.538180 -0.429890 
#    z 0.208790 -0.429890 3.377110 
# 
# 
# High freq. dielectric constant tensor:
#      x y z
#    x 1.818020 0.009130 0.016770 
#    y 0.009130 1.813160 -0.008930 
#    z 0.016770 -0.008930 1.805670 
# 
# From -- ./inp_files/367777.got.cif
#   From: 2010.06.25/outbox.cif.g09.slc.cpg/sg2_184_cif.got.tgz:367777.got - 2010.06.27 13:26:56.
