data_PCOD8030331
_publ_section_title
;
Structure prediction by ZEFSAII (Michael W. Deem and Ramdas Pophale) SiO2 
 PCOD8030331
Probable space group: P -1
;
_chemical_formula_sum "Si O2"
_cell_formula_units_Z 14
_cell_length_a 6.917827
_cell_length_b 8.475317
_cell_length_c 17.255917
_cell_angle_alpha 130.981676
_cell_angle_beta 116.620247
_cell_angle_gamma 56.440511
_cell_volume 630.550398
_symmetry_space_group_name_H-M "P -1"
_symmetry_group_IT_number 2
_symmetry_cell_setting 'triclinic'
loop_
_space_group_symop_operation_xyz
x,y,z
-x,-y,-z
loop_
_atom_site_type_symbol
_atom_site_label
_atom_site_fract_x
_atom_site_fract_y
_atom_site_fract_z
Si Si1 0.372123 0.235150 0.006566
Si Si2 0.075361 0.650814 0.707817
Si Si3 0.734873 0.795028 0.490713
Si Si4 0.991563 0.610408 0.139102
Si Si5 0.591452 0.694308 0.597699
Si Si6 0.890308 0.059505 0.337959
Si Si7 0.831164 0.251077 0.073043
O O1 0.572713 0.278909 0.009144
O O2 0.254851 0.450577 0.111582
O O3 0.167007 0.239619 0.912030
O O4 0.500000 0.000000 0.000000
O O5 0.238023 0.398381 0.628796
O O6 0.104303 0.821500 0.704190
O O7 0.168770 0.714450 0.823805
O O8 0.813494 0.654976 0.680892
O O9 0.713588 0.723274 0.550544
O O10 0.959135 0.866044 0.548090
O O11 0.500000 0.000000 0.500000
O O12 0.879257 0.444092 0.099061
O O13 0.009065 0.788457 0.262332
O O14 0.500000 0.500000 0.500000
O O15 0.368660 0.893529 0.659056
O O16 0.000000 0.000000 0.000000
#
# Coordination Sequence:
#
# PCOD8030331 Si02
#       7
#     2   2   2   2   2   2   2
#     4  11  24  49  72  96 141 181 231 292 344 406
#     4  11  25  43  69  97 135 185 223 280 349 401
#     4  11  25  42  64 101 140 172 226 283 340 416
#     4  11  27  44  72 104 133 183 234 283 350 411
#     4  11  21  44  70  94 131 178 228 275 337 410
#     4  11  24  44  69  99 135 175 229 283 343 411
#     4  12  27  45  69 103 138 179 233 283 342 412
#
# _framework density 22.202826000000002
#
# number of rings (size 3 to 8) (size 9 to 14) (size 15 to 20)
#    0.000    0.857    4.286    2.143    8.000    4.000 
#    0.000    0.000    0.000    0.000    0.000    0.000 
#    0.000    0.000    0.000    0.000    0.000    0.000 
#
# Total GULP energy -173507.211115 kJ/mol
# GULP energy per Si atom -12393.372222 kJ/mol
# Density = 2.215229 g / cm^3
# Si number density = 22.202826 Si / 1000 Ang^3
#
#
#
# Elastic Constant Matrix: (Units=GPa)
#
#
# Indices 1 2 3 4 5 6 
#
# 1 125.2903 25.0671 22.0515 20.6124 -6.6438 -23.0670
# 2 25.0671 104.3479 39.9052 25.9684 -1.4762 -15.9005
# 3 22.0515 39.9052 115.0023 31.2945 -15.2007 -6.0816
# 4 20.6124 25.9684 31.2945 44.3050 -2.7172 -1.1727
# 5 -6.6438 -1.4762 -15.2007 -2.7172 33.4028 7.8287
# 6 -23.0670 -15.9005 -6.0816 -1.1727 7.8287 40.0282
#
#
#
# Elastic Compliance Matrix: (Units=1/GPa)
#
#
# Indices 1 2 3 4 5 6 
#
# 1 0.009744 -0.000441 -0.000357 -0.003871 0.000215 0.005230
# 2 -0.000441 0.012820 -0.003020 -0.005200 -0.002420 0.004701
# 3 -0.000357 -0.003020 0.012166 -0.006370 0.004982 -0.000718
# 4 -0.003871 -0.005200 -0.006370 0.031787 -0.000312 -0.004272
# 5 0.000215 -0.002420 0.004982 -0.000312 0.033680 -0.006677
# 6 0.005230 0.004701 -0.000718 -0.004272 -0.006677 0.030935
#
#
# Mechanical properties :
#
#
# Convention : Reuss Voigt Hill
#
# Bulk Modulus (GPa) = 36.90884 57.63200 47.27042
# Shear Modulus (GPa) = 33.82947 40.72165 37.27556
#
# Velocity S-wave (km/s) = 3.90764 4.28726 4.10184
# Velocity P-wave (km/s) = 6.08433 7.10780 6.61589
#
# Compressibility (1/GPa) = 0.02709378
#
# Stress axis : x y z
#
# Youngs Moduli (GPa) = 102.63101 78.00047 82.19585
#
# Poissons Ratio (x) = 0.03438 0.02934
# Poissons Ratio (y) = 0.04524 0.24827
# Poissons Ratio (z) = 0.03663 0.23559
#
# Static dielectric constant tensor:
#      x y z
#    x 4.567670 0.082460 0.169790 
#    y 0.082460 3.556130 0.132050 
#    z 0.169790 0.132050 4.153650 
# 
# 
# High freq. dielectric constant tensor:
#      x y z
#    x 1.891910 -0.009700 0.001180 
#    y -0.009700 1.867540 0.014500 
#    z 0.001180 0.014500 1.878540 
# 
# From -- ./inp_files/107644.got.cif
#   From: 2010.06.25/outbox.cif.g09.slc.cpg/sg2_54_cif.got.tgz:107644.got - 2010.06.27 13:26:56.
