data_PCOD8030420
_publ_section_title
;
Structure prediction by ZEFSAII (Michael W. Deem and Ramdas Pophale) SiO2 
 PCOD8030420
Probable space group: P -1
;
_chemical_formula_sum "Si O2"
_cell_formula_units_Z 16
_cell_length_a 8.350698
_cell_length_b 12.509791
_cell_length_c 9.112342
_cell_angle_alpha 63.212963
_cell_angle_beta 110.781254
_cell_angle_gamma 116.152469
_cell_volume 748.150731
_symmetry_space_group_name_H-M "P -1"
_symmetry_group_IT_number 2
_symmetry_cell_setting 'triclinic'
loop_
_space_group_symop_operation_xyz
x,y,z
-x,-y,-z
loop_
_atom_site_type_symbol
_atom_site_label
_atom_site_fract_x
_atom_site_fract_y
_atom_site_fract_z
Si Si1 0.513683 0.303317 0.506096
Si Si2 0.974114 0.034750 0.635478
Si Si3 0.534564 0.275471 0.084708
Si Si4 0.653599 0.134586 0.452828
Si Si5 0.233205 0.244126 0.224016
Si Si6 0.829375 0.532931 0.359720
Si Si7 0.698443 0.763742 0.239844
Si Si8 0.843446 0.521088 0.026395
O O1 0.622437 0.215585 0.529752
O O2 0.304934 0.259619 0.405095
O O3 0.638576 0.445855 0.420517
O O4 0.475280 0.291876 0.674167
O O5 0.851890 0.124976 0.542319
O O6 0.163306 0.103723 0.735966
O O7 0.875422 0.900614 0.768337
O O8 0.000000 0.000000 0.500000
O O9 0.645265 0.192795 0.250546
O O10 0.419641 0.304669 0.159860
O O11 0.660084 0.412277 0.979053
O O12 0.394879 0.203084 0.956868
O O13 0.500000 0.000000 0.500000
O O14 0.119463 0.334215 0.097878
O O15 0.819007 0.672902 0.301306
O O16 0.849111 0.508829 0.209942
O O17 0.000000 0.500000 0.500000
O O18 0.000000 0.500000 0.000000
#
# Coordination Sequence:
#
# PCOD8030420 Si02
#       8
#     2   2   2   2   2   2   2   2
#     4  11  23  43  72  97 138 183 231 282 349 414
#     4  12  25  45  74 101 139 186 235 280 349 424
#     4  11  24  46  71  98 140 181 229 286 349 403
#     4  11  21  45  72  99 133 187 233 278 347 416
#     4  11  22  46  72  94 133 191 229 274 357 412
#     4  12  26  44  67 104 142 183 235 294 345 414
#     4  12  26  44  69 108 140 183 236 289 349 412
#     4  12  27  44  71 103 140 182 231 290 352 412
#
# _framework density 21.386064000000001
#
# number of rings (size 3 to 8) (size 9 to 14) (size 15 to 20)
#    0.000    0.500    7.500    2.250    5.250    0.500 
#    0.000    2.500    0.000    0.000    0.000    0.000 
#    0.000    0.000    0.000    0.000    0.000    0.000 
#
# Total GULP energy -198294.389342 kJ/mol
# GULP energy per Si atom -12393.399334 kJ/mol
# Density = 2.133739 g / cm^3
# Si number density = 21.386064 Si / 1000 Ang^3
#
#
#
# Elastic Constant Matrix: (Units=GPa)
#
#
# Indices 1 2 3 4 5 6 
#
# 1 99.0013 31.1948 42.8377 -6.9473 1.7673 -1.1385
# 2 31.1948 111.5254 40.3313 -5.6245 11.2585 17.1166
# 3 42.8377 40.3313 104.7725 -2.0449 14.6477 -2.4492
# 4 -6.9473 -5.6245 -2.0449 37.3880 -0.1263 4.6008
# 5 1.7673 11.2585 14.6477 -0.1263 32.2490 -5.9908
# 6 -1.1385 17.1166 -2.4492 4.6008 -5.9908 23.8626
#
#
#
# Elastic Compliance Matrix: (Units=1/GPa)
#
#
# Indices 1 2 3 4 5 6 
#
# 1 0.012982 -0.002511 -0.004636 0.001503 0.002711 0.002335
# 2 -0.002511 0.013504 -0.003681 0.002825 -0.005126 -0.012016
# 3 -0.004636 -0.003681 0.013469 -0.001061 -0.004027 0.002995
# 4 0.001503 0.002825 -0.001061 0.028374 -0.001967 -0.008028
# 5 0.002711 -0.005126 -0.004027 -0.001967 0.036892 0.013034
# 6 0.002335 -0.012016 0.002995 -0.008028 0.013034 0.055764
#
#
# Mechanical properties :
#
#
# Convention : Reuss Voigt Hill
#
# Bulk Modulus (GPa) = 54.64678 60.44742 57.54710
# Shear Modulus (GPa) = 26.49120 32.09560 29.29340
#
# Velocity S-wave (km/s) = 3.52335 3.87818 3.70502
# Velocity P-wave (km/s) = 6.49307 6.95557 6.72830
#
# Compressibility (1/GPa) = 0.01829934
#
# Stress axis : x y z
#
# Youngs Moduli (GPa) = 77.02889 74.05205 74.24288
#
# Poissons Ratio (x) = 0.18593 0.34423
# Poissons Ratio (y) = 0.19340 0.27327
# Poissons Ratio (z) = 0.35714 0.27257
#
# Static dielectric constant tensor:
#      x y z
#    x 3.963330 -0.280870 0.114430 
#    y -0.280870 4.981600 -1.146940 
#    z 0.114430 -1.146940 5.370410 
# 
# 
# High freq. dielectric constant tensor:
#      x y z
#    x 1.844580 0.002960 -0.007370 
#    y 0.002960 1.845340 -0.003640 
#    z -0.007370 -0.003640 1.835890 
# 
# From -- ./inp_files/185270.got.cif
#   From: 2010.06.25/outbox.cif.g09.slc.cpg/sg2_93_cif.got.tgz:185270.got - 2010.06.27 13:26:56.
