data_PCOD8030792
_publ_section_title
;
Structure prediction by ZEFSAII (Michael W. Deem and Ramdas Pophale) SiO2 
 PCOD8030792
Probable space group: P -1
;
_chemical_formula_sum "Si O2"
_cell_formula_units_Z 16
_cell_length_a 9.328726
_cell_length_b 11.812649
_cell_length_c 14.862207
_cell_angle_alpha 29.028243
_cell_angle_beta 98.250362
_cell_angle_gamma 107.492212
_cell_volume 732.339192
_symmetry_space_group_name_H-M "P -1"
_symmetry_group_IT_number 2
_symmetry_cell_setting 'triclinic'
loop_
_space_group_symop_operation_xyz
x,y,z
-x,-y,-z
loop_
_atom_site_type_symbol
_atom_site_label
_atom_site_fract_x
_atom_site_fract_y
_atom_site_fract_z
Si Si1 0.784157 0.619853 0.095814
Si Si2 0.344180 0.400274 0.613797
Si Si3 0.983234 0.327238 0.345414
Si Si4 0.570606 0.227625 0.474426
Si Si5 0.824502 0.991264 0.990938
Si Si6 0.351965 0.265504 0.166439
Si Si7 0.084123 0.469294 0.439182
Si Si8 0.244221 0.172459 0.412112
O O1 0.951895 0.584136 0.142458
O O2 0.654256 0.352495 0.301405
O O3 0.752403 0.822000 0.015803
O O4 0.775375 0.719239 0.926588
O O5 0.500000 0.500000 0.500000
O O6 0.354631 0.603366 0.550048
O O7 0.286632 0.131212 0.847504
O O8 0.210671 0.357491 0.557832
O O9 0.962633 0.289060 0.479716
O O10 0.157852 0.338775 0.336440
O O11 0.867545 0.111086 0.422994
O O12 0.386482 0.170537 0.488836
O O13 0.605486 0.979297 0.665361
O O14 0.824341 0.267551 0.785338
O O15 0.000000 0.000000 0.000000
O O16 0.296404 0.310834 0.227186
O O17 0.500000 0.500000 0.000000
O O18 0.000000 0.500000 0.500000
#
# Coordination Sequence:
#
# PCOD8030792 Si02
#       8
#     2   2   2   2   2   2   2   2
#     4  11  22  40  68  94 127 167 223 272 318 392
#     4  11  25  43  68 100 133 176 218 279 341 391
#     4  11  24  42  64  97 136 172 208 276 334 385
#     4  11  22  46  65  92 135 170 221 274 321 391
#     4  11  22  41  66 100 127 169 224 271 326 397
#     4  12  23  38  67  94 117 172 225 257 317 395
#     4  12  23  43  71  98 132 177 225 269 333 404
#     4  11  24  42  65  93 135 174 211 269 337 382
#
# _framework density 21.847799999999999
#
# number of rings (size 3 to 8) (size 9 to 14) (size 15 to 20)
#    0.000    0.750    5.000    3.375    1.750    1.000 
#    2.250    0.000    0.000    0.000    0.000    0.000 
#    0.000    0.000    0.000    0.000    0.000    0.000 
#
# Total GULP energy -198246.534903 kJ/mol
# GULP energy per Si atom -12390.408431 kJ/mol
# Density = 2.179807 g / cm^3
# Si number density = 21.847800 Si / 1000 Ang^3
#
#
#
# Elastic Constant Matrix: (Units=GPa)
#
#
# Indices 1 2 3 4 5 6 
#
# 1 99.6238 16.9899 19.3713 16.2808 14.1280 -3.7594
# 2 16.9899 73.6796 20.7147 15.8708 17.7738 3.8269
# 3 19.3713 20.7147 118.3197 13.0748 1.6216 -5.9052
# 4 16.2808 15.8708 13.0748 34.5857 2.0700 1.5835
# 5 14.1280 17.7738 1.6216 2.0700 39.8644 10.5773
# 6 -3.7594 3.8269 -5.9052 1.5835 10.5773 41.4766
#
#
#
# Elastic Compliance Matrix: (Units=1/GPa)
#
#
# Indices 1 2 3 4 5 6 
#
# 1 0.011808 -0.000456 -0.001158 -0.004757 -0.004276 0.002220
# 2 -0.000456 0.017424 -0.002147 -0.006544 -0.007216 0.000135
# 3 -0.001158 -0.002147 0.009303 -0.002091 0.000751 0.001306
# 4 -0.004757 -0.006544 -0.002091 0.034844 0.003502 -0.002349
# 5 -0.004276 -0.007216 0.000751 0.003502 0.031682 -0.007828
# 6 0.002220 0.000135 0.001306 -0.002349 -0.007828 0.026571
#
#
# Mechanical properties :
#
#
# Convention : Reuss Voigt Hill
#
# Bulk Modulus (GPa) = 32.24515 45.08612 38.66563
# Shear Modulus (GPa) = 33.44614 38.82181 36.13397
#
# Velocity S-wave (km/s) = 3.91688 4.21993 4.07122
# Velocity P-wave (km/s) = 5.93691 6.66521 6.31157
#
# Compressibility (1/GPa) = 0.03101242
#
# Stress axis : x y z
#
# Youngs Moduli (GPa) = 84.68534 57.39119 107.49012
#
# Poissons Ratio (x) = 0.02619 0.12451
# Poissons Ratio (y) = 0.03864 0.23079
# Poissons Ratio (z) = 0.09809 0.12322
#
# Static dielectric constant tensor:
#      x y z
#    x 3.480260 -0.040870 -0.116490 
#    y -0.040870 4.114570 -0.116250 
#    z -0.116490 -0.116250 3.574620 
# 
# 
# High freq. dielectric constant tensor:
#      x y z
#    x 1.855100 0.011990 0.004140 
#    y 0.011990 1.870420 0.004280 
#    z 0.004140 0.004280 1.853600 
# 
# From -- ./inp_files/499730.got.cif
#   From: 2010.06.25/outbox.cif.g09.slc.cpg/sg2_250_cif.got.tgz:499730.got - 2010.06.27 13:26:56.
