data_PCOD8030483
_publ_section_title
;
Structure prediction by ZEFSAII (Michael W. Deem and Ramdas Pophale) SiO2 
 PCOD8030483
Probable space group: P -1
;
_chemical_formula_sum "Si O2"
_cell_formula_units_Z 16
_cell_length_a 14.986379
_cell_length_b 9.627383
_cell_length_c 20.629033
_cell_angle_alpha 138.324263
_cell_angle_beta 28.526703
_cell_angle_gamma 140.181174
_cell_volume 884.562380
_symmetry_space_group_name_H-M "P -1"
_symmetry_group_IT_number 2
_symmetry_cell_setting 'triclinic'
loop_
_space_group_symop_operation_xyz
x,y,z
-x,-y,-z
loop_
_atom_site_type_symbol
_atom_site_label
_atom_site_fract_x
_atom_site_fract_y
_atom_site_fract_z
Si Si1 0.193312 0.717980 0.359814
Si Si2 0.318216 0.815076 0.084832
Si Si3 0.798717 0.675998 0.043103
Si Si4 0.910172 0.869654 0.663275
Si Si5 0.631991 0.390125 0.662531
Si Si6 0.926643 0.934921 0.919837
Si Si7 0.915984 0.244472 0.355887
Si Si8 0.491292 0.248858 0.926225
O O1 0.232893 0.643790 0.378864
O O2 0.394501 0.833478 0.231719
O O3 0.072359 0.883641 0.508204
O O4 0.061962 0.491681 0.328778
O O5 0.403676 0.766158 0.080067
O O6 0.135946 0.904570 0.238009
O O7 0.232559 0.583497 0.019307
O O8 0.500000 0.000000 0.000000
O O9 0.600849 0.716878 0.209528
O O10 0.849106 0.752699 0.963309
O O11 0.980435 0.819298 0.022940
O O12 0.707596 0.659502 0.702058
O O13 0.994857 0.858050 0.677332
O O14 0.697886 0.263638 0.516608
O O15 0.093475 0.896374 0.752995
O O16 0.737461 0.918471 0.989482
O O17 0.500000 0.500000 0.000000
#
# Coordination Sequence:
#
# PCOD8030483 Si02
#       8
#     2   2   2   2   2   2   2   2
#     4   9  16  31  56  82 108 141 184 229 267 324
#     4  12  22  35  58  83 113 144 183 235 278 322
#     4  11  22  36  55  84 113 146 184 232 277 320
#     4   9  19  32  54  84 112 140 178 231 284 318
#     4   9  16  33  56  81 112 140 181 225 277 328
#     4  11  22  35  55  85 112 145 188 229 272 326
#     4   9  17  32  55  83 110 145 180 224 276 333
#     4  12  20  35  59  82 109 146 194 224 267 332
#
# _framework density 18.088042000000002
#
# number of rings (size 3 to 8) (size 9 to 14) (size 15 to 20)
#    0.000    1.750    5.000    2.250    0.000    1.000 
#    0.000    2.500    0.000    0.750    0.000    0.000 
#    0.000    0.000    0.000    0.000    0.000    0.000 
#
# Total GULP energy -198271.189057 kJ/mol
# GULP energy per Si atom -12391.949316 kJ/mol
# Density = 1.804687 g / cm^3
# Si number density = 18.088042 Si / 1000 Ang^3
#
#
#
# Elastic Constant Matrix: (Units=GPa)
#
#
# Indices 1 2 3 4 5 6 
#
# 1 55.5561 30.7477 46.5443 10.4132 2.0800 4.8956
# 2 30.7477 84.8369 52.1410 11.7511 0.6222 6.6936
# 3 46.5443 52.1410 140.7723 5.6775 9.4040 -4.1903
# 4 10.4132 11.7511 5.6775 27.4648 -5.5705 0.7201
# 5 2.0800 0.6222 9.4040 -5.5705 29.3652 1.1282
# 6 4.8956 6.6936 -4.1903 0.7201 1.1282 24.4015
#
#
#
# Elastic Compliance Matrix: (Units=1/GPa)
#
#
# Indices 1 2 3 4 5 6 
#
# 1 0.028759 -0.004132 -0.007802 -0.007506 -0.000655 -0.005724
# 2 -0.004132 0.017414 -0.005101 -0.004527 0.000880 -0.004731
# 3 -0.007802 -0.005101 0.011842 0.001960 -0.002955 0.005077
# 4 -0.007506 -0.004527 0.001960 0.042368 0.007981 0.001465
# 5 -0.000655 0.000880 -0.002955 0.007981 0.036640 -0.002547
# 6 -0.005724 -0.004731 0.005077 0.001465 -0.002547 0.044374
#
#
# Mechanical properties :
#
#
# Convention : Reuss Voigt Hill
#
# Bulk Modulus (GPa) = 41.76228 60.00349 50.88288
# Shear Modulus (GPa) = 22.37660 26.36179 24.36919
#
# Velocity S-wave (km/s) = 3.52105 3.82175 3.67448
# Velocity P-wave (km/s) = 6.29832 7.26081 6.79663
#
# Compressibility (1/GPa) = 0.02394505
#
# Stress axis : x y z
#
# Youngs Moduli (GPa) = 34.77159 57.42618 84.44400
#
# Poissons Ratio (x) = 0.23727 0.65886
# Poissons Ratio (y) = 0.14367 0.43073
# Poissons Ratio (z) = 0.27130 0.29292
#
# Static dielectric constant tensor:
#      x y z
#    x 3.069390 0.117540 0.045460 
#    y 0.117540 2.996840 0.012020 
#    z 0.045460 0.012020 3.683280 
# 
# 
# High freq. dielectric constant tensor:
#      x y z
#    x 1.674850 0.002530 0.012230 
#    y 0.002530 1.669770 -0.007920 
#    z 0.012230 -0.007920 1.722840 
# 
# From -- ./inp_files/206897.got.cif
#   From: 2010.06.25/outbox.cif.g09.slc.cpg/sg2_104_cif.got.tgz:206897.got - 2010.06.27 13:26:56.
