data_PCOD8030704
_publ_section_title
;
Structure prediction by ZEFSAII (Michael W. Deem and Ramdas Pophale) SiO2 
 PCOD8030704
Probable space group: P -1
;
_chemical_formula_sum "Si O2"
_cell_formula_units_Z 16
_cell_length_a 14.819690
_cell_length_b 14.924985
_cell_length_c 9.276655
_cell_angle_alpha 38.543387
_cell_angle_beta 83.761338
_cell_angle_gamma 54.371962
_cell_volume 757.087099
_symmetry_space_group_name_H-M "P -1"
_symmetry_group_IT_number 2
_symmetry_cell_setting 'triclinic'
loop_
_space_group_symop_operation_xyz
x,y,z
-x,-y,-z
loop_
_atom_site_type_symbol
_atom_site_label
_atom_site_fract_x
_atom_site_fract_y
_atom_site_fract_z
Si Si1 0.087548 0.451358 0.407513
Si Si2 0.910560 0.087490 0.551888
Si Si3 0.189358 0.218318 0.164585
Si Si4 0.425686 0.554813 0.295445
Si Si5 0.194143 0.094522 0.630832
Si Si6 0.828453 0.357451 0.736350
Si Si7 0.624871 0.259227 0.372226
Si Si8 0.872705 0.383235 0.372607
O O1 0.207680 0.184783 0.652718
O O2 0.186663 0.464377 0.415949
O O3 0.000000 0.500000 0.500000
O O4 0.959106 0.651036 0.059358
O O5 0.787631 0.124656 0.490933
O O6 0.821544 0.343075 0.301806
O O7 0.000000 0.000000 0.500000
O O8 0.018906 0.904818 0.894914
O O9 0.161908 0.228318 0.325795
O O10 0.344523 0.942875 0.430989
O O11 0.214716 0.354837 0.958674
O O12 0.500000 0.500000 0.500000
O O13 0.316918 0.554677 0.311865
O O14 0.570046 0.331208 0.454519
O O15 0.339638 0.808480 0.938684
O O16 0.053778 0.169693 0.595847
O O17 0.836855 0.356085 0.565102
O O18 0.500000 0.500000 0.000000
#
# Coordination Sequence:
#
# PCOD8030704 Si02
#       8
#     2   2   2   2   2   2   2   2
#     4  11  22  39  72 105 134 173 233 296 337 391
#     4  12  25  41  73 102 134 176 236 288 332 406
#     4  11  23  43  69  98 138 181 224 285 352 403
#     4  12  28  44  69  98 143 187 223 283 353 422
#     4  11  23  43  66 102 139 177 230 282 355 401
#     4  12  24  43  69 106 132 179 237 282 339 408
#     4  12  25  47  66  98 143 179 226 276 354 415
#     4  11  23  40  69 101 133 168 235 293 332 397
#
# _framework density 21.133634000000001
#
# number of rings (size 3 to 8) (size 9 to 14) (size 15 to 20)
#    0.000    0.500    6.250    4.125    5.250    0.000 
#    0.000    4.375    0.000    0.000    0.000    0.000 
#    0.000    0.000    0.000    0.000    0.000    0.000 
#
# Total GULP energy -198402.469554 kJ/mol
# GULP energy per Si atom -12400.154347 kJ/mol
# Density = 2.108553 g / cm^3
# Si number density = 21.133634 Si / 1000 Ang^3
#
#
#
# Elastic Constant Matrix: (Units=GPa)
#
#
# Indices 1 2 3 4 5 6 
#
# 1 103.8530 45.5007 40.6847 1.1424 -12.2040 6.8452
# 2 45.5007 162.6400 42.0734 3.6411 -16.6113 5.5640
# 3 40.6847 42.0734 91.2025 0.6708 -14.2842 -2.1491
# 4 1.1424 3.6411 0.6708 43.1960 6.3835 -4.7993
# 5 -12.2040 -16.6113 -14.2842 6.3835 26.2352 -6.4634
# 6 6.8452 5.5640 -2.1491 -4.7993 -6.4634 40.3599
#
#
#
# Elastic Compliance Matrix: (Units=1/GPa)
#
#
# Indices 1 2 3 4 5 6 
#
# 1 0.012631 -0.002133 -0.004408 -0.000559 0.001803 -0.001861
# 2 -0.002133 0.007622 -0.002129 -0.001020 0.002806 -0.000474
# 3 -0.004408 -0.002129 0.014830 -0.000443 0.005437 0.002649
# 4 -0.000559 -0.001020 -0.000443 0.024461 -0.006591 0.002065
# 5 0.001803 0.002806 0.005437 -0.006591 0.046852 0.006316
# 6 -0.001861 -0.000474 0.002649 0.002065 0.006316 0.026556
#
#
# Mechanical properties :
#
#
# Convention : Reuss Voigt Hill
#
# Bulk Modulus (GPa) = 56.35914 68.24592 62.30253
# Shear Modulus (GPa) = 32.00904 37.25400 34.63152
#
# Velocity S-wave (km/s) = 3.89601 4.20311 4.05247
# Velocity P-wave (km/s) = 6.85306 7.47780 7.17223
#
# Compressibility (1/GPa) = 0.01774335
#
# Stress axis : x y z
#
# Youngs Moduli (GPa) = 79.17015 131.20553 67.43039
#
# Poissons Ratio (x) = 0.27988 0.29723
# Poissons Ratio (y) = 0.16888 0.14353
# Poissons Ratio (z) = 0.34898 0.27929
#
# Static dielectric constant tensor:
#      x y z
#    x 3.831420 0.254940 -0.065770 
#    y 0.254940 4.520070 -0.644130 
#    z -0.065770 -0.644130 4.644220 
# 
# 
# High freq. dielectric constant tensor:
#      x y z
#    x 1.819820 0.019170 -0.022340 
#    y 0.019170 1.849170 0.006180 
#    z -0.022340 0.006180 1.823690 
# 
# From -- ./inp_files/205232.got.cif
#   From: 2010.06.25/outbox.cif.g09.slc.cpg/sg2_103_cif.got.tgz:205232.got - 2010.06.27 13:26:56.
