data_PCOD8030392
_publ_section_title
;
Structure prediction by ZEFSAII (Michael W. Deem and Ramdas Pophale) SiO2 
 PCOD8030392
Probable space group: P -1
;
_chemical_formula_sum "Si O2"
_cell_formula_units_Z 16
_cell_length_a 10.069441
_cell_length_b 21.818328
_cell_length_c 6.361330
_cell_angle_alpha 107.322995
_cell_angle_beta 124.359458
_cell_angle_gamma 41.502546
_cell_volume 744.311236
_symmetry_space_group_name_H-M "P -1"
_symmetry_group_IT_number 2
_symmetry_cell_setting 'triclinic'
loop_
_space_group_symop_operation_xyz
x,y,z
-x,-y,-z
loop_
_atom_site_type_symbol
_atom_site_label
_atom_site_fract_x
_atom_site_fract_y
_atom_site_fract_z
Si Si1 0.076860 0.411603 0.087389
Si Si2 0.903690 0.707820 0.345460
Si Si3 0.224634 0.580608 0.883011
Si Si4 0.462023 0.076522 0.172290
Si Si5 0.406554 0.760456 0.504259
Si Si6 0.769449 0.083979 0.237975
Si Si7 0.059288 0.746317 0.168664
Si Si8 0.410261 0.877127 0.307938
O O1 0.327969 0.346578 0.365690
O O2 0.870336 0.454696 0.114774
O O3 0.131653 0.338379 0.900574
O O4 0.000000 0.500000 0.000000
O O5 0.663176 0.796435 0.339142
O O6 0.095610 0.624727 0.592562
O O7 0.007313 0.741581 0.359344
O O8 0.500000 0.500000 0.000000
O O9 0.181373 0.652321 0.067516
O O10 0.541253 0.107924 0.114936
O O11 0.602116 0.052099 0.493380
O O12 0.186986 0.164059 0.074270
O O13 0.500000 0.000000 0.000000
O O14 0.314530 0.817966 0.701429
O O15 0.229750 0.755413 0.294615
O O16 0.376684 0.825924 0.375399
O O17 0.802613 0.061476 0.994437
O O18 0.000000 0.000000 0.500000
#
# Coordination Sequence:
#
# PCOD8030392 Si02
#       8
#     2   2   2   2   2   2   2   2
#     4  11  25  41  64  97 135 178 223 279 331 395
#     4  11  21  45  68  89 133 181 220 271 339 393
#     4  11  25  42  65  96 131 175 228 272 333 403
#     4  11  23  42  67 100 135 171 222 275 334 405
#     4  11  24  41  65  98 134 171 226 275 337 399
#     4  11  23  44  68  97 134 174 224 280 338 403
#     4  11  24  42  65  98 134 170 218 282 330 393
#     4  11  21  45  70  93 135 184 217 278 342 397
#
# _framework density 21.496382000000001
#
# number of rings (size 3 to 8) (size 9 to 14) (size 15 to 20)
#    0.000    1.000    5.000    2.250    3.500    6.000 
#    0.000    0.000    0.000    0.000    0.000    0.000 
#    0.000    0.000    0.000    0.000    0.000    0.000 
#
# Total GULP energy -198265.219688 kJ/mol
# GULP energy per Si atom -12391.576230 kJ/mol
# Density = 2.144746 g / cm^3
# Si number density = 21.496382 Si / 1000 Ang^3
#
#
#
# Elastic Constant Matrix: (Units=GPa)
#
#
# Indices 1 2 3 4 5 6 
#
# 1 129.4938 40.4897 53.9782 -3.1389 18.4530 -5.8212
# 2 40.4897 89.0633 32.6037 -3.1784 5.6028 -3.9922
# 3 53.9782 32.6037 146.4830 -7.0063 -5.9303 8.8840
# 4 -3.1389 -3.1784 -7.0063 29.9264 -2.4991 -2.0966
# 5 18.4530 5.6028 -5.9303 -2.4991 34.0407 2.8171
# 6 -5.8212 -3.9922 8.8840 -2.0966 2.8171 35.0187
#
#
#
# Elastic Compliance Matrix: (Units=1/GPa)
#
#
# Indices 1 2 3 4 5 6 
#
# 1 0.011465 -0.003212 -0.003985 -0.000414 -0.006665 0.003062
# 2 -0.003212 0.013550 -0.001935 0.000687 -0.000910 0.001616
# 3 -0.003985 -0.001935 0.009198 0.001661 0.004491 -0.003478
# 4 -0.000414 0.000687 0.001661 0.034166 0.002792 0.001409
# 5 -0.006665 -0.000910 0.004491 0.002792 0.034537 -0.004962
# 6 0.003062 0.001616 -0.003478 0.001409 -0.004962 0.030615
#
#
# Mechanical properties :
#
#
# Convention : Reuss Voigt Hill
#
# Bulk Modulus (GPa) = 62.69308 68.79818 65.74563
# Shear Modulus (GPa) = 31.82449 35.66172 33.74310
#
# Velocity S-wave (km/s) = 3.85185 4.07746 3.96626
# Velocity P-wave (km/s) = 7.00072 7.36489 7.18511
#
# Compressibility (1/GPa) = 0.01595072
#
# Stress axis : x y z
#
# Youngs Moduli (GPa) = 87.22076 73.79882 108.71778
#
# Poissons Ratio (x) = 0.23701 0.43328
# Poissons Ratio (y) = 0.28012 0.21032
# Poissons Ratio (z) = 0.34760 0.14277
#
# Static dielectric constant tensor:
#      x y z
#    x 4.247090 -0.037260 -0.149210 
#    y -0.037260 3.938510 0.144200 
#    z -0.149210 0.144200 4.376590 
# 
# 
# High freq. dielectric constant tensor:
#      x y z
#    x 1.853550 -0.013020 0.002340 
#    y -0.013020 1.838070 0.003510 
#    z 0.002340 0.003510 1.854620 
# 
# From -- ./inp_files/53315.got.cif
#   From: 2010.06.25/outbox.cif.g09.slc.cpg/sg2_27_cif.got.tgz:53315.got - 2010.06.27 13:26:56.
