data_PCOD8030009
_publ_section_title
;
Structure prediction by ZEFSAII (Michael W. Deem and Ramdas Pophale) SiO2 
 PCOD8030009
Probable space group: P -1
;
_chemical_formula_sum "Si O2"
_cell_formula_units_Z 16
_cell_length_a 10.000336
_cell_length_b 19.990817
_cell_length_c 9.342560
_cell_angle_alpha 124.019107
_cell_angle_beta 43.027802
_cell_angle_gamma 142.435984
_cell_volume 776.062826
_symmetry_space_group_name_H-M "P -1"
_symmetry_group_IT_number 2
_symmetry_cell_setting 'triclinic'
loop_
_space_group_symop_operation_xyz
x,y,z
-x,-y,-z
loop_
_atom_site_type_symbol
_atom_site_label
_atom_site_fract_x
_atom_site_fract_y
_atom_site_fract_z
Si Si1 0.424243 0.735945 0.891849
Si Si2 0.465925 0.362868 0.088712
Si Si3 0.196169 0.923318 0.609334
Si Si4 0.881159 0.579891 0.605856
Si Si5 0.722986 0.228762 0.668422
Si Si6 0.178274 0.139889 0.923417
Si Si7 0.947435 0.971785 0.671577
Si Si8 0.971206 0.441919 0.242082
O O1 0.559868 0.694364 0.809482
O O2 0.647347 0.859600 0.805849
O O3 0.233211 0.661842 0.822385
O O4 0.246125 0.730299 0.145217
O O5 0.344998 0.418722 0.258632
O O6 0.314213 0.267233 0.969957
O O7 0.778349 0.457242 0.924457
O O8 0.105666 0.805099 0.520913
O O9 0.152905 0.958384 0.537640
O O10 0.500000 0.000000 0.500000
O O11 0.028377 0.923581 0.860359
O O12 0.924178 0.589982 0.755163
O O13 0.158570 0.677269 0.428179
O O14 0.804903 0.469204 0.476698
O O15 0.405901 0.134875 0.766713
O O16 0.021050 0.075432 0.823099
O O17 0.000000 0.000000 0.500000
#
# Coordination Sequence:
#
# PCOD8030009 Si02
#       8
#     2   2   2   2   2   2   2   2
#     4  11  24  45  64  94 140 171 212 271 326 381
#     4  11  22  43  70  96 124 172 226 260 316 395
#     4  12  22  41  72  92 121 179 228 257 315 395
#     4  11  23  41  69  97 126 172 220 262 325 386
#     4  11  21  41  70  94 128 171 222 261 316 396
#     4  11  22  43  71  92 129 170 221 266 315 388
#     4  12  26  43  64  99 138 168 211 279 329 374
#     4  11  25  42  66  98 136 168 209 278 328 373
#
# _framework density 20.616887999999999
#
# number of rings (size 3 to 8) (size 9 to 14) (size 15 to 20)
#    0.000    0.750    7.500    1.875    1.750    0.500 
#    4.500    1.250    0.000    0.000    0.000    0.000 
#    0.000    0.000    0.000    0.000    0.000    0.000 
#
# Total GULP energy -198349.351636 kJ/mol
# GULP energy per Si atom -12396.834477 kJ/mol
# Density = 2.056996 g / cm^3
# Si number density = 20.616888 Si / 1000 Ang^3
#
#
#
# Elastic Constant Matrix: (Units=GPa)
#
#
# Indices 1 2 3 4 5 6 
#
# 1 79.2020 25.7083 49.9695 9.5253 12.9084 2.7178
# 2 25.7083 104.3359 30.2741 2.2980 16.8785 22.1976
# 3 49.9695 30.2741 101.7783 3.0720 5.8477 4.0042
# 4 9.5253 2.2980 3.0720 31.3810 -0.8209 4.5887
# 5 12.9084 16.8785 5.8477 -0.8209 46.4044 5.0943
# 6 2.7178 22.1976 4.0042 4.5887 5.0943 35.6363
#
#
#
# Elastic Compliance Matrix: (Units=1/GPa)
#
#
# Indices 1 2 3 4 5 6 
#
# 1 0.020221 -0.002018 -0.009006 -0.005510 -0.004075 0.002019
# 2 -0.002018 0.012770 -0.002380 0.000889 -0.002975 -0.007222
# 3 -0.009006 -0.002380 0.014819 0.001483 0.001519 0.000096
# 4 -0.005510 0.000889 0.001483 0.034117 0.002176 -0.005004
# 5 -0.004075 -0.002975 0.001519 0.002176 0.023798 -0.001689
# 6 0.002019 -0.007222 0.000096 -0.005004 -0.001689 0.033281
#
#
# Mechanical properties :
#
#
# Convention : Reuss Voigt Hill
#
# Bulk Modulus (GPa) = 47.61373 55.24667 51.43020
# Shear Modulus (GPa) = 28.93264 34.64196 31.78730
#
# Velocity S-wave (km/s) = 3.75019 4.10356 3.93085
# Velocity P-wave (km/s) = 6.47276 7.02191 6.75292
#
# Compressibility (1/GPa) = 0.02100234
#
# Stress axis : x y z
#
# Youngs Moduli (GPa) = 49.45409 78.30597 67.48053
#
# Poissons Ratio (x) = 0.15802 0.60776
# Poissons Ratio (y) = 0.09980 0.16057
# Poissons Ratio (z) = 0.44540 0.18633
#
# Static dielectric constant tensor:
#      x y z
#    x 3.692770 -0.160260 -0.218970 
#    y -0.160260 3.952130 0.143070 
#    z -0.218970 0.143070 3.948590 
# 
# 
# High freq. dielectric constant tensor:
#      x y z
#    x 1.786560 -0.006910 -0.008490 
#    y -0.006910 1.821500 -0.001490 
#    z -0.008490 -0.001490 1.809720 
# 
# From -- ./inp_files/222298.got.cif
#   From: 2010.06.25/outbox.cif.g09.slc.cpg/sg2_112_cif.got.tgz:222298.got - 2010.06.27 13:26:56.
