data_PCOD8030227
_publ_section_title
;
Structure prediction by ZEFSAII (Michael W. Deem and Ramdas Pophale) SiO2 
 PCOD8030227
Probable space group: P -1
;
_chemical_formula_sum "Si O2"
_cell_formula_units_Z 16
_cell_length_a 8.580551
_cell_length_b 12.549777
_cell_length_c 9.471189
_cell_angle_alpha 120.142812
_cell_angle_beta 69.257143
_cell_angle_gamma 117.969886
_cell_volume 769.502800
_symmetry_space_group_name_H-M "P -1"
_symmetry_group_IT_number 2
_symmetry_cell_setting 'triclinic'
loop_
_space_group_symop_operation_xyz
x,y,z
-x,-y,-z
loop_
_atom_site_type_symbol
_atom_site_label
_atom_site_fract_x
_atom_site_fract_y
_atom_site_fract_z
Si Si1 0.737394 0.247655 0.317574
Si Si2 0.916178 0.978019 0.166907
Si Si3 0.994553 0.753262 0.544767
Si Si4 0.529272 0.984481 0.315660
Si Si5 0.992099 0.265503 0.004084
Si Si6 0.667946 0.487208 0.858807
Si Si7 0.661450 0.498238 0.539267
Si Si8 0.200012 0.733872 0.207560
O O1 0.851157 0.208620 0.136679
O O2 0.711641 0.382069 0.373688
O O3 0.843909 0.272426 0.446360
O O4 0.554186 0.122405 0.318517
O O5 0.704872 0.948372 0.210122
O O6 0.016562 0.106139 0.316143
O O7 0.945539 0.852804 0.146440
O O8 0.000000 0.000000 0.000000
O O9 0.812448 0.639899 0.569174
O O10 0.040901 0.748032 0.362624
O O11 0.358000 0.874496 0.229273
O O12 0.500000 0.000000 0.500000
O O13 0.159479 0.382954 0.090098
O O14 0.895266 0.315892 0.944585
O O15 0.615269 0.465229 0.696232
O O16 0.711637 0.365394 0.825681
O O17 0.500000 0.500000 0.000000
O O18 0.500000 0.500000 0.500000
#
# Coordination Sequence:
#
# PCOD8030227 Si02
#       8
#     2   2   2   2   2   2   2   2
#     4  11  22  45  70  94 132 182 222 270 343 397
#     4  11  21  43  70  97 132 178 226 275 335 393
#     4  11  22  45  70  94 132 182 222 270 343 397
#     4  11  21  43  70  97 132 178 226 275 335 393
#     4  12  26  43  69 100 136 180 221 278 337 405
#     4  12  26  46  66  98 137 174 221 281 342 395
#     4  12  26  43  72  98 129 175 230 282 330 407
#     4  12  26  43  69 100 136 180 221 278 337 405
#
# _framework density 20.792646000000001
#
# number of rings (size 3 to 8) (size 9 to 14) (size 15 to 20)
#    0.000    0.500    7.500    2.250    3.500    2.000 
#    0.000    0.000    0.000    0.000    0.000    0.000 
#    0.000    0.000    0.000    0.000    0.000    0.000 
#
# Total GULP energy -198430.772442 kJ/mol
# GULP energy per Si atom -12401.923278 kJ/mol
# Density = 2.074532 g / cm^3
# Si number density = 20.792646 Si / 1000 Ang^3
#
#
#
# Elastic Constant Matrix: (Units=GPa)
#
#
# Indices 1 2 3 4 5 6 
#
# 1 81.0822 30.3876 34.7298 0.3136 7.3069 -10.2749
# 2 30.3876 94.8482 27.9294 11.5929 10.7272 9.1090
# 3 34.7298 27.9294 94.8269 -6.2530 -12.1278 -1.0541
# 4 0.3136 11.5929 -6.2530 44.5842 -0.4345 -10.8739
# 5 7.3069 10.7272 -12.1278 -0.4345 28.9884 -10.0279
# 6 -10.2749 9.1090 -1.0541 -10.8739 -10.0279 21.4335
#
#
#
# Elastic Compliance Matrix: (Units=1/GPa)
#
#
# Indices 1 2 3 4 5 6 
#
# 1 0.018293 -0.006689 -0.004130 0.004512 0.001125 0.014224
# 2 -0.006689 0.021759 -0.007763 -0.014039 -0.019958 -0.029296
# 3 -0.004130 -0.007763 0.017046 0.007908 0.015866 0.013592
# 4 0.004512 -0.014039 0.007908 0.036267 0.020547 0.036531
# 5 0.001125 -0.019958 0.015866 0.020547 0.066265 0.051228
# 6 0.014224 -0.029296 0.013592 0.036531 0.051228 0.109094
#
#
# Mechanical properties :
#
#
# Convention : Reuss Voigt Hill
#
# Bulk Modulus (GPa) = 50.16564 50.76122 50.46343
# Shear Modulus (GPa) = 15.99830 30.84859 23.42345
#
# Velocity S-wave (km/s) = 2.77685 3.85597 3.36002
# Velocity P-wave (km/s) = 5.87028 6.65513 6.27499
#
# Compressibility (1/GPa) = 0.01993396
#
# Stress axis : x y z
#
# Youngs Moduli (GPa) = 54.66625 45.95861 58.66443
#
# Poissons Ratio (x) = 0.30743 0.24228
# Poissons Ratio (y) = 0.36568 0.45539
# Poissons Ratio (z) = 0.22577 0.35676
#
# Static dielectric constant tensor:
#      x y z
#    x 3.759700 0.083310 -0.089800 
#    y 0.083310 3.919960 0.021430 
#    z -0.089800 0.021430 3.861020 
# 
# 
# High freq. dielectric constant tensor:
#      x y z
#    x 1.801490 0.004000 -0.009190 
#    y 0.004000 1.832060 0.002060 
#    z -0.009190 0.002060 1.823920 
# 
# From -- ./inp_files/189919.got.cif
#   From: 2010.06.25/outbox.cif.g09.slc.cpg/sg2_95_cif.got.tgz:189919.got - 2010.06.27 13:26:56.
