data_PCOD8030882
_publ_section_title
;
Structure prediction by ZEFSAII (Michael W. Deem and Ramdas Pophale) SiO2 
 PCOD8030882
Probable space group: P -1
;
_chemical_formula_sum "Si O2"
_cell_formula_units_Z 16
_cell_length_a 9.240670
_cell_length_b 8.158512
_cell_length_c 16.081556
_cell_angle_alpha 76.700611
_cell_angle_beta 108.385402
_cell_angle_gamma 51.812817
_cell_volume 743.102886
_symmetry_space_group_name_H-M "P -1"
_symmetry_group_IT_number 2
_symmetry_cell_setting 'triclinic'
loop_
_space_group_symop_operation_xyz
x,y,z
-x,-y,-z
loop_
_atom_site_type_symbol
_atom_site_label
_atom_site_fract_x
_atom_site_fract_y
_atom_site_fract_z
Si Si1 0.629162 0.183014 0.845728
Si Si2 0.808577 0.609340 0.168990
Si Si3 0.357801 0.089337 0.602079
Si Si4 0.954665 0.672848 0.043820
Si Si5 0.373146 0.447565 0.250767
Si Si6 0.218950 0.047667 0.278701
Si Si7 0.269112 0.655956 0.390817
Si Si8 0.011607 0.546488 0.380145
O O1 0.420340 0.272086 0.846395
O O2 0.583717 0.420583 0.811835
O O3 0.649912 0.102616 0.765214
O O4 0.865113 0.926632 0.963414
O O5 0.758417 0.773105 0.062417
O O6 0.958800 0.579581 0.269574
O O7 0.970758 0.334424 0.188226
O O8 0.598834 0.982549 0.637596
O O9 0.194425 0.248532 0.472880
O O10 0.223403 0.286943 0.631309
O O11 0.402981 0.856153 0.661345
O O12 0.186896 0.495513 0.159769
O O13 0.000000 0.500000 0.000000
O O14 0.297784 0.559515 0.315418
O O15 0.153541 0.934226 0.331686
O O16 0.500000 0.500000 0.500000
O O17 0.114215 0.646284 0.411600
#
# Coordination Sequence:
#
# PCOD8030882 Si02
#       8
#     2   2   2   2   2   2   2   2
#     4  11  25  45  65 100 134 170 231 281 330 398
#     4  12  24  43  71  99 128 186 219 276 338 401
#     4  11  22  42  64  97 135 181 218 277 329 403
#     4  12  23  46  73  96 131 182 226 279 340 391
#     4  11  25  43  68  95 136 179 218 281 340 387
#     4  11  22  41  65  94 136 168 226 275 330 394
#     4  11  23  40  65  98 133 174 219 278 329 404
#     4  11  24  40  67 100 136 177 229 268 334 408
#
# _framework density 21.531341000000001
#
# number of rings (size 3 to 8) (size 9 to 14) (size 15 to 20)
#    0.000    0.750    6.250    0.750    3.500    1.000 
#    0.000    1.875    0.000    0.000    0.000    0.000 
#    0.000    0.000    0.000    0.000    0.000    0.000 
#
# Total GULP energy -198290.118232 kJ/mol
# GULP energy per Si atom -12393.132390 kJ/mol
# Density = 2.148233 g / cm^3
# Si number density = 21.531341 Si / 1000 Ang^3
#
#
#
# Elastic Constant Matrix: (Units=GPa)
#
#
# Indices 1 2 3 4 5 6 
#
# 1 92.6574 25.1051 32.2593 -5.8235 -12.6523 6.9915
# 2 25.1051 66.0437 22.5210 -11.3116 -5.0529 9.9835
# 3 32.2593 22.5210 92.9557 -3.8112 -12.1918 16.0482
# 4 -5.8235 -11.3116 -3.8112 47.0483 8.6564 -7.5176
# 5 -12.6523 -5.0529 -12.1918 8.6564 36.4664 -4.8801
# 6 6.9915 9.9835 16.0482 -7.5176 -4.8801 32.1098
#
#
#
# Elastic Compliance Matrix: (Units=1/GPa)
#
#
# Indices 1 2 3 4 5 6 
#
# 1 0.013379 -0.003757 -0.003406 -0.000016 0.003042 0.000416
# 2 -0.003757 0.018432 -0.002626 0.003441 -0.000835 -0.002922
# 3 -0.003406 -0.002626 0.013774 -0.001260 0.002660 -0.005217
# 4 -0.000016 0.003441 -0.001260 0.023584 -0.004969 0.004330
# 5 0.003042 -0.000835 0.002660 -0.004969 0.030668 0.001765
# 6 0.000416 -0.002922 -0.005217 0.004330 0.001765 0.035850
#
#
# Mechanical properties :
#
#
# Convention : Reuss Voigt Hill
#
# Bulk Modulus (GPa) = 38.45155 45.71417 42.08286
# Shear Modulus (GPa) = 30.49984 34.57633 32.53808
#
# Velocity S-wave (km/s) = 3.76777 4.01167 3.89163
# Velocity P-wave (km/s) = 6.06838 6.53724 6.30717
#
# Compressibility (1/GPa) = 0.02600675
#
# Stress axis : x y z
#
# Youngs Moduli (GPa) = 74.74176 54.25285 72.60041
#
# Poissons Ratio (x) = 0.20384 0.24730
# Poissons Ratio (y) = 0.28082 0.19063
# Poissons Ratio (z) = 0.25460 0.14246
#
# Static dielectric constant tensor:
#      x y z
#    x 4.099400 0.165270 -0.382670 
#    y 0.165270 3.754130 -0.083620 
#    z -0.382670 -0.083620 4.020320 
# 
# 
# High freq. dielectric constant tensor:
#      x y z
#    x 1.841470 0.002350 -0.018500 
#    y 0.002350 1.835750 -0.006800 
#    z -0.018500 -0.006800 1.858590 
# 
# From -- ./inp_files/188911.got.cif
#   From: 2010.06.25/outbox.cif.g09.slc.cpg/sg2_95_cif.got.tgz:188911.got - 2010.06.27 13:26:56.
