data_PCOD8030764
_publ_section_title
;
Structure prediction by ZEFSAII (Michael W. Deem and Ramdas Pophale) SiO2 
 PCOD8030764
Probable space group: P -1
;
_chemical_formula_sum "Si O2"
_cell_formula_units_Z 16
_cell_length_a 11.605663
_cell_length_b 18.174987
_cell_length_c 20.671963
_cell_angle_alpha 27.150692
_cell_angle_beta 21.003463
_cell_angle_gamma 37.170178
_cell_volume 697.753112
_symmetry_space_group_name_H-M "P -1"
_symmetry_group_IT_number 2
_symmetry_cell_setting 'triclinic'
loop_
_space_group_symop_operation_xyz
x,y,z
-x,-y,-z
loop_
_atom_site_type_symbol
_atom_site_label
_atom_site_fract_x
_atom_site_fract_y
_atom_site_fract_z
Si Si1 0.857278 0.948661 0.043691
Si Si2 0.627119 0.606657 0.911283
Si Si3 0.821710 0.223131 0.194902
Si Si4 0.447027 0.470707 0.243675
Si Si5 0.534349 0.190603 0.825738
Si Si6 0.761218 0.265327 0.783904
Si Si7 0.524286 0.107728 0.309316
Si Si8 0.639964 0.347290 0.518422
O O1 0.605664 0.768858 0.312857
O O2 0.145103 0.945470 0.844617
O O3 0.673673 0.087451 0.003595
O O4 0.000000 0.000000 0.000000
O O5 0.604883 0.793299 0.758518
O O6 0.998232 0.592551 0.749211
O O7 0.500000 0.500000 0.000000
O O8 0.389565 0.540128 0.147778
O O9 0.742161 0.371518 0.164528
O O10 0.598307 0.211665 0.256025
O O11 0.749373 0.054761 0.405592
O O12 0.199226 0.258421 0.949478
O O13 0.511685 0.634301 0.126510
O O14 0.135563 0.353483 0.532927
O O15 0.760307 0.268239 0.704997
O O16 0.711215 0.241204 0.625808
O O17 0.500000 0.000000 0.000000
O O18 0.500000 0.500000 0.500000
#
# Coordination Sequence:
#
# PCOD8030764 Si02
#       8
#     2   2   2   2   2   2   2   2
#     4  12  25  48  72 104 148 189 233 295 362 427
#     4  12  23  41  70 103 140 184 231 292 350 420
#     4  11  22  40  68  99 136 178 231 291 341 415
#     4  11  24  45  67  99 139 183 236 286 357 424
#     4  12  23  43  72 100 137 178 234 291 345 423
#     4  11  25  46  72  99 136 188 237 289 363 425
#     4  11  22  40  67 100 134 181 231 284 354 412
#     4  12  26  45  72 109 144 185 239 291 355 425
#
# _framework density 22.930748000000001
#
# number of rings (size 3 to 8) (size 9 to 14) (size 15 to 20)
#    0.000    0.500    5.000    3.750    1.750    2.500 
#    2.250    1.250    0.000    0.000    0.000    0.000 
#    0.000    0.000    0.000    0.000    0.000    0.000 
#
# Total GULP energy -198356.928085 kJ/mol
# GULP energy per Si atom -12397.308005 kJ/mol
# Density = 2.287856 g / cm^3
# Si number density = 22.930748 Si / 1000 Ang^3
#
#
#
# Elastic Constant Matrix: (Units=GPa)
#
#
# Indices 1 2 3 4 5 6 
#
# 1 85.6748 12.1345 5.5882 -16.5350 -0.1005 10.7424
# 2 12.1345 134.0064 12.0427 -3.9956 -7.6779 3.3031
# 3 5.5882 12.0427 68.8906 -3.0109 -4.5067 7.0175
# 4 -16.5350 -3.9956 -3.0109 33.8851 -1.0229 1.0244
# 5 -0.1005 -7.6779 -4.5067 -1.0229 36.6215 -4.4832
# 6 10.7424 3.3031 7.0175 1.0244 -4.4832 42.3960
#
#
#
# Elastic Compliance Matrix: (Units=1/GPa)
#
#
# Indices 1 2 3 4 5 6 
#
# 1 0.013531 -0.000940 -0.000318 0.006556 -0.000446 -0.003508
# 2 -0.000940 0.007750 -0.001161 0.000398 0.001487 -0.000026
# 3 -0.000318 -0.001161 0.015111 0.001159 0.001377 -0.002212
# 4 0.006556 0.000398 0.001159 0.032964 0.000847 -0.002591
# 5 -0.000446 0.001487 0.001377 0.000847 0.028144 0.002725
# 6 -0.003508 -0.000026 -0.002212 -0.002591 0.002725 0.025195
#
#
# Mechanical properties :
#
#
# Convention : Reuss Voigt Hill
#
# Bulk Modulus (GPa) = 31.69458 38.67807 35.18632
# Shear Modulus (GPa) = 36.21869 39.83430 38.02649
#
# Velocity S-wave (km/s) = 3.97858 4.17244 4.07666
# Velocity P-wave (km/s) = 5.91247 6.33374 6.12673
#
# Compressibility (1/GPa) = 0.03155114
#
# Stress axis : x y z
#
# Youngs Moduli (GPa) = 73.90659 129.04050 66.17851
#
# Poissons Ratio (x) = 0.12132 0.02108
# Poissons Ratio (y) = 0.06949 0.07684
# Poissons Ratio (z) = 0.02354 0.14983
#
# Static dielectric constant tensor:
#      x y z
#    x 3.996140 0.067400 0.241970 
#    y 0.067400 4.477190 -0.027220 
#    z 0.241970 -0.027220 4.239160 
# 
# 
# High freq. dielectric constant tensor:
#      x y z
#    x 1.885700 -0.003730 0.019740 
#    y -0.003730 1.924290 -0.008450 
#    z 0.019740 -0.008450 1.901020 
# 
# From -- ./inp_files/261711.got.cif
#   From: 2010.06.25/outbox.cif.g09.slc.cpg/sg2_131_cif.got.tgz:261711.got - 2010.06.27 13:26:56.
