data_PCOD8030157
_publ_section_title
;
Structure prediction by ZEFSAII (Michael W. Deem and Ramdas Pophale) SiO2 
 PCOD8030157
Probable space group: P -1
;
_chemical_formula_sum "Si O2"
_cell_formula_units_Z 16
_cell_length_a 5.298708
_cell_length_b 19.297274
_cell_length_c 15.039535
_cell_angle_alpha 29.691096
_cell_angle_beta 87.797164
_cell_angle_gamma 77.671364
_cell_volume 708.953312
_symmetry_space_group_name_H-M "P -1"
_symmetry_group_IT_number 2
_symmetry_cell_setting 'triclinic'
loop_
_space_group_symop_operation_xyz
x,y,z
-x,-y,-z
loop_
_atom_site_type_symbol
_atom_site_label
_atom_site_fract_x
_atom_site_fract_y
_atom_site_fract_z
Si Si1 0.433478 0.645076 0.216216
Si Si2 0.471220 0.162001 0.486288
Si Si3 0.128928 0.600368 0.436436
Si Si4 0.075962 0.028082 0.565310
Si Si5 0.246269 0.492869 0.068110
Si Si6 0.808571 0.916322 0.063841
Si Si7 0.107482 0.729915 0.960696
Si Si8 0.365254 0.101120 0.103863
O O1 0.319628 0.644305 0.316493
O O2 0.711780 0.497499 0.372234
O O3 0.264189 0.624196 0.157716
O O4 0.450505 0.808898 0.030703
O O5 0.293285 0.111190 0.472159
O O6 0.335466 0.341805 0.294933
O O7 0.787666 0.126187 0.503015
O O8 0.456721 0.071613 0.678065
O O9 0.000000 0.500000 0.500000
O O10 0.899829 0.757505 0.292618
O O11 0.218305 0.865113 0.791581
O O12 0.000000 0.000000 0.500000
O O13 0.500000 0.500000 0.000000
O O14 0.134067 0.633805 0.978662
O O15 0.000000 0.500000 0.000000
O O16 0.835833 0.896184 0.978411
O O17 0.500000 0.000000 0.000000
O O18 0.000000 0.000000 0.000000
O O19 0.796030 0.811151 0.904552
#
# Coordination Sequence:
#
# PCOD8030157 Si02
#       8
#     2   2   2   2   2   2   2   2
#     4  11  21  42  74 101 142 179 258 293 347 419
#     4  11  24  43  69  97 138 179 223 294 351 413
#     4  11  23  42  73 101 142 195 241 297 351 438
#     4  11  22  40  69 102 130 181 235 277 347 431
#     4  12  28  49  69 106 150 182 232 301 369 422
#     4  12  27  45  70 103 146 186 229 298 364 414
#     4  11  24  42  76  97 140 191 235 298 350 429
#     4  11  24  46  69 104 139 184 248 288 350 436
#
# _framework density 22.568483000000001
#
# number of rings (size 3 to 8) (size 9 to 14) (size 15 to 20)
#    0.000    0.750    3.750    3.375    3.500    2.000 
#    2.250    0.000    0.000    0.000    0.000    0.000 
#    0.000    0.000    0.000    0.000    0.000    0.000 
#
# Total GULP energy -198299.905653 kJ/mol
# GULP energy per Si atom -12393.744103 kJ/mol
# Density = 2.251712 g / cm^3
# Si number density = 22.568483 Si / 1000 Ang^3
#
#
#
# Elastic Constant Matrix: (Units=GPa)
#
#
# Indices 1 2 3 4 5 6 
#
# 1 117.1080 27.5045 37.8389 -10.8246 1.3278 8.3889
# 2 27.5045 87.3810 11.4134 -11.4592 -0.5928 0.0765
# 3 37.8389 11.4134 164.1178 -13.1016 11.1757 -4.1188
# 4 -10.8246 -11.4592 -13.1016 40.8872 3.5226 2.4057
# 5 1.3278 -0.5928 11.1757 3.5226 45.2897 1.7415
# 6 8.3889 0.0765 -4.1188 2.4057 1.7415 31.9551
#
#
#
# Elastic Compliance Matrix: (Units=1/GPa)
#
#
# Indices 1 2 3 4 5 6 
#
# 1 0.010226 -0.002749 -0.002145 0.001413 0.000202 -0.003072
# 2 -0.002749 0.012677 -0.000014 0.002791 0.000014 0.000479
# 3 -0.002145 -0.000014 0.006885 0.001708 -0.001824 0.001421
# 4 0.001413 0.002791 0.001708 0.026488 -0.002409 -0.002020
# 5 0.000202 0.000014 -0.001824 -0.002409 0.022764 -0.001347
# 6 -0.003072 0.000479 0.001421 -0.002020 -0.001347 0.032508
#
#
# Mechanical properties :
#
#
# Convention : Reuss Voigt Hill
#
# Bulk Modulus (GPa) = 50.06901 58.01337 54.04119
# Shear Modulus (GPa) = 39.05637 43.08306 41.06971
#
# Velocity S-wave (km/s) = 4.16453 4.37394 4.27052
# Velocity P-wave (km/s) = 6.73483 7.16029 6.95082
#
# Compressibility (1/GPa) = 0.01997243
#
# Stress axis : x y z
#
# Youngs Moduli (GPa) = 97.78855 78.88252 145.24751
#
# Poissons Ratio (x) = 0.21688 0.31149
# Poissons Ratio (y) = 0.26886 0.00201
# Poissons Ratio (z) = 0.20971 0.00109
#
# Static dielectric constant tensor:
#      x y z
#    x 7.103120 -1.132770 -3.402650 
#    y -1.132770 4.108840 1.010550 
#    z -3.402650 1.010550 8.221120 
# 
# 
# High freq. dielectric constant tensor:
#      x y z
#    x 1.899550 0.010250 0.007910 
#    y 0.010250 1.858280 0.004380 
#    z 0.007910 0.004380 1.917690 
# 
# From -- ./inp_files/485143.got.cif
#   From: 2010.06.25/outbox.cif.g09.slc.cpg/sg2_243_cif.got.tgz:485143.got - 2010.06.27 13:26:56.
