data_PCOD8030359
_publ_section_title
;
Structure prediction by ZEFSAII (Michael W. Deem and Ramdas Pophale) SiO2 
 PCOD8030359
Probable space group: P -1
;
_chemical_formula_sum "Si O2"
_cell_formula_units_Z 16
_cell_length_a 11.201702
_cell_length_b 9.448696
_cell_length_c 17.461125
_cell_angle_alpha 128.487663
_cell_angle_beta 30.826556
_cell_angle_gamma 126.136819
_cell_volume 734.217255
_symmetry_space_group_name_H-M "P -1"
_symmetry_group_IT_number 2
_symmetry_cell_setting 'triclinic'
loop_
_space_group_symop_operation_xyz
x,y,z
-x,-y,-z
loop_
_atom_site_type_symbol
_atom_site_label
_atom_site_fract_x
_atom_site_fract_y
_atom_site_fract_z
Si Si1 0.920637 0.180627 0.641909
Si Si2 0.782412 0.772295 0.092833
Si Si3 0.629164 0.693486 0.470458
Si Si4 0.541226 0.938808 0.847589
Si Si5 0.624037 0.463250 0.840301
Si Si6 0.706432 0.139952 0.191337
Si Si7 0.194417 0.153668 0.194167
Si Si8 0.727817 0.904310 0.339853
O O1 0.807122 0.314407 0.691091
O O2 0.138120 0.289133 0.601603
O O3 0.716412 0.122913 0.796219
O O4 0.000000 0.000000 0.500000
O O5 0.583015 0.600762 0.129017
O O6 0.781427 0.833731 0.202289
O O7 0.742814 0.929041 0.106220
O O8 0.044973 0.728029 0.911952
O O9 0.500000 0.500000 0.500000
O O10 0.439575 0.827157 0.641402
O O11 0.697381 0.730720 0.356442
O O12 0.457671 0.827996 0.779830
O O13 0.683850 0.810862 0.777723
O O14 0.315734 0.998623 0.032561
O O15 0.781352 0.651378 0.793932
O O16 0.500000 0.500000 0.000000
O O17 0.924978 0.063684 0.316475
O O18 0.500000 0.000000 0.500000
#
# Coordination Sequence:
#
# PCOD8030359 Si02
#       8
#     2   2   2   2   2   2   2   2
#     4  12  24  45  72  97 141 187 233 285 357 425
#     4  11  24  43  74 105 140 182 237 290 356 423
#     4  12  28  44  69 105 140 182 233 292 356 420
#     4  11  21  44  72  98 135 190 235 279 355 424
#     4  12  26  44  73 111 137 180 249 304 342 419
#     4  11  22  44  73 100 139 189 230 284 357 429
#     4  11  25  43  71 104 139 184 235 295 351 421
#     4  12  26  46  69 101 147 190 228 287 364 426
#
# _framework density 21.791914999999999
#
# number of rings (size 3 to 8) (size 9 to 14) (size 15 to 20)
#    0.000    0.500    7.500    0.000    5.250    1.000 
#    0.000    2.500    0.000    0.000    0.000    0.000 
#    0.000    0.000    0.000    0.000    0.000    0.000 
#
# Total GULP energy -198352.821215 kJ/mol
# GULP energy per Si atom -12397.051326 kJ/mol
# Density = 2.174232 g / cm^3
# Si number density = 21.791915 Si / 1000 Ang^3
#
#
#
# Elastic Constant Matrix: (Units=GPa)
#
#
# Indices 1 2 3 4 5 6 
#
# 1 133.2193 50.7204 46.8459 -10.8640 -3.5776 -0.3628
# 2 50.7204 118.0401 19.3326 -20.7855 -13.7530 -7.0447
# 3 46.8459 19.3326 85.9286 -17.1154 -17.6404 3.4488
# 4 -10.8640 -20.7855 -17.1154 36.0100 3.1429 -2.4281
# 5 -3.5776 -13.7530 -17.6404 3.1429 37.3321 -7.3519
# 6 -0.3628 -7.0447 3.4488 -2.4281 -7.3519 36.2099
#
#
#
# Elastic Compliance Matrix: (Units=1/GPa)
#
#
# Indices 1 2 3 4 5 6 
#
# 1 0.011160 -0.004618 -0.006128 -0.001971 -0.003570 -0.001060
# 2 -0.004618 0.012049 0.001963 0.006290 0.005097 0.003568
# 3 -0.006128 0.001963 0.017534 0.006971 0.007980 0.000738
# 4 -0.001971 0.006290 0.006971 0.034072 0.003240 0.003483
# 5 -0.003570 0.005097 0.007980 0.003240 0.033230 0.007160
# 6 -0.001060 0.003568 0.000738 0.003483 0.007160 0.029917
#
#
# Mechanical properties :
#
#
# Convention : Reuss Voigt Hill
#
# Bulk Modulus (GPa) = 43.14798 63.44289 53.29543
# Shear Modulus (GPa) = 30.62717 36.59633 33.61175
#
# Velocity S-wave (km/s) = 3.75298 4.10244 3.93159
# Velocity P-wave (km/s) = 6.21473 7.18444 6.71711
#
# Compressibility (1/GPa) = 0.02317606
#
# Stress axis : x y z
#
# Youngs Moduli (GPa) = 89.60524 82.99510 57.03226
#
# Poissons Ratio (x) = 0.38327 0.34951
# Poissons Ratio (y) = 0.41380 -0.11194
# Poissons Ratio (z) = 0.54912 -0.16290
#
# Static dielectric constant tensor:
#      x y z
#    x 4.115230 0.018310 -0.053320 
#    y 0.018310 3.829480 -0.313800 
#    z -0.053320 -0.313800 4.028470 
# 
# 
# High freq. dielectric constant tensor:
#      x y z
#    x 1.869500 0.001830 -0.013340 
#    y 0.001830 1.841430 -0.021250 
#    z -0.013340 -0.021250 1.862290 
# 
# From -- ./inp_files/226127.got.cif
#   From: 2010.06.25/outbox.cif.g09.slc.cpg/sg2_114_cif.got.tgz:226127.got - 2010.06.27 13:26:56.
