data_PCOD8030866
_publ_section_title
;
Structure prediction by ZEFSAII (Michael W. Deem and Ramdas Pophale) SiO2 
 PCOD8030866
Probable space group: P -1
;
_chemical_formula_sum "Si O2"
_cell_formula_units_Z 14
_cell_length_a 9.423801
_cell_length_b 14.465089
_cell_length_c 6.838098
_cell_angle_alpha 83.145322
_cell_angle_beta 133.017093
_cell_angle_gamma 107.589330
_cell_volume 644.613628
_symmetry_space_group_name_H-M "P -1"
_symmetry_group_IT_number 2
_symmetry_cell_setting 'triclinic'
loop_
_space_group_symop_operation_xyz
x,y,z
-x,-y,-z
loop_
_atom_site_type_symbol
_atom_site_label
_atom_site_fract_x
_atom_site_fract_y
_atom_site_fract_z
Si Si1 0.324136 0.372508 0.321133
Si Si2 0.652036 0.935766 0.689001
Si Si3 0.877641 0.385227 0.376970
Si Si4 0.994569 0.048574 0.276996
Si Si5 0.937437 0.251355 0.144886
Si Si6 0.436424 0.542657 0.121333
Si Si7 0.644147 0.271883 0.539422
O O1 0.281713 0.455583 0.123703
O O2 0.365713 0.408763 0.574783
O O3 0.521780 0.349097 0.432737
O O4 0.122074 0.281494 0.154311
O O5 0.512050 0.829648 0.655479
O O6 0.781753 0.929775 0.617198
O O7 0.500000 0.000000 0.500000
O O8 0.816413 0.977078 0.000747
O O9 0.989592 0.327335 0.356376
O O10 0.821104 0.321741 0.537717
O O11 0.000000 0.500000 0.500000
O O12 0.673736 0.379013 0.065809
O O13 0.928123 0.144579 0.235107
O O14 0.000000 0.000000 0.500000
O O15 0.735734 0.250791 0.836987
O O16 0.500000 0.500000 0.000000
#
# Coordination Sequence:
#
# PCOD8030866 Si02
#       7
#     2   2   2   2   2   2   2
#     4  11  24  42  68  92 139 182 229 284 347 408
#     4  11  25  48  75 103 144 181 234 295 360 427
#     4  12  27  43  68 105 142 182 241 290 340 417
#     4  11  27  47  73 108 143 180 233 302 358 419
#     4  12  26  45  68 102 140 181 236 288 354 420
#     4  11  22  41  63  95 133 181 229 287 340 400
#     4  12  25  46  71 100 136 192 230 281 358 421
#
# _framework density 21.718436000000001
#
# number of rings (size 3 to 8) (size 9 to 14) (size 15 to 20)
#    0.000    0.571    5.714    1.714    4.000    4.000 
#    2.571    0.000    0.000    0.000    0.000    0.000 
#    0.000    0.000    0.000    0.000    0.000    0.000 
#
# Total GULP energy -173566.844488 kJ/mol
# GULP energy per Si atom -12397.631749 kJ/mol
# Density = 2.166900 g / cm^3
# Si number density = 21.718436 Si / 1000 Ang^3
#
#
#
# Elastic Constant Matrix: (Units=GPa)
#
#
# Indices 1 2 3 4 5 6 
#
# 1 98.7373 38.7857 37.3298 3.3720 -4.1979 -2.8973
# 2 38.7857 136.9395 45.8673 4.5595 -6.9760 4.4840
# 3 37.3298 45.8673 86.4782 -6.4203 -13.7978 1.6643
# 4 3.3720 4.5595 -6.4203 41.8599 -0.8639 4.9854
# 5 -4.1979 -6.9760 -13.7978 -0.8639 29.0057 3.6084
# 6 -2.8973 4.4840 1.6643 4.9854 3.6084 41.2432
#
#
#
# Elastic Compliance Matrix: (Units=1/GPa)
#
#
# Indices 1 2 3 4 5 6 
#
# 1 0.012809 -0.002084 -0.004773 -0.001756 -0.001173 0.001634
# 2 -0.002084 0.009356 -0.004143 -0.001387 0.000040 -0.000832
# 3 -0.004773 -0.004143 0.017225 0.003814 0.006824 -0.001638
# 4 -0.001756 -0.001387 0.003814 0.025219 0.002399 -0.003385
# 5 -0.001173 0.000040 0.006824 0.002399 0.038129 -0.003988
# 6 0.001634 -0.000832 -0.001638 -0.003385 -0.003988 0.025276
#
#
# Mechanical properties :
#
#
# Convention : Reuss Voigt Hill
#
# Bulk Modulus (GPa) = 57.50621 62.90227 60.20424
# Shear Modulus (GPa) = 32.09010 35.76659 33.92835
#
# Velocity S-wave (km/s) = 3.84806 4.06252 3.95674
# Velocity P-wave (km/s) = 6.80287 7.14359 6.97531
#
# Compressibility (1/GPa) = 0.01738943
#
# Stress axis : x y z
#
# Youngs Moduli (GPa) = 78.06979 106.88318 58.05558
#
# Poissons Ratio (x) = 0.22276 0.27709
# Poissons Ratio (y) = 0.16271 0.24054
# Poissons Ratio (z) = 0.37262 0.44285
#
# Static dielectric constant tensor:
#      x y z
#    x 5.064790 -0.105150 1.298220 
#    y -0.105150 3.982120 -0.169890 
#    z 1.298220 -0.169890 4.965460 
# 
# 
# High freq. dielectric constant tensor:
#      x y z
#    x 1.857360 -0.003970 0.003400 
#    y -0.003970 1.859890 -0.001600 
#    z 0.003400 -0.001600 1.858150 
# 
# From -- ./inp_files/37727.got.cif
#   From: 2010.06.25/outbox.cif.g09.slc.cpg/sg2_19_cif.got.tgz:37727.got - 2010.06.27 13:26:56.
