data_PCOD8030033
_publ_section_title
;
Structure prediction by ZEFSAII (Michael W. Deem and Ramdas Pophale) SiO2 
 PCOD8030033
Probable space group: P -1
;
_chemical_formula_sum "Si O2"
_cell_formula_units_Z 12
_cell_length_a 7.796716
_cell_length_b 11.772075
_cell_length_c 14.350085
_cell_angle_alpha 150.823891
_cell_angle_beta 125.701609
_cell_angle_gamma 61.920483
_cell_volume 518.899011
_symmetry_space_group_name_H-M "P -1"
_symmetry_group_IT_number 2
_symmetry_cell_setting 'triclinic'
loop_
_space_group_symop_operation_xyz
x,y,z
-x,-y,-z
loop_
_atom_site_type_symbol
_atom_site_label
_atom_site_fract_x
_atom_site_fract_y
_atom_site_fract_z
Si Si1 0.288255 0.000353 0.121943
Si Si2 0.783921 0.331520 0.309750
Si Si3 0.335145 0.420168 0.295741
Si Si4 0.713987 0.089442 0.410601
Si Si5 0.070305 0.769306 0.237356
Si Si6 0.021539 0.076254 0.865313
O O1 0.080555 0.986280 0.111013
O O2 0.316419 0.252674 0.260165
O O3 0.478866 0.967906 0.230860
O O4 0.268989 0.781464 0.889326
O O5 0.580057 0.458802 0.366970
O O6 0.000000 0.500000 0.500000
O O7 0.821483 0.125339 0.247852
O O8 0.257272 0.674769 0.475782
O O9 0.178114 0.314620 0.089667
O O10 0.741325 0.180805 0.592384
O O11 0.869463 0.895252 0.299357
O O12 0.140271 0.895977 0.251445
O O13 0.000000 0.500000 0.000000
#
# Coordination Sequence:
#
# PCOD8030033 Si02
#       6
#     2   2   2   2   2   2
#     4  11  24  40  66 106 138 175 225 276 344 403
#     4  11  23  41  68 105 139 176 218 282 343 402
#     4  11  21  41  71  99 136 174 219 278 340 404
#     4  11  24  43  73  97 128 183 227 279 338 392
#     4  11  24  46  70  94 132 180 239 272 329 398
#     4  11  23  42  66  99 142 177 224 279 330 404
#
# _framework density 23.125886999999999
#
# number of rings (size 3 to 8) (size 9 to 14) (size 15 to 20)
#    0.000    1.000    1.667    7.500    0.000    4.667 
#    0.000    0.833    0.000    0.000    0.000    0.000 
#    0.000    0.000    0.000    0.000    0.000    0.000 
#
# Total GULP energy -148685.888664 kJ/mol
# GULP energy per Si atom -12390.490722 kJ/mol
# Density = 2.307325 g / cm^3
# Si number density = 23.125887 Si / 1000 Ang^3
#
#
#
# Elastic Constant Matrix: (Units=GPa)
#
#
# Indices 1 2 3 4 5 6 
#
# 1 92.1985 34.0923 42.0099 -0.1077 1.6232 -1.0530
# 2 34.0923 113.8306 67.4679 -21.9206 -9.8571 1.0430
# 3 42.0099 67.4679 166.0915 -18.1907 -6.8856 -11.5712
# 4 -0.1077 -21.9206 -18.1907 41.2209 -11.5440 -7.3519
# 5 1.6232 -9.8571 -6.8856 -11.5440 37.8354 -5.5124
# 6 -1.0530 1.0430 -11.5712 -7.3519 -5.5124 36.2858
#
#
#
# Elastic Compliance Matrix: (Units=1/GPa)
#
#
# Indices 1 2 3 4 5 6 
#
# 1 0.013432 -0.003557 -0.002707 -0.004379 -0.003595 -0.001805
# 2 -0.003557 0.013923 -0.003670 0.007427 0.005475 0.000663
# 3 -0.002707 -0.003670 0.008934 0.003349 0.002378 0.003916
# 4 -0.004379 0.007427 0.003349 0.035745 0.015135 0.010269
# 5 -0.003595 0.005475 0.002378 0.015135 0.034341 0.008780
# 6 -0.001805 0.000663 0.003916 0.010269 0.008780 0.032151
#
#
# Mechanical properties :
#
#
# Convention : Reuss Voigt Hill
#
# Bulk Modulus (GPa) = 60.88917 73.25120 67.07019
# Shear Modulus (GPa) = 30.51238 38.30511 34.40874
#
# Velocity S-wave (km/s) = 3.63630 4.07427 3.86150
# Velocity P-wave (km/s) = 6.63452 7.34007 6.99620
#
# Compressibility (1/GPa) = 0.01642328
#
# Stress axis : x y z
#
# Youngs Moduli (GPa) = 74.44719 71.82108 111.92813
#
# Poissons Ratio (x) = 0.25544 0.30301
# Poissons Ratio (y) = 0.26478 0.41074
# Poissons Ratio (z) = 0.20154 0.26356
#
# Static dielectric constant tensor:
#      x y z
#    x 3.844760 -0.071500 -0.127330 
#    y -0.071500 4.463250 -0.298910 
#    z -0.127330 -0.298910 4.636530 
# 
# 
# High freq. dielectric constant tensor:
#      x y z
#    x 1.885990 -0.011670 -0.015530 
#    y -0.011670 1.921610 -0.016840 
#    z -0.015530 -0.016840 1.944110 
# 
# From -- ./inp_files/501299.got.cif
#   From: 2010.06.25/outbox.cif.g09.slc.cpg/sg2_251_cif.got.tgz:501299.got - 2010.06.27 13:26:56.
