data_PCOD8030001
_publ_section_title
;
Structure prediction by ZEFSAII (Michael W. Deem and Ramdas Pophale) SiO2 
 PCOD8030001
Probable space group: P -1
;
_chemical_formula_sum "Si O2"
_cell_formula_units_Z 14
_cell_length_a 21.007898
_cell_length_b 8.434208
_cell_length_c 8.746029
_cell_angle_alpha 88.643343
_cell_angle_beta 45.464361
_cell_angle_gamma 53.831602
_cell_volume 655.370437
_symmetry_space_group_name_H-M "P -1"
_symmetry_group_IT_number 2
_symmetry_cell_setting 'triclinic'
loop_
_space_group_symop_operation_xyz
x,y,z
-x,-y,-z
loop_
_atom_site_type_symbol
_atom_site_label
_atom_site_fract_x
_atom_site_fract_y
_atom_site_fract_z
Si Si1 0.558385 0.661801 0.482995
Si Si2 0.717749 0.099051 0.211462
Si Si3 0.054880 0.244415 0.403878
Si Si4 0.703153 0.280546 0.814005
Si Si5 0.366604 0.791633 0.336306
Si Si6 0.249641 0.469713 0.100424
Si Si7 0.436029 0.969400 0.984431
O O1 0.659799 0.360920 0.315589
O O2 0.389178 0.863028 0.708774
O O3 0.554195 0.745892 0.657904
O O4 0.636921 0.670551 0.229942
O O5 0.735343 0.003962 0.356222
O O6 0.885340 0.866188 0.866757
O O7 0.000000 0.500000 0.500000
O O8 0.919961 0.319238 0.675369
O O9 0.198872 0.001298 0.273177
O O10 0.705491 0.260169 0.625142
O O11 0.760249 0.367016 0.773130
O O12 0.526493 0.515733 0.153186
O O13 0.379954 0.900527 0.177402
O O14 0.298108 0.249016 0.123204
O O15 0.500000 0.000000 0.000000
#
# Coordination Sequence:
#
# PCOD8030001 Si02
#       7
#     2   2   2   2   2   2   2
#     4  11  22  40  69 101 128 173 230 279 320 391
#     4  11  21  41  69  98 127 178 229 269 329 396
#     4  12  26  44  66  97 138 179 222 274 339 400
#     4  11  21  42  68  96 131 175 218 277 332 390
#     4  11  22  41  70  99 133 173 223 276 334 389
#     4  12  24  43  68 101 137 174 223 276 333 399
#     4  12  24  40  65 104 138 169 217 280 336 387
#
# _framework density 21.361964
#
# number of rings (size 3 to 8) (size 9 to 14) (size 15 to 20)
#    0.000    0.571    4.286    6.000    0.000    1.143 
#    0.000    5.000    0.000    0.000    0.000    0.000 
#    0.000    0.000    0.000    0.000    0.000    0.000 
#
# Total GULP energy -173512.486985 kJ/mol
# GULP energy per Si atom -12393.749070 kJ/mol
# Density = 2.131334 g / cm^3
# Si number density = 21.361964 Si / 1000 Ang^3
#
#
#
# Elastic Constant Matrix: (Units=GPa)
#
#
# Indices 1 2 3 4 5 6 
#
# 1 125.8978 24.1076 48.2305 -7.9661 16.2343 1.4117
# 2 24.1076 113.2174 42.9883 4.8381 2.6583 -10.7724
# 3 48.2305 42.9883 114.8766 -10.3367 11.3011 -5.5633
# 4 -7.9661 4.8381 -10.3367 32.7568 -0.8079 8.7269
# 5 16.2343 2.6583 11.3011 -0.8079 35.4978 -0.6489
# 6 1.4117 -10.7724 -5.5633 8.7269 -0.6489 27.0999
#
#
#
# Elastic Compliance Matrix: (Units=1/GPa)
#
#
# Indices 1 2 3 4 5 6 
#
# 1 0.010058 -0.001086 -0.003408 0.002088 -0.003430 -0.002410
# 2 -0.001086 0.011251 -0.004003 -0.004550 0.000920 0.005194
# 3 -0.003408 -0.004003 0.012139 0.003577 -0.001927 -0.000120
# 4 0.002088 -0.004550 0.003577 0.036240 -0.001164 -0.012881
# 5 -0.003430 0.000920 -0.001927 -0.001164 0.030280 0.001249
# 6 -0.002410 0.005194 -0.000120 -0.012881 0.001249 0.043244
#
#
# Mechanical properties :
#
#
# Convention : Reuss Voigt Hill
#
# Bulk Modulus (GPa) = 60.77016 64.96051 62.86533
# Shear Modulus (GPa) = 30.17696 34.98193 32.57944
#
# Velocity S-wave (km/s) = 3.76260 4.05109 3.90951
# Velocity P-wave (km/s) = 6.88373 7.23583 7.06198
#
# Compressibility (1/GPa) = 0.01645544
#
# Stress axis : x y z
#
# Youngs Moduli (GPa) = 99.42527 88.88432 82.37721
#
# Poissons Ratio (x) = 0.09650 0.28073
# Poissons Ratio (y) = 0.10794 0.32973
# Poissons Ratio (z) = 0.33882 0.35577
#
# Static dielectric constant tensor:
#      x y z
#    x 4.242080 -0.027840 0.164870 
#    y -0.027840 3.991410 -0.095910 
#    z 0.164870 -0.095910 4.108220 
# 
# 
# High freq. dielectric constant tensor:
#      x y z
#    x 1.847060 0.005130 0.021340 
#    y 0.005130 1.843090 -0.004410 
#    z 0.021340 -0.004410 1.819890 
# 
# From -- ./inp_files/342738.got.cif
#   From: 2010.06.25/outbox.cif.g09.slc.cpg/sg2_172_cif.got.tgz:342738.got - 2010.06.27 13:26:56.
