data_PCOD8030542
_publ_section_title
;
Structure prediction by ZEFSAII (Michael W. Deem and Ramdas Pophale) SiO2 
 PCOD8030542
Probable space group: P -1
;
_chemical_formula_sum "Si O2"
_cell_formula_units_Z 14
_cell_length_a 9.951816
_cell_length_b 20.772079
_cell_length_c 9.338823
_cell_angle_alpha 42.818019
_cell_angle_beta 29.206115
_cell_angle_gamma 46.295403
_cell_volume 632.734557
_symmetry_space_group_name_H-M "P -1"
_symmetry_group_IT_number 2
_symmetry_cell_setting 'triclinic'
loop_
_space_group_symop_operation_xyz
x,y,z
-x,-y,-z
loop_
_atom_site_type_symbol
_atom_site_label
_atom_site_fract_x
_atom_site_fract_y
_atom_site_fract_z
Si Si1 0.859255 0.228527 0.731984
Si Si2 0.522617 0.408944 0.419774
Si Si3 0.066301 0.839471 0.916056
Si Si4 0.680093 0.834361 0.789371
Si Si5 0.502617 0.031899 0.783249
Si Si6 0.059343 0.296032 0.992132
Si Si7 0.813892 0.436623 0.374198
O O1 0.967341 0.332652 0.451004
O O2 0.125454 0.156091 0.544629
O O3 0.799493 0.204140 0.990765
O O4 0.581950 0.219441 0.913020
O O5 0.566728 0.405505 0.556380
O O6 0.322076 0.512872 0.433536
O O7 0.824095 0.389107 0.094374
O O8 0.355517 0.330406 0.637321
O O9 0.273551 0.897325 0.547640
O O10 0.013418 0.752602 0.005946
O O11 0.788482 0.911528 0.089981
O O12 0.894509 0.777868 0.798307
O O13 0.571862 0.941196 0.765196
O O14 0.500000 0.000000 0.000000
O O15 0.000000 0.500000 0.000000
#
# Coordination Sequence:
#
# PCOD8030542 Si02
#       7
#     2   2   2   2   2   2   2
#     4  12  27  45  67 106 140 179 219 288 353 390
#     4  11  22  37  68 100 127 171 233 272 320 394
#     4  12  28  46  69 100 146 176 220 291 349 392
#     4  12  24  42  73  97 135 181 235 273 332 415
#     4  12  26  46  72 103 132 182 236 279 330 407
#     4  12  22  42  67 101 128 181 229 272 330 410
#     4  11  22  41  69 103 136 173 229 282 328 404
#
# _framework density 22.126180999999999
#
# number of rings (size 3 to 8) (size 9 to 14) (size 15 to 20)
#    0.000    0.286    5.714    3.000    4.000    3.429 
#    0.000    1.429    0.000    0.000    0.000    0.000 
#    0.000    0.000    0.000    0.000    0.000    0.000 
#
# Total GULP energy -173475.255997 kJ/mol
# GULP energy per Si atom -12391.089714 kJ/mol
# Density = 2.207582 g / cm^3
# Si number density = 22.126181 Si / 1000 Ang^3
#
#
#
# Elastic Constant Matrix: (Units=GPa)
#
#
# Indices 1 2 3 4 5 6 
#
# 1 93.8654 48.2034 34.9560 -5.2330 0.3232 19.2378
# 2 48.2034 130.8521 37.4363 19.7408 2.4071 23.4226
# 3 34.9560 37.4363 112.7722 2.8638 -10.1386 4.5761
# 4 -5.2330 19.7408 2.8638 45.4701 -1.8352 0.4078
# 5 0.3232 2.4071 -10.1386 -1.8352 35.7075 -2.9460
# 6 19.2378 23.4226 4.5761 0.4078 -2.9460 31.6612
#
#
#
# Elastic Compliance Matrix: (Units=1/GPa)
#
#
# Indices 1 2 3 4 5 6 
#
# 1 0.015527 -0.004256 -0.003355 0.003855 -0.001099 -0.005953
# 2 -0.004256 0.011846 -0.002431 -0.005516 -0.002226 -0.005962
# 3 -0.003355 -0.002431 0.010923 0.000100 0.003514 0.002584
# 4 0.003855 -0.005516 0.000100 0.024882 0.001774 0.001568
# 5 -0.001099 -0.002226 0.003514 0.001774 0.029629 0.004541
# 6 -0.005953 -0.005962 0.002584 0.001568 0.004541 0.039641
#
#
# Mechanical properties :
#
#
# Convention : Reuss Voigt Hill
#
# Bulk Modulus (GPa) = 54.91063 64.29790 59.60427
# Shear Modulus (GPa) = 31.52501 37.02738 34.27619
#
# Velocity S-wave (km/s) = 3.77873 4.09524 3.94016
# Velocity P-wave (km/s) = 6.62641 7.17524 6.90628
#
# Compressibility (1/GPa) = 0.01821141
#
# Stress axis : x y z
#
# Youngs Moduli (GPa) = 64.40200 84.41759 91.54855
#
# Poissons Ratio (x) = 0.35926 0.30719
# Poissons Ratio (y) = 0.27408 0.22259
# Poissons Ratio (z) = 0.21610 0.20525
#
# Static dielectric constant tensor:
#      x y z
#    x 3.801030 0.163350 -0.195920 
#    y 0.163350 4.420570 0.138910 
#    z -0.195920 0.138910 3.873830 
# 
# 
# High freq. dielectric constant tensor:
#      x y z
#    x 1.850540 0.019250 -0.022980 
#    y 0.019250 1.888460 0.015870 
#    z -0.022980 0.015870 1.870740 
# 
# From -- ./inp_files/217242.got.cif
#   From: 2010.06.25/outbox.cif.g09.slc.cpg/sg2_109_cif.got.tgz:217242.got - 2010.06.27 13:26:56.
