data_PCOD8030583
_publ_section_title
;
Structure prediction by ZEFSAII (Michael W. Deem and Ramdas Pophale) SiO2 
 PCOD8030583
Probable space group: P -1
;
_chemical_formula_sum "Si O2"
_cell_formula_units_Z 14
_cell_length_a 18.047035
_cell_length_b 16.047301
_cell_length_c 8.929868
_cell_angle_alpha 115.850629
_cell_angle_beta 50.675903
_cell_angle_gamma 156.121161
_cell_volume 719.887820
_symmetry_space_group_name_H-M "P -1"
_symmetry_group_IT_number 2
_symmetry_cell_setting 'triclinic'
loop_
_space_group_symop_operation_xyz
x,y,z
-x,-y,-z
loop_
_atom_site_type_symbol
_atom_site_label
_atom_site_fract_x
_atom_site_fract_y
_atom_site_fract_z
Si Si1 0.687912 0.596117 0.402353
Si Si2 0.585036 0.488149 0.784989
Si Si3 0.598235 0.327697 0.148958
Si Si4 0.923735 0.023304 0.026575
Si Si5 0.128548 0.363941 0.226508
Si Si6 0.269652 0.885439 0.313777
Si Si7 0.208181 0.677493 0.992304
O O1 0.500000 0.500000 0.500000
O O2 0.702965 0.623830 0.583344
O O3 0.606400 0.419823 0.327220
O O4 0.943516 0.849425 0.203014
O O5 0.779473 0.599696 0.709799
O O6 0.357073 0.222739 0.836252
O O7 0.500000 0.500000 0.000000
O O8 0.341919 0.047321 0.266197
O O9 0.643454 0.401030 0.978565
O O10 0.809469 0.441285 0.008002
O O11 0.977572 0.157739 0.164848
O O12 0.000000 0.000000 0.000000
O O13 0.948099 0.288883 0.430926
O O14 0.165260 0.718707 0.201398
O O15 0.514598 0.064619 0.222098
O O16 0.000000 0.500000 0.000000
#
# Coordination Sequence:
#
# PCOD8030583 Si02
#       7
#     2   2   2   2   2   2   2
#     4  11  22  38  66  87 124 170 199 253 310 352
#     4  12  24  39  60  89 121 166 214 246 299 369
#     4   9  21  41  61  90 125 156 203 253 304 357
#     4  11  22  41  57  85 126 158 207 261 296 352
#     4  11  23  39  61  90 123 159 205 252 301 367
#     4   9  21  39  64  88 120 158 195 255 312 345
#     4   9  20  41  65  88 121 156 201 253 307 368
#
# _framework density 19.447474
#
# number of rings (size 3 to 8) (size 9 to 14) (size 15 to 20)
#    0.857    0.857    2.857    1.714    2.000    2.286 
#    2.571    0.714    0.000    0.000    0.000    0.000 
#    0.000    0.000    0.000    0.000    0.000    0.000 
#
# Total GULP energy -173511.618655 kJ/mol
# GULP energy per Si atom -12393.687047 kJ/mol
# Density = 1.940321 g / cm^3
# Si number density = 19.447474 Si / 1000 Ang^3
#
#
#
# Elastic Constant Matrix: (Units=GPa)
#
#
# Indices 1 2 3 4 5 6 
#
# 1 84.4524 30.8853 38.0767 16.4179 7.6378 8.8723
# 2 30.8853 93.7212 36.9639 9.8331 1.9553 3.9080
# 3 38.0767 36.9639 123.7017 17.4001 3.6817 6.5393
# 4 16.4179 9.8331 17.4001 29.6570 -1.9169 -8.4272
# 5 7.6378 1.9553 3.6817 -1.9169 33.4649 4.0311
# 6 8.8723 3.9080 6.5393 -8.4272 4.0311 42.2900
#
#
#
# Elastic Compliance Matrix: (Units=1/GPa)
#
#
# Indices 1 2 3 4 5 6 
#
# 1 0.016493 -0.003327 -0.002679 -0.007797 -0.003242 -0.003983
# 2 -0.003327 0.012936 -0.002704 -0.000925 0.000283 -0.000291
# 3 -0.002679 -0.002704 0.010405 -0.004206 -0.000424 -0.001595
# 4 -0.007797 -0.000925 -0.004206 0.044113 0.003519 0.010827
# 5 -0.003242 0.000283 -0.000424 0.003519 0.031039 -0.001538
# 6 -0.003983 -0.000291 -0.001595 0.010827 -0.001538 0.027059
#
#
# Mechanical properties :
#
#
# Convention : Reuss Voigt Hill
#
# Bulk Modulus (GPa) = 44.61477 57.08078 50.84778
# Shear Modulus (GPa) = 29.95135 34.14567 32.04851
#
# Velocity S-wave (km/s) = 3.92869 4.19476 4.06390
# Velocity P-wave (km/s) = 6.60079 7.27161 6.94430
#
# Compressibility (1/GPa) = 0.02241410
#
# Stress axis : x y z
#
# Youngs Moduli (GPa) = 60.63227 77.30253 96.10612
#
# Poissons Ratio (x) = 0.25717 0.25745
# Poissons Ratio (y) = 0.20171 0.25991
# Poissons Ratio (z) = 0.16242 0.20906
#
# Static dielectric constant tensor:
#      x y z
#    x 3.751030 -0.361910 0.385270 
#    y -0.361910 4.057880 -0.201240 
#    z 0.385270 -0.201240 4.222880 
# 
# 
# High freq. dielectric constant tensor:
#      x y z
#    x 1.741270 -0.009860 -0.010550 
#    y -0.009860 1.756730 0.005810 
#    z -0.010550 0.005810 1.764950 
# 
# From -- ./inp_files/348096.got.cif
#   From: 2010.06.25/outbox.cif.g09.slc.cpg/sg2_175_cif.got.tgz:348096.got - 2010.06.27 13:26:56.
