data_PCOD8030627
_publ_section_title
;
Structure prediction by ZEFSAII (Michael W. Deem and Ramdas Pophale) SiO2 
 PCOD8030627
Probable space group: P -1
;
_chemical_formula_sum "Si O2"
_cell_formula_units_Z 14
_cell_length_a 7.780420
_cell_length_b 9.075708
_cell_length_c 12.401053
_cell_angle_alpha 94.916149
_cell_angle_beta 64.520029
_cell_angle_gamma 129.527409
_cell_volume 587.060489
_symmetry_space_group_name_H-M "P -1"
_symmetry_group_IT_number 2
_symmetry_cell_setting 'triclinic'
loop_
_space_group_symop_operation_xyz
x,y,z
-x,-y,-z
loop_
_atom_site_type_symbol
_atom_site_label
_atom_site_fract_x
_atom_site_fract_y
_atom_site_fract_z
Si Si1 0.380702 0.115025 0.716792
Si Si2 0.292222 0.514366 0.842052
Si Si3 0.055106 0.700682 0.878984
Si Si4 0.259893 0.458253 0.260102
Si Si5 0.853488 0.201903 0.536951
Si Si6 0.299207 0.173463 0.521790
Si Si7 0.192603 0.434149 0.628647
O O1 0.512463 0.309774 0.763348
O O2 0.566198 0.108588 0.592914
O O3 0.211051 0.093968 0.663562
O O4 0.209388 0.930481 0.831944
O O5 0.255410 0.672301 0.848834
O O6 0.590655 0.624221 0.786836
O O7 0.184906 0.384923 0.752376
O O8 0.123944 0.363045 0.974509
O O9 0.874092 0.568277 0.818085
O O10 0.040929 0.351210 0.401693
O O11 0.917986 0.323863 0.641459
O O12 0.836467 0.012099 0.534858
O O13 0.244382 0.319246 0.524715
O O14 0.608934 0.330029 0.431744
#
# Coordination Sequence:
#
# PCOD8030627 Si02
#       7
#     2   2   2   2   2   2   2
#     4  12  24  43  66 105 138 175 228 282 341 406
#     4  11  25  49  71  97 139 187 227 280 340 402
#     4  11  27  48  71  98 139 182 232 284 331 406
#     4  12  24  46  73 102 137 178 231 281 345 402
#     4  12  24  38  69 102 137 176 220 280 348 403
#     4  11  22  39  63  99 137 176 217 280 344 400
#     4  11  22  42  63  98 142 169 227 281 333 411
#
# _framework density 23.847626999999999
#
# number of rings (size 3 to 8) (size 9 to 14) (size 15 to 20)
#    0.000    0.571    4.286    4.286    2.000    1.714 
#    0.000    7.857    0.000    0.000    0.000    0.000 
#    0.000    0.000    0.000    0.000    0.000    0.000 
#
# Total GULP energy -173489.740844 kJ/mol
# GULP energy per Si atom -12392.124346 kJ/mol
# Density = 2.379335 g / cm^3
# Si number density = 23.847627 Si / 1000 Ang^3
#
#
#
# Elastic Constant Matrix: (Units=GPa)
#
#
# Indices 1 2 3 4 5 6 
#
# 1 54.0124 -18.6553 18.6565 -12.3555 6.0833 -5.7812
# 2 -18.6553 117.0776 30.4996 -13.5092 18.8498 14.6012
# 3 18.6565 30.4996 123.5094 -12.9922 23.6055 7.0891
# 4 -12.3555 -13.5092 -12.9922 29.6512 -2.2522 5.8037
# 5 6.0833 18.8498 23.6055 -2.2522 38.2819 3.1748
# 6 -5.7812 14.6012 7.0891 5.8037 3.1748 27.7031
#
#
#
# Elastic Compliance Matrix: (Units=1/GPa)
#
#
# Indices 1 2 3 4 5 6 
#
# 1 0.025415 0.006998 -0.003460 0.011794 -0.004704 0.000569
# 2 0.006998 0.012742 -0.001964 0.008636 -0.005172 -0.005969
# 3 -0.003460 -0.001964 0.010345 0.002301 -0.004536 -0.002296
# 4 0.011794 0.008636 0.002301 0.045595 -0.003886 -0.011786
# 5 -0.004704 -0.005172 -0.004536 -0.003886 0.031980 0.000054
# 6 0.000569 -0.005969 -0.002296 -0.011786 0.000054 0.042412
#
#
# Mechanical properties :
#
#
# Convention : Reuss Voigt Hill
#
# Bulk Modulus (GPa) = 19.36086 39.51123 29.43605
# Shear Modulus (GPa) = 27.38854 36.73380 32.06117
#
# Velocity S-wave (km/s) = 3.39260 3.92899 3.67061
# Velocity P-wave (km/s) = 4.84588 6.09810 5.50769
#
# Compressibility (1/GPa) = 0.05165060
#
# Stress axis : x y z
#
# Youngs Moduli (GPa) = 39.34634 78.48193 96.66436
#
# Poissons Ratio (x) = -0.54925 0.33448
# Poissons Ratio (y) = -0.27536 0.18986
# Poissons Ratio (z) = 0.13615 0.15414
#
# Static dielectric constant tensor:
#      x y z
#    x 4.812850 0.094630 -0.045200 
#    y 0.094630 4.352300 0.136560 
#    z -0.045200 0.136560 4.102920 
# 
# 
# High freq. dielectric constant tensor:
#      x y z
#    x 1.971510 -0.007490 0.004850 
#    y -0.007490 1.944920 0.006350 
#    z 0.004850 0.006350 1.923630 
# 
# From -- ./inp_files/195527.got.cif
#   From: 2010.06.25/outbox.cif.g09.slc.cpg/sg2_98_cif.got.tgz:195527.got - 2010.06.27 13:26:56.
