data_PCOD8030309
_publ_section_title
;
Structure prediction by ZEFSAII (Michael W. Deem and Ramdas Pophale) SiO2 
 PCOD8030309
Probable space group: P -1
;
_chemical_formula_sum "Si O2"
_cell_formula_units_Z 16
_cell_length_a 14.465444
_cell_length_b 10.527053
_cell_length_c 5.502108
_cell_angle_alpha 67.081682
_cell_angle_beta 115.952445
_cell_angle_gamma 113.509877
_cell_volume 666.961102
_symmetry_space_group_name_H-M "P -1"
_symmetry_group_IT_number 2
_symmetry_cell_setting 'triclinic'
loop_
_space_group_symop_operation_xyz
x,y,z
-x,-y,-z
loop_
_atom_site_type_symbol
_atom_site_label
_atom_site_fract_x
_atom_site_fract_y
_atom_site_fract_z
Si Si1 0.853046 0.240999 0.563720
Si Si2 0.660413 0.972071 0.103993
Si Si3 0.554288 0.880519 0.568003
Si Si4 0.427016 0.604905 0.818657
Si Si5 0.044311 0.230891 0.480378
Si Si6 0.792360 0.473368 0.604683
Si Si7 0.881413 0.024526 0.127786
Si Si8 0.668221 0.267753 0.998747
O O1 0.863169 0.371902 0.665774
O O2 0.741046 0.214662 0.318512
O O3 0.957926 0.288387 0.483701
O O4 0.844063 0.088555 0.794681
O O5 0.613510 0.904037 0.358746
O O6 0.789794 0.008678 0.240976
O O7 0.623531 0.120324 0.901753
O O8 0.628577 0.872914 0.898180
O O9 0.469594 0.721733 0.566131
O O10 0.500000 0.000000 0.500000
O O11 0.303850 0.518765 0.692713
O O12 0.429845 0.691731 0.010470
O O13 0.500000 0.500000 0.000000
O O14 0.135148 0.366847 0.385644
O O15 0.990446 0.138230 0.256137
O O16 0.095733 0.128740 0.783233
O O17 0.740623 0.407524 0.846569
#
# Coordination Sequence:
#
# PCOD8030309 Si02
#       8
#     2   2   2   2   2   2   2   2
#     4  11  21  44  69 100 140 184 236 296 349 435
#     4  12  24  45  74 108 139 188 245 303 355 431
#     4  12  26  44  78 105 138 191 251 298 365 427
#     4  11  28  47  66 105 141 188 236 305 361 435
#     4  11  25  43  66 105 139 188 231 295 369 429
#     4  11  25  44  71  97 140 186 238 290 365 434
#     4  11  25  42  69 102 144 179 238 297 360 429
#     4  11  23  44  74 100 142 183 241 299 359 431
#
# _framework density 23.989405999999999
#
# number of rings (size 3 to 8) (size 9 to 14) (size 15 to 20)
#    0.000    0.750    3.750    2.625    3.500    5.500 
#    0.000    0.000    0.000    0.000    0.000    0.000 
#    0.000    0.000    0.000    0.000    0.000    0.000 
#
# Total GULP energy -198399.819088 kJ/mol
# GULP energy per Si atom -12399.988693 kJ/mol
# Density = 2.393481 g / cm^3
# Si number density = 23.989406 Si / 1000 Ang^3
#
#
#
# Elastic Constant Matrix: (Units=GPa)
#
#
# Indices 1 2 3 4 5 6 
#
# 1 116.3511 39.1450 27.5205 -10.2829 -4.1317 1.9163
# 2 39.1450 109.3419 20.3095 -19.9684 -8.5005 17.2924
# 3 27.5205 20.3095 85.9913 -13.4593 -14.1250 -2.5238
# 4 -10.2829 -19.9684 -13.4593 36.9483 -4.6767 0.3901
# 5 -4.1317 -8.5005 -14.1250 -4.6767 41.4234 -15.1708
# 6 1.9163 17.2924 -2.5238 0.3901 -15.1708 40.3106
#
#
#
# Elastic Compliance Matrix: (Units=1/GPa)
#
#
# Indices 1 2 3 4 5 6 
#
# 1 0.010298 -0.003327 -0.002513 0.000114 -0.000248 0.000686
# 2 -0.003327 0.012384 -0.001039 0.005522 0.000635 -0.005034
# 3 -0.002513 -0.001039 0.014616 0.004843 0.006486 0.003874
# 4 0.000114 0.005522 0.004843 0.032668 0.006507 0.000062
# 5 -0.000248 0.000635 0.006486 0.006507 0.031575 0.011966
# 6 0.000686 -0.005034 0.003874 0.000062 0.011966 0.031679
#
#
# Mechanical properties :
#
#
# Convention : Reuss Voigt Hill
#
# Bulk Modulus (GPa) = 42.48191 53.95938 48.22064
# Shear Modulus (GPa) = 32.29457 38.71707 35.50582
#
# Velocity S-wave (km/s) = 3.67304 4.02173 3.85133
# Velocity P-wave (km/s) = 5.97791 6.64135 6.31834
#
# Compressibility (1/GPa) = 0.02353943
#
# Stress axis : x y z
#
# Youngs Moduli (GPa) = 97.10279 80.75206 68.41879
#
# Poissons Ratio (x) = 0.26867 0.17193
# Poissons Ratio (y) = 0.32307 0.07110
# Poissons Ratio (z) = 0.24401 0.08392
#
# Static dielectric constant tensor:
#      x y z
#    x 4.541600 0.053890 -0.245330 
#    y 0.053890 4.342590 0.092370 
#    z -0.245330 0.092370 5.191400 
# 
# 
# High freq. dielectric constant tensor:
#      x y z
#    x 1.957060 0.008950 0.001680 
#    y 0.008950 1.944180 0.002790 
#    z 0.001680 0.002790 1.952740 
# 
# From -- ./inp_files/94509.got.cif
#   From: 2010.06.25/outbox.cif.g09.slc.cpg/sg2_48_cif.got.tgz:94509.got - 2010.06.27 13:26:56.
