data_PCOD8030584
_publ_section_title
;
Structure prediction by ZEFSAII (Michael W. Deem and Ramdas Pophale) SiO2 
 PCOD8030584
Probable space group: P -1
;
_chemical_formula_sum "Si O2"
_cell_formula_units_Z 16
_cell_length_a 12.748420
_cell_length_b 8.299335
_cell_length_c 15.868046
_cell_angle_alpha 145.863127
_cell_angle_beta 53.632475
_cell_angle_gamma 118.250309
_cell_volume 758.078296
_symmetry_space_group_name_H-M "P -1"
_symmetry_group_IT_number 2
_symmetry_cell_setting 'triclinic'
loop_
_space_group_symop_operation_xyz
x,y,z
-x,-y,-z
loop_
_atom_site_type_symbol
_atom_site_label
_atom_site_fract_x
_atom_site_fract_y
_atom_site_fract_z
Si Si1 0.494078 0.118768 0.684734
Si Si2 0.362959 0.686153 0.465898
Si Si3 0.894192 0.100890 0.819640
Si Si4 0.988547 0.240155 0.537992
Si Si5 0.098365 0.852022 0.740198
Si Si6 0.221957 0.359949 0.972604
Si Si7 0.634117 0.836270 0.861065
Si Si8 0.290378 0.597495 0.223974
O O1 0.575985 0.193379 0.595843
O O2 0.364044 0.325245 0.845782
O O3 0.597306 0.159716 0.730507
O O4 0.447560 0.790992 0.551938
O O5 0.213752 0.798953 0.594862
O O6 0.363968 0.344402 0.305871
O O7 0.939550 0.873944 0.628587
O O8 0.748774 0.052161 0.897419
O O9 0.882329 0.429621 0.935894
O O10 0.986848 0.047063 0.831948
O O11 0.048152 0.548752 0.668661
O O12 0.835054 0.287189 0.613424
O O13 0.000000 0.000000 0.500000
O O14 0.153679 0.050177 0.875445
O O15 0.242837 0.493446 0.111745
O O16 0.642513 0.659049 0.866708
O O17 0.500000 0.000000 0.000000
#
# Coordination Sequence:
#
# PCOD8030584 Si02
#       8
#     2   2   2   2   2   2   2   2
#     4   9  19  36  63  89 126 169 208 258 321 374
#     4   9  18  37  61  93 122 161 217 266 307 375
#     4  12  21  40  66  95 126 169 222 261 315 390
#     4  12  24  43  66  92 126 171 216 265 324 379
#     4  11  23  42  66  94 128 174 217 269 315 374
#     4  11  24  40  63  97 136 167 212 269 324 381
#     4  11  22  38  66  94 126 169 219 263 317 382
#     4  11  22  42  61  92 131 176 210 263 326 379
#
# _framework density 21.106000000000002
#
# number of rings (size 3 to 8) (size 9 to 14) (size 15 to 20)
#    0.000    1.250    3.750    4.125    0.000    0.500 
#    0.000    2.500    0.000    3.750    0.000    0.000 
#    0.000    0.000    0.000    0.000    0.000    0.000 
#
# Total GULP energy -198212.805013 kJ/mol
# GULP energy per Si atom -12388.300313 kJ/mol
# Density = 2.105796 g / cm^3
# Si number density = 21.106000 Si / 1000 Ang^3
#
#
#
# Elastic Constant Matrix: (Units=GPa)
#
#
# Indices 1 2 3 4 5 6 
#
# 1 123.4012 47.4633 57.6545 7.8446 -1.7796 20.9260
# 2 47.4633 75.4263 25.8009 8.8817 -5.5347 15.2138
# 3 57.6545 25.8009 100.8450 1.7081 -8.9563 18.0089
# 4 7.8446 8.8817 1.7081 33.9258 11.4448 -0.8932
# 5 -1.7796 -5.5347 -8.9563 11.4448 42.8827 -2.4921
# 6 20.9260 15.2138 18.0089 -0.8932 -2.4921 36.4815
#
#
#
# Elastic Compliance Matrix: (Units=1/GPa)
#
#
# Indices 1 2 3 4 5 6 
#
# 1 0.013662 -0.006064 -0.005919 -0.000880 -0.001362 -0.002500
# 2 -0.006064 0.018768 -0.000241 -0.004662 0.003124 -0.004130
# 3 -0.005919 -0.000241 0.014189 -0.000233 0.002555 -0.003340
# 4 -0.000880 -0.004662 -0.000233 0.034245 -0.009667 0.002742
# 5 -0.001362 0.003124 0.002555 -0.009667 0.026769 -0.000191
# 6 -0.002500 -0.004130 -0.003340 0.002742 -0.000191 0.032271
#
#
# Mechanical properties :
#
#
# Convention : Reuss Voigt Hill
#
# Bulk Modulus (GPa) = 45.10395 62.39000 53.74698
# Shear Modulus (GPa) = 29.11384 33.90825 31.51105
#
# Velocity S-wave (km/s) = 3.71807 4.01255 3.86811
# Velocity P-wave (km/s) = 6.31258 7.14786 6.74317
#
# Compressibility (1/GPa) = 0.02217101
#
# Stress axis : x y z
#
# Youngs Moduli (GPa) = 73.19756 53.28333 70.47800
#
# Poissons Ratio (x) = 0.32313 0.41713
# Poissons Ratio (y) = 0.44389 0.01696
# Poissons Ratio (z) = 0.43323 0.01282
#
# Static dielectric constant tensor:
#      x y z
#    x 4.204760 0.667900 0.139010 
#    y 0.667900 3.764410 0.068790 
#    z 0.139010 0.068790 4.195200 
# 
# 
# High freq. dielectric constant tensor:
#      x y z
#    x 1.826940 0.037330 0.002120 
#    y 0.037330 1.809320 -0.008380 
#    z 0.002120 -0.008380 1.840840 
# 
# From -- ./inp_files/567110.got.cif
#   From: 2010.06.25/outbox.cif.g09.slc.cpg/sg2_284_cif.got.tgz:567110.got - 2010.06.27 13:26:56.
