data_PCOD8030725
_publ_section_title
;
Structure prediction by ZEFSAII (Michael W. Deem and Ramdas Pophale) SiO2 
 PCOD8030725
Probable space group: P -1
;
_chemical_formula_sum "Si O2"
_cell_formula_units_Z 16
_cell_length_a 8.473032
_cell_length_b 21.720735
_cell_length_c 16.128973
_cell_angle_alpha 160.421136
_cell_angle_beta 110.072858
_cell_angle_gamma 60.014524
_cell_volume 773.754291
_symmetry_space_group_name_H-M "P -1"
_symmetry_group_IT_number 2
_symmetry_cell_setting 'triclinic'
loop_
_space_group_symop_operation_xyz
x,y,z
-x,-y,-z
loop_
_atom_site_type_symbol
_atom_site_label
_atom_site_fract_x
_atom_site_fract_y
_atom_site_fract_z
Si Si1 0.493016 0.574103 0.824878
Si Si2 0.093423 0.847832 0.585049
Si Si3 0.610439 0.856264 0.119037
Si Si4 0.856710 0.332276 0.224722
Si Si5 0.939726 0.464453 0.572055
Si Si6 0.261986 0.831534 0.424990
Si Si7 0.823512 0.742082 0.491222
Si Si8 0.305677 0.575768 0.957183
O O1 0.683400 0.325163 0.557554
O O2 0.372475 0.585683 0.735650
O O3 0.334970 0.660805 0.982746
O O4 0.566188 0.738571 0.034967
O O5 0.101688 0.873347 0.520015
O O6 0.942391 0.769571 0.473066
O O7 0.015414 0.076054 0.906548
O O8 0.726261 0.955210 0.308613
O O9 0.406961 0.049008 0.281402
O O10 0.745483 0.685286 0.854817
O O11 0.862680 0.362814 0.362846
O O12 0.908724 0.485068 0.378858
O O13 0.064024 0.277786 0.427867
O O14 0.479676 0.617297 0.214425
O O15 0.195707 0.785154 0.265938
O O16 0.838817 0.513017 0.190965
#
# Coordination Sequence:
#
# PCOD8030725 Si02
#       8
#     2   2   2   2   2   2   2   2
#     4  11  22  40  64  89 127 164 200 253 304 359
#     4  11  22  40  64  89 127 164 200 253 304 359
#     4  11  22  40  64  89 127 164 200 253 304 359
#     4  11  24  42  64  91 122 159 209 254 303 365
#     4  11  24  42  64  91 122 159 209 254 303 365
#     4   9  20  39  63  90 123 161 204 252 304 362
#     4  11  22  40  64  89 127 164 200 253 304 359
#     4   9  20  39  63  90 123 161 204 252 304 362
#
# _framework density 20.678398000000001
#
# number of rings (size 3 to 8) (size 9 to 14) (size 15 to 20)
#    0.000    1.500    5.000    0.000    0.000    3.000 
#    0.000    5.000    0.000    0.000    0.000    0.000 
#    0.000    0.000    0.000    0.000    0.000    0.000 
#
# Total GULP energy -198447.745036 kJ/mol
# GULP energy per Si atom -12402.984065 kJ/mol
# Density = 2.063133 g / cm^3
# Si number density = 20.678398 Si / 1000 Ang^3
#
#
#
# Elastic Constant Matrix: (Units=GPa)
#
#
# Indices 1 2 3 4 5 6 
#
# 1 80.7311 9.0632 21.6216 -10.7603 13.9415 26.9350
# 2 9.0632 44.8735 26.3174 -16.4997 1.2087 -0.5761
# 3 21.6216 26.3174 107.0677 -19.6922 -7.2186 6.2047
# 4 -10.7603 -16.4997 -19.6922 38.0054 -4.5544 -8.1513
# 5 13.9415 1.2087 -7.2186 -4.5544 32.7851 13.1101
# 6 26.9350 -0.5761 6.2047 -8.1513 13.1101 26.4513
#
#
#
# Elastic Compliance Matrix: (Units=1/GPa)
#
#
# Indices 1 2 3 4 5 6 
#
# 1 0.020012 -0.003368 -0.002416 -0.001424 -0.001233 -0.019712
# 2 -0.003368 0.030666 -0.005648 0.011293 -0.003658 0.010716
# 3 -0.002416 -0.005648 0.012324 0.003429 0.005269 -0.002108
# 4 -0.001424 0.011293 0.003429 0.035120 0.001420 0.011011
# 5 -0.001233 -0.003658 0.005269 0.001420 0.040368 -0.019630
# 6 -0.019712 0.010716 -0.002108 0.011011 -0.019630 0.071729
#
#
# Mechanical properties :
#
#
# Convention : Reuss Voigt Hill
#
# Bulk Modulus (GPa) = 24.91445 38.51962 31.71703
# Shear Modulus (GPa) = 20.28704 31.15968 25.72336
#
# Velocity S-wave (km/s) = 3.13561 3.88606 3.53083
# Velocity P-wave (km/s) = 5.01837 6.22926 5.65631
#
# Compressibility (1/GPa) = 0.04013735
#
# Stress axis : x y z
#
# Youngs Moduli (GPa) = 49.97027 32.60911 81.14184
#
# Poissons Ratio (x) = 0.10984 0.19604
# Poissons Ratio (y) = 0.16832 0.45830
# Poissons Ratio (z) = 0.12073 0.18418
#
# Static dielectric constant tensor:
#      x y z
#    x 3.895610 0.084460 0.072150 
#    y 0.084460 3.775890 -0.056120 
#    z 0.072150 -0.056120 3.798040 
# 
# 
# High freq. dielectric constant tensor:
#      x y z
#    x 1.818910 0.001070 0.000700 
#    y 0.001070 1.806780 0.010970 
#    z 0.000700 0.010970 1.805240 
# 
# From -- ./inp_files/218519.got.cif
#   From: 2010.06.25/outbox.cif.g09.slc.cpg/sg2_110_cif.got.tgz:218519.got - 2010.06.27 13:26:56.
