data_PCOD8030777
_publ_section_title
;
Structure prediction by ZEFSAII (Michael W. Deem and Ramdas Pophale) SiO2 
 PCOD8030777
Probable space group: P -1
;
_chemical_formula_sum "Si O2"
_cell_formula_units_Z 12
_cell_length_a 9.357739
_cell_length_b 12.235922
_cell_length_c 9.218226
_cell_angle_alpha 116.722756
_cell_angle_beta 95.403091
_cell_angle_gamma 131.837890
_cell_volume 565.961910
_symmetry_space_group_name_H-M "P -1"
_symmetry_group_IT_number 2
_symmetry_cell_setting 'triclinic'
loop_
_space_group_symop_operation_xyz
x,y,z
-x,-y,-z
loop_
_atom_site_type_symbol
_atom_site_label
_atom_site_fract_x
_atom_site_fract_y
_atom_site_fract_z
Si Si1 0.060258 0.955646 0.174635
Si Si2 0.751750 0.359927 0.063056
Si Si3 0.915268 0.571421 0.480499
Si Si4 0.530978 0.394648 0.524190
Si Si5 0.216256 0.000174 0.891957
Si Si6 0.874415 0.584800 0.934911
O O1 0.279453 0.164727 0.406720
O O2 0.144023 0.961913 0.029604
O O3 0.850231 0.912921 0.129184
O O4 0.968187 0.770959 0.136975
O O5 0.892718 0.553347 0.292849
O O6 0.901237 0.335234 0.063925
O O7 0.735294 0.403556 0.925912
O O8 0.491133 0.156301 0.980783
O O9 0.650751 0.392541 0.413256
O O10 0.000000 0.500000 0.500000
O O11 0.068165 0.790618 0.677804
O O12 0.500000 0.500000 0.500000
O O13 0.693476 0.511602 0.752050
#
# Coordination Sequence:
#
# PCOD8030777 Si02
#       6
#     2   2   2   2   2   2
#     4  11  22  40  67  96 127 170 215 259 319 380
#     4  11  26  44  64  96 135 164 215 267 323 376
#     4  12  23  40  66 100 125 168 219 261 313 381
#     4  12  22  42  67  96 130 166 215 263 313 386
#     4  11  23  40  67  98 126 169 217 263 314 382
#     4  11  26  45  64  95 132 173 207 269 326 372
#
# _framework density 21.202839999999998
#
# number of rings (size 3 to 8) (size 9 to 14) (size 15 to 20)
#    0.000    0.667    6.667    1.000    2.333    3.333 
#    0.000    5.000    0.000    0.000    0.000    0.000 
#    0.000    0.000    0.000    0.000    0.000    0.000 
#
# Total GULP energy -148717.405513 kJ/mol
# GULP energy per Si atom -12393.117126 kJ/mol
# Density = 2.115458 g / cm^3
# Si number density = 21.202840 Si / 1000 Ang^3
#
#
#
# Elastic Constant Matrix: (Units=GPa)
#
#
# Indices 1 2 3 4 5 6 
#
# 1 110.8649 23.5446 38.9431 -0.5012 5.7491 -9.0029
# 2 23.5446 43.8279 31.4449 4.1091 5.6255 -11.2379
# 3 38.9431 31.4449 99.1094 11.7831 5.8286 -11.1980
# 4 -0.5012 4.1091 11.7831 34.6543 -4.9687 -3.3857
# 5 5.7491 5.6255 5.8286 -4.9687 36.2404 2.4530
# 6 -9.0029 -11.2379 -11.1980 -3.3857 2.4530 35.3357
#
#
#
# Elastic Compliance Matrix: (Units=1/GPa)
#
#
# Indices 1 2 3 4 5 6 
#
# 1 0.011015 -0.003405 -0.003322 0.001705 -0.000510 0.000869
# 2 -0.003405 0.032755 -0.007876 -0.001112 -0.003919 0.007219
# 3 -0.003322 -0.007876 0.014567 -0.004150 -0.001227 0.000953
# 4 0.001705 -0.001112 -0.004150 0.031246 0.004757 0.001429
# 5 -0.000510 -0.003919 -0.001227 0.004757 0.029359 -0.003347
# 6 0.000869 0.007219 0.000953 0.001429 -0.003347 0.031489
#
#
# Mechanical properties :
#
#
# Convention : Reuss Voigt Hill
#
# Bulk Modulus (GPa) = 34.32857 49.07414 41.70135
# Shear Modulus (GPa) = 26.40660 31.90404 29.15532
#
# Velocity S-wave (km/s) = 3.53289 3.88326 3.71221
# Velocity P-wave (km/s) = 5.73301 6.58040 6.17127
#
# Compressibility (1/GPa) = 0.02913026
#
# Stress axis : x y z
#
# Youngs Moduli (GPa) = 90.78654 30.52989 68.64708
#
# Poissons Ratio (x) = 0.10396 0.22806
# Poissons Ratio (y) = 0.30915 0.54066
# Poissons Ratio (z) = 0.30161 0.24045
#
# Static dielectric constant tensor:
#      x y z
#    x 4.149530 0.061060 -0.113990 
#    y 0.061060 3.605510 0.071940 
#    z -0.113990 0.071940 4.016770 
# 
# 
# High freq. dielectric constant tensor:
#      x y z
#    x 1.856070 -0.003980 -0.001570 
#    y -0.003980 1.811400 0.013020 
#    z -0.001570 0.013020 1.831190 
# 
# From -- ./inp_files/173777.got.cif
#   From: 2010.06.25/outbox.cif.g09.slc.cpg/sg2_87_cif.got.tgz:173777.got - 2010.06.27 13:26:56.
