data_PCOD8030236
_publ_section_title
;
Structure prediction by ZEFSAII (Michael W. Deem and Ramdas Pophale) SiO2 
 PCOD8030236
Probable space group: P -1
;
_chemical_formula_sum "Si O2"
_cell_formula_units_Z 16
_cell_length_a 19.651197
_cell_length_b 8.880615
_cell_length_c 8.787239
_cell_angle_alpha 102.153046
_cell_angle_beta 123.505542
_cell_angle_gamma 39.204084
_cell_volume 736.390449
_symmetry_space_group_name_H-M "P -1"
_symmetry_group_IT_number 2
_symmetry_cell_setting 'triclinic'
loop_
_space_group_symop_operation_xyz
x,y,z
-x,-y,-z
loop_
_atom_site_type_symbol
_atom_site_label
_atom_site_fract_x
_atom_site_fract_y
_atom_site_fract_z
Si Si1 0.175744 0.608890 0.261587
Si Si2 0.591241 0.562956 0.321937
Si Si3 0.317349 0.608079 0.936230
Si Si4 0.919081 0.196225 0.151975
Si Si5 0.193861 0.227095 0.293331
Si Si6 0.275628 0.015047 0.034711
Si Si7 0.967746 0.462864 0.298818
Si Si8 0.553492 0.320871 0.383425
O O1 0.317576 0.468426 0.464104
O O2 0.181632 0.421439 0.269562
O O3 0.161417 0.659035 0.075097
O O4 0.042163 0.885391 0.235341
O O5 0.621938 0.545478 0.179638
O O6 0.429812 0.847088 0.213499
O O7 0.621207 0.338964 0.352842
O O8 0.187049 0.699589 0.830036
O O9 0.274108 0.851977 0.917355
O O10 0.427676 0.423708 0.169542
O O11 0.987837 0.250794 0.302638
O O12 0.061694 0.379028 0.258903
O O13 0.200812 0.110615 0.126514
O O14 0.334555 0.981083 0.507633
O O15 0.192433 0.261255 0.880015
O O16 0.000000 0.500000 0.500000
O O17 0.500000 0.500000 0.500000
#
# Coordination Sequence:
#
# PCOD8030236 Si02
#       8
#     2   2   2   2   2   2   2   2
#     4  11  26  45  71 103 137 185 232 283 342 407
#     4  11  25  44  71 103 144 179 229 286 347 408
#     4  11  25  42  72 103 145 178 230 285 346 408
#     4  11  26  47  71  99 141 180 234 282 343 418
#     4  12  25  45  72  99 141 180 237 282 339 414
#     4  11  24  46  70 102 138 184 234 280 339 411
#     4  12  29  45  72 103 138 180 231 289 352 405
#     4  11  21  43  71 104 133 186 227 279 343 408
#
# _framework density 21.727603999999999
#
# number of rings (size 3 to 8) (size 9 to 14) (size 15 to 20)
#    0.000    0.750    3.750    4.125   10.500    2.000 
#    0.000    1.250    0.000    0.000    0.000    0.000 
#    0.000    0.000    0.000    0.000    0.000    0.000 
#
# Total GULP energy -198463.585545 kJ/mol
# GULP energy per Si atom -12403.974097 kJ/mol
# Density = 2.167815 g / cm^3
# Si number density = 21.727604 Si / 1000 Ang^3
#
#
#
# Elastic Constant Matrix: (Units=GPa)
#
#
# Indices 1 2 3 4 5 6 
#
# 1 105.2547 37.6400 26.4544 -6.9301 9.3527 -20.4046
# 2 37.6400 106.1141 46.5308 -13.8734 -4.4587 -1.7321
# 3 26.4544 46.5308 108.2623 -0.6678 2.9721 -15.2443
# 4 -6.9301 -13.8734 -0.6678 43.4440 3.6232 -12.8906
# 5 9.3527 -4.4587 2.9721 3.6232 32.4929 0.5129
# 6 -20.4046 -1.7321 -15.2443 -12.8906 0.5129 37.2967
#
#
#
# Elastic Compliance Matrix: (Units=1/GPa)
#
#
# Indices 1 2 3 4 5 6 
#
# 1 0.013376 -0.004304 -0.000073 0.003673 -0.004977 0.008426
# 2 -0.004304 0.013704 -0.005357 0.002397 0.003391 -0.003126
# 3 -0.000073 -0.005357 0.012282 0.000043 -0.001918 0.004772
# 4 0.003673 0.002397 0.000043 0.028259 -0.004072 0.011961
# 5 -0.004977 0.003391 -0.001918 -0.004072 0.033386 -0.005216
# 6 0.008426 -0.003126 0.004772 0.011961 -0.005216 0.037433
#
#
# Mechanical properties :
#
#
# Convention : Reuss Voigt Hill
#
# Bulk Modulus (GPa) = 50.26463 60.09794 55.18128
# Shear Modulus (GPa) = 30.38800 36.58042 33.48421
#
# Velocity S-wave (km/s) = 3.74383 4.10761 3.92993
# Velocity P-wave (km/s) = 6.47090 7.08635 6.78561
#
# Compressibility (1/GPa) = 0.01989471
#
# Stress axis : x y z
#
# Youngs Moduli (GPa) = 74.76217 72.96976 81.42064
#
# Poissons Ratio (x) = 0.31405 0.00593
# Poissons Ratio (y) = 0.32177 0.43616
# Poissons Ratio (z) = 0.00545 0.39089
#
# Static dielectric constant tensor:
#      x y z
#    x 3.887730 -0.052800 -0.112940 
#    y -0.052800 4.001940 -0.144080 
#    z -0.112940 -0.144080 4.099060 
# 
# 
# High freq. dielectric constant tensor:
#      x y z
#    x 1.851810 -0.006830 -0.005000 
#    y -0.006830 1.857070 -0.009200 
#    z -0.005000 -0.009200 1.864730 
# 
# From -- ./inp_files/205322.got.cif
#   From: 2010.06.25/outbox.cif.g09.slc.cpg/sg2_103_cif.got.tgz:205322.got - 2010.06.27 13:26:56.
