data_PCOD8030071
_publ_section_title
;
Structure prediction by ZEFSAII (Michael W. Deem and Ramdas Pophale) SiO2 
 PCOD8030071
Probable space group: P -1
;
_chemical_formula_sum "Si O2"
_cell_formula_units_Z 16
_cell_length_a 20.041358
_cell_length_b 16.979520
_cell_length_c 6.763191
_cell_angle_alpha 115.684991
_cell_angle_beta 61.845688
_cell_angle_gamma 159.242772
_cell_volume 718.926812
_symmetry_space_group_name_H-M "P -1"
_symmetry_group_IT_number 2
_symmetry_cell_setting 'triclinic'
loop_
_space_group_symop_operation_xyz
x,y,z
-x,-y,-z
loop_
_atom_site_type_symbol
_atom_site_label
_atom_site_fract_x
_atom_site_fract_y
_atom_site_fract_z
Si Si1 0.256631 0.582204 0.574955
Si Si2 0.575734 0.171206 0.998095
Si Si3 0.384386 0.040270 0.772960
Si Si4 0.186168 0.139937 0.415443
Si Si5 0.043046 0.195017 0.327206
Si Si6 0.194274 0.667300 0.485221
Si Si7 0.423806 0.499457 0.227863
Si Si8 0.788615 0.969532 0.093032
O O1 0.419876 0.720799 0.346819
O O2 0.092711 0.333847 0.537726
O O3 0.167917 0.580681 0.625038
O O4 0.336912 0.676376 0.786494
O O5 0.410704 0.051864 0.984883
O O6 0.734154 0.319599 0.773337
O O7 0.500000 0.000000 0.000000
O O8 0.218480 0.936722 0.865014
O O9 0.339060 0.900078 0.578879
O O10 0.366026 0.399323 0.419177
O O11 0.207033 0.088274 0.163459
O O12 0.000000 0.000000 0.500000
O O13 0.152236 0.057118 0.583718
O O14 0.228945 0.329046 0.209816
O O15 0.983771 0.160189 0.150995
O O16 0.000000 0.500000 0.500000
O O17 0.596947 0.752934 0.263071
O O18 0.500000 0.500000 0.000000
#
# Coordination Sequence:
#
# PCOD8030071 Si02
#       8
#     2   2   2   2   2   2   2   2
#     4  11  22  41  64  94 128 176 221 263 330 381
#     4  11  21  42  67  86 126 180 215 272 319 378
#     4  11  22  40  65  94 128 171 225 260 327 393
#     4   9  22  42  65 100 129 162 220 261 322 402
#     4  11  23  41  66  96 134 169 216 274 319 389
#     4  11  23  39  62  94 130 169 219 268 320 392
#     4   9  20  42  67  93 128 168 212 259 330 394
#     4  11  23  42  68  96 136 173 211 272 330 387
#
# _framework density 22.255393999999999
#
# number of rings (size 3 to 8) (size 9 to 14) (size 15 to 20)
#    0.000    1.500    3.750    1.500    0.000    9.500 
#    2.250    2.500    0.000    0.000    0.000    0.000 
#    0.000    0.000    0.000    0.000    0.000    0.000 
#
# Total GULP energy -198263.519569 kJ/mol
# GULP energy per Si atom -12391.469973 kJ/mol
# Density = 2.220474 g / cm^3
# Si number density = 22.255394 Si / 1000 Ang^3
#
#
#
# Elastic Constant Matrix: (Units=GPa)
#
#
# Indices 1 2 3 4 5 6 
#
# 1 162.6385 30.4263 42.4131 1.7915 6.2815 11.6350
# 2 30.4263 54.8450 5.1381 -6.7448 3.7206 0.3033
# 3 42.4131 5.1381 74.0592 4.7102 10.6400 7.1725
# 4 1.7915 -6.7448 4.7102 27.3261 3.8564 3.5848
# 5 6.2815 3.7206 10.6400 3.8564 35.9467 7.1554
# 6 11.6350 0.3033 7.1725 3.5848 7.1554 35.2171
#
#
#
# Elastic Compliance Matrix: (Units=1/GPa)
#
#
# Indices 1 2 3 4 5 6 
#
# 1 0.008170 -0.004259 -0.004261 -0.000709 0.000723 -0.001869
# 2 -0.004259 0.021374 0.000865 0.005633 -0.002525 0.000986
# 3 -0.004261 0.000865 0.016649 -0.001693 -0.003887 -0.001028
# 4 -0.000709 0.005633 -0.001693 0.039192 -0.003620 -0.002723
# 5 0.000723 -0.002525 -0.003887 -0.003620 0.030540 -0.005262
# 6 -0.001869 0.000986 -0.001028 -0.002723 -0.005262 0.030560
#
#
# Mechanical properties :
#
#
# Convention : Reuss Voigt Hill
#
# Bulk Modulus (GPa) = 32.38106 49.72194 41.05150
# Shear Modulus (GPa) = 29.05468 33.93568 31.49518
#
# Velocity S-wave (km/s) = 3.61711 3.90914 3.76596
# Velocity P-wave (km/s) = 5.65915 6.53951 6.11519
#
# Compressibility (1/GPa) = 0.03088225
#
# Stress axis : x y z
#
# Youngs Moduli (GPa) = 122.39414 46.78678 60.06466
#
# Poissons Ratio (x) = 0.19928 0.25595
# Poissons Ratio (y) = 0.52132 -0.05198
# Poissons Ratio (z) = 0.52155 -0.04049
#
# Static dielectric constant tensor:
#      x y z
#    x 5.630730 -0.607680 0.142890 
#    y -0.607680 4.423190 -0.236370 
#    z 0.142890 -0.236370 3.947950 
# 
# 
# High freq. dielectric constant tensor:
#      x y z
#    x 1.900850 -0.009190 0.002620 
#    y -0.009190 1.868350 -0.006310 
#    z 0.002620 -0.006310 1.852580 
# 
# From -- ./inp_files/49162.got.cif
#   From: 2010.06.25/outbox.cif.g09.slc.cpg/sg2_25_cif.got.tgz:49162.got - 2010.06.27 13:26:56.
