data_PCOD8030563
_publ_section_title
;
Structure prediction by ZEFSAII (Michael W. Deem and Ramdas Pophale) SiO2 
 PCOD8030563
Probable space group: P -1
;
_chemical_formula_sum "Si O2"
_cell_formula_units_Z 16
_cell_length_a 8.948764
_cell_length_b 11.633528
_cell_length_c 14.484402
_cell_angle_alpha 74.709957
_cell_angle_beta 121.741696
_cell_angle_gamma 143.381831
_cell_volume 726.583268
_symmetry_space_group_name_H-M "P -1"
_symmetry_group_IT_number 2
_symmetry_cell_setting 'triclinic'
loop_
_space_group_symop_operation_xyz
x,y,z
-x,-y,-z
loop_
_atom_site_type_symbol
_atom_site_label
_atom_site_fract_x
_atom_site_fract_y
_atom_site_fract_z
Si Si1 0.154258 0.302968 0.411047
Si Si2 0.945788 0.734563 0.136421
Si Si3 0.899287 0.390160 0.393494
Si Si4 0.426203 0.577204 0.282126
Si Si5 0.765906 0.899128 0.759611
Si Si6 0.652936 0.242749 0.671724
Si Si7 0.081130 0.989728 0.426764
Si Si8 0.650137 0.596086 0.883415
O O1 0.500000 0.500000 0.500000
O O2 0.167277 0.358004 0.297196
O O3 0.030495 0.098532 0.427745
O O4 0.971458 0.289253 0.423356
O O5 0.655539 0.528563 0.140938
O O6 0.249172 0.832223 0.242899
O O7 0.892521 0.692570 0.018611
O O8 0.993155 0.898547 0.142986
O O9 0.551102 0.214165 0.303919
O O10 0.000000 0.500000 0.500000
O O11 0.067498 0.555386 0.335717
O O12 0.391674 0.698290 0.265807
O O13 0.399165 0.543195 0.170988
O O14 0.776954 0.742366 0.391901
O O15 0.851294 0.953433 0.669571
O O16 0.772243 0.767371 0.822068
O O17 0.363341 0.077919 0.546215
#
# Coordination Sequence:
#
# PCOD8030563 Si02
#       8
#     2   2   2   2   2   2   2   2
#     4  11  22  38  63  92 136 174 203 256 321 389
#     4  11  26  44  64  95 127 174 218 269 318 371
#     4  11  22  38  62  98 134 168 205 258 323 388
#     4  11  24  41  67  95 130 171 215 265 314 390
#     4  12  23  42  69  94 128 168 217 265 323 381
#     4  11  24  42  62  98 137 164 206 263 327 383
#     4  12  23  41  65 103 129 172 209 253 334 392
#     4  11  24  46  68  88 128 173 225 266 312 377
#
# _framework density 22.020875
#
# number of rings (size 3 to 8) (size 9 to 14) (size 15 to 20)
#    0.000    0.750    7.500    0.750    1.750    1.000 
#    0.000    0.000    0.000    2.250    0.000    0.000 
#    0.000    0.000    0.000    0.000    0.000    0.000 
#
# Total GULP energy -198331.958555 kJ/mol
# GULP energy per Si atom -12395.747410 kJ/mol
# Density = 2.197075 g / cm^3
# Si number density = 22.020875 Si / 1000 Ang^3
#
#
#
# Elastic Constant Matrix: (Units=GPa)
#
#
# Indices 1 2 3 4 5 6 
#
# 1 107.3627 24.0591 54.8212 -4.4285 -19.3302 -6.5907
# 2 24.0591 113.0425 33.3205 -3.6818 -1.8401 -1.0434
# 3 54.8212 33.3205 116.9813 4.9849 -26.9321 -9.1163
# 4 -4.4285 -3.6818 4.9849 25.2266 -5.2547 -5.3938
# 5 -19.3302 -1.8401 -26.9321 -5.2547 37.7060 5.2578
# 6 -6.5907 -1.0434 -9.1163 -5.3938 5.2578 28.1826
#
#
#
# Elastic Compliance Matrix: (Units=1/GPa)
#
#
# Indices 1 2 3 4 5 6 
#
# 1 0.013019 -0.001069 -0.005081 0.004160 0.003359 0.001531
# 2 -0.001069 0.009920 -0.002828 0.001392 -0.001864 -0.000183
# 3 -0.005081 -0.002828 0.013396 -0.002336 0.006302 0.001417
# 4 0.004160 0.001392 -0.002336 0.043826 0.005578 0.007616
# 5 0.003359 -0.001864 0.006302 0.005578 0.033776 -0.002479
# 6 0.001531 -0.000183 0.001417 0.007616 -0.002479 0.038213
#
#
# Mechanical properties :
#
#
# Convention : Reuss Voigt Hill
#
# Bulk Modulus (GPa) = 54.40706 62.42091 58.41398
# Shear Modulus (GPa) = 28.37175 33.23543 30.80359
#
# Velocity S-wave (km/s) = 3.59333 3.88915 3.74416
# Velocity P-wave (km/s) = 6.47894 6.96958 6.72873
#
# Compressibility (1/GPa) = 0.01837997
#
# Stress axis : x y z
#
# Youngs Moduli (GPa) = 76.81314 100.80204 74.64968
#
# Poissons Ratio (x) = 0.10773 0.37931
# Poissons Ratio (y) = 0.08209 0.21108
# Poissons Ratio (z) = 0.39030 0.28502
#
# Static dielectric constant tensor:
#      x y z
#    x 4.347580 0.286690 -0.156340 
#    y 0.286690 5.002810 -0.232170 
#    z -0.156340 -0.232170 3.825700 
# 
# 
# High freq. dielectric constant tensor:
#      x y z
#    x 1.876370 0.009150 -0.016800 
#    y 0.009150 1.883340 -0.003080 
#    z -0.016800 -0.003080 1.844360 
# 
# From -- ./inp_files/455919.got.cif
#   From: 2010.06.25/outbox.cif.g09.slc.cpg/sg2_228_cif.got.tgz:455919.got - 2010.06.27 13:26:56.
