data_PCOD8030143
_publ_section_title
;
Structure prediction by ZEFSAII (Michael W. Deem and Ramdas Pophale) SiO2 
 PCOD8030143
Probable space group: P -1
;
_chemical_formula_sum "Si O2"
_cell_formula_units_Z 12
_cell_length_a 11.291330
_cell_length_b 7.840441
_cell_length_c 7.035766
_cell_angle_alpha 121.379413
_cell_angle_beta 108.814665
_cell_angle_gamma 62.302214
_cell_volume 468.156638
_symmetry_space_group_name_H-M "P -1"
_symmetry_group_IT_number 2
_symmetry_cell_setting 'triclinic'
loop_
_space_group_symop_operation_xyz
x,y,z
-x,-y,-z
loop_
_atom_site_type_symbol
_atom_site_label
_atom_site_fract_x
_atom_site_fract_y
_atom_site_fract_z
Si Si1 0.657956 0.346717 0.850328
Si Si2 0.579179 0.753588 0.419748
Si Si3 0.753490 0.233891 0.430868
Si Si4 0.854108 0.589437 0.568759
Si Si5 0.475149 0.244873 0.178669
Si Si6 0.860608 0.004739 0.007449
O O1 0.505477 0.353658 0.810985
O O2 0.725494 0.193028 0.612130
O O3 0.635158 0.594981 0.932093
O O4 0.751374 0.233464 0.008668
O O5 0.736574 0.671855 0.391466
O O6 0.590558 0.690208 0.611379
O O7 0.500000 0.000000 0.500000
O O8 0.829545 0.401763 0.563784
O O9 0.611442 0.296992 0.279631
O O10 0.852381 0.022702 0.244357
O O11 0.000000 0.500000 0.500000
O O12 0.834052 0.793485 0.812194
O O13 0.500000 0.000000 0.000000
O O14 0.000000 0.000000 0.000000
#
# Coordination Sequence:
#
# PCOD8030143 Si02
#       6
#     2   2   2   2   2   2
#     4  11  24  45  73 102 142 185 238 303 355 413
#     4  11  21  42  72 100 137 184 234 295 356 418
#     4  11  24  46  70 102 142 182 243 295 351 425
#     4  12  23  45  72 101 150 189 233 299 354 425
#     4  11  23  42  71 108 139 180 238 303 359 416
#     4  12  27  46  69 105 143 192 240 286 361 435
#
# _framework density 25.632445000000001
#
# number of rings (size 3 to 8) (size 9 to 14) (size 15 to 20)
#    0.000    0.667    6.667    2.000    0.000    2.667 
#    0.000    0.833    0.000    0.000    0.000    0.000 
#    0.000    0.000    0.000    0.000    0.000    0.000 
#
# Total GULP energy -148660.553624 kJ/mol
# GULP energy per Si atom -12388.379469 kJ/mol
# Density = 2.557410 g / cm^3
# Si number density = 25.632445 Si / 1000 Ang^3
#
#
#
# Elastic Constant Matrix: (Units=GPa)
#
#
# Indices 1 2 3 4 5 6 
#
# 1 145.7167 33.0849 38.6939 0.4639 14.4417 -25.5060
# 2 33.0849 103.5723 31.4786 17.7957 9.2879 -5.8690
# 3 38.6939 31.4786 114.5583 32.5122 4.9358 4.2613
# 4 0.4639 17.7957 32.5122 42.7728 5.3372 6.8395
# 5 14.4417 9.2879 4.9358 5.3372 51.0733 5.4794
# 6 -25.5060 -5.8690 4.2613 6.8395 5.4794 43.4977
#
#
#
# Elastic Compliance Matrix: (Units=1/GPa)
#
#
# Indices 1 2 3 4 5 6 
#
# 1 0.009494 -0.001857 -0.003594 0.002871 -0.002898 0.005582
# 2 -0.001857 0.011519 -0.001483 -0.003712 -0.001182 0.001343
# 3 -0.003594 -0.001483 0.012924 -0.008949 0.001221 -0.002320
# 4 0.002871 -0.003712 -0.008949 0.032429 -0.002366 -0.002742
# 5 -0.002898 -0.001182 0.001221 -0.002366 0.021202 -0.004277
# 6 0.005582 0.001343 -0.002320 -0.002742 -0.004277 0.027641
#
#
# Mechanical properties :
#
#
# Convention : Reuss Voigt Hill
#
# Bulk Modulus (GPa) = 49.83058 63.37356 56.60207
# Shear Modulus (GPa) = 36.82748 44.84141 40.83445
#
# Velocity S-wave (km/s) = 3.79456 4.18712 3.99567
# Velocity P-wave (km/s) = 6.21940 6.93928 6.58918
#
# Compressibility (1/GPa) = 0.02006800
#
# Stress axis : x y z
#
# Youngs Moduli (GPa) = 105.33132 86.81148 77.37482
#
# Poissons Ratio (x) = 0.16125 0.27807
# Poissons Ratio (y) = 0.19565 0.11478
# Poissons Ratio (z) = 0.37853 0.12878
#
# Static dielectric constant tensor:
#      x y z
#    x 5.090710 -0.065810 -0.010680 
#    y -0.065810 4.826230 0.490450 
#    z -0.010680 0.490450 5.054830 
# 
# 
# High freq. dielectric constant tensor:
#      x y z
#    x 2.041080 -0.005930 -0.008810 
#    y -0.005930 2.005770 0.027380 
#    z -0.008810 0.027380 2.034420 
# 
# From -- ./inp_files/236464.got.cif
#   From: 2010.06.25/outbox.cif.g09.slc.cpg/sg2_119_cif.got.tgz:236464.got - 2010.06.27 13:26:56.
