data_PCOD8030779
_publ_section_title
;
Structure prediction by ZEFSAII (Michael W. Deem and Ramdas Pophale) SiO2 
 PCOD8030779
Probable space group: P -1
;
_chemical_formula_sum "Si O2"
_cell_formula_units_Z 16
_cell_length_a 9.725536
_cell_length_b 19.162938
_cell_length_c 11.885256
_cell_angle_alpha 136.151394
_cell_angle_beta 126.347341
_cell_angle_gamma 29.166053
_cell_volume 743.303342
_symmetry_space_group_name_H-M "P -1"
_symmetry_group_IT_number 2
_symmetry_cell_setting 'triclinic'
loop_
_space_group_symop_operation_xyz
x,y,z
-x,-y,-z
loop_
_atom_site_type_symbol
_atom_site_label
_atom_site_fract_x
_atom_site_fract_y
_atom_site_fract_z
Si Si1 0.735964 0.032536 0.655226
Si Si2 0.145018 0.332222 0.828777
Si Si3 0.294902 0.068003 0.707169
Si Si4 0.258257 0.485581 0.348590
Si Si5 0.186501 0.984229 0.746706
Si Si6 0.188631 0.356759 0.333886
Si Si7 0.151203 0.741842 0.694945
Si Si8 0.825477 0.857381 0.877126
O O1 0.453257 0.209465 0.781877
O O2 0.927408 0.034985 0.710510
O O3 0.651724 0.003672 0.474004
O O4 0.895696 0.890107 0.659672
O O5 0.160081 0.242137 0.830299
O O6 0.936962 0.384820 0.696231
O O7 0.000000 0.500000 0.000000
O O8 0.096068 0.089173 0.712215
O O9 0.586109 0.941094 0.768344
O O10 0.141314 0.436328 0.285323
O O11 0.248860 0.579546 0.544120
O O12 0.580993 0.312748 0.263847
O O13 0.479262 0.786322 0.635946
O O14 0.266981 0.022657 0.931600
O O15 0.085296 0.290079 0.192653
O O16 0.000000 0.500000 0.500000
O O17 0.070620 0.794345 0.848107
#
# Coordination Sequence:
#
# PCOD8030779 Si02
#       8
#     2   2   2   2   2   2   2   2
#     4  12  24  47  71  99 136 186 230 272 339 414
#     4  12  28  41  68 102 140 174 219 290 351 392
#     4  11  23  47  69  96 135 182 227 273 338 418
#     4  11  24  42  65 108 136 171 228 284 336 404
#     4  11  27  44  69 102 133 183 230 281 330 408
#     4  11  22  40  67  97 134 174 225 271 332 403
#     4  11  22  42  73  99 136 178 230 279 332 411
#     4  11  24  43  71  99 134 180 230 277 333 405
#
# _framework density 21.525531000000001
#
# number of rings (size 3 to 8) (size 9 to 14) (size 15 to 20)
#    0.000    0.750    5.000    3.000    7.000    0.500 
#    0.000    0.625    0.000    0.000    0.000    0.000 
#    0.000    0.000    0.000    0.000    0.000    0.000 
#
# Total GULP energy -198407.929620 kJ/mol
# GULP energy per Si atom -12400.495601 kJ/mol
# Density = 2.147654 g / cm^3
# Si number density = 21.525531 Si / 1000 Ang^3
#
#
#
# Elastic Constant Matrix: (Units=GPa)
#
#
# Indices 1 2 3 4 5 6 
#
# 1 126.7115 39.1142 51.9509 14.2171 -12.4041 16.9110
# 2 39.1142 90.1437 42.1692 16.1391 -9.6359 -4.2868
# 3 51.9509 42.1692 85.3237 24.1906 -4.9079 -4.1657
# 4 14.2171 16.1391 24.1906 32.1620 0.5385 -1.0041
# 5 -12.4041 -9.6359 -4.9079 0.5385 32.6938 2.7676
# 6 16.9110 -4.2868 -4.1657 -1.0041 2.7676 39.6358
#
#
#
# Elastic Compliance Matrix: (Units=1/GPa)
#
#
# Indices 1 2 3 4 5 6 
#
# 1 0.012541 -0.002290 -0.006730 0.000402 0.003621 -0.006548
# 2 -0.002290 0.015392 -0.005165 -0.002816 0.002784 0.001833
# 3 -0.006730 -0.005165 0.021483 -0.010437 -0.001049 0.004379
# 4 0.000402 -0.002816 -0.010437 0.040216 -0.002877 -0.000353
# 5 0.003621 0.002784 -0.001049 -0.002877 0.032987 -0.003730
# 6 -0.006548 0.001833 0.004379 -0.000353 -0.003730 0.028934
#
#
# Mechanical properties :
#
#
# Convention : Reuss Voigt Hill
#
# Bulk Modulus (GPa) = 47.51215 63.18306 55.34761
# Shear Modulus (GPa) = 26.74704 32.16128 29.45416
#
# Velocity S-wave (km/s) = 3.52884 3.86955 3.70312
# Velocity P-wave (km/s) = 6.22286 7.02716 6.63720
#
# Compressibility (1/GPa) = 0.02104725
#
# Stress axis : x y z
#
# Youngs Moduli (GPa) = 79.73704 64.96843 46.54915
#
# Poissons Ratio (x) = 0.14878 0.31326
# Poissons Ratio (y) = 0.18260 0.24042
# Poissons Ratio (z) = 0.53660 0.33555
#
# Static dielectric constant tensor:
#      x y z
#    x 4.473660 0.179110 -0.199280 
#    y 0.179110 3.843960 0.036920 
#    z -0.199280 0.036920 3.793960 
# 
# 
# High freq. dielectric constant tensor:
#      x y z
#    x 1.869140 0.009870 -0.008000 
#    y 0.009870 1.832990 0.010650 
#    z -0.008000 0.010650 1.836330 
# 
# From -- ./inp_files/403270.got.cif
#   From: 2010.06.25/outbox.cif.g09.slc.cpg/sg2_202_cif.got.tgz:403270.got - 2010.06.27 13:26:56.
