data_PCOD8030388
_publ_section_title
;
Structure prediction by ZEFSAII (Michael W. Deem and Ramdas Pophale) SiO2 
 PCOD8030388
Probable space group: P -1
;
_chemical_formula_sum "Si O2"
_cell_formula_units_Z 16
_cell_length_a 28.747293
_cell_length_b 9.706960
_cell_length_c 22.339276
_cell_angle_alpha 145.374678
_cell_angle_beta 16.358415
_cell_angle_gamma 153.084888
_cell_volume 768.174352
_symmetry_space_group_name_H-M "P -1"
_symmetry_group_IT_number 2
_symmetry_cell_setting 'triclinic'
loop_
_space_group_symop_operation_xyz
x,y,z
-x,-y,-z
loop_
_atom_site_type_symbol
_atom_site_label
_atom_site_fract_x
_atom_site_fract_y
_atom_site_fract_z
Si Si1 0.930253 0.396432 0.742544
Si Si2 0.569984 0.405504 0.511086
Si Si3 0.128725 0.174508 0.962970
Si Si4 0.220643 0.297010 0.417232
Si Si5 0.477950 0.273740 0.994807
Si Si6 0.523207 0.831755 0.326323
Si Si7 0.042859 0.402800 0.473935
Si Si8 0.968812 0.189183 0.934855
O O1 0.956538 0.459327 0.660757
O O2 0.094503 0.341927 0.540971
O O3 0.966826 0.679005 0.834012
O O4 0.692131 0.089060 0.944607
O O5 0.387610 0.428348 0.723635
O O6 0.562306 0.330996 0.562741
O O7 0.809414 0.745257 0.329404
O O8 0.544846 0.142764 0.406971
O O9 0.000000 0.000000 0.000000
O O10 0.093720 0.911369 0.954856
O O11 0.345190 0.587889 0.412005
O O12 0.057676 0.963246 0.533730
O O13 0.400260 0.310012 0.166560
O O14 0.702696 0.355577 0.753102
O O15 0.500000 0.500000 0.000000
O O16 0.759423 0.925617 0.058165
O O17 0.000000 0.500000 0.500000
O O18 0.000000 0.500000 0.000000
#
# Coordination Sequence:
#
# PCOD8030388 Si02
#       8
#     2   2   2   2   2   2   2   2
#     4  11  24  42  65  91 130 169 208 262 318 377
#     4   9  19  39  57  84 131 165 200 255 307 365
#     4  11  24  40  60  94 131 163 208 258 307 372
#     4  11  22  40  67  93 123 161 214 260 318 384
#     4  11  21  45  67  89 124 168 209 260 323 382
#     4   9  19  35  62  91 119 160 207 256 309 365
#     4  11  25  43  67  97 126 161 212 269 322 377
#     4   9  20  40  61  83 122 166 209 255 305 367
#
# _framework density 20.828603999999999
#
# number of rings (size 3 to 8) (size 9 to 14) (size 15 to 20)
#    0.000    1.750    2.500    2.250    0.000    9.500 
#    4.500    0.000    0.000    0.000    0.000    0.000 
#    0.000    0.000    0.000    0.000    0.000    0.000 
#
# Total GULP energy -198287.761259 kJ/mol
# GULP energy per Si atom -12392.985079 kJ/mol
# Density = 2.078120 g / cm^3
# Si number density = 20.828604 Si / 1000 Ang^3
#
#
#
# Elastic Constant Matrix: (Units=GPa)
#
#
# Indices 1 2 3 4 5 6 
#
# 1 120.9798 49.2137 35.8169 -4.1909 -7.1609 -1.4854
# 2 49.2137 80.0092 28.7860 -5.3543 7.5509 9.9288
# 3 35.8169 28.7860 130.9887 -18.6738 -11.2739 5.5632
# 4 -4.1909 -5.3543 -18.6738 35.5933 3.2050 -0.4656
# 5 -7.1609 7.5509 -11.2739 3.2050 27.7884 0.4425
# 6 -1.4854 9.9288 5.5632 -0.4656 0.4425 35.5605
#
#
#
# Elastic Compliance Matrix: (Units=1/GPa)
#
#
# Indices 1 2 3 4 5 6 
#
# 1 0.012158 -0.007817 -0.001448 -0.000892 0.004727 0.002846
# 2 -0.007817 0.019766 -0.002506 0.001432 -0.008482 -0.005329
# 3 -0.001448 -0.002506 0.009521 0.004102 0.003711 -0.000843
# 4 -0.000892 0.001432 0.004102 0.030572 -0.002471 -0.000648
# 5 0.004727 -0.008482 0.003711 -0.002471 0.041277 0.001439
# 6 0.002846 -0.005329 -0.000843 -0.000648 0.001439 0.029833
#
#
# Mechanical properties :
#
#
# Convention : Reuss Voigt Hill
#
# Bulk Modulus (GPa) = 55.85363 62.17898 59.01631
# Shear Modulus (GPa) = 28.96277 34.33252 31.64764
#
# Velocity S-wave (km/s) = 3.73302 4.06437 3.90222
# Velocity P-wave (km/s) = 6.74201 7.20715 6.97846
#
# Compressibility (1/GPa) = 0.01790394
#
# Stress axis : x y z
#
# Youngs Moduli (GPa) = 82.24994 50.59249 105.03242
#
# Poissons Ratio (x) = 0.39546 0.15208
# Poissons Ratio (y) = 0.64291 0.26320
# Poissons Ratio (z) = 0.11909 0.12678
#
# Static dielectric constant tensor:
#      x y z
#    x 3.550940 -0.054260 0.032450 
#    y -0.054260 3.761280 -0.282070 
#    z 0.032450 -0.282070 4.185500 
# 
# 
# High freq. dielectric constant tensor:
#      x y z
#    x 1.807310 -0.001880 -0.010750 
#    y -0.001880 1.805410 -0.017060 
#    z -0.010750 -0.017060 1.831440 
# 
# From -- ./inp_files/602278.got.cif
#   From: 2010.06.25/outbox.cif.g09.slc.cpg/sg2_302_cif.got.tgz:602278.got - 2010.06.27 13:26:56.
