data_PCOD8030266
_publ_section_title
;
Structure prediction by ZEFSAII (Michael W. Deem and Ramdas Pophale) SiO2 
 PCOD8030266
Probable space group: P -1
;
_chemical_formula_sum "Si O2"
_cell_formula_units_Z 16
_cell_length_a 12.751389
_cell_length_b 8.964567
_cell_length_c 21.287417
_cell_angle_alpha 151.813656
_cell_angle_beta 38.283914
_cell_angle_gamma 131.171670
_cell_volume 707.415420
_symmetry_space_group_name_H-M "P -1"
_symmetry_group_IT_number 2
_symmetry_cell_setting 'triclinic'
loop_
_space_group_symop_operation_xyz
x,y,z
-x,-y,-z
loop_
_atom_site_type_symbol
_atom_site_label
_atom_site_fract_x
_atom_site_fract_y
_atom_site_fract_z
Si Si1 0.080661 0.344475 0.757644
Si Si2 0.563960 0.640808 0.343476
Si Si3 0.943549 0.782506 0.080852
Si Si4 0.584245 0.641933 0.197931
Si Si5 0.070308 0.364396 0.299666
Si Si6 0.763245 0.018875 0.566370
Si Si7 0.765716 0.036963 0.824093
Si Si8 0.716867 0.695549 0.599767
O O1 0.243969 0.369766 0.731558
O O2 0.965364 0.082547 0.739575
O O3 0.131090 0.254071 0.628398
O O4 0.975252 0.680773 0.953983
O O5 0.547467 0.485726 0.224727
O O6 0.452425 0.480845 0.388050
O O7 0.500000 0.000000 0.500000
O O8 0.738668 0.864994 0.214430
O O9 0.046036 0.086183 0.157510
O O10 0.000000 0.500000 0.000000
O O11 0.419221 0.865079 0.334690
O O12 0.641334 0.346491 0.016570
O O13 0.131238 0.682637 0.358756
O O14 0.884012 0.459324 0.452717
O O15 0.218643 0.243205 0.235084
O O16 0.737361 0.855603 0.583303
O O17 0.686586 0.955051 0.764951
#
# Coordination Sequence:
#
# PCOD8030266 Si02
#       8
#     2   2   2   2   2   2   2   2
#     4  11  22  42  70 101 137 175 230 284 345 405
#     4  12  22  40  71 101 129 173 233 289 340 390
#     4  11  21  43  73 107 137 169 233 296 345 394
#     4  11  23  44  71 106 140 172 231 293 349 401
#     4  12  23  44  74 102 135 180 240 287 342 402
#     4  12  28  45  68 101 147 189 226 273 352 428
#     4  11  23  43  74 102 131 180 236 292 338 397
#     4  12  28  44  68 102 145 185 228 283 345 422
#
# _framework density 22.617545
#
# number of rings (size 3 to 8) (size 9 to 14) (size 15 to 20)
#    0.000    0.500    6.250    3.000    0.000    4.000 
#    0.000    0.625    0.000    0.000    0.000    0.000 
#    0.000    0.000    0.000    0.000    0.000    0.000 
#
# Total GULP energy -198244.194050 kJ/mol
# GULP energy per Si atom -12390.262128 kJ/mol
# Density = 2.256607 g / cm^3
# Si number density = 22.617545 Si / 1000 Ang^3
#
#
#
# Elastic Constant Matrix: (Units=GPa)
#
#
# Indices 1 2 3 4 5 6 
#
# 1 62.9047 44.1602 29.2562 4.6174 20.5055 0.7464
# 2 44.1602 112.6769 52.3076 -10.3318 21.2682 -0.8654
# 3 29.2562 52.3076 101.6938 -8.1198 30.2914 -3.8155
# 4 4.6174 -10.3318 -8.1198 24.9857 10.8282 2.1346
# 5 20.5055 21.2682 30.2914 10.8282 42.9704 -11.4241
# 6 0.7464 -0.8654 -3.8155 2.1346 -11.4241 36.5846
#
#
#
# Elastic Compliance Matrix: (Units=1/GPa)
#
#
# Indices 1 2 3 4 5 6 
#
# 1 0.024955 -0.008510 -0.001719 -0.006089 -0.005553 -0.002269
# 2 -0.008510 0.015364 -0.003895 0.008168 -0.003215 -0.001350
# 3 -0.001719 -0.003895 0.016584 0.009546 -0.012052 -0.002648
# 4 -0.006089 0.008168 0.009546 0.059580 -0.025579 -0.010151
# 5 -0.005553 -0.003215 -0.012052 -0.025579 0.046377 0.014755
# 6 -0.002269 -0.001350 -0.002648 -0.010151 0.014755 0.032272
#
#
# Mechanical properties :
#
#
# Convention : Reuss Voigt Hill
#
# Bulk Modulus (GPa) = 34.89852 58.74701 46.82277
# Shear Modulus (GPa) = 21.46555 31.01159 26.23857
#
# Velocity S-wave (km/s) = 3.08403 3.70689 3.40972
# Velocity P-wave (km/s) = 5.30519 6.65972 6.02067
#
# Compressibility (1/GPa) = 0.02865451
#
# Stress axis : x y z
#
# Youngs Moduli (GPa) = 40.07266 65.08858 60.29778
#
# Poissons Ratio (x) = 0.55387 0.10367
# Poissons Ratio (y) = 0.34100 0.23488
# Poissons Ratio (z) = 0.06889 0.25354
#
# Static dielectric constant tensor:
#      x y z
#    x 3.971440 0.354520 0.215500 
#    y 0.354520 3.790110 0.084650 
#    z 0.215500 0.084650 4.005910 
# 
# 
# High freq. dielectric constant tensor:
#      x y z
#    x 1.883600 0.030360 0.014190 
#    y 0.030360 1.880670 -0.016570 
#    z 0.014190 -0.016570 1.907040 
# 
# From -- ./inp_files/594300.got.cif
#   From: 2010.06.25/outbox.cif.g09.slc.cpg/sg2_298_cif.got.tgz:594300.got - 2010.06.27 13:26:56.
