data_PCOD8030816
_publ_section_title
;
Structure prediction by ZEFSAII (Michael W. Deem and Ramdas Pophale) SiO2 
 PCOD8030816
Probable space group: P -1
;
_chemical_formula_sum "Si O2"
_cell_formula_units_Z 12
_cell_length_a 8.957445
_cell_length_b 11.806273
_cell_length_c 6.923883
_cell_angle_alpha 127.685917
_cell_angle_beta 106.981060
_cell_angle_gamma 65.994703
_cell_volume 528.394569
_symmetry_space_group_name_H-M "P -1"
_symmetry_group_IT_number 2
_symmetry_cell_setting 'triclinic'
loop_
_space_group_symop_operation_xyz
x,y,z
-x,-y,-z
loop_
_atom_site_type_symbol
_atom_site_label
_atom_site_fract_x
_atom_site_fract_y
_atom_site_fract_z
Si Si1 0.203026 0.069379 0.804856
Si Si2 0.107728 0.807648 0.365855
Si Si3 0.840923 0.129110 0.994083
Si Si4 0.196195 0.295814 0.346315
Si Si5 0.865666 0.398052 0.523607
Si Si6 0.557141 0.982936 0.720235
O O1 0.175564 0.905884 0.650384
O O2 0.394054 0.054880 0.859654
O O3 0.093150 0.135867 0.642060
O O4 0.124377 0.187793 0.069902
O O5 0.163366 0.639662 0.301147
O O6 0.162205 0.834073 0.198899
O O7 0.804040 0.290135 0.247941
O O8 0.686646 0.068253 0.915308
O O9 0.000000 0.000000 0.000000
O O10 0.232588 0.428481 0.372591
O O11 0.060210 0.369659 0.532698
O O12 0.365446 0.195793 0.400795
O O13 0.500000 0.000000 0.500000
#
# Coordination Sequence:
#
# PCOD8030816 Si02
#       6
#     2   2   2   2   2   2
#     4  11  22  40  69  99 128 170 229 274 322 393
#     4  11  22  41  70 102 124 176 231 267 331 394
#     4  12  22  45  70  98 133 175 225 270 327 396
#     4  11  24  42  63  98 137 175 219 275 337 385
#     4  11  24  43  65  96 139 176 217 273 332 401
#     4  12  23  42  68 100 132 171 228 277 324 393
#
# _framework density 22.710301999999999
#
# number of rings (size 3 to 8) (size 9 to 14) (size 15 to 20)
#    0.000    0.667    5.000    4.500    0.000    0.667 
#    3.000    4.167    0.000    0.000    0.000    0.000 
#    0.000    0.000    0.000    0.000    0.000    0.000 
#
# Total GULP energy -148673.168300 kJ/mol
# GULP energy per Si atom -12389.430692 kJ/mol
# Density = 2.265861 g / cm^3
# Si number density = 22.710302 Si / 1000 Ang^3
#
#
#
# Elastic Constant Matrix: (Units=GPa)
#
#
# Indices 1 2 3 4 5 6 
#
# 1 117.8018 53.5266 20.0368 -0.6628 13.3918 -5.6164
# 2 53.5266 181.9643 47.5744 16.8480 9.1487 25.7379
# 3 20.0368 47.5744 72.6168 5.7568 14.9793 0.6949
# 4 -0.6628 16.8480 5.7568 26.5522 -0.4475 7.9101
# 5 13.3918 9.1487 14.9793 -0.4475 35.5882 -7.1399
# 6 -5.6164 25.7379 0.6949 7.9101 -7.1399 43.2579
#
#
#
# Elastic Compliance Matrix: (Units=1/GPa)
#
#
# Indices 1 2 3 4 5 6 
#
# 1 0.010508 -0.003424 -0.000324 0.001657 -0.002373 0.002712
# 2 -0.003424 0.008654 -0.004403 -0.003144 -0.000119 -0.004967
# 3 -0.000324 -0.004403 0.018119 -0.001721 -0.006073 0.001599
# 4 0.001657 -0.003144 -0.001721 0.041702 0.000339 -0.005456
# 5 -0.002373 -0.000119 -0.006073 0.000339 0.032623 0.005183
# 6 0.002712 -0.004967 0.001599 -0.005456 0.005183 0.028252
#
#
# Mechanical properties :
#
#
# Convention : Reuss Voigt Hill
#
# Bulk Modulus (GPa) = 47.66924 68.29539 57.98231
# Shear Modulus (GPa) = 30.64580 37.82933 34.23756
#
# Velocity S-wave (km/s) = 3.67743 4.08577 3.88697
# Velocity P-wave (km/s) = 6.25037 7.23849 6.76250
#
# Compressibility (1/GPa) = 0.02097789
#
# Stress axis : x y z
#
# Youngs Moduli (GPa) = 95.16411 115.55649 55.19027
#
# Poissons Ratio (x) = 0.39568 0.01789
# Poissons Ratio (y) = 0.32585 0.24302
# Poissons Ratio (z) = 0.03084 0.50884
#
# Static dielectric constant tensor:
#      x y z
#    x 4.888440 0.111290 0.142380 
#    y 0.111290 4.351730 -0.141890 
#    z 0.142380 -0.141890 4.016230 
# 
# 
# High freq. dielectric constant tensor:
#      x y z
#    x 1.884020 0.019560 0.010660 
#    y 0.019560 1.907650 -0.019540 
#    z 0.010660 -0.019540 1.888920 
# 
# From -- ./inp_files/190938.got.cif
#   From: 2010.06.25/outbox.cif.g09.slc.cpg/sg2_96_cif.got.tgz:190938.got - 2010.06.27 13:26:56.
