data_PCOD8030414
_publ_section_title
;
Structure prediction by ZEFSAII (Michael W. Deem and Ramdas Pophale) SiO2 
 PCOD8030414
Probable space group: P -1
;
_chemical_formula_sum "Si O2"
_cell_formula_units_Z 14
_cell_length_a 7.865389
_cell_length_b 11.732239
_cell_length_c 18.247794
_cell_angle_alpha 146.467299
_cell_angle_beta 48.878017
_cell_angle_gamma 108.871941
_cell_volume 589.734434
_symmetry_space_group_name_H-M "P -1"
_symmetry_group_IT_number 2
_symmetry_cell_setting 'triclinic'
loop_
_space_group_symop_operation_xyz
x,y,z
-x,-y,-z
loop_
_atom_site_type_symbol
_atom_site_label
_atom_site_fract_x
_atom_site_fract_y
_atom_site_fract_z
Si Si1 0.036800 0.988789 0.570247
Si Si2 0.250008 0.009281 0.111805
Si Si3 0.727401 0.827407 0.656015
Si Si4 0.461918 0.473009 0.147008
Si Si5 0.106183 0.530728 0.062856
Si Si6 0.166192 0.250336 0.034232
Si Si7 0.813499 0.362621 0.322479
O O1 0.076133 0.199613 0.703988
O O2 0.779755 0.008734 0.691369
O O3 0.000000 0.000000 0.500000
O O4 0.300011 0.724298 0.374211
O O5 0.163724 0.189309 0.302175
O O6 0.995708 0.114301 0.185333
O O7 0.500000 0.000000 0.000000
O O8 0.328080 0.739967 0.971402
O O9 0.888281 0.555800 0.432283
O O10 0.400633 0.959512 0.817213
O O11 0.262093 0.404933 0.133340
O O12 0.602195 0.518187 0.062692
O O13 0.108584 0.335031 0.011999
O O14 0.000000 0.500000 0.000000
O O15 0.899226 0.299782 0.178884
O O16 0.500000 0.500000 0.500000
#
# Coordination Sequence:
#
# PCOD8030414 Si02
#       7
#     2   2   2   2   2   2   2
#     4  12  21  41  77 106 136 189 248 288 348 446
#     4  11  21  45  72 100 140 185 245 293 345 436
#     4  11  22  42  73  99 135 190 246 285 351 432
#     4  11  22  42  76 102 137 189 247 284 354 431
#     4  12  26  44  67 109 151 179 229 311 375 412
#     4  11  22  46  71 100 137 191 243 285 355 440
#     4  12  26  45  69 107 142 183 240 307 362 412
#
# _framework density 23.739498999999999
#
# number of rings (size 3 to 8) (size 9 to 14) (size 15 to 20)
#    0.000    0.571    8.571    1.714    0.000    2.286 
#    5.143    0.000    0.000    0.000    0.000    0.000 
#    0.000    0.000    0.000    0.000    0.000    0.000 
#
# Total GULP energy -173593.210777 kJ/mol
# GULP energy per Si atom -12399.515056 kJ/mol
# Density = 2.368547 g / cm^3
# Si number density = 23.739499 Si / 1000 Ang^3
#
#
#
# Elastic Constant Matrix: (Units=GPa)
#
#
# Indices 1 2 3 4 5 6 
#
# 1 66.9013 28.8078 24.7447 -4.6939 -6.4910 -29.3993
# 2 28.8078 138.9404 41.1531 -23.3404 -14.2692 -33.4775
# 3 24.7447 41.1531 124.5143 -2.3671 -0.3960 -16.6984
# 4 -4.6939 -23.3404 -2.3671 52.5186 5.3588 -0.2496
# 5 -6.4910 -14.2692 -0.3960 5.3588 45.9044 -1.8602
# 6 -29.3993 -33.4775 -16.6984 -0.2496 -1.8602 32.3136
#
#
#
# Elastic Compliance Matrix: (Units=1/GPa)
#
#
# Indices 1 2 3 4 5 6 
#
# 1 0.027085 0.002536 -0.002628 0.003013 0.005307 0.026241
# 2 0.002536 0.011986 -0.002519 0.005095 0.004023 0.013695
# 3 -0.002628 -0.002519 0.009335 -0.000834 -0.000987 -0.000240
# 4 0.003013 0.005095 -0.000834 0.021594 -0.000205 0.007743
# 5 0.005307 0.004023 -0.000987 -0.000205 0.024201 0.009878
# 6 0.026241 0.013695 -0.000240 0.007743 0.009878 0.069513
#
#
# Mechanical properties :
#
#
# Convention : Reuss Voigt Hill
#
# Bulk Modulus (GPa) = 23.15636 57.75190 40.45413
# Shear Modulus (GPa) = 27.27307 41.85734 34.56521
#
# Velocity S-wave (km/s) = 3.39314 4.20360 3.81992
# Velocity P-wave (km/s) = 5.01266 6.92390 6.04430
#
# Compressibility (1/GPa) = 0.04318468
#
# Stress axis : x y z
#
# Youngs Moduli (GPa) = 36.92125 83.42758 107.12506
#
# Poissons Ratio (x) = -0.21160 0.28148
# Poissons Ratio (y) = -0.09364 0.26989
# Poissons Ratio (z) = 0.09701 0.21019
#
# Static dielectric constant tensor:
#      x y z
#    x 3.896010 -0.106960 0.168820 
#    y -0.106960 5.105060 -0.095110 
#    z 0.168820 -0.095110 4.886960 
# 
# 
# High freq. dielectric constant tensor:
#      x y z
#    x 1.907490 0.001200 0.010890 
#    y 0.001200 1.954590 -0.004610 
#    z 0.010890 -0.004610 1.958880 
# 
# From -- ./inp_files/559262.got.cif
#   From: 2010.06.25/outbox.cif.g09.slc.cpg/sg2_280_cif.got.tgz:559262.got - 2010.06.27 13:26:56.
