data_PCOD8030289
_publ_section_title
;
Structure prediction by ZEFSAII (Michael W. Deem and Ramdas Pophale) SiO2 
 PCOD8030289
Probable space group: P -1
;
_chemical_formula_sum "Si O2"
_cell_formula_units_Z 16
_cell_length_a 16.022719
_cell_length_b 6.680589
_cell_length_c 10.489802
_cell_angle_alpha 50.610558
_cell_angle_beta 72.047061
_cell_angle_gamma 66.801053
_cell_volume 794.934445
_symmetry_space_group_name_H-M "P -1"
_symmetry_group_IT_number 2
_symmetry_cell_setting 'triclinic'
loop_
_space_group_symop_operation_xyz
x,y,z
-x,-y,-z
loop_
_atom_site_type_symbol
_atom_site_label
_atom_site_fract_x
_atom_site_fract_y
_atom_site_fract_z
Si Si1 0.679342 0.483756 0.642737
Si Si2 0.649990 0.071216 0.359472
Si Si3 0.577976 0.229387 0.599690
Si Si4 0.176709 0.905340 0.871458
Si Si5 0.152708 0.907982 0.166475
Si Si6 0.524353 0.711448 0.810245
Si Si7 0.007884 0.339375 0.691498
Si Si8 0.926566 0.548616 0.903374
O O1 0.675013 0.749963 0.454727
O O2 0.642188 0.271060 0.666507
O O3 0.782797 0.350910 0.690252
O O4 0.620593 0.560173 0.766585
O O5 0.644189 0.142199 0.482476
O O6 0.726817 0.180850 0.211027
O O7 0.550871 0.211820 0.294919
O O8 0.500000 0.500000 0.500000
O O9 0.533252 0.988597 0.759074
O O10 0.132330 0.661711 0.976370
O O11 0.193677 0.962086 0.988811
O O12 0.112072 0.172721 0.730391
O O13 0.053263 0.868706 0.203772
O O14 0.143128 0.159226 0.163396
O O15 0.500000 0.500000 0.000000
O O16 0.000000 0.500000 0.500000
O O17 0.975238 0.537264 0.747382
O O18 0.000000 0.500000 0.000000
#
# Coordination Sequence:
#
# PCOD8030289 Si02
#       8
#     2   2   2   2   2   2   2   2
#     4  11  23  41  65  93 127 168 215 269 321 386
#     4  11  23  41  65  93 130 168 215 267 326 388
#     4  11  21  44  66  89 130 174 212 267 329 381
#     4  11  23  41  65  93 130 168 215 267 326 388
#     4  11  23  41  65  93 127 168 215 269 321 386
#     4  11  23  41  66  92 129 170 213 265 327 394
#     4  11  23  41  66  92 129 170 213 265 327 394
#     4  11  21  44  66  89 130 174 212 267 329 381
#
# _framework density 20.127445000000002
#
# number of rings (size 3 to 8) (size 9 to 14) (size 15 to 20)
#    0.000    1.000    5.000    3.000    0.000    8.000 
#    4.500    0.000    0.000    0.000    0.000    0.000 
#    0.000    0.000    0.000    0.000    0.000    0.000 
#
# Total GULP energy -198453.127231 kJ/mol
# GULP energy per Si atom -12403.320452 kJ/mol
# Density = 2.008163 g / cm^3
# Si number density = 20.127445 Si / 1000 Ang^3
#
#
#
# Elastic Constant Matrix: (Units=GPa)
#
#
# Indices 1 2 3 4 5 6 
#
# 1 64.3429 27.3699 8.4622 1.9261 1.4128 -0.6564
# 2 27.3699 125.1524 38.3508 -0.1490 -1.5627 6.6331
# 3 8.4622 38.3508 102.9963 0.4623 -4.7791 5.9189
# 4 1.9261 -0.1490 0.4623 29.4578 -5.8427 4.2364
# 5 1.4128 -1.5627 -4.7791 -5.8427 38.3411 -1.4104
# 6 -0.6564 6.6331 5.9189 4.2364 -1.4104 36.7789
#
#
#
# Elastic Compliance Matrix: (Units=1/GPa)
#
#
# Indices 1 2 3 4 5 6 
#
# 1 0.017258 -0.003818 -0.000101 -0.001508 -0.000992 0.001149
# 2 -0.003818 0.009910 -0.003291 0.000585 0.000173 -0.001387
# 3 -0.000101 -0.003291 0.011067 0.000230 0.001241 -0.001168
# 4 -0.001508 0.000585 0.000230 0.035702 0.005399 -0.004075
# 5 -0.000992 0.000173 0.001241 0.005399 0.027109 0.000169
# 6 0.001149 -0.001387 -0.001168 -0.004075 0.000169 0.028124
#
#
# Mechanical properties :
#
#
# Convention : Reuss Voigt Hill
#
# Bulk Modulus (GPa) = 41.99419 48.98416 45.48917
# Shear Modulus (GPa) = 32.99711 35.46947 34.23329
#
# Velocity S-wave (km/s) = 4.05335 4.20246 4.12858
# Velocity P-wave (km/s) = 6.54337 6.92369 6.73621
#
# Compressibility (1/GPa) = 0.02381282
#
# Stress axis : x y z
#
# Youngs Moduli (GPa) = 57.94467 100.90661 90.36174
#
# Poissons Ratio (x) = 0.38527 0.00917
# Poissons Ratio (y) = 0.22124 0.29741
# Poissons Ratio (z) = 0.00588 0.33211
#
# Static dielectric constant tensor:
#      x y z
#    x 3.720710 0.018770 0.024960 
#    y 0.018770 3.945490 -0.015260 
#    z 0.024960 -0.015260 3.644670 
# 
# 
# High freq. dielectric constant tensor:
#      x y z
#    x 1.788920 -0.003640 0.004350 
#    y -0.003640 1.795040 -0.001990 
#    z 0.004350 -0.001990 1.781660 
# 
# From -- ./inp_files/53640.got.cif
#   From: 2010.06.25/outbox.cif.g09.slc.cpg/sg2_27_cif.got.tgz:53640.got - 2010.06.27 13:26:56.
