data_PCOD8030326
_publ_section_title
;
Structure prediction by ZEFSAII (Michael W. Deem and Ramdas Pophale) SiO2 
 PCOD8030326
Probable space group: P -1
;
_chemical_formula_sum "Si O2"
_cell_formula_units_Z 16
_cell_length_a 11.460705
_cell_length_b 15.225536
_cell_length_c 8.603937
_cell_angle_alpha 52.718414
_cell_angle_beta 38.953695
_cell_angle_gamma 49.519804
_cell_volume 701.787038
_symmetry_space_group_name_H-M "P -1"
_symmetry_group_IT_number 2
_symmetry_cell_setting 'triclinic'
loop_
_space_group_symop_operation_xyz
x,y,z
-x,-y,-z
loop_
_atom_site_type_symbol
_atom_site_label
_atom_site_fract_x
_atom_site_fract_y
_atom_site_fract_z
Si Si1 0.648357 0.595701 0.419865
Si Si2 0.745207 0.658089 0.925395
Si Si3 0.949695 0.226371 0.136219
Si Si4 0.176244 0.666250 0.529242
Si Si5 0.625325 0.183714 0.364235
Si Si6 0.037499 0.556210 0.241997
Si Si7 0.375298 0.049906 0.920276
Si Si8 0.370850 0.827621 0.991385
O O1 0.651232 0.461732 0.544368
O O2 0.484976 0.678164 0.620164
O O3 0.862941 0.580753 0.274629
O O4 0.630774 0.661077 0.202382
O O5 0.769183 0.536971 0.940048
O O6 0.603306 0.764019 0.855526
O O7 0.957798 0.672039 0.701232
O O8 0.817866 0.307916 0.322103
O O9 0.839009 0.140824 0.276727
O O10 0.166371 0.154472 0.059914
O O11 0.944545 0.314664 0.900837
O O12 0.229158 0.763577 0.274537
O O13 0.662034 0.166938 0.162925
O O14 0.505736 0.101283 0.623668
O O15 0.000000 0.500000 0.500000
O O16 0.500000 0.000000 0.000000
O O17 0.311578 0.956136 0.990863
#
# Coordination Sequence:
#
# PCOD8030326 Si02
#       8
#     2   2   2   2   2   2   2   2
#     4  11  21  44  70 102 148 185 233 287 350 423
#     4  11  22  43  71 100 144 187 233 288 348 415
#     4  12  25  45  75 104 141 186 238 285 352 422
#     4  11  23  42  69 107 136 183 238 287 347 422
#     4  12  28  45  69 106 141 184 233 293 355 416
#     4  11  22  39  69 107 147 184 223 291 360 415
#     4  12  27  53  76  98 137 187 245 292 346 415
#     4  12  29  44  70 105 142 187 235 292 351 415
#
# _framework density 22.798940000000002
#
# number of rings (size 3 to 8) (size 9 to 14) (size 15 to 20)
#    0.000    0.500    3.750    4.875    5.250    5.000 
#    0.000    0.000    0.000    0.000    0.000    0.000 
#    0.000    0.000    0.000    0.000    0.000    0.000 
#
# Total GULP energy -198375.601254 kJ/mol
# GULP energy per Si atom -12398.475078 kJ/mol
# Density = 2.274705 g / cm^3
# Si number density = 22.798940 Si / 1000 Ang^3
#
#
#
# Elastic Constant Matrix: (Units=GPa)
#
#
# Indices 1 2 3 4 5 6 
#
# 1 84.6273 32.5659 36.5639 -1.8736 4.9880 11.5728
# 2 32.5659 108.5702 50.8560 -11.6555 8.8951 15.4030
# 3 36.5639 50.8560 124.0715 -13.0867 1.3527 9.5852
# 4 -1.8736 -11.6555 -13.0867 32.5351 8.6232 -0.2229
# 5 4.9880 8.8951 1.3527 8.6232 33.8014 0.8357
# 6 11.5728 15.4030 9.5852 -0.2229 0.8357 33.9535
#
#
#
# Elastic Compliance Matrix: (Units=1/GPa)
#
#
# Indices 1 2 3 4 5 6 
#
# 1 0.014578 -0.002520 -0.003140 -0.001077 -0.001016 -0.002921
# 2 -0.002520 0.013058 -0.003851 0.003972 -0.003828 -0.003857
# 3 -0.003140 -0.003851 0.010865 0.002714 0.000356 -0.000241
# 4 -0.001077 0.003972 0.002714 0.035853 -0.010099 -0.001717
# 5 -0.001016 -0.003828 0.000356 -0.010099 0.033277 0.001097
# 6 -0.002921 -0.003857 -0.000241 -0.001717 0.001097 0.032227
#
#
# Mechanical properties :
#
#
# Convention : Reuss Voigt Hill
#
# Bulk Modulus (GPa) = 51.33815 61.91562 56.62689
# Shear Modulus (GPa) = 30.23457 33.21021 31.72239
#
# Velocity S-wave (km/s) = 3.64557 3.82076 3.73419
# Velocity P-wave (km/s) = 6.34720 6.83231 6.59422
#
# Compressibility (1/GPa) = 0.01947869
#
# Stress axis : x y z
#
# Youngs Moduli (GPa) = 68.59420 76.58385 92.04087
#
# Poissons Ratio (x) = 0.19298 0.28903
# Poissons Ratio (y) = 0.17285 0.35444
# Poissons Ratio (z) = 0.21540 0.29492
#
# Static dielectric constant tensor:
#      x y z
#    x 4.210020 0.055970 -0.050190 
#    y 0.055970 4.430570 -0.162830 
#    z -0.050190 -0.162830 4.167780 
# 
# 
# High freq. dielectric constant tensor:
#      x y z
#    x 1.908190 0.003280 -0.009540 
#    y 0.003280 1.901880 -0.001790 
#    z -0.009540 -0.001790 1.899840 
# 
# From -- ./inp_files/271705.got.cif
#   From: 2010.06.25/outbox.cif.g09.slc.cpg/sg2_136_cif.got.tgz:271705.got - 2010.06.27 13:26:56.
