data_PCOD8030974
_publ_section_title
;
Structure prediction by ZEFSAII (Michael W. Deem and Ramdas Pophale) SiO2 
 PCOD8030974
Probable space group: P -1
;
_chemical_formula_sum "Si O2"
_cell_formula_units_Z 16
_cell_length_a 11.947498
_cell_length_b 21.894922
_cell_length_c 12.525920
_cell_angle_alpha 144.711612
_cell_angle_beta 149.280365
_cell_angle_gamma 26.335463
_cell_volume 727.233222
_symmetry_space_group_name_H-M "P -1"
_symmetry_group_IT_number 2
_symmetry_cell_setting 'triclinic'
loop_
_space_group_symop_operation_xyz
x,y,z
-x,-y,-z
loop_
_atom_site_type_symbol
_atom_site_label
_atom_site_fract_x
_atom_site_fract_y
_atom_site_fract_z
Si Si1 0.220261 0.110388 0.601357
Si Si2 0.298290 0.258135 0.169682
Si Si3 0.181481 0.185606 0.296264
Si Si4 0.088978 0.859500 0.817301
Si Si5 0.075517 0.973136 0.644440
Si Si6 0.135384 0.743130 0.076099
Si Si7 0.307624 0.352386 0.542557
Si Si8 0.248461 0.338618 0.009353
O O1 0.153622 0.255175 0.766148
O O2 0.151192 0.087547 0.394674
O O3 0.000839 0.119542 0.511933
O O4 0.556891 0.982943 0.728630
O O5 0.593408 0.100552 0.161729
O O6 0.374388 0.297884 0.397101
O O7 0.236694 0.348399 0.143010
O O8 0.039900 0.256136 0.969923
O O9 0.325208 0.256437 0.513869
O O10 0.953397 0.225281 0.257057
O O11 0.985770 0.262238 0.139959
O O12 0.421708 0.745386 0.884297
O O13 0.000000 0.000000 0.000000
O O14 0.000000 0.000000 0.500000
O O15 0.886345 0.122987 0.758817
O O16 0.478085 0.620174 0.205475
O O17 0.000000 0.500000 0.500000
O O18 0.000000 0.500000 0.000000
#
# Coordination Sequence:
#
# PCOD8030974 Si02
#       8
#     2   2   2   2   2   2   2   2
#     4  12  24  45  72 103 143 185 247 300 361 427
#     4  11  24  44  66 104 139 184 233 291 361 431
#     4  11  24  42  71 103 130 186 235 294 361 427
#     4  12  26  46  73 104 145 190 247 303 356 430
#     4  12  19  38  70 101 132 174 222 294 355 415
#     4  11  22  41  70 100 139 171 229 292 362 417
#     4  11  26  44  68 101 140 186 233 294 363 434
#     4  12  29  47  70 105 144 197 247 300 364 429
#
# _framework density 22.001194999999999
#
# number of rings (size 3 to 8) (size 9 to 14) (size 15 to 20)
#    0.000    0.500    5.000    3.750    0.000    5.500 
#    0.000    0.000    0.000    0.000    0.000    0.000 
#    0.000    0.000    0.000    0.000    0.000    0.000 
#
# Total GULP energy -198226.857322 kJ/mol
# GULP energy per Si atom -12389.178583 kJ/mol
# Density = 2.195112 g / cm^3
# Si number density = 22.001195 Si / 1000 Ang^3
#
#
#
# Elastic Constant Matrix: (Units=GPa)
#
#
# Indices 1 2 3 4 5 6 
#
# 1 173.2234 46.0649 48.2927 -16.0229 20.2104 15.4655
# 2 46.0649 113.5448 28.3450 -26.5357 12.1423 1.5642
# 3 48.2927 28.3450 96.8660 -22.2849 16.7398 -2.2821
# 4 -16.0229 -26.5357 -22.2849 37.6343 -5.9436 5.7299
# 5 20.2104 12.1423 16.7398 -5.9436 43.5365 -9.0072
# 6 15.4655 1.5642 -2.2821 5.7299 -9.0072 33.1406
#
#
#
# Elastic Compliance Matrix: (Units=1/GPa)
#
#
# Indices 1 2 3 4 5 6 
#
# 1 0.007902 -0.001998 -0.002841 0.000524 -0.002913 -0.004671
# 2 -0.001998 0.011542 -0.000582 0.006912 -0.001377 -0.001222
# 3 -0.002841 -0.000582 0.013810 0.006027 -0.002909 0.000472
# 4 0.000524 0.006912 0.006027 0.036102 -0.000936 -0.006652
# 5 -0.002913 -0.001377 -0.002909 -0.000936 0.027531 0.008869
# 6 -0.004671 -0.001222 0.000472 -0.006652 0.008869 0.036005
#
#
# Mechanical properties :
#
#
# Convention : Reuss Voigt Hill
#
# Bulk Modulus (GPa) = 44.61770 69.89325 57.25548
# Shear Modulus (GPa) = 33.06768 40.25771 36.66269
#
# Velocity S-wave (km/s) = 3.88105 4.28225 4.08658
# Velocity P-wave (km/s) = 6.35666 7.50248 6.95321
#
# Compressibility (1/GPa) = 0.02241263
#
# Stress axis : x y z
#
# Youngs Moduli (GPa) = 126.55586 86.63727 72.40940
#
# Poissons Ratio (x) = 0.17311 0.20569
# Poissons Ratio (y) = 0.25287 0.04215
# Poissons Ratio (z) = 0.35950 0.05043
#
# Static dielectric constant tensor:
#      x y z
#    x 4.009650 0.048350 -0.024000 
#    y 0.048350 3.973190 -0.273090 
#    z -0.024000 -0.273090 3.887730 
# 
# 
# High freq. dielectric constant tensor:
#      x y z
#    x 1.878380 0.004050 0.014630 
#    y 0.004050 1.852480 -0.018660 
#    z 0.014630 -0.018660 1.876800 
# 
# From -- ./inp_files/118703.got.cif
#   From: 2010.06.25/outbox.cif.g09.slc.cpg/sg2_60_cif.got.tgz:118703.got - 2010.06.27 13:26:56.
