data_PCOD8030573
_publ_section_title
;
Structure prediction by ZEFSAII (Michael W. Deem and Ramdas Pophale) SiO2 
 PCOD8030573
Probable space group: P -1
;
_chemical_formula_sum "Si O2"
_cell_formula_units_Z 14
_cell_length_a 16.441062
_cell_length_b 15.941216
_cell_length_c 4.907387
_cell_angle_alpha 58.148025
_cell_angle_beta 117.892483
_cell_angle_gamma 147.577183
_cell_volume 585.051812
_symmetry_space_group_name_H-M "P -1"
_symmetry_group_IT_number 2
_symmetry_cell_setting 'triclinic'
loop_
_space_group_symop_operation_xyz
x,y,z
-x,-y,-z
loop_
_atom_site_type_symbol
_atom_site_label
_atom_site_fract_x
_atom_site_fract_y
_atom_site_fract_z
Si Si1 0.291336 0.579702 0.248539
Si Si2 0.181598 0.908131 0.887577
Si Si3 0.498288 0.070122 0.127273
Si Si4 0.753654 0.637708 0.869040
Si Si5 0.288262 0.203105 0.722607
Si Si6 0.485664 0.365098 0.254088
Si Si7 0.987656 0.718833 0.388998
O O1 0.272890 0.482441 0.148354
O O2 0.410929 0.646200 0.554964
O O3 0.130087 0.460150 0.355748
O O4 0.350412 0.733345 0.957735
O O5 0.119426 0.854278 0.577861
O O6 0.179740 0.020781 0.783516
O O7 0.072242 0.752872 0.188486
O O8 0.351672 0.014357 0.984273
O O9 0.500000 0.000000 0.500000
O O10 0.500000 0.000000 0.000000
O O11 0.796928 0.765054 0.517223
O O12 0.605299 0.544471 0.987469
O O13 0.891067 0.734501 0.128576
O O14 0.441065 0.341324 0.540752
O O15 0.336817 0.225917 0.072179
#
# Coordination Sequence:
#
# PCOD8030573 Si02
#       7
#     2   2   2   2   2   2   2
#     4  11  25  48  72 103 144 184 235 291 348 420
#     4  12  25  49  69 106 145 185 231 296 344 414
#     4  12  29  49  81 107 132 174 238 301 363 415
#     4  11  24  41  69 103 146 197 233 276 338 420
#     4  12  25  37  69 105 146 187 243 283 338 400
#     4  11  22  38  64  99 140 184 237 291 340 392
#     4  11  26  45  73  98 154 193 225 275 359 412
#
# _framework density 23.929506
#
# number of rings (size 3 to 8) (size 9 to 14) (size 15 to 20)
#    0.000    0.571    4.286    2.571   10.000    1.143 
#    0.000    4.286    0.000    0.000    0.000    0.000 
#    0.000    0.000    0.000    0.000    0.000    0.000 
#
# Total GULP energy -173531.817824 kJ/mol
# GULP energy per Si atom -12395.129845 kJ/mol
# Density = 2.387504 g / cm^3
# Si number density = 23.929506 Si / 1000 Ang^3
#
#
#
# Elastic Constant Matrix: (Units=GPa)
#
#
# Indices 1 2 3 4 5 6 
#
# 1 80.6864 33.9431 17.6926 -12.8539 -18.6413 -0.3223
# 2 33.9431 87.1102 56.0554 -13.5131 11.3289 1.2954
# 3 17.6926 56.0554 130.0719 3.7164 -6.4729 -16.4114
# 4 -12.8539 -13.5131 3.7164 48.9788 -0.8089 -3.7001
# 5 -18.6413 11.3289 -6.4729 -0.8089 36.0675 -6.8103
# 6 -0.3223 1.2954 -16.4114 -3.7001 -6.8103 40.3783
#
#
#
# Elastic Compliance Matrix: (Units=1/GPa)
#
#
# Indices 1 2 3 4 5 6 
#
# 1 0.021093 -0.012668 0.004010 0.002406 0.016642 0.005232
# 2 -0.012668 0.027645 -0.012374 0.004260 -0.019025 -0.008836
# 3 0.004010 -0.012374 0.013991 -0.002692 0.009831 0.007527
# 4 0.002406 0.004260 -0.002692 0.022495 0.000090 0.000865
# 5 0.016642 -0.019025 0.009831 0.000090 0.046445 0.012581
# 6 0.005232 -0.008836 0.007527 0.000865 0.012581 0.030351
#
#
# Mechanical properties :
#
#
# Convention : Reuss Voigt Hill
#
# Bulk Modulus (GPa) = 48.39221 57.02785 52.71003
# Shear Modulus (GPa) = 23.69973 37.76340 30.73156
#
# Velocity S-wave (km/s) = 3.15047 3.97685 3.58754
# Velocity P-wave (km/s) = 5.78798 6.70600 6.26383
#
# Compressibility (1/GPa) = 0.02066448
#
# Stress axis : x y z
#
# Youngs Moduli (GPa) = 47.40935 36.17290 71.47408
#
# Poissons Ratio (x) = 0.45825 -0.28661
# Poissons Ratio (y) = 0.60060 0.88441
# Poissons Ratio (z) = -0.19011 0.44760
#
# Static dielectric constant tensor:
#      x y z
#    x 4.288620 0.326450 -0.184010 
#    y 0.326450 4.241030 -0.064640 
#    z -0.184010 -0.064640 4.656470 
# 
# 
# High freq. dielectric constant tensor:
#      x y z
#    x 1.928930 0.017500 -0.023570 
#    y 0.017500 1.939540 0.006600 
#    z -0.023570 0.006600 1.969800 
# 
# From -- ./inp_files/111330.got.cif
#   From: 2010.06.25/outbox.cif.g09.slc.cpg/sg2_56_cif.got.tgz:111330.got - 2010.06.27 13:26:56.
