data_PCOD8030193
_publ_section_title
;
Structure prediction by ZEFSAII (Michael W. Deem and Ramdas Pophale) SiO2 
 PCOD8030193
Probable space group: P -1
;
_chemical_formula_sum "Si O2"
_cell_formula_units_Z 16
_cell_length_a 11.134283
_cell_length_b 15.510258
_cell_length_c 15.694661
_cell_angle_alpha 38.010859
_cell_angle_beta 63.479384
_cell_angle_gamma 34.160774
_cell_volume 753.890165
_symmetry_space_group_name_H-M "P -1"
_symmetry_group_IT_number 2
_symmetry_cell_setting 'triclinic'
loop_
_space_group_symop_operation_xyz
x,y,z
-x,-y,-z
loop_
_atom_site_type_symbol
_atom_site_label
_atom_site_fract_x
_atom_site_fract_y
_atom_site_fract_z
Si Si1 0.573074 0.222659 0.029559
Si Si2 0.881802 0.304152 0.508592
Si Si3 0.190921 0.303062 0.361083
Si Si4 0.467748 0.873520 0.229160
Si Si5 0.879884 0.421556 0.976889
Si Si6 0.894872 0.679457 0.313827
Si Si7 0.906021 0.115883 0.113013
Si Si8 0.528336 0.304384 0.790062
O O1 0.345868 0.354435 0.055403
O O2 0.677355 0.273702 0.997281
O O3 0.837232 0.888306 0.200636
O O4 0.447375 0.359096 0.870606
O O5 0.661132 0.571383 0.436085
O O6 0.708667 0.392535 0.416569
O O7 0.053396 0.277176 0.436720
O O8 0.068680 0.021576 0.712318
O O9 0.105493 0.452292 0.183484
O O10 0.114004 0.476609 0.327910
O O11 0.500000 0.000000 0.500000
O O12 0.610415 0.886309 0.203929
O O13 0.451556 0.863225 0.138187
O O14 0.166058 0.141497 0.150881
O O15 0.806011 0.352098 0.998673
O O16 0.000000 0.500000 0.500000
O O17 0.189329 0.871928 0.166891
#
# Coordination Sequence:
#
# PCOD8030193 Si02
#       8
#     2   2   2   2   2   2   2   2
#     4  12  24  38  62  99 130 164 220 272 310 379
#     4   9  20  40  70  88 123 168 216 255 321 388
#     4  11  23  42  65  94 129 168 210 260 333 384
#     4   8  20  39  63  87 127 167 211 250 329 374
#     4  11  24  40  66  94 131 173 214 262 325 382
#     4  11  22  39  62  93 128 168 216 264 317 381
#     4  11  21  43  68  90 126 177 218 260 325 383
#     4   9  21  38  64  91 121 165 214 261 315 377
#
# _framework density 21.223251999999999
#
# number of rings (size 3 to 8) (size 9 to 14) (size 15 to 20)
#    0.750    1.000    0.000    5.625    1.750    2.000 
#    2.250    0.625    0.000    0.000    0.000    0.000 
#    0.000    0.000    0.000    0.000    0.000    0.000 
#
# Total GULP energy -198247.341788 kJ/mol
# GULP energy per Si atom -12390.458862 kJ/mol
# Density = 2.117495 g / cm^3
# Si number density = 21.223252 Si / 1000 Ang^3
#
#
#
# Elastic Constant Matrix: (Units=GPa)
#
#
# Indices 1 2 3 4 5 6 
#
# 1 76.6770 32.4624 17.4880 0.1603 9.1369 -6.1431
# 2 32.4624 130.2886 24.4779 -0.9905 7.1397 -1.8724
# 3 17.4880 24.4779 67.4399 7.4482 -0.0191 1.7224
# 4 0.1603 -0.9905 7.4482 39.2644 -2.2312 5.7571
# 5 9.1369 7.1397 -0.0191 -2.2312 29.6327 0.1723
# 6 -6.1431 -1.8724 1.7224 5.7571 0.1723 27.1678
#
#
#
# Elastic Compliance Matrix: (Units=1/GPa)
#
#
# Indices 1 2 3 4 5 6 
#
# 1 0.015839 -0.003096 -0.003041 -0.000340 -0.004187 0.003659
# 2 -0.003096 0.008990 -0.002532 0.000661 -0.001163 -0.000053
# 3 -0.003041 -0.002532 0.016900 -0.002989 0.001341 -0.001309
# 4 -0.000340 0.000661 -0.002989 0.026985 0.002008 -0.005573
# 5 -0.004187 -0.001163 0.001341 0.002008 0.035480 -0.001762
# 6 0.003659 -0.000053 -0.001309 -0.005573 -0.001762 0.038907
#
#
# Mechanical properties :
#
#
# Convention : Reuss Voigt Hill
#
# Bulk Modulus (GPa) = 40.99838 47.02911 44.01375
# Shear Modulus (GPa) = 29.66162 32.54480 31.10321
#
# Velocity S-wave (km/s) = 3.74250 3.92018 3.83237
# Velocity P-wave (km/s) = 6.16723 6.53435 6.35344
#
# Compressibility (1/GPa) = 0.02439120
#
# Stress axis : x y z
#
# Youngs Moduli (GPa) = 63.13700 111.23020 59.17312
#
# Poissons Ratio (x) = 0.34433 0.17992
# Poissons Ratio (y) = 0.19545 0.14985
# Poissons Ratio (z) = 0.19197 0.28168
#
# Static dielectric constant tensor:
#      x y z
#    x 3.902720 -0.089860 0.107450 
#    y -0.089860 3.785020 -0.130790 
#    z 0.107450 -0.130790 3.767190 
# 
# 
# High freq. dielectric constant tensor:
#      x y z
#    x 1.829640 -0.011570 0.009430 
#    y -0.011570 1.819470 -0.009410 
#    z 0.009430 -0.009410 1.821350 
# 
# From -- ./inp_files/570331.got.cif
#   From: 2010.06.25/outbox.cif.g09.slc.cpg/sg2_286_cif.got.tgz:570331.got - 2010.06.27 13:26:56.
