data_PCOD8030475
_publ_section_title
;
Structure prediction by ZEFSAII (Michael W. Deem and Ramdas Pophale) SiO2 
 PCOD8030475
Probable space group: P -1
;
_chemical_formula_sum "Si O2"
_cell_formula_units_Z 16
_cell_length_a 19.273213
_cell_length_b 9.054603
_cell_length_c 12.309176
_cell_angle_alpha 133.454527
_cell_angle_beta 44.474193
_cell_angle_gamma 150.941433
_cell_volume 717.888934
_symmetry_space_group_name_H-M "P -1"
_symmetry_group_IT_number 2
_symmetry_cell_setting 'triclinic'
loop_
_space_group_symop_operation_xyz
x,y,z
-x,-y,-z
loop_
_atom_site_type_symbol
_atom_site_label
_atom_site_fract_x
_atom_site_fract_y
_atom_site_fract_z
Si Si1 0.289148 0.535483 0.063910
Si Si2 0.174865 0.194078 0.690520
Si Si3 0.876561 0.077394 0.157552
Si Si4 0.211402 0.633740 0.001937
Si Si5 0.392490 0.570236 0.456817
Si Si6 0.717545 0.216915 0.424407
Si Si7 0.905586 0.551751 0.598023
Si Si8 0.441993 0.320577 0.085957
O O1 0.325235 0.701950 0.994129
O O2 0.233860 0.619538 0.252881
O O3 0.439543 0.661883 0.998636
O O4 0.153055 0.161979 0.007578
O O5 0.312786 0.337860 0.530778
O O6 0.175438 0.056898 0.729243
O O7 0.193373 0.463164 0.830336
O O8 0.020233 0.919654 0.658556
O O9 0.776884 0.110074 0.239058
O O10 0.051198 0.410022 0.128316
O O11 0.282254 0.961631 0.058437
O O12 0.281630 0.579771 0.546364
O O13 0.419406 0.457788 0.270882
O O14 0.547741 0.908306 0.497522
O O15 0.836508 0.425937 0.493343
O O16 0.000000 0.500000 0.500000
O O17 0.500000 0.500000 0.000000
#
# Coordination Sequence:
#
# PCOD8030475 Si02
#       8
#     2   2   2   2   2   2   2   2
#     4  11  22  45  71  99 140 179 232 284 342 414
#     4  11  24  43  71 107 141 176 230 291 348 414
#     4  11  21  48  71 102 138 183 230 287 348 414
#     4  11  24  45  73 102 138 182 231 288 351 408
#     4  11  28  47  66 102 144 184 238 283 347 418
#     4  11  25  46  70  94 147 191 225 287 353 409
#     4  12  23  42  73 106 141 179 228 292 347 410
#     4  12  28  48  70  99 137 187 238 285 341 416
#
# _framework density 22.287569999999999
#
# number of rings (size 3 to 8) (size 9 to 14) (size 15 to 20)
#    0.000    0.750    5.000    1.875    8.750    1.000 
#    2.250    1.250    0.000    0.000    0.000    0.000 
#    0.000    0.000    0.000    0.000    0.000    0.000 
#
# Total GULP energy -198400.245160 kJ/mol
# GULP energy per Si atom -12400.015322 kJ/mol
# Density = 2.223684 g / cm^3
# Si number density = 22.287570 Si / 1000 Ang^3
#
#
#
# Elastic Constant Matrix: (Units=GPa)
#
#
# Indices 1 2 3 4 5 6 
#
# 1 100.8436 36.4142 40.2823 -8.7470 -18.8026 7.4895
# 2 36.4142 125.7267 33.6732 -2.4571 7.4608 -13.1043
# 3 40.2823 33.6732 119.2111 -13.3028 -6.9498 -16.4411
# 4 -8.7470 -2.4571 -13.3028 38.1677 -1.2317 3.9303
# 5 -18.8026 7.4608 -6.9498 -1.2317 33.4555 1.8654
# 6 7.4895 -13.1043 -16.4411 3.9303 1.8654 27.3887
#
#
#
# Elastic Compliance Matrix: (Units=1/GPa)
#
#
# Indices 1 2 3 4 5 6 
#
# 1 0.016771 -0.005303 -0.004730 0.003336 0.010370 -0.011148
# 2 -0.005303 0.010742 -0.000854 -0.001708 -0.005991 0.006730
# 3 -0.004730 -0.000854 0.011469 0.002072 -0.000427 0.007501
# 4 0.003336 -0.001708 0.002072 0.028201 0.003992 -0.004804
# 5 0.010370 -0.005991 -0.000427 0.003992 0.037620 -0.009094
# 6 -0.011148 0.006730 0.007501 -0.004804 -0.009094 0.048591
#
#
# Mechanical properties :
#
#
# Convention : Reuss Voigt Hill
#
# Bulk Modulus (GPa) = 58.11017 62.94675 60.52846
# Shear Modulus (GPa) = 27.63896 35.49648 31.56772
#
# Velocity S-wave (km/s) = 3.52533 3.99514 3.76757
# Velocity P-wave (km/s) = 6.53454 7.04172 6.79286
#
# Compressibility (1/GPa) = 0.01720869
#
# Stress axis : x y z
#
# Youngs Moduli (GPa) = 59.62532 93.09272 87.19280
#
# Poissons Ratio (x) = 0.49365 0.41241
# Poissons Ratio (y) = 0.31618 0.07447
# Poissons Ratio (z) = 0.28202 0.07951
#
# Static dielectric constant tensor:
#      x y z
#    x 4.007040 0.054260 -0.108150 
#    y 0.054260 4.182250 0.250900 
#    z -0.108150 0.250900 4.147060 
# 
# 
# High freq. dielectric constant tensor:
#      x y z
#    x 1.861260 0.009880 -0.005730 
#    y 0.009880 1.885150 0.010260 
#    z -0.005730 0.010260 1.887470 
# 
# From -- ./inp_files/462449.got.cif
#   From: 2010.06.25/outbox.cif.g09.slc.cpg/sg2_232_cif.got.tgz:462449.got - 2010.06.27 13:26:56.
