data_PCOD8030695
_publ_section_title
;
Structure prediction by ZEFSAII (Michael W. Deem and Ramdas Pophale) SiO2 
 PCOD8030695
Probable space group: P -1
;
_chemical_formula_sum "Si O2"
_cell_formula_units_Z 16
_cell_length_a 27.752743
_cell_length_b 11.523582
_cell_length_c 9.693098
_cell_angle_alpha 139.748038
_cell_angle_beta 26.866318
_cell_angle_gamma 149.468505
_cell_volume 711.495474
_symmetry_space_group_name_H-M "P -1"
_symmetry_group_IT_number 2
_symmetry_cell_setting 'triclinic'
loop_
_space_group_symop_operation_xyz
x,y,z
-x,-y,-z
loop_
_atom_site_type_symbol
_atom_site_label
_atom_site_fract_x
_atom_site_fract_y
_atom_site_fract_z
Si Si1 0.604921 0.411277 0.281778
Si Si2 0.256201 0.632528 0.881173
Si Si3 0.307688 0.988034 0.665134
Si Si4 0.712959 0.919165 0.492825
Si Si5 0.581506 0.289234 0.919284
Si Si6 0.634463 0.552447 0.758720
Si Si7 0.026560 0.818211 0.752215
Si Si8 0.195260 0.929703 0.186614
O O1 0.687033 0.340145 0.085589
O O2 0.445901 0.241391 0.575444
O O3 0.667385 0.665706 0.399689
O O4 0.624633 0.404447 0.063340
O O5 0.338212 0.594080 0.532902
O O6 0.283986 0.864603 0.972274
O O7 0.095924 0.424234 0.093316
O O8 0.238279 0.992518 0.708247
O O9 0.344072 0.817681 0.401831
O O10 0.197466 0.900732 0.989902
O O11 0.835840 0.094638 0.439747
O O12 0.581854 0.908956 0.848579
O O13 0.627629 0.490616 0.879416
O O14 0.749991 0.818802 0.684291
O O15 0.500000 0.500000 0.000000
O O16 0.047012 0.782329 0.505488
O O17 0.000000 0.000000 0.000000
#
# Coordination Sequence:
#
# PCOD8030695 Si02
#       8
#     2   2   2   2   2   2   2   2
#     4  11  22  39  69  99 138 172 221 264 346 401
#     4  12  26  45  68 101 132 182 227 275 330 403
#     4  11  24  41  67 104 136 173 218 278 344 402
#     4  11  22  43  70  97 135 182 219 272 337 400
#     4  11  23  42  66 104 140 170 218 277 341 407
#     4  12  24  42  69 104 139 170 218 284 339 400
#     4  12  25  48  68  95 132 182 234 275 326 395
#     4  12  25  44  69  95 138 176 227 275 336 397
#
# _framework density 22.487846000000001
#
# number of rings (size 3 to 8) (size 9 to 14) (size 15 to 20)
#    0.000    0.500    3.750    7.125    5.250    1.000 
#    0.000    2.500    0.000    0.000    0.000    0.000 
#    0.000    0.000    0.000    0.000    0.000    0.000 
#
# Total GULP energy -198419.981764 kJ/mol
# GULP energy per Si atom -12401.248860 kJ/mol
# Density = 2.243666 g / cm^3
# Si number density = 22.487846 Si / 1000 Ang^3
#
#
#
# Elastic Constant Matrix: (Units=GPa)
#
#
# Indices 1 2 3 4 5 6 
#
# 1 116.5532 32.3745 26.7396 -10.0081 15.7575 -18.1250
# 2 32.3745 55.0475 4.7609 -0.6951 8.7490 -4.9287
# 3 26.7396 4.7609 118.4772 -0.8445 20.6672 -4.4736
# 4 -10.0081 -0.6951 -0.8445 29.2518 -6.9710 -7.8676
# 5 15.7575 8.7490 20.6672 -6.9710 28.7507 -1.9637
# 6 -18.1250 -4.9287 -4.4736 -7.8676 -1.9637 40.7891
#
#
#
# Elastic Compliance Matrix: (Units=1/GPa)
#
#
# Indices 1 2 3 4 5 6 
#
# 1 0.012265 -0.006207 -0.001958 0.004993 -0.001849 0.005360
# 2 -0.006207 0.022418 0.001352 -0.002977 -0.005163 -0.000724
# 3 -0.001958 0.001352 0.010037 -0.002136 -0.007096 -0.000360
# 4 0.004993 -0.002977 -0.002136 0.040911 0.010308 0.010012
# 5 -0.001849 -0.005163 -0.007096 0.010308 0.045098 0.001936
# 6 0.005360 -0.000724 -0.000360 0.010012 0.001936 0.028795
#
#
# Mechanical properties :
#
#
# Convention : Reuss Voigt Hill
#
# Bulk Modulus (GPa) = 32.16091 46.42533 39.29312
# Shear Modulus (GPa) = 27.24542 34.83852 31.04197
#
# Velocity S-wave (km/s) = 3.48453 3.94028 3.71939
# Velocity P-wave (km/s) = 5.52465 6.43354 5.99634
#
# Compressibility (1/GPa) = 0.03109365
#
# Stress axis : x y z
#
# Youngs Moduli (GPa) = 81.52990 44.60685 99.63089
#
# Poissons Ratio (x) = 0.27689 0.19511
# Poissons Ratio (y) = 0.50609 -0.13473
# Poissons Ratio (z) = 0.15966 -0.06032
#
# Static dielectric constant tensor:
#      x y z
#    x 4.254730 -0.385960 0.112980 
#    y -0.385960 4.518670 0.346210 
#    z 0.112980 0.346210 4.213050 
# 
# 
# High freq. dielectric constant tensor:
#      x y z
#    x 1.890200 -0.026960 0.013090 
#    y -0.026960 1.877870 0.020420 
#    z 0.013090 0.020420 1.895460 
# 
# From -- ./inp_files/357077.got.cif
#   From: 2010.06.25/outbox.cif.g09.slc.cpg/sg2_179_cif.got.tgz:357077.got - 2010.06.27 13:26:56.
