data_PCOD8030713
_publ_section_title
;
Structure prediction by ZEFSAII (Michael W. Deem and Ramdas Pophale) SiO2 
 PCOD8030713
Probable space group: P -1
;
_chemical_formula_sum "Si O2"
_cell_formula_units_Z 16
_cell_length_a 10.913089
_cell_length_b 11.073702
_cell_length_c 13.847864
_cell_angle_alpha 32.614881
_cell_angle_beta 64.586995
_cell_angle_gamma 52.757553
_cell_volume 705.272981
_symmetry_space_group_name_H-M "P -1"
_symmetry_group_IT_number 2
_symmetry_cell_setting 'triclinic'
loop_
_space_group_symop_operation_xyz
x,y,z
-x,-y,-z
loop_
_atom_site_type_symbol
_atom_site_label
_atom_site_fract_x
_atom_site_fract_y
_atom_site_fract_z
Si Si1 0.203073 0.205513 0.359021
Si Si2 0.815761 0.921026 0.067162
Si Si3 0.732082 0.498126 0.446852
Si Si4 0.399684 0.777821 0.434693
Si Si5 0.934793 0.384219 0.178120
Si Si6 0.938886 0.960164 0.332738
Si Si7 0.836671 0.276240 0.960040
Si Si8 0.340699 0.090780 0.048591
O O1 0.174436 0.143586 0.519765
O O2 0.035225 0.325952 0.280791
O O3 0.335868 0.946205 0.438796
O O4 0.263469 0.413762 0.199532
O O5 0.747805 0.743091 0.247705
O O6 0.748438 0.177901 0.983907
O O7 0.762616 0.995844 0.923389
O O8 0.002785 0.772151 0.110931
O O9 0.586886 0.589158 0.509510
O O10 0.687756 0.387554 0.441027
O O11 0.890547 0.278697 0.590910
O O12 0.365638 0.963867 0.229398
O O13 0.951275 0.122079 0.308544
O O14 0.754695 0.597371 0.117679
O O15 0.000000 0.500000 0.000000
O O16 0.861465 0.132495 0.149724
O O17 0.500000 0.000000 0.000000
#
# Coordination Sequence:
#
# PCOD8030713 Si02
#       8
#     2   2   2   2   2   2   2   2
#     4  12  23  41  66  98 131 170 221 272 324 386
#     4  11  23  42  65  97 133 169 224 266 322 392
#     4  11  22  40  61 101 131 169 213 264 333 396
#     4  11  24  38  63 101 138 164 206 282 339 381
#     4  12  20  37  64  95 131 164 212 276 328 374
#     4  12  23  40  69  94 130 173 218 275 324 379
#     4  11  24  44  66  96 130 176 224 271 310 385
#     4  12  22  39  67  97 129 172 210 272 339 382
#
# _framework density 22.686252
#
# number of rings (size 3 to 8) (size 9 to 14) (size 15 to 20)
#    0.000    0.500    7.500    1.125    1.750    0.500 
#    2.250    0.625    0.000    0.750    0.000    0.000 
#    0.000    0.000    0.000    0.000    0.000    0.000 
#
# Total GULP energy -198414.748576 kJ/mol
# GULP energy per Si atom -12400.921786 kJ/mol
# Density = 2.263462 g / cm^3
# Si number density = 22.686252 Si / 1000 Ang^3
#
#
#
# Elastic Constant Matrix: (Units=GPa)
#
#
# Indices 1 2 3 4 5 6 
#
# 1 51.9868 34.7705 24.6231 -11.3133 -16.4138 6.5702
# 2 34.7705 121.1600 39.8752 -27.8479 -5.5476 -12.0752
# 3 24.6231 39.8752 104.8329 -4.2748 -18.9197 1.7595
# 4 -11.3133 -27.8479 -4.2748 42.3819 1.3209 -2.4661
# 5 -16.4138 -5.5476 -18.9197 1.3209 24.4941 -7.4965
# 6 6.5702 -12.0752 1.7595 -2.4661 -7.4965 36.9875
#
#
#
# Elastic Compliance Matrix: (Units=1/GPa)
#
#
# Indices 1 2 3 4 5 6 
#
# 1 0.031387 -0.007731 -0.001219 0.002391 0.016844 -0.004468
# 2 -0.007731 0.013785 -0.003902 0.007052 -0.003682 0.005783
# 3 -0.001219 -0.003902 0.012712 -0.001869 0.008179 -0.000129
# 4 0.002391 0.007052 -0.001869 0.028876 0.001481 0.004192
# 5 0.016844 -0.003682 0.008179 0.001481 0.059858 0.007647
# 6 -0.004468 0.005783 -0.000129 0.004192 0.007647 0.031553
#
#
# Mechanical properties :
#
#
# Convention : Reuss Voigt Hill
#
# Bulk Modulus (GPa) = 31.07535 52.94637 42.01086
# Shear Modulus (GPa) = 23.29929 32.68677 27.99303
#
# Velocity S-wave (km/s) = 3.20820 3.79993 3.51653
# Velocity P-wave (km/s) = 5.23937 6.53007 5.92000
#
# Compressibility (1/GPa) = 0.03217985
#
# Stress axis : x y z
#
# Youngs Moduli (GPa) = 31.86076 72.54459 78.66886
#
# Poissons Ratio (x) = 0.56081 0.09592
# Poissons Ratio (y) = 0.24630 0.30693
# Poissons Ratio (z) = 0.03885 0.28304
#
# Static dielectric constant tensor:
#      x y z
#    x 4.047930 0.067540 -0.255160 
#    y 0.067540 4.419860 -0.293810 
#    z -0.255160 -0.293810 4.371230 
# 
# 
# High freq. dielectric constant tensor:
#      x y z
#    x 1.852500 -0.001940 -0.016730 
#    y -0.001940 1.900150 -0.005280 
#    z -0.016730 -0.005280 1.909350 
# 
# From -- ./inp_files/451114.got.cif
#   From: 2010.06.25/outbox.cif.g09.slc.cpg/sg2_226_cif.got.tgz:451114.got - 2010.06.27 13:26:56.
