data_PCOD8030538
_publ_section_title
;
Structure prediction by ZEFSAII (Michael W. Deem and Ramdas Pophale) SiO2 
 PCOD8030538
Probable space group: P -1
;
_chemical_formula_sum "Si O2"
_cell_formula_units_Z 14
_cell_length_a 27.965870
_cell_length_b 28.327769
_cell_length_c 11.334264
_cell_angle_alpha 157.820772
_cell_angle_beta 158.912980
_cell_angle_gamma 10.237119
_cell_volume 569.826125
_symmetry_space_group_name_H-M "P -1"
_symmetry_group_IT_number 2
_symmetry_cell_setting 'triclinic'
loop_
_space_group_symop_operation_xyz
x,y,z
-x,-y,-z
loop_
_atom_site_type_symbol
_atom_site_label
_atom_site_fract_x
_atom_site_fract_y
_atom_site_fract_z
Si Si1 0.913562 0.226207 0.048475
Si Si2 0.472952 0.863838 0.224612
Si Si3 0.980630 0.296285 0.729942
Si Si4 0.843415 0.325208 0.855703
Si Si5 0.699964 0.316732 0.267931
Si Si6 0.566148 0.836689 0.118985
Si Si7 0.826687 0.770381 0.224162
O O1 0.091289 0.208533 0.427614
O O2 0.883753 0.215879 0.817143
O O3 0.606899 0.489747 0.015004
O O4 0.071422 0.981679 0.909923
O O5 0.640671 0.758406 0.246974
O O6 0.457894 0.996167 0.583425
O O7 0.651176 0.605413 0.098140
O O8 0.153754 0.096270 0.990146
O O9 0.758030 0.373245 0.432333
O O10 0.082748 0.215153 0.642558
O O11 0.826933 0.557383 0.003281
O O12 0.259525 0.033523 0.840556
O O13 0.684218 0.384431 0.521951
O O14 0.000000 0.500000 0.000000
O O15 0.500000 0.000000 0.000000
#
# Coordination Sequence:
#
# PCOD8030538 Si02
#       7
#     2   2   2   2   2   2   2
#     4  12  28  46  73 103 150 195 234 298 352 427
#     4  11  22  37  66 103 152 181 240 283 367 429
#     4  12  25  45  76 101 146 186 240 306 345 419
#     4  12  23  42  69 109 145 192 228 298 361 424
#     4  12  24  47  72 108 145 187 247 283 364 428
#     4  11  22  40  64 109 141 191 232 297 357 418
#     4  12  30  53  75 107 141 188 246 298 366 422
#
# _framework density 24.568899999999999
#
# number of rings (size 3 to 8) (size 9 to 14) (size 15 to 20)
#    0.000    0.286    2.857    6.000    6.000    3.429 
#    0.000    0.000    0.000    0.000    0.000    0.000 
#    0.000    0.000    0.000    0.000    0.000    0.000 
#
# Total GULP energy -173618.129101 kJ/mol
# GULP energy per Si atom -12401.294936 kJ/mol
# Density = 2.451298 g / cm^3
# Si number density = 24.568900 Si / 1000 Ang^3
#
#
#
# Elastic Constant Matrix: (Units=GPa)
#
#
# Indices 1 2 3 4 5 6 
#
# 1 94.1572 24.4789 40.5778 -11.5079 11.6072 -3.6124
# 2 24.4789 151.6644 41.9550 3.6501 6.6321 0.7249
# 3 40.5778 41.9550 70.6078 -1.9886 19.3162 -14.1867
# 4 -11.5079 3.6501 -1.9886 49.6727 -2.3477 11.6913
# 5 11.6072 6.6321 19.3162 -2.3477 16.8479 5.8749
# 6 -3.6124 0.7249 -14.1867 11.6913 5.8749 23.2672
#
#
#
# Elastic Compliance Matrix: (Units=1/GPa)
#
#
# Indices 1 2 3 4 5 6 
#
# 1 0.015900 0.001168 -0.015825 0.006799 0.012484 -0.013785
# 2 0.001168 0.009379 -0.013305 0.003051 0.015993 -0.013795
# 3 -0.015825 -0.013305 0.073667 -0.023165 -0.099299 0.079587
# 4 0.006799 0.003051 -0.023165 0.031493 0.038565 -0.038726
# 5 0.012484 0.015993 -0.099299 0.038565 0.209492 -0.131380
# 6 -0.013785 -0.013795 0.079587 -0.038726 -0.131380 0.142427
#
#
# Mechanical properties :
#
#
# Convention : Reuss Voigt Hill
#
# Bulk Modulus (GPa) = 23.24442 58.93923 41.09182
# Shear Modulus (GPa) = 9.04778 31.91873 20.48326
#
# Velocity S-wave (km/s) = 1.92110 3.60829 2.89053
# Velocity P-wave (km/s) = 3.79503 6.43437 5.28220
#
# Compressibility (1/GPa) = 0.04302108
#
# Stress axis : x y z
#
# Youngs Moduli (GPa) = 62.89329 106.62448 13.57468
#
# Poissons Ratio (x) = -0.12451 0.21482
# Poissons Ratio (y) = -0.07344 0.18061
# Poissons Ratio (z) = 0.99528 1.41863
#
# Static dielectric constant tensor:
#      x y z
#    x 4.206150 -0.027190 0.062010 
#    y -0.027190 4.410380 -0.005490 
#    z 0.062010 -0.005490 4.381760 
# 
# 
# High freq. dielectric constant tensor:
#      x y z
#    x 1.968920 -0.005090 0.013060 
#    y -0.005090 1.995590 0.001850 
#    z 0.013060 0.001850 1.966750 
# 
# From -- ./inp_files/477840.got.cif
#   From: 2010.06.25/outbox.cif.g09.slc.cpg/sg2_239_cif.got.tgz:477840.got - 2010.06.27 13:26:56.
