data_PCOD8030467
_publ_section_title
;
Structure prediction by ZEFSAII (Michael W. Deem and Ramdas Pophale) SiO2 
 PCOD8030467
Probable space group: P -1
;
_chemical_formula_sum "Si O2"
_cell_formula_units_Z 16
_cell_length_a 12.933734
_cell_length_b 17.916360
_cell_length_c 9.697103
_cell_angle_alpha 54.916394
_cell_angle_beta 134.819700
_cell_angle_gamma 150.584187
_cell_volume 777.858497
_symmetry_space_group_name_H-M "P -1"
_symmetry_group_IT_number 2
_symmetry_cell_setting 'triclinic'
loop_
_space_group_symop_operation_xyz
x,y,z
-x,-y,-z
loop_
_atom_site_type_symbol
_atom_site_label
_atom_site_fract_x
_atom_site_fract_y
_atom_site_fract_z
Si Si1 0.113968 0.163733 0.188450
Si Si2 0.082552 0.616942 0.350326
Si Si3 0.788024 0.638697 0.137197
Si Si4 0.866420 0.484064 0.011182
Si Si5 0.771471 0.641056 0.664289
Si Si6 0.940642 0.791095 0.383727
Si Si7 0.348241 0.173494 0.954917
Si Si8 0.375242 0.128479 0.346527
O O1 0.200058 0.266233 0.291398
O O2 0.312753 0.184004 0.325592
O O3 0.093866 0.213678 0.979172
O O4 0.843196 0.984460 0.144973
O O5 0.361442 0.781416 0.468557
O O6 0.000000 0.500000 0.500000
O O7 0.892600 0.603928 0.196068
O O8 0.055577 0.565922 0.225999
O O9 0.864072 0.671730 0.334132
O O10 0.500000 0.500000 0.000000
O O11 0.836956 0.576257 0.855628
O O12 0.614386 0.304015 0.997922
O O13 0.000000 0.500000 0.000000
O O14 0.500000 0.500000 0.500000
O O15 0.952433 0.758094 0.584725
O O16 0.734501 0.763949 0.199731
O O17 0.202512 0.958712 0.405727
O O18 0.351370 0.143811 0.148104
#
# Coordination Sequence:
#
# PCOD8030467 Si02
#       8
#     2   2   2   2   2   2   2   2
#     4  11  23  43  74  99 134 183 223 281 340 397
#     4  12  26  42  67 101 136 179 231 278 339 404
#     4  12  22  41  69  98 130 180 232 280 326 396
#     4  12  28  47  65  99 143 181 219 286 348 395
#     4  12  26  45  67 101 138 179 235 272 330 415
#     4  11  23  41  71 102 133 178 227 281 335 402
#     4  11  21  47  71 101 140 173 229 286 336 400
#     4  11  23  42  72 106 136 171 229 284 345 393
#
# _framework density 20.569295
#
# number of rings (size 3 to 8) (size 9 to 14) (size 15 to 20)
#    0.000    0.500    6.250    3.000    3.500    3.500 
#    2.250    1.250    0.000    0.000    0.000    0.000 
#    0.000    0.000    0.000    0.000    0.000    0.000 
#
# Total GULP energy -198409.889804 kJ/mol
# GULP energy per Si atom -12400.618113 kJ/mol
# Density = 2.052248 g / cm^3
# Si number density = 20.569295 Si / 1000 Ang^3
#
#
#
# Elastic Constant Matrix: (Units=GPa)
#
#
# Indices 1 2 3 4 5 6 
#
# 1 124.8467 60.3827 43.8529 14.5955 -18.8907 -1.4111
# 2 60.3827 131.8622 50.5338 3.5800 -6.5395 13.9495
# 3 43.8529 50.5338 107.3419 5.2472 -13.4178 4.7595
# 4 14.5955 3.5800 5.2472 40.7827 3.4269 -4.5321
# 5 -18.8907 -6.5395 -13.4178 3.4269 42.0947 3.9287
# 6 -1.4111 13.9495 4.7595 -4.5321 3.9287 37.0585
#
#
#
# Elastic Compliance Matrix: (Units=1/GPa)
#
#
# Indices 1 2 3 4 5 6 
#
# 1 0.012063 -0.004554 -0.002142 -0.003823 0.004191 0.001537
# 2 -0.004554 0.011327 -0.003479 0.000756 -0.001102 -0.003781
# 3 -0.002142 -0.003479 0.012214 -0.000790 0.002522 -0.000705
# 4 -0.003823 0.000756 -0.000790 0.026665 -0.004338 0.003392
# 5 0.004191 -0.001102 0.002522 -0.004338 0.026915 -0.003133
# 6 0.001537 -0.003781 -0.000705 0.003392 -0.003133 0.029304
#
#
# Mechanical properties :
#
#
# Convention : Reuss Voigt Hill
#
# Bulk Modulus (GPa) = 65.55343 74.84328 70.19836
# Shear Modulus (GPa) = 34.74079 37.93928 36.34003
#
# Velocity S-wave (km/s) = 4.11416 4.29938 4.20779
# Velocity P-wave (km/s) = 7.38290 7.81736 7.60323
#
# Compressibility (1/GPa) = 0.01525473
#
# Stress axis : x y z
#
# Youngs Moduli (GPa) = 82.89626 88.28234 81.87437
#
# Poissons Ratio (x) = 0.40206 0.17534
# Poissons Ratio (y) = 0.37753 0.28484
# Poissons Ratio (z) = 0.17753 0.30714
#
# Static dielectric constant tensor:
#      x y z
#    x 3.619360 -0.058920 -0.321830 
#    y -0.058920 3.854910 -0.320030 
#    z -0.321830 -0.320030 3.532420 
# 
# 
# High freq. dielectric constant tensor:
#      x y z
#    x 1.802530 0.000810 -0.010390 
#    y 0.000810 1.820230 -0.001330 
#    z -0.010390 -0.001330 1.806750 
# 
# From -- ./inp_files/184287.got.cif
#   From: 2010.06.25/outbox.cif.g09.slc.cpg/sg2_93_cif.got.tgz:184287.got - 2010.06.27 13:26:56.
