data_PCOD8030142
_publ_section_title
;
Structure prediction by ZEFSAII (Michael W. Deem and Ramdas Pophale) SiO2 
 PCOD8030142
Probable space group: P -1
;
_chemical_formula_sum "Si O2"
_cell_formula_units_Z 16
_cell_length_a 22.953522
_cell_length_b 17.533070
_cell_length_c 13.911649
_cell_angle_alpha 158.405165
_cell_angle_beta 30.705070
_cell_angle_gamma 158.778330
_cell_volume 744.854248
_symmetry_space_group_name_H-M "P -1"
_symmetry_group_IT_number 2
_symmetry_cell_setting 'triclinic'
loop_
_space_group_symop_operation_xyz
x,y,z
-x,-y,-z
loop_
_atom_site_type_symbol
_atom_site_label
_atom_site_fract_x
_atom_site_fract_y
_atom_site_fract_z
Si Si1 0.847804 0.187526 0.396300
Si Si2 0.400565 0.788516 0.805931
Si Si3 0.509451 0.934182 0.607534
Si Si4 0.275381 0.978077 0.932497
Si Si5 0.175963 0.135606 0.418880
Si Si6 0.251711 0.281960 0.160418
Si Si7 0.139384 0.772846 0.184003
Si Si8 0.991914 0.678206 0.477397
O O1 0.897551 0.153334 0.388224
O O2 0.000000 0.500000 0.500000
O O3 0.699899 0.161515 0.581650
O O4 0.779844 0.903656 0.102943
O O5 0.492994 0.875327 0.676324
O O6 0.318912 0.471143 0.582650
O O7 0.276981 0.808639 0.989156
O O8 0.500000 0.000000 0.000000
O O9 0.407468 0.630679 0.336796
O O10 0.444517 0.077172 0.832649
O O11 0.192737 0.950960 0.114893
O O12 0.293635 0.198452 0.095846
O O13 0.151714 0.660633 0.686223
O O14 0.185650 0.069263 0.437609
O O15 0.000000 0.000000 0.500000
O O16 0.089587 0.214780 0.322758
O O17 0.106559 0.726115 0.289362
O O18 0.000000 0.500000 0.000000
#
# Coordination Sequence:
#
# PCOD8030142 Si02
#       8
#     2   2   2   2   2   2   2   2
#     4  12  26  48  69 100 135 174 227 293 350 392
#     4  12  25  43  64 100 146 177 217 277 338 400
#     4  11  25  46  69  97 138 181 226 279 337 412
#     4  11  21  42  71  99 133 180 232 272 327 410
#     4  12  22  38  70 101 134 181 229 264 323 401
#     4  11  23  46  72  97 129 181 231 276 338 404
#     4  12  21  40  69 101 135 179 224 265 327 406
#     4  11  23  43  69 103 140 171 225 287 334 399
#
# _framework density 21.480713000000002
#
# number of rings (size 3 to 8) (size 9 to 14) (size 15 to 20)
#    0.000    0.500    6.250    3.000    0.000    1.000 
#    6.750    0.000    0.000    0.000    0.000    0.000 
#    0.000    0.000    0.000    0.000    0.000    0.000 
#
# Total GULP energy -198273.830237 kJ/mol
# GULP energy per Si atom -12392.114390 kJ/mol
# Density = 2.143182 g / cm^3
# Si number density = 21.480713 Si / 1000 Ang^3
#
#
#
# Elastic Constant Matrix: (Units=GPa)
#
#
# Indices 1 2 3 4 5 6 
#
# 1 120.6080 43.0114 50.4640 5.6671 2.4402 3.5383
# 2 43.0114 123.2755 45.9091 -14.0368 0.5108 9.5703
# 3 50.4640 45.9091 98.4789 -7.7637 -2.2593 7.6045
# 4 5.6671 -14.0368 -7.7637 28.2028 0.6528 -4.6904
# 5 2.4402 0.5108 -2.2593 0.6528 50.7861 -0.8905
# 6 3.5383 9.5703 7.6045 -4.6904 -0.8905 33.7909
#
#
#
# Elastic Compliance Matrix: (Units=1/GPa)
#
#
# Indices 1 2 3 4 5 6 
#
# 1 0.011664 -0.002741 -0.005116 -0.005104 -0.000695 -0.000020
# 2 -0.002741 0.010926 -0.003200 0.004877 -0.000208 -0.001416
# 3 -0.005116 -0.003200 0.014648 0.003217 0.000864 -0.001385
# 4 -0.005104 0.004877 0.003217 0.040471 -0.000110 0.004044
# 5 -0.000695 -0.000208 0.000864 -0.000110 0.019774 0.000443
# 6 -0.000020 -0.001416 -0.001385 0.004044 0.000443 0.030882
#
#
# Mechanical properties :
#
#
# Convention : Reuss Voigt Hill
#
# Bulk Modulus (GPa) = 66.11770 69.01461 67.56615
# Shear Modulus (GPa) = 32.15031 36.08782 34.11906
#
# Velocity S-wave (km/s) = 3.87293 4.10324 3.98974
# Velocity P-wave (km/s) = 7.13066 7.39237 7.26269
#
# Compressibility (1/GPa) = 0.01512454
#
# Stress axis : x y z
#
# Youngs Moduli (GPa) = 85.73501 91.52416 68.26801
#
# Poissons Ratio (x) = 0.25087 0.34925
# Poissons Ratio (y) = 0.23500 0.21845
# Poissons Ratio (z) = 0.43861 0.29287
#
# Static dielectric constant tensor:
#      x y z
#    x 4.044600 -0.014780 -0.109860 
#    y -0.014780 3.737100 -0.104980 
#    z -0.109860 -0.104980 3.957650 
# 
# 
# High freq. dielectric constant tensor:
#      x y z
#    x 1.855040 0.001410 -0.006830 
#    y 0.001410 1.837860 -0.010320 
#    z -0.006830 -0.010320 1.848580 
# 
# From -- ./inp_files/499714.got.cif
#   From: 2010.06.25/outbox.cif.g09.slc.cpg/sg2_250_cif.got.tgz:499714.got - 2010.06.27 13:26:56.
