data_PCOD8030714
_publ_section_title
;
Structure prediction by ZEFSAII (Michael W. Deem and Ramdas Pophale) SiO2 
 PCOD8030714
Probable space group: P -1
;
_chemical_formula_sum "Si O2"
_cell_formula_units_Z 14
_cell_length_a 14.377128
_cell_length_b 16.772177
_cell_length_c 7.608667
_cell_angle_alpha 64.295253
_cell_angle_beta 79.319988
_cell_angle_gamma 23.344354
_cell_volume 525.869723
_symmetry_space_group_name_H-M "P -1"
_symmetry_group_IT_number 2
_symmetry_cell_setting 'triclinic'
loop_
_space_group_symop_operation_xyz
x,y,z
-x,-y,-z
loop_
_atom_site_type_symbol
_atom_site_label
_atom_site_fract_x
_atom_site_fract_y
_atom_site_fract_z
Si Si1 0.357600 0.718640 0.804526
Si Si2 0.346798 0.895853 0.166612
Si Si3 0.148757 0.592013 0.991805
Si Si4 0.728915 0.225841 0.619226
Si Si5 0.098471 0.558332 0.401709
Si Si6 0.194955 0.305246 0.393462
Si Si7 0.636014 0.764211 0.940660
O O1 0.552327 0.618597 0.936096
O O2 0.348077 0.743387 0.576136
O O3 0.500000 0.500000 0.000000
O O4 0.036700 0.004398 0.727455
O O5 0.265106 0.866813 0.167371
O O6 0.690336 0.589319 0.382806
O O7 0.351385 0.965803 0.934535
O O8 0.160276 0.082866 0.236638
O O9 0.076029 0.652013 0.170459
O O10 0.163087 0.487608 0.986749
O O11 0.500000 0.500000 0.500000
O O12 0.255771 0.335309 0.465736
O O13 0.801477 0.786124 0.389770
O O14 0.850726 0.615946 0.153822
O O15 0.402356 0.126873 0.312035
#
# Coordination Sequence:
#
# PCOD8030714 Si02
#       7
#     2   2   2   2   2   2   2
#     4  11  24  44  65  92 132 167 210 265 326 383
#     4  11  22  40  61  94 128 162 213 260 314 376
#     4  11  22  40  63  93 127 170 206 257 320 374
#     4  11  26  43  66  96 127 168 216 267 317 381
#     4   9  18  38  63  86 126 171 205 261 306 377
#     4   8  16  38  60  86 130 164 207 257 313 373
#     4   9  20  36  62  92 123 166 210 260 303 381
#
# _framework density 26.622564000000001
#
# number of rings (size 3 to 8) (size 9 to 14) (size 15 to 20)
#    0.000    2.000    2.857    0.000    2.000    1.714 
#    0.000   31.429    0.000    0.000    0.000    0.000 
#    0.000    0.000    0.000    0.000    0.000    0.000 
#
# Total GULP energy -173448.538587 kJ/mol
# GULP energy per Si atom -12389.181328 kJ/mol
# Density = 2.656197 g / cm^3
# Si number density = 26.622564 Si / 1000 Ang^3
#
#
#
# Elastic Constant Matrix: (Units=GPa)
#
#
# Indices 1 2 3 4 5 6 
#
# 1 112.0699 43.3649 27.6113 -2.5473 -14.9529 -20.5527
# 2 43.3649 174.7915 17.5563 -16.0000 -1.8572 -27.2713
# 3 27.6113 17.5563 66.7185 17.0789 -22.3515 -10.9848
# 4 -2.5473 -16.0000 17.0789 35.7132 -6.0178 -4.7148
# 5 -14.9529 -1.8572 -22.3515 -6.0178 34.4465 -2.3454
# 6 -20.5527 -27.2713 -10.9848 -4.7148 -2.3454 40.4530
#
#
#
# Elastic Compliance Matrix: (Units=1/GPa)
#
#
# Indices 1 2 3 4 5 6 
#
# 1 0.011719 -0.001570 -0.003155 0.002883 0.003772 0.004594
# 2 -0.001570 0.007367 -0.001930 0.004584 -0.000453 0.004153
# 3 -0.003155 -0.001930 0.024152 -0.010083 0.012655 0.003213
# 4 0.002883 0.004584 -0.010083 0.036177 0.001694 0.006132
# 5 0.003772 -0.000453 0.012655 0.001694 0.039665 0.007544
# 6 0.004594 0.004153 0.003213 0.006132 0.007544 0.031878
#
#
# Mechanical properties :
#
#
# Convention : Reuss Voigt Hill
#
# Bulk Modulus (GPa) = 33.41414 58.96052 46.18733
# Shear Modulus (GPa) = 28.69551 39.79236 34.24394
#
# Velocity S-wave (km/s) = 3.28665 3.87031 3.59036
# Velocity P-wave (km/s) = 5.19433 6.49364 5.87998
#
# Compressibility (1/GPa) = 0.02992745
#
# Stress axis : x y z
#
# Youngs Moduli (GPa) = 85.33166 135.73825 41.40502
#
# Poissons Ratio (x) = 0.21308 0.13063
# Poissons Ratio (y) = 0.13395 0.07993
# Poissons Ratio (z) = 0.26922 0.26203
#
# Static dielectric constant tensor:
#      x y z
#    x 3.872350 -0.080700 -0.482340 
#    y -0.080700 4.657520 0.252230 
#    z -0.482340 0.252230 5.387260 
# 
# 
# High freq. dielectric constant tensor:
#      x y z
#    x 2.058320 -0.031020 -0.028970 
#    y -0.031020 2.109910 -0.010430 
#    z -0.028970 -0.010430 2.079570 
# 
# From -- ./inp_files/317609.got.cif
#   From: 2010.06.25/outbox.cif.g09.slc.cpg/sg2_159_cif.got.tgz:317609.got - 2010.06.27 13:26:56.
