data_PCOD8030138
_publ_section_title
;
Structure prediction by ZEFSAII (Michael W. Deem and Ramdas Pophale) SiO2 
 PCOD8030138
Probable space group: P -1
;
_chemical_formula_sum "Si O2"
_cell_formula_units_Z 16
_cell_length_a 13.019817
_cell_length_b 14.882483
_cell_length_c 8.773440
_cell_angle_alpha 70.892318
_cell_angle_beta 102.656491
_cell_angle_gamma 150.807302
_cell_volume 775.252368
_symmetry_space_group_name_H-M "P -1"
_symmetry_group_IT_number 2
_symmetry_cell_setting 'triclinic'
loop_
_space_group_symop_operation_xyz
x,y,z
-x,-y,-z
loop_
_atom_site_type_symbol
_atom_site_label
_atom_site_fract_x
_atom_site_fract_y
_atom_site_fract_z
Si Si1 0.464586 0.583762 0.957088
Si Si2 0.046518 0.326495 0.798220
Si Si3 0.796616 0.992167 0.739849
Si Si4 0.446056 0.848935 0.584833
Si Si5 0.557111 0.425015 0.696749
Si Si6 0.152222 0.185159 0.548387
Si Si7 0.790349 0.451722 0.567930
Si Si8 0.046921 0.519002 0.829674
O O1 0.266920 0.459797 0.859693
O O2 0.676201 0.800417 0.843920
O O3 0.500000 0.500000 0.000000
O O4 0.426593 0.588478 0.113560
O O5 0.076403 0.383490 0.601852
O O6 0.954444 0.341723 0.858820
O O7 0.869633 0.104127 0.856922
O O8 0.010390 0.137705 0.637705
O O9 0.655652 0.951057 0.614523
O O10 0.335308 0.729791 0.459033
O O11 0.297746 0.714181 0.760270
O O12 0.500000 0.000000 0.500000
O O13 0.311911 0.249033 0.668705
O O14 0.703357 0.633104 0.609661
O O15 0.631842 0.394910 0.638818
O O16 0.000000 0.000000 0.500000
O O17 0.947434 0.525394 0.696185
O O18 0.000000 0.500000 0.000000
#
# Coordination Sequence:
#
# PCOD8030138 Si02
#       8
#     2   2   2   2   2   2   2   2
#     4  12  26  43  67  97 140 177 224 280 335 385
#     4  11  23  45  68  96 135 181 221 269 337 402
#     4  12  23  43  69  97 134 178 225 271 332 404
#     4  11  23  42  68 101 130 173 227 269 332 409
#     4  11  25  43  65  98 133 174 225 280 328 389
#     4  11  24  41  68  95 131 176 230 272 329 396
#     4  11  21  42  71  93 134 177 219 271 333 396
#     4  11  23  43  70  99 136 172 215 281 339 392
#
# _framework density 20.638442000000001
#
# number of rings (size 3 to 8) (size 9 to 14) (size 15 to 20)
#    0.000    0.750    3.750    6.000    1.750    3.000 
#    2.250    1.250    0.000    0.000    0.000    0.000 
#    0.000    0.000    0.000    0.000    0.000    0.000 
#
# Total GULP energy -198445.964852 kJ/mol
# GULP energy per Si atom -12402.872803 kJ/mol
# Density = 2.059147 g / cm^3
# Si number density = 20.638442 Si / 1000 Ang^3
#
#
#
# Elastic Constant Matrix: (Units=GPa)
#
#
# Indices 1 2 3 4 5 6 
#
# 1 137.9668 40.8371 47.0160 4.3163 0.6600 -0.2814
# 2 40.8371 123.8907 38.6359 6.3681 11.3409 -7.7785
# 3 47.0160 38.6359 102.2025 22.5252 -3.6128 0.9811
# 4 4.3163 6.3681 22.5252 23.3160 -4.3506 3.5453
# 5 0.6600 11.3409 -3.6128 -4.3506 37.7779 0.6627
# 6 -0.2814 -7.7785 0.9811 3.5453 0.6627 48.8106
#
#
#
# Elastic Compliance Matrix: (Units=1/GPa)
#
#
# Indices 1 2 3 4 5 6 
#
# 1 0.009122 -0.001941 -0.004090 0.002922 0.000375 -0.000392
# 2 -0.001941 0.010070 -0.002956 -0.000424 -0.003351 0.001729
# 3 -0.004090 -0.002956 0.015802 -0.013557 0.000906 0.000160
# 4 0.002922 -0.000424 -0.013557 0.057184 0.005435 -0.004005
# 5 0.000375 -0.003351 0.000906 0.005435 0.028206 -0.001328
# 6 -0.000392 0.001729 0.000160 -0.004005 -0.001328 0.021066
#
#
# Mechanical properties :
#
#
# Convention : Reuss Voigt Hill
#
# Bulk Modulus (GPa) = 58.74892 68.55978 63.65435
# Shear Modulus (GPa) = 30.28535 37.81897 34.05216
#
# Velocity S-wave (km/s) = 3.83485 4.28536 4.06635
# Velocity P-wave (km/s) = 6.93799 7.60114 7.27712
#
# Compressibility (1/GPa) = 0.01702159
#
# Stress axis : x y z
#
# Youngs Moduli (GPa) = 109.62223 99.30318 63.28464
#
# Poissons Ratio (x) = 0.19271 0.25882
# Poissons Ratio (y) = 0.21273 0.18705
# Poissons Ratio (z) = 0.44834 0.29352
#
# Static dielectric constant tensor:
#      x y z
#    x 6.134740 -2.964020 -0.877990 
#    y -2.964020 7.911110 1.342530 
#    z -0.877990 1.342530 4.158000 
# 
# 
# High freq. dielectric constant tensor:
#      x y z
#    x 1.832040 -0.004190 0.003620 
#    y -0.004190 1.817790 0.007240 
#    z 0.003620 0.007240 1.794460 
# 
# From -- ./inp_files/272562.got.cif
#   From: 2010.06.25/outbox.cif.g09.slc.cpg/sg2_137_cif.got.tgz:272562.got - 2010.06.27 13:26:56.
