data_PCOD8030595
_publ_section_title
;
Structure prediction by ZEFSAII (Michael W. Deem and Ramdas Pophale) SiO2 
 PCOD8030595
Probable space group: P -1
;
_chemical_formula_sum "Si O2"
_cell_formula_units_Z 16
_cell_length_a 12.132932
_cell_length_b 16.475057
_cell_length_c 9.559188
_cell_angle_alpha 142.502326
_cell_angle_beta 44.928805
_cell_angle_gamma 136.654878
_cell_volume 758.115714
_symmetry_space_group_name_H-M "P -1"
_symmetry_group_IT_number 2
_symmetry_cell_setting 'triclinic'
loop_
_space_group_symop_operation_xyz
x,y,z
-x,-y,-z
loop_
_atom_site_type_symbol
_atom_site_label
_atom_site_fract_x
_atom_site_fract_y
_atom_site_fract_z
Si Si1 0.972198 0.672440 0.845026
Si Si2 0.162124 0.111758 0.842400
Si Si3 0.398600 0.091845 0.091825
Si Si4 0.841084 0.817163 0.748290
Si Si5 0.757428 0.179541 0.974493
Si Si6 0.501065 0.917483 0.527857
Si Si7 0.195296 0.645356 0.372184
Si Si8 0.051087 0.658535 0.233709
O O1 0.827560 0.518749 0.803040
O O2 0.127410 0.707028 0.860501
O O3 0.046229 0.676271 0.628259
O O4 0.884113 0.787227 0.087719
O O5 0.313384 0.074779 0.592805
O O6 0.220932 0.195581 0.052707
O O7 0.001866 0.965029 0.798126
O O8 0.307375 0.184455 0.224899
O O9 0.576832 0.197360 0.144130
O O10 0.277821 0.985646 0.173642
O O11 0.435563 0.986934 0.805815
O O12 0.887525 0.682536 0.474343
O O13 0.857775 0.215779 0.788015
O O14 0.379211 0.749585 0.399737
O O15 0.500000 0.000000 0.500000
O O16 0.184114 0.676657 0.262010
O O17 0.000000 0.500000 0.000000
#
# Coordination Sequence:
#
# PCOD8030595 Si02
#       8
#     2   2   2   2   2   2   2   2
#     4  11  22  44  69  95 132 178 220 274 330 396
#     4  11  22  38  69 103 131 163 225 282 330 385
#     4  11  23  42  67  97 135 168 217 279 336 388
#     4  11  22  41  66 100 131 170 224 276 327 396
#     4  11  23  43  64  96 136 172 212 272 337 392
#     4  12  22  39  69 102 132 171 219 278 330 388
#     4  11  23  42  69  92 133 180 224 266 330 398
#     4  12  25  43  66  94 132 182 223 263 331 402
#
# _framework density 21.104958
#
# number of rings (size 3 to 8) (size 9 to 14) (size 15 to 20)
#    0.000    0.750    6.250    2.250    0.000    1.000 
#    4.500    0.625    5.500    0.000    0.000    0.000 
#    0.000    0.000    0.000    0.000    0.000    0.000 
#
# Total GULP energy -198434.223715 kJ/mol
# GULP energy per Si atom -12402.138982 kJ/mol
# Density = 2.105692 g / cm^3
# Si number density = 21.104958 Si / 1000 Ang^3
#
#
#
# Elastic Constant Matrix: (Units=GPa)
#
#
# Indices 1 2 3 4 5 6 
#
# 1 118.2218 30.8681 30.3767 8.7359 -5.5584 0.7377
# 2 30.8681 90.6373 18.2552 0.2914 7.5403 0.8424
# 3 30.3767 18.2552 84.3073 9.3214 -5.2072 -5.0013
# 4 8.7359 0.2914 9.3214 29.8850 -3.8719 8.6897
# 5 -5.5584 7.5403 -5.2072 -3.8719 31.6030 -6.2307
# 6 0.7377 0.8424 -5.0013 8.6897 -6.2307 29.3655
#
#
#
# Elastic Compliance Matrix: (Units=1/GPa)
#
#
# Indices 1 2 3 4 5 6 
#
# 1 0.010178 -0.003093 -0.002637 -0.001984 0.001925 0.000379
# 2 -0.003093 0.012897 -0.002224 0.001512 -0.004198 -0.002009
# 3 -0.002637 -0.002224 0.014238 -0.004601 0.002736 0.004497
# 4 -0.001984 0.001512 -0.004601 0.039117 0.000928 -0.012156
# 5 0.001925 -0.004198 0.002736 0.000928 0.035066 0.007704
# 6 0.000379 -0.002009 0.004497 -0.012156 0.007704 0.040099
#
#
# Mechanical properties :
#
#
# Convention : Reuss Voigt Hill
#
# Bulk Modulus (GPa) = 46.71621 50.24071 48.47846
# Shear Modulus (GPa) = 28.63063 32.41512 30.52288
#
# Velocity S-wave (km/s) = 3.68718 3.92331 3.80707
# Velocity P-wave (km/s) = 6.34904 6.66183 6.50731
#
# Compressibility (1/GPa) = 0.02140585
#
# Stress axis : x y z
#
# Youngs Moduli (GPa) = 98.24648 77.53572 70.23666
#
# Poissons Ratio (x) = 0.23979 0.18521
# Poissons Ratio (y) = 0.30384 0.15621
# Poissons Ratio (z) = 0.25908 0.17245
#
# Static dielectric constant tensor:
#      x y z
#    x 4.440600 -0.188010 0.315630 
#    y -0.188010 3.887900 -0.147530 
#    z 0.315630 -0.147530 3.797370 
# 
# 
# High freq. dielectric constant tensor:
#      x y z
#    x 1.836290 -0.008600 0.012310 
#    y -0.008600 1.825160 -0.007000 
#    z 0.012310 -0.007000 1.808290 
# 
# From -- ./inp_files/259958.got.cif
#   From: 2010.06.25/outbox.cif.g09.slc.cpg/sg2_130_cif.got.tgz:259958.got - 2010.06.27 13:26:56.
