data_PCOD8030445
_publ_section_title
;
Structure prediction by ZEFSAII (Michael W. Deem and Ramdas Pophale) SiO2 
 PCOD8030445
Probable space group: P -1
;
_chemical_formula_sum "Si O2"
_cell_formula_units_Z 14
_cell_length_a 20.727583
_cell_length_b 11.604108
_cell_length_c 9.448035
_cell_angle_alpha 123.897960
_cell_angle_beta 141.291021
_cell_angle_gamma 29.418581
_cell_volume 640.627145
_symmetry_space_group_name_H-M "P -1"
_symmetry_group_IT_number 2
_symmetry_cell_setting 'triclinic'
loop_
_space_group_symop_operation_xyz
x,y,z
-x,-y,-z
loop_
_atom_site_type_symbol
_atom_site_label
_atom_site_fract_x
_atom_site_fract_y
_atom_site_fract_z
Si Si1 0.959516 0.571732 0.316760
Si Si2 0.211854 0.728098 0.228882
Si Si3 0.593404 0.126873 0.989100
Si Si4 0.312113 0.217691 0.488748
Si Si5 0.299918 0.932379 0.175243
Si Si6 0.127245 0.562215 0.141132
Si Si7 0.528415 0.541689 0.755384
O O1 0.000000 0.500000 0.500000
O O2 0.140372 0.430337 0.449634
O O3 0.896106 0.501609 0.084205
O O4 0.794722 0.872333 0.232571
O O5 0.210603 0.616882 0.276732
O O6 0.312229 0.754789 0.479841
O O7 0.344925 0.520373 0.186758
O O8 0.000000 0.000000 0.000000
O O9 0.488720 0.098190 0.775423
O O10 0.616021 0.175153 0.910933
O O11 0.469980 0.370231 0.040000
O O12 0.264517 0.331126 0.329069
O O13 0.372725 0.988873 0.418099
O O14 0.366962 0.724029 0.233079
O O15 0.072687 0.193239 0.954700
#
# Coordination Sequence:
#
# PCOD8030445 Si02
#       7
#     2   2   2   2   2   2   2
#     4  11  26  42  67 104 142 173 228 290 334 403
#     4  11  25  46  68  93 139 190 224 270 347 411
#     4  12  25  43  69 104 142 173 227 288 342 397
#     4  11  24  45  74 100 133 186 232 274 344 404
#     4  11  21  46  69 100 134 181 229 280 333 409
#     4  11  22  46  76  95 131 191 233 274 338 408
#     4  11  27  42  67 104 138 176 231 281 338 412
#
# _framework density 21.853586
#
# number of rings (size 3 to 8) (size 9 to 14) (size 15 to 20)
#    0.000    0.857    4.286    2.571    6.000    1.714 
#    0.000    1.429    0.000    0.000    0.000    0.000 
#    0.000    0.000    0.000    0.000    0.000    0.000 
#
# Total GULP energy -173658.511990 kJ/mol
# GULP energy per Si atom -12404.179428 kJ/mol
# Density = 2.180385 g / cm^3
# Si number density = 21.853586 Si / 1000 Ang^3
#
#
#
# Elastic Constant Matrix: (Units=GPa)
#
#
# Indices 1 2 3 4 5 6 
#
# 1 112.5202 24.4808 20.1579 18.6499 -1.9540 -12.7101
# 2 24.4808 90.7777 19.2679 13.1153 -5.1797 -11.2229
# 3 20.1579 19.2679 74.5266 5.5551 -8.7317 -14.8616
# 4 18.6499 13.1153 5.5551 32.4532 -1.3928 -11.2725
# 5 -1.9540 -5.1797 -8.7317 -1.3928 36.0074 -2.8854
# 6 -12.7101 -11.2229 -14.8616 -11.2725 -2.8854 34.6396
#
#
#
# Elastic Compliance Matrix: (Units=1/GPa)
#
#
# Indices 1 2 3 4 5 6 
#
# 1 0.010466 -0.001636 -0.001896 -0.004711 -0.000234 0.000944
# 2 -0.001636 0.012640 -0.002115 -0.003178 0.001226 0.001655
# 3 -0.001896 -0.002115 0.016110 0.001579 0.004072 0.006384
# 4 -0.004711 -0.003178 0.001579 0.038283 0.001996 0.010543
# 5 -0.000234 0.001226 0.004072 0.001996 0.029414 0.005158
# 6 0.000944 0.001655 0.006384 0.010543 0.005158 0.036351
#
#
# Mechanical properties :
#
#
# Convention : Reuss Voigt Hill
#
# Bulk Modulus (GPa) = 35.81273 45.07084 40.44179
# Shear Modulus (GPa) = 30.51295 34.88125 32.69710
#
# Velocity S-wave (km/s) = 3.74069 3.99950 3.87226
# Velocity P-wave (km/s) = 5.92285 6.48049 6.20794
#
# Compressibility (1/GPa) = 0.02792303
#
# Stress axis : x y z
#
# Youngs Moduli (GPa) = 95.54434 79.11517 62.07332
#
# Poissons Ratio (x) = 0.12944 0.11768
# Poissons Ratio (y) = 0.15632 0.13126
# Poissons Ratio (z) = 0.18114 0.16730
#
# Static dielectric constant tensor:
#      x y z
#    x 4.153700 -0.134980 0.141900 
#    y -0.134980 3.810430 -0.110510 
#    z 0.141900 -0.110510 3.941360 
# 
# 
# High freq. dielectric constant tensor:
#      x y z
#    x 1.876660 -0.011640 0.004630 
#    y -0.011640 1.854020 -0.012420 
#    z 0.004630 -0.012420 1.858230 
# 
# From -- ./inp_files/186850.got.cif
#   From: 2010.06.25/outbox.cif.g09.slc.cpg/sg2_94_cif.got.tgz:186850.got - 2010.06.27 13:26:56.
