data_PCOD8030632
_publ_section_title
;
Structure prediction by ZEFSAII (Michael W. Deem and Ramdas Pophale) SiO2 
 PCOD8030632
Probable space group: P -1
;
_chemical_formula_sum "Si O2"
_cell_formula_units_Z 16
_cell_length_a 17.529187
_cell_length_b 8.900818
_cell_length_c 16.285605
_cell_angle_alpha 133.216931
_cell_angle_beta 154.540314
_cell_angle_gamma 42.605033
_cell_volume 737.632630
_symmetry_space_group_name_H-M "P -1"
_symmetry_group_IT_number 2
_symmetry_cell_setting 'triclinic'
loop_
_space_group_symop_operation_xyz
x,y,z
-x,-y,-z
loop_
_atom_site_type_symbol
_atom_site_label
_atom_site_fract_x
_atom_site_fract_y
_atom_site_fract_z
Si Si1 0.637987 0.137467 0.556943
Si Si2 0.506966 0.757522 0.933667
Si Si3 0.010016 0.022089 0.263294
Si Si4 0.728355 0.957323 0.837776
Si Si5 0.089015 0.854766 0.611389
Si Si6 0.087495 0.499945 0.718855
Si Si7 0.159927 0.298383 0.304714
Si Si8 0.524698 0.395351 0.698269
O O1 0.597602 0.348801 0.657352
O O2 0.441886 0.120281 0.327453
O O3 0.746767 0.926462 0.638714
O O4 0.775972 0.142004 0.617544
O O5 0.318553 0.763698 0.799769
O O6 0.534177 0.625489 0.824567
O O7 0.686086 0.632976 0.120581
O O8 0.500000 0.000000 0.000000
O O9 0.987286 0.985909 0.324014
O O10 0.980707 0.278302 0.317957
O O11 0.850845 0.963024 0.037741
O O12 0.646309 0.197636 0.804368
O O13 0.868292 0.771511 0.841593
O O14 0.027959 0.644858 0.481027
O O15 0.000000 0.000000 0.500000
O O16 0.039455 0.554626 0.790183
O O17 0.302182 0.429244 0.495625
#
# Coordination Sequence:
#
# PCOD8030632 Si02
#       8
#     2   2   2   2   2   2   2   2
#     4   8  18  32  57  96 129 157 187 253 318 366
#     4  12  24  39  64  88 115 174 215 244 297 366
#     4  11  23  37  66  96 124 158 203 263 314 358
#     4   9  17  33  56  99 130 153 193 256 311 365
#     4  12  27  47  59  82 128 171 213 256 304 368
#     4  11  22  39  64  96 121 163 211 254 302 365
#     4   8  16  31  60  92 132 157 189 250 316 366
#     4   9  16  34  59  90 131 159 199 246 305 368
#
# _framework density 21.691013999999999
#
# number of rings (size 3 to 8) (size 9 to 14) (size 15 to 20)
#    0.000    2.000    3.750    1.875    1.750    3.000 
#    0.000    0.000    0.000    3.750    0.000    0.000 
#    0.000    0.000    0.000    0.000    0.000    0.000 
#
# Total GULP energy -198369.107365 kJ/mol
# GULP energy per Si atom -12398.069210 kJ/mol
# Density = 2.164164 g / cm^3
# Si number density = 21.691014 Si / 1000 Ang^3
#
#
#
# Elastic Constant Matrix: (Units=GPa)
#
#
# Indices 1 2 3 4 5 6 
#
# 1 140.5629 30.2488 72.7204 -6.6428 -6.3493 -34.2366
# 2 30.2488 54.0776 31.5793 13.5690 -0.6229 -19.1143
# 3 72.7204 31.5793 124.7668 14.2942 5.1472 -17.7537
# 4 -6.6428 13.5690 14.2942 37.9576 -14.8361 -0.5434
# 5 -6.3493 -0.6229 5.1472 -14.8361 33.5091 -4.9783
# 6 -34.2366 -19.1143 -17.7537 -0.5434 -4.9783 28.2331
#
#
#
# Elastic Compliance Matrix: (Units=1/GPa)
#
#
# Indices 1 2 3 4 5 6 
#
# 1 0.017554 -0.001239 -0.009430 0.012279 0.012713 0.016995
# 2 -0.001239 0.029031 -0.003244 -0.009578 -0.001100 0.015734
# 3 -0.009430 -0.003244 0.014996 -0.009914 -0.009440 -0.006058
# 4 0.012279 -0.009578 -0.009914 0.045499 0.024921 0.007441
# 5 0.012713 -0.001100 -0.009440 0.024921 0.047324 0.017560
# 6 0.016995 0.015734 -0.006058 0.007441 0.017560 0.066111
#
#
# Mechanical properties :
#
#
# Convention : Reuss Voigt Hill
#
# Bulk Modulus (GPa) = 29.62660 65.38937 47.50798
# Shear Modulus (GPa) = 19.26084 32.26388 25.76236
#
# Velocity S-wave (km/s) = 2.98311 3.86091 3.45004
# Velocity P-wave (km/s) = 5.05503 7.07720 6.14980
#
# Compressibility (1/GPa) = 0.03375346
#
# Stress axis : x y z
#
# Youngs Moduli (GPa) = 56.96751 34.44540 66.68448
#
# Poissons Ratio (x) = 0.04268 0.62887
# Poissons Ratio (y) = 0.07059 0.21635
# Poissons Ratio (z) = 0.53723 0.11175
#
# Static dielectric constant tensor:
#      x y z
#    x 4.380620 -0.760670 0.325130 
#    y -0.760670 3.875810 0.035270 
#    z 0.325130 0.035270 4.055650 
# 
# 
# High freq. dielectric constant tensor:
#      x y z
#    x 1.834240 -0.035040 0.009600 
#    y -0.035040 1.831170 0.012330 
#    z 0.009600 0.012330 1.860950 
# 
# From -- ./inp_files/475466.got.cif
#   From: 2010.06.25/outbox.cif.g09.slc.cpg/sg2_238_cif.got.tgz:475466.got - 2010.06.27 13:26:56.
