data_PCOD8030354
_publ_section_title
;
Structure prediction by ZEFSAII (Michael W. Deem and Ramdas Pophale) SiO2 
 PCOD8030354
Probable space group: P -1
;
_chemical_formula_sum "Si O2"
_cell_formula_units_Z 14
_cell_length_a 17.725676
_cell_length_b 11.971218
_cell_length_c 8.837132
_cell_angle_alpha 37.530232
_cell_angle_beta 133.171444
_cell_angle_gamma 149.879345
_cell_volume 573.246031
_symmetry_space_group_name_H-M "P -1"
_symmetry_group_IT_number 2
_symmetry_cell_setting 'triclinic'
loop_
_space_group_symop_operation_xyz
x,y,z
-x,-y,-z
loop_
_atom_site_type_symbol
_atom_site_label
_atom_site_fract_x
_atom_site_fract_y
_atom_site_fract_z
Si Si1 0.916051 0.239970 0.782415
Si Si2 0.953298 0.307999 0.310531
Si Si3 0.573050 0.216323 0.233642
Si Si4 0.550225 0.583961 0.306115
Si Si5 0.323257 0.000928 0.524162
Si Si6 0.107067 0.986940 0.727536
Si Si7 0.896631 0.712284 0.236059
O O1 0.946986 0.399663 0.801838
O O2 0.050799 0.406606 0.662136
O O3 0.755763 0.068818 0.671579
O O4 0.906425 0.034835 0.083594
O O5 0.048036 0.249857 0.558582
O O6 0.785615 0.102092 0.372833
O O7 0.938696 0.264079 0.156883
O O8 0.719805 0.510475 0.186932
O O9 0.500000 0.000000 0.500000
O O10 0.617351 0.132541 0.249744
O O11 0.470571 0.240373 0.988040
O O12 0.500000 0.500000 0.500000
O O13 0.460167 0.318691 0.370761
O O14 0.722661 0.747598 0.364787
O O15 0.000000 0.000000 0.500000
O O16 0.000000 0.000000 0.000000
#
# Coordination Sequence:
#
# PCOD8030354 Si02
#       7
#     2   2   2   2   2   2   2
#     4  11  22  43  72 107 143 192 256 308 369 452
#     4  11  21  44  72 103 144 189 246 310 371 457
#     4  12  26  46  79 114 153 201 264 320 386 458
#     4  12  29  50  74 112 159 200 256 317 395 466
#     4  11  23  49  79 105 151 200 256 314 382 457
#     4  12  28  46  70 107 150 195 251 315 384 451
#     4  11  22  40  75 107 142 198 256 310 380 455
#
# _framework density 24.422322999999999
#
# number of rings (size 3 to 8) (size 9 to 14) (size 15 to 20)
#    0.000    0.571    4.286    4.714    2.000    5.143 
#    2.571    0.000    0.000    0.000    0.000    0.000 
#    0.000    0.000    0.000    0.000    0.000    0.000 
#
# Total GULP energy -173488.293027 kJ/mol
# GULP energy per Si atom -12392.020930 kJ/mol
# Density = 2.436674 g / cm^3
# Si number density = 24.422323 Si / 1000 Ang^3
#
#
#
# Elastic Constant Matrix: (Units=GPa)
#
#
# Indices 1 2 3 4 5 6 
#
# 1 64.0362 45.6116 27.6234 21.3163 -8.1287 10.9171
# 2 45.6116 163.1651 37.3339 0.5708 -1.0419 9.4332
# 3 27.6234 37.3339 109.7817 27.3496 -9.0261 4.3420
# 4 21.3163 0.5708 27.3496 28.2856 -4.7949 10.0254
# 5 -8.1287 -1.0419 -9.0261 -4.7949 49.3107 9.3971
# 6 10.9171 9.4332 4.3420 10.0254 9.3971 37.3437
#
#
#
# Elastic Compliance Matrix: (Units=1/GPa)
#
#
# Indices 1 2 3 4 5 6 
#
# 1 0.028697 -0.008129 0.001238 -0.021662 0.002947 -0.001406
# 2 -0.008129 0.009309 -0.003585 0.010106 -0.000404 -0.002170
# 3 0.001238 -0.003585 0.013692 -0.014989 0.000641 0.002814
# 4 -0.021662 0.010106 -0.014989 0.071792 0.003677 -0.014676
# 5 0.002947 -0.000404 0.000641 0.003677 0.022666 -0.007525
# 6 -0.001406 -0.002170 0.002814 -0.014676 -0.007525 0.033244
#
#
# Mechanical properties :
#
#
# Convention : Reuss Voigt Hill
#
# Bulk Modulus (GPa) = 32.52528 62.01343 47.26936
# Shear Modulus (GPa) = 23.74167 38.08229 30.91198
#
# Velocity S-wave (km/s) = 3.12128 3.95311 3.56156
# Velocity P-wave (km/s) = 5.13192 6.80319 6.02578
#
# Compressibility (1/GPa) = 0.03074532
#
# Stress axis : x y z
#
# Youngs Moduli (GPa) = 34.84693 107.42151 73.03477
#
# Poissons Ratio (x) = 0.87328 -0.09044
# Poissons Ratio (y) = 0.28329 0.26185
# Poissons Ratio (z) = -0.04315 0.38513
#
# Static dielectric constant tensor:
#      x y z
#    x 4.089880 -0.397960 -0.815650 
#    y -0.397960 4.549710 0.046860 
#    z -0.815650 0.046860 3.382270 
# 
# 
# High freq. dielectric constant tensor:
#      x y z
#    x 1.977050 -0.018700 0.004150 
#    y -0.018700 1.979880 -0.002580 
#    z 0.004150 -0.002580 1.991790 
# 
# From -- ./inp_files/261330.got.cif
#   From: 2010.06.25/outbox.cif.g09.slc.cpg/sg2_131_cif.got.tgz:261330.got - 2010.06.27 13:26:56.
