data_PCOD8030133
_publ_section_title
;
Structure prediction by ZEFSAII (Michael W. Deem and Ramdas Pophale) SiO2 
 PCOD8030133
Probable space group: P -1
;
_chemical_formula_sum "Si O2"
_cell_formula_units_Z 16
_cell_length_a 14.967448
_cell_length_b 11.270447
_cell_length_c 9.517200
_cell_angle_alpha 61.307856
_cell_angle_beta 29.759727
_cell_angle_gamma 63.978812
_cell_volume 698.155014
_symmetry_space_group_name_H-M "P -1"
_symmetry_group_IT_number 2
_symmetry_cell_setting 'triclinic'
loop_
_space_group_symop_operation_xyz
x,y,z
-x,-y,-z
loop_
_atom_site_type_symbol
_atom_site_label
_atom_site_fract_x
_atom_site_fract_y
_atom_site_fract_z
Si Si1 0.179918 0.374593 0.360679
Si Si2 0.976892 0.561792 0.730839
Si Si3 0.546871 0.415013 0.122740
Si Si4 0.955842 0.948675 0.872450
Si Si5 0.196818 0.748057 0.498711
Si Si6 0.746735 0.901905 0.460208
Si Si7 0.658667 0.485658 0.400876
Si Si8 0.360024 0.877954 0.951306
O O1 0.089759 0.331631 0.361070
O O2 0.294784 0.247849 0.340333
O O3 0.037798 0.421808 0.648883
O O4 0.289880 0.502448 0.084672
O O5 0.147153 0.627680 0.530279
O O6 0.838565 0.537387 0.057837
O O7 0.386309 0.422511 0.452211
O O8 0.601850 0.258826 0.111640
O O9 0.500000 0.500000 0.000000
O O10 0.016138 0.823961 0.761622
O O11 0.870386 0.889880 0.161690
O O12 0.142375 0.020397 0.616730
O O13 0.805606 0.041945 0.944540
O O14 0.315124 0.673967 0.502248
O O15 0.310486 0.851951 0.195893
O O16 0.544819 0.962549 0.660476
O O17 0.500000 0.500000 0.500000
#
# Coordination Sequence:
#
# PCOD8030133 Si02
#       8
#     2   2   2   2   2   2   2   2
#     4  11  21  42  71 104 139 186 228 293 365 423
#     4  11  24  39  69 104 141 185 229 289 366 418
#     4  12  22  43  70 105 141 180 230 297 360 423
#     4  11  28  48  69 102 140 192 243 286 344 425
#     4  12  25  46  67 101 145 184 233 296 349 426
#     4  11  25  46  72  98 140 187 238 293 351 416
#     4  12  25  41  66 110 143 180 233 293 360 421
#     4  12  25  46  74 102 138 188 242 286 354 428
#
# _framework density 22.917548
#
# number of rings (size 3 to 8) (size 9 to 14) (size 15 to 20)
#    0.000    0.500    5.000    2.625    3.500    2.500 
#    2.250    0.000    0.000    0.000    0.000    0.000 
#    0.000    0.000    0.000    0.000    0.000    0.000 
#
# Total GULP energy -198337.421506 kJ/mol
# GULP energy per Si atom -12396.088844 kJ/mol
# Density = 2.286539 g / cm^3
# Si number density = 22.917548 Si / 1000 Ang^3
#
#
#
# Elastic Constant Matrix: (Units=GPa)
#
#
# Indices 1 2 3 4 5 6 
#
# 1 129.3921 45.0171 37.3755 4.3360 -7.9395 -10.5093
# 2 45.0171 83.7276 17.0436 14.4451 1.5445 -20.2780
# 3 37.3755 17.0436 117.2019 9.9331 8.8694 7.0910
# 4 4.3360 14.4451 9.9331 37.9230 7.0942 -4.1938
# 5 -7.9395 1.5445 8.8694 7.0942 48.1322 1.0207
# 6 -10.5093 -20.2780 7.0910 -4.1938 1.0207 28.3444
#
#
#
# Elastic Compliance Matrix: (Units=1/GPa)
#
#
# Indices 1 2 3 4 5 6 
#
# 1 0.010524 -0.005025 -0.002966 0.001194 0.002243 0.001145
# 2 -0.005025 0.018385 -0.001276 -0.004752 -0.000715 0.010932
# 3 -0.002966 -0.001276 0.010274 -0.002036 -0.001939 -0.004814
# 4 0.001194 -0.004752 -0.002036 0.029488 -0.003665 0.002048
# 5 0.002243 -0.000715 -0.001939 -0.003665 0.022078 -0.000532
# 6 0.001145 0.010932 -0.004814 0.002048 -0.000532 0.045052
#
#
# Mechanical properties :
#
#
# Convention : Reuss Voigt Hill
#
# Bulk Modulus (GPa) = 48.42374 58.79934 53.61154
# Shear Modulus (GPa) = 31.01402 38.27229 34.64316
#
# Velocity S-wave (km/s) = 3.68270 4.09100 3.89220
# Velocity P-wave (km/s) = 6.26565 6.93020 6.60629
#
# Compressibility (1/GPa) = 0.02065103
#
# Stress axis : x y z
#
# Youngs Moduli (GPa) = 95.02209 54.39095 97.33224
#
# Poissons Ratio (x) = 0.27330 0.28865
# Poissons Ratio (y) = 0.47746 0.12418
# Poissons Ratio (z) = 0.28180 0.06939
#
# Static dielectric constant tensor:
#      x y z
#    x 4.683380 0.076910 -0.096590 
#    y 0.076910 3.970610 -0.049690 
#    z -0.096590 -0.049690 4.623980 
# 
# 
# High freq. dielectric constant tensor:
#      x y z
#    x 1.923490 -0.009950 0.001050 
#    y -0.009950 1.876320 0.009500 
#    z 0.001050 0.009500 1.920360 
# 
# From -- ./inp_files/306869.got.cif
#   From: 2010.06.25/outbox.cif.g09.slc.cpg/sg2_154_cif.got.tgz:306869.got - 2010.06.27 13:26:56.
