data_PCOD8030865
_publ_section_title
;
Structure prediction by ZEFSAII (Michael W. Deem and Ramdas Pophale) SiO2 
 PCOD8030865
Probable space group: P -1
;
_chemical_formula_sum "Si O2"
_cell_formula_units_Z 14
_cell_length_a 31.131513
_cell_length_b 17.195248
_cell_length_c 17.280899
_cell_angle_alpha 163.621939
_cell_angle_beta 15.875404
_cell_angle_gamma 163.142819
_cell_volume 639.552414
_symmetry_space_group_name_H-M "P -1"
_symmetry_group_IT_number 2
_symmetry_cell_setting 'triclinic'
loop_
_space_group_symop_operation_xyz
x,y,z
-x,-y,-z
loop_
_atom_site_type_symbol
_atom_site_label
_atom_site_fract_x
_atom_site_fract_y
_atom_site_fract_z
Si Si1 0.322923 0.221945 0.768403
Si Si2 0.760943 0.847500 0.979433
Si Si3 0.333887 0.682762 0.471211
Si Si4 0.893104 0.193882 0.620132
Si Si5 0.278747 0.452020 0.649853
Si Si6 0.881258 0.668252 0.356256
Si Si7 0.905593 0.442523 0.527558
O O1 0.514890 0.320047 0.494598
O O2 0.174708 0.915556 0.694904
O O3 0.329556 0.169865 0.798305
O O4 0.260009 0.483077 0.111361
O O5 0.633047 0.544693 0.863051
O O6 0.941493 0.823085 0.643169
O O7 0.803499 0.186348 0.194875
O O8 0.285433 0.502624 0.463340
O O9 0.500000 0.000000 0.500000
O O10 0.947283 0.351545 0.592984
O O11 0.744990 0.839688 0.534118
O O12 0.821419 0.376880 0.973195
O O13 0.194091 0.329787 0.596060
O O14 0.000000 0.000000 0.500000
O O15 0.000000 0.500000 0.000000
O O16 0.000000 0.500000 0.500000
#
# Coordination Sequence:
#
# PCOD8030865 Si02
#       7
#     2   2   2   2   2   2   2
#     4  11  24  42  68  96 128 167 206 262 318 372
#     4  11  22  41  63  89 122 170 221 257 307 382
#     4  12  24  38  59  89 123 166 219 274 313 351
#     4  11  23  41  67  89 122 167 205 249 311 385
#     4  12  24  42  62  95 130 165 213 260 311 373
#     4  12  25  38  57  86 126 169 210 262 312 352
#     4  11  24  46  71  98 125 160 206 254 315 393
#
# _framework density 21.890309999999999
#
# number of rings (size 3 to 8) (size 9 to 14) (size 15 to 20)
#    0.000    0.571    0.000   11.143    0.000    2.286 
#    0.000    4.286    0.000    0.000    0.000    0.000 
#    0.000    0.000    0.000    0.000    0.000    0.000 
#
# Total GULP energy -173581.738777 kJ/mol
# GULP energy per Si atom -12398.695627 kJ/mol
# Density = 2.184049 g / cm^3
# Si number density = 21.890310 Si / 1000 Ang^3
#
#
#
# Elastic Constant Matrix: (Units=GPa)
#
#
# Indices 1 2 3 4 5 6 
#
# 1 86.4573 46.0405 12.4146 -19.4637 15.0355 -5.5299
# 2 46.0405 153.7717 28.2404 -0.4634 22.7587 -14.8296
# 3 12.4146 28.2404 77.7411 -2.6546 22.2015 -6.6759
# 4 -19.4637 -0.4634 -2.6546 44.2071 0.3921 5.4669
# 5 15.0355 22.7587 22.2015 0.3921 26.7033 4.6884
# 6 -5.5299 -14.8296 -6.6759 5.4669 4.6884 27.9891
#
#
#
# Elastic Compliance Matrix: (Units=1/GPa)
#
#
# Indices 1 2 3 4 5 6 
#
# 1 0.016443 -0.003930 0.001230 0.007179 -0.007260 0.001274
# 2 -0.003930 0.009200 -0.000601 -0.002286 -0.006045 0.005414
# 3 0.001230 -0.000601 0.018236 0.000928 -0.016561 0.006867
# 4 0.007179 -0.002286 0.000928 0.026368 -0.002497 -0.004303
# 5 -0.007260 -0.006045 -0.016561 -0.002497 0.063793 -0.018786
# 6 0.001274 0.005414 0.006867 -0.004303 -0.018786 0.044473
#
#
# Mechanical properties :
#
#
# Convention : Reuss Voigt Hill
#
# Bulk Modulus (GPa) = 26.82651 54.59569 40.71110
# Shear Modulus (GPa) = 25.31110 35.19822 30.25466
#
# Velocity S-wave (km/s) = 3.40409 4.01426 3.72170
# Velocity P-wave (km/s) = 5.26612 6.81765 6.09149
#
# Compressibility (1/GPa) = 0.03727656
#
# Stress axis : x y z
#
# Youngs Moduli (GPa) = 60.81649 108.69358 54.83612
#
# Poissons Ratio (x) = 0.42716 -0.06744
# Poissons Ratio (y) = 0.23901 0.03297
# Poissons Ratio (z) = -0.07479 0.06534
#
# Static dielectric constant tensor:
#      x y z
#    x 4.611370 -0.607240 -0.788660 
#    y -0.607240 4.440890 0.519400 
#    z -0.788660 0.519400 5.028670 
# 
# 
# High freq. dielectric constant tensor:
#      x y z
#    x 1.842550 -0.009960 0.004240 
#    y -0.009960 1.876310 0.009810 
#    z 0.004240 0.009810 1.882770 
# 
# From -- ./inp_files/535837.got.cif
#   From: 2010.06.25/outbox.cif.g09.slc.cpg/sg2_268_cif.got.tgz:535837.got - 2010.06.27 13:26:56.
