data_PCOD8030313
_publ_section_title
;
Structure prediction by ZEFSAII (Michael W. Deem and Ramdas Pophale) SiO2 
 PCOD8030313
Probable space group: P -1
;
_chemical_formula_sum "Si O2"
_cell_formula_units_Z 16
_cell_length_a 27.430919
_cell_length_b 8.734716
_cell_length_c 6.717402
_cell_angle_alpha 93.146862
_cell_angle_beta 87.037969
_cell_angle_gamma 30.666444
_cell_volume 804.066935
_symmetry_space_group_name_H-M "P -1"
_symmetry_group_IT_number 2
_symmetry_cell_setting 'triclinic'
loop_
_space_group_symop_operation_xyz
x,y,z
-x,-y,-z
loop_
_atom_site_type_symbol
_atom_site_label
_atom_site_fract_x
_atom_site_fract_y
_atom_site_fract_z
Si Si1 0.616621 0.803866 0.494615
Si Si2 0.173238 0.634456 0.492004
Si Si3 0.482223 0.145758 0.207065
Si Si4 0.620571 0.284349 0.904153
Si Si5 0.832574 0.630013 0.801304
Si Si6 0.924440 0.310678 0.155560
Si Si7 0.503174 0.391047 0.689100
Si Si8 0.001378 0.680106 0.523222
O O1 0.723140 0.583451 0.477343
O O2 0.603879 0.685822 0.620583
O O3 0.588265 0.857958 0.272846
O O4 0.528990 0.148755 0.613816
O O5 0.179868 0.510657 0.285026
O O6 0.132593 0.640182 0.675964
O O7 0.103827 0.968203 0.491339
O O8 0.445695 0.411299 0.170704
O O9 0.500000 0.000000 0.000000
O O10 0.588708 0.211371 0.806989
O O11 0.734937 0.995614 0.818386
O O12 0.599502 0.332395 0.149742
O O13 0.920035 0.477138 0.663274
O O14 0.850329 0.580622 0.030097
O O15 0.973500 0.320594 0.263164
O O16 0.000000 0.000000 0.000000
O O17 0.500000 0.500000 0.500000
O O18 0.000000 0.500000 0.500000
#
# Coordination Sequence:
#
# PCOD8030313 Si02
#       8
#     2   2   2   2   2   2   2   2
#     4  11  24  41  66  90 127 172 209 261 322 377
#     4  11  23  42  69  95 122 168 217 263 321 382
#     4  11  24  45  59  88 136 170 207 262 322 381
#     4  11  24  38  65  92 124 165 211 259 312 377
#     4  11  23  42  67  96 125 168 214 265 317 381
#     4  11  21  44  69  90 129 171 214 265 320 380
#     4  11  22  39  62  91 124 159 213 265 305 366
#     4  11  25  44  64  96 137 163 209 274 323 380
#
# _framework density 19.898841999999998
#
# number of rings (size 3 to 8) (size 9 to 14) (size 15 to 20)
#    0.000    1.000    6.250    0.750    3.500    1.500 
#    2.250    0.000    0.000    0.000    0.000    0.000 
#    0.000    0.000    0.000    0.000    0.000    0.000 
#
# Total GULP energy -198362.767491 kJ/mol
# GULP energy per Si atom -12397.672968 kJ/mol
# Density = 1.985355 g / cm^3
# Si number density = 19.898842 Si / 1000 Ang^3
#
#
#
# Elastic Constant Matrix: (Units=GPa)
#
#
# Indices 1 2 3 4 5 6 
#
# 1 116.1147 46.3281 46.3248 -6.7267 13.3704 -4.2023
# 2 46.3281 107.2147 45.5327 -4.4089 3.3763 -10.5331
# 3 46.3248 45.5327 132.2252 -9.8807 12.5534 -2.2379
# 4 -6.7267 -4.4089 -9.8807 27.6565 1.4632 -1.1302
# 5 13.3704 3.3763 12.5534 1.4632 33.0359 -4.2639
# 6 -4.2023 -10.5331 -2.2379 -1.1302 -4.2639 33.3044
#
#
#
# Elastic Compliance Matrix: (Units=1/GPa)
#
#
# Indices 1 2 3 4 5 6 
#
# 1 0.011550 -0.003887 -0.002262 0.001555 -0.003528 -0.000323
# 2 -0.003887 0.012611 -0.003104 -0.000001 0.001920 0.003535
# 3 -0.002262 -0.003104 0.009863 0.002588 -0.002742 -0.000867
# 4 0.001555 -0.000001 0.002588 0.037677 -0.003120 0.001249
# 5 -0.003528 0.001920 -0.002742 -0.003120 0.033214 0.004124
# 6 -0.000323 0.003535 -0.000867 0.001249 0.004124 0.031616
#
#
# Mechanical properties :
#
#
# Convention : Reuss Voigt Hill
#
# Bulk Modulus (GPa) = 64.43592 70.21398 67.32495
# Shear Modulus (GPa) = 31.20898 33.29062 32.24980
#
# Velocity S-wave (km/s) = 3.96458 4.09466 4.03014
# Velocity P-wave (km/s) = 7.30816 7.59717 7.45407
#
# Compressibility (1/GPa) = 0.01551929
#
# Stress axis : x y z
#
# Youngs Moduli (GPa) = 86.57850 79.29292 101.38600
#
# Poissons Ratio (x) = 0.30819 0.22938
# Poissons Ratio (y) = 0.33651 0.31466
# Poissons Ratio (z) = 0.19588 0.24610
#
# Static dielectric constant tensor:
#      x y z
#    x 3.847560 0.337430 0.021020 
#    y 0.337430 4.184930 -0.183150 
#    z 0.021020 -0.183150 4.144850 
# 
# 
# High freq. dielectric constant tensor:
#      x y z
#    x 1.774700 0.001850 0.006300 
#    y 0.001850 1.771530 -0.002280 
#    z 0.006300 -0.002280 1.793020 
# 
# From -- ./inp_files/90392.got.cif
#   From: 2010.06.25/outbox.cif.g09.slc.cpg/sg2_46_cif.got.tgz:90392.got - 2010.06.27 13:26:56.
