data_PCOD8030471
_publ_section_title
;
Structure prediction by ZEFSAII (Michael W. Deem and Ramdas Pophale) SiO2 
 PCOD8030471
Probable space group: P -1
;
_chemical_formula_sum "Si O2"
_cell_formula_units_Z 16
_cell_length_a 13.035249
_cell_length_b 9.372905
_cell_length_c 18.132683
_cell_angle_alpha 57.091113
_cell_angle_beta 150.495235
_cell_angle_gamma 133.116966
_cell_volume 788.218207
_symmetry_space_group_name_H-M "P -1"
_symmetry_group_IT_number 2
_symmetry_cell_setting 'triclinic'
loop_
_space_group_symop_operation_xyz
x,y,z
-x,-y,-z
loop_
_atom_site_type_symbol
_atom_site_label
_atom_site_fract_x
_atom_site_fract_y
_atom_site_fract_z
Si Si1 0.176716 0.726710 0.843896
Si Si2 0.724658 0.340409 0.856035
Si Si3 0.376645 0.999791 0.497687
Si Si4 0.524038 0.625696 0.170983
Si Si5 0.498396 0.109491 0.133271
Si Si6 0.333456 0.588753 0.364153
Si Si7 0.717712 0.342246 0.354833
Si Si8 0.138150 0.054236 0.810481
O O1 0.306357 0.861121 0.815744
O O2 0.912421 0.552398 0.705597
O O3 0.160857 0.862566 0.860045
O O4 0.313452 0.617190 0.990690
O O5 0.531544 0.349302 0.786769
O O6 0.696801 0.409777 0.740953
O O7 0.662079 0.115002 0.876756
O O8 0.000000 0.500000 0.000000
O O9 0.343886 0.823032 0.577219
O O10 0.131266 0.998823 0.325802
O O11 0.500000 0.000000 0.500000
O O12 0.559120 0.195747 0.598476
O O13 0.543560 0.430786 0.234332
O O14 0.776695 0.806211 0.247762
O O15 0.651762 0.254002 0.255475
O O16 0.306619 0.158360 0.959164
O O17 0.500000 0.500000 0.500000
O O18 0.000000 0.500000 0.500000
#
# Coordination Sequence:
#
# PCOD8030471 Si02
#       8
#     2   2   2   2   2   2   2   2
#     4  11  22  43  75 109 136 180 240 290 353 406
#     4  12  23  44  71 108 140 177 239 294 343 413
#     4  12  29  48  66 102 150 185 226 296 359 412
#     4  11  23  42  76 100 140 185 230 296 340 417
#     4  11  24  44  77 102 138 186 232 293 349 418
#     4  12  26  43  69 104 143 184 233 291 354 410
#     4  12  28  48  66 105 146 184 238 283 350 430
#     4  11  21  47  73 105 140 178 239 291 347 417
#
# _framework density 20.298946999999998
#
# number of rings (size 3 to 8) (size 9 to 14) (size 15 to 20)
#    0.000    0.500    7.500    0.750    3.500    3.000 
#    0.000    4.375    0.000    0.000    0.000    0.000 
#    0.000    0.000    0.000    0.000    0.000    0.000 
#
# Total GULP energy -198342.790941 kJ/mol
# GULP energy per Si atom -12396.424434 kJ/mol
# Density = 2.025275 g / cm^3
# Si number density = 20.298947 Si / 1000 Ang^3
#
#
#
# Elastic Constant Matrix: (Units=GPa)
#
#
# Indices 1 2 3 4 5 6 
#
# 1 116.3217 39.5982 66.1335 5.9945 -4.3738 -0.8008
# 2 39.5982 131.4312 61.3454 5.6557 -1.6440 2.0553
# 3 66.1335 61.3454 137.0367 7.4459 -0.6461 -2.7109
# 4 5.9945 5.6557 7.4459 42.7265 -0.8586 4.9940
# 5 -4.3738 -1.6440 -0.6461 -0.8586 39.8918 1.6740
# 6 -0.8008 2.0553 -2.7109 4.9940 1.6740 38.8840
#
#
#
# Elastic Compliance Matrix: (Units=1/GPa)
#
#
# Indices 1 2 3 4 5 6 
#
# 1 0.012055 -0.001129 -0.005275 -0.000595 0.001178 -0.000034
# 2 -0.001129 0.009762 -0.003819 -0.000374 0.000241 -0.000768
# 3 -0.005275 -0.003819 0.011620 -0.000914 -0.000611 0.001047
# 4 -0.000595 -0.000374 -0.000914 0.024079 0.000556 -0.003173
# 5 0.001178 0.000241 -0.000611 0.000556 0.025259 -0.001190
# 6 -0.000034 -0.000768 0.001047 -0.003173 -0.001190 0.026289
#
#
# Mechanical properties :
#
#
# Convention : Reuss Voigt Hill
#
# Bulk Modulus (GPa) = 76.97506 79.88265 78.42885
# Shear Modulus (GPa) = 37.35769 38.81464 38.08617
#
# Velocity S-wave (km/s) = 4.29461 4.37756 4.33628
# Velocity P-wave (km/s) = 7.91168 8.06159 7.98699
#
# Compressibility (1/GPa) = 0.01299122
#
# Stress axis : x y z
#
# Youngs Moduli (GPa) = 82.95300 102.43448 86.05694
#
# Poissons Ratio (x) = 0.11564 0.45396
# Poissons Ratio (y) = 0.09365 0.32866
# Poissons Ratio (z) = 0.43759 0.39121
#
# Static dielectric constant tensor:
#      x y z
#    x 3.805190 0.168770 0.053680 
#    y 0.168770 3.870110 0.047900 
#    z 0.053680 0.047900 3.742890 
# 
# 
# High freq. dielectric constant tensor:
#      x y z
#    x 1.794720 0.014330 -0.000090 
#    y 0.014330 1.804380 0.000150 
#    z -0.000090 0.000150 1.800850 
# 
# From -- ./inp_files/184184.got.cif
#   From: 2010.06.25/outbox.cif.g09.slc.cpg/sg2_93_cif.got.tgz:184184.got - 2010.06.27 13:26:56.
