data_PCOD8030842
_publ_section_title
;
Structure prediction by ZEFSAII (Michael W. Deem and Ramdas Pophale) SiO2 
 PCOD8030842
Probable space group: P -1
;
_chemical_formula_sum "Si O2"
_cell_formula_units_Z 16
_cell_length_a 12.045902
_cell_length_b 13.976343
_cell_length_c 10.297779
_cell_angle_alpha 84.775812
_cell_angle_beta 82.018879
_cell_angle_gamma 149.304219
_cell_volume 796.899869
_symmetry_space_group_name_H-M "P -1"
_symmetry_group_IT_number 2
_symmetry_cell_setting 'triclinic'
loop_
_space_group_symop_operation_xyz
x,y,z
-x,-y,-z
loop_
_atom_site_type_symbol
_atom_site_label
_atom_site_fract_x
_atom_site_fract_y
_atom_site_fract_z
Si Si1 0.495390 0.027544 0.144465
Si Si2 0.805006 0.432920 0.066395
Si Si3 0.711435 0.012116 0.217127
Si Si4 0.814837 0.445267 0.565214
Si Si5 0.161868 0.416446 0.210159
Si Si6 0.376733 0.331479 0.946486
Si Si7 0.920638 0.070932 0.923910
Si Si8 0.024425 0.337513 0.729292
O O1 0.552777 0.183677 0.139286
O O2 0.689291 0.109060 0.177405
O O3 0.222951 0.798312 0.259201
O O4 0.500000 0.000000 0.000000
O O5 0.851587 0.520319 0.184041
O O6 0.792606 0.502313 0.948061
O O7 0.000000 0.500000 0.000000
O O8 0.934090 0.171364 0.261838
O O9 0.463676 0.794274 0.350238
O O10 0.769500 0.998001 0.078876
O O11 0.902854 0.556030 0.673009
O O12 0.810671 0.522063 0.441262
O O13 0.000000 0.500000 0.500000
O O14 0.406259 0.545994 0.192485
O O15 0.234204 0.138903 0.072212
O O16 0.500000 0.500000 0.000000
O O17 0.189260 0.243064 0.895995
O O18 0.957271 0.176007 0.790741
#
# Coordination Sequence:
#
# PCOD8030842 Si02
#       8
#     2   2   2   2   2   2   2   2
#     4  12  20  33  61  92 126 165 219 261 314 377
#     4  12  20  34  63  93 122 166 216 266 310 378
#     4  12  22  39  64  93 127 175 213 256 321 389
#     4  12  27  41  62  94 142 179 206 253 325 391
#     4  12  23  41  65  94 132 168 214 267 325 381
#     4  11  22  40  72 103 117 157 225 284 322 369
#     4  11  22  41  70  97 122 162 222 273 323 379
#     4  12  24  41  59  96 132 168 213 270 316 377
#
# _framework density 20.077804
#
# number of rings (size 3 to 8) (size 9 to 14) (size 15 to 20)
#    0.000    0.250    8.750    2.250    0.000    1.500 
#    0.000    0.625    0.000    1.500    0.000    0.000 
#    0.000    0.000    0.000    0.000    0.000    0.000 
#
# Total GULP energy -198329.055552 kJ/mol
# GULP energy per Si atom -12395.565972 kJ/mol
# Density = 2.003211 g / cm^3
# Si number density = 20.077804 Si / 1000 Ang^3
#
#
#
# Elastic Constant Matrix: (Units=GPa)
#
#
# Indices 1 2 3 4 5 6 
#
# 1 86.6857 39.9690 33.8459 -12.6325 -4.2808 4.8829
# 2 39.9690 148.5014 49.3503 -7.1493 0.7537 -9.3897
# 3 33.8459 49.3503 95.8192 -11.6276 4.3228 2.2378
# 4 -12.6325 -7.1493 -11.6276 33.9729 -2.1405 -6.7683
# 5 -4.2808 0.7537 4.3228 -2.1405 22.6643 -4.2035
# 6 4.8829 -9.3897 2.2378 -6.7683 -4.2035 39.1703
#
#
#
# Elastic Compliance Matrix: (Units=1/GPa)
#
#
# Indices 1 2 3 4 5 6 
#
# 1 0.015008 -0.002778 -0.003552 0.003759 0.003721 -0.001285
# 2 -0.002778 0.008875 -0.003653 0.000158 0.000402 0.002753
# 3 -0.003552 -0.003653 0.014021 0.002269 -0.003230 -0.001188
# 4 0.003759 0.000158 0.002269 0.033043 0.004436 0.005625
# 5 0.003721 0.000402 -0.003230 0.004436 0.046888 0.005615
# 6 -0.001285 0.002753 -0.001188 0.005625 0.005615 0.027992
#
#
# Mechanical properties :
#
#
# Convention : Reuss Voigt Hill
#
# Bulk Modulus (GPa) = 55.74811 64.14853 59.94832
# Shear Modulus (GPa) = 29.10816 33.01757 31.06287
#
# Velocity S-wave (km/s) = 3.81171 4.05962 3.93762
# Velocity P-wave (km/s) = 6.87012 7.34802 7.11308
#
# Compressibility (1/GPa) = 0.01793783
#
# Stress axis : x y z
#
# Youngs Moduli (GPa) = 66.63301 112.67225 71.32011
#
# Poissons Ratio (x) = 0.31301 0.25333
# Poissons Ratio (y) = 0.18511 0.26054
# Poissons Ratio (z) = 0.23669 0.41160
#
# Static dielectric constant tensor:
#      x y z
#    x 3.619550 -0.488150 0.107620 
#    y -0.488150 3.706020 -0.110160 
#    z 0.107620 -0.110160 3.450690 
# 
# 
# High freq. dielectric constant tensor:
#      x y z
#    x 1.779700 0.000330 -0.002370 
#    y 0.000330 1.815600 -0.011980 
#    z -0.002370 -0.011980 1.744960 
# 
# From -- ./inp_files/273159.got.cif
#   From: 2010.06.25/outbox.cif.g09.slc.cpg/sg2_137_cif.got.tgz:273159.got - 2010.06.27 13:26:56.
