data_PCOD8030365
_publ_section_title
;
Structure prediction by ZEFSAII (Michael W. Deem and Ramdas Pophale) SiO2 
 PCOD8030365
Probable space group: P -1
;
_chemical_formula_sum "Si O2"
_cell_formula_units_Z 14
_cell_length_a 9.296467
_cell_length_b 10.840321
_cell_length_c 9.940024
_cell_angle_alpha 126.959384
_cell_angle_beta 132.490930
_cell_angle_gamma 55.771569
_cell_volume 569.067335
_symmetry_space_group_name_H-M "P -1"
_symmetry_group_IT_number 2
_symmetry_cell_setting 'triclinic'
loop_
_space_group_symop_operation_xyz
x,y,z
-x,-y,-z
loop_
_atom_site_type_symbol
_atom_site_label
_atom_site_fract_x
_atom_site_fract_y
_atom_site_fract_z
Si Si1 0.858413 0.200618 0.965365
Si Si2 0.702091 0.855918 0.760909
Si Si3 0.705658 0.975042 0.314902
Si Si4 0.928908 0.227389 0.723062
Si Si5 0.281818 0.506837 0.419810
Si Si6 0.435170 0.182563 0.643064
Si Si7 0.786757 0.467735 0.317958
O O1 0.869792 0.267734 0.866070
O O2 0.672782 0.116895 0.798899
O O3 0.801069 0.340970 0.128316
O O4 0.087361 0.089037 0.068374
O O5 0.760959 0.666765 0.705397
O O6 0.586739 0.891567 0.566265
O O7 0.534413 0.954237 0.826200
O O8 0.722276 0.859209 0.379089
O O9 0.833831 0.870597 0.206211
O O10 0.791514 0.124576 0.502482
O O11 0.887400 0.393084 0.723353
O O12 0.500000 0.500000 0.500000
O O13 0.271895 0.594200 0.615887
O O14 0.384300 0.373593 0.727265
O O15 0.000000 0.500000 0.500000
#
# Coordination Sequence:
#
# PCOD8030365 Si02
#       7
#     2   2   2   2   2   2   2
#     4  12  25  45  73 108 133 187 244 281 348 422
#     4  11  24  44  72 102 144 176 238 292 344 408
#     4  11  24  47  69 101 148 186 226 291 357 411
#     4  11  25  44  74 103 141 191 229 283 361 415
#     4  11  21  44  73 102 138 185 227 288 354 398
#     4  11  23  45  71 102 141 185 231 292 348 412
#     4  11  22  45  72 105 140 181 232 295 349 402
#
# _framework density 24.601659000000001
#
# number of rings (size 3 to 8) (size 9 to 14) (size 15 to 20)
#    0.000    0.857    5.714    2.571    0.000    1.714 
#    2.571    0.000    0.000    0.000    0.000    0.000 
#    0.000    0.000    0.000    0.000    0.000    0.000 
#
# Total GULP energy -173583.671767 kJ/mol
# GULP energy per Si atom -12398.833698 kJ/mol
# Density = 2.454566 g / cm^3
# Si number density = 24.601659 Si / 1000 Ang^3
#
#
#
# Elastic Constant Matrix: (Units=GPa)
#
#
# Indices 1 2 3 4 5 6 
#
# 1 155.2503 29.7031 38.3279 10.8500 0.6083 -25.0639
# 2 29.7031 74.5302 35.2058 -16.0024 9.7230 -26.8645
# 3 38.3279 35.2058 79.2111 6.5779 2.4858 -16.3825
# 4 10.8500 -16.0024 6.5779 34.2226 -8.4443 -2.9089
# 5 0.6083 9.7230 2.4858 -8.4443 58.3410 -2.9612
# 6 -25.0639 -26.8645 -16.3825 -2.9089 -2.9612 45.6972
#
#
#
# Elastic Compliance Matrix: (Units=1/GPa)
#
#
# Indices 1 2 3 4 5 6 
#
# 1 0.007921 -0.001831 -0.002327 -0.002717 0.000043 0.002264
# 2 -0.001831 0.026573 -0.009691 0.015617 -0.001124 0.012065
# 3 -0.002327 -0.009691 0.018517 -0.007492 -0.000276 -0.000830
# 4 -0.002717 0.015617 -0.007492 0.040478 0.004002 0.007841
# 5 0.000043 -0.001124 -0.000276 0.004002 0.017953 0.000682
# 6 0.002264 0.012065 -0.000830 0.007841 0.000682 0.030463
#
#
# Mechanical properties :
#
#
# Convention : Reuss Voigt Hill
#
# Bulk Modulus (GPa) = 39.50370 57.27391 48.38881
# Shear Modulus (GPa) = 28.08347 41.36915 34.72631
#
# Velocity S-wave (km/s) = 3.38232 4.10513 3.76113
# Velocity P-wave (km/s) = 5.59871 6.76761 6.21072
#
# Compressibility (1/GPa) = 0.02531408
#
# Stress axis : x y z
#
# Youngs Moduli (GPa) = 126.24521 37.63174 54.00543
#
# Poissons Ratio (x) = 0.06890 0.12565
# Poissons Ratio (y) = 0.23114 0.52337
# Poissons Ratio (z) = 0.29371 0.36469
#
# Static dielectric constant tensor:
#      x y z
#    x 4.787920 -0.296580 0.043130 
#    y -0.296580 5.439120 0.635670 
#    z 0.043130 0.635670 4.585110 
# 
# 
# High freq. dielectric constant tensor:
#      x y z
#    x 2.003030 -0.006680 0.001140 
#    y -0.006680 2.000010 -0.004200 
#    z 0.001140 -0.004200 1.956510 
# 
# From -- ./inp_files/173198.got.cif
#   From: 2010.06.25/outbox.cif.g09.slc.cpg/sg2_87_cif.got.tgz:173198.got - 2010.06.27 13:26:56.
