data_PCOD8030299
_publ_section_title
;
Structure prediction by ZEFSAII (Michael W. Deem and Ramdas Pophale) SiO2 
 PCOD8030299
Probable space group: P -1
;
_chemical_formula_sum "Si O2"
_cell_formula_units_Z 14
_cell_length_a 18.155773
_cell_length_b 21.213583
_cell_length_c 8.222092
_cell_angle_alpha 42.742718
_cell_angle_beta 50.437526
_cell_angle_gamma 18.384532
_cell_volume 650.689610
_symmetry_space_group_name_H-M "P -1"
_symmetry_group_IT_number 2
_symmetry_cell_setting 'triclinic'
loop_
_space_group_symop_operation_xyz
x,y,z
-x,-y,-z
loop_
_atom_site_type_symbol
_atom_site_label
_atom_site_fract_x
_atom_site_fract_y
_atom_site_fract_z
Si Si1 0.884890 0.909767 0.197308
Si Si2 0.630228 0.147179 0.764410
Si Si3 0.726666 0.737923 0.232260
Si Si4 0.407731 0.329757 0.267637
Si Si5 0.038317 0.297441 0.019393
Si Si6 0.897550 0.456223 0.269502
Si Si7 0.393571 0.502068 0.217968
O O1 0.980097 0.719181 0.434345
O O2 0.121486 0.764127 0.177751
O O3 0.680476 0.106905 0.247561
O O4 0.781598 0.023217 0.949912
O O5 0.370313 0.334630 0.806985
O O6 0.586331 0.289086 0.480873
O O7 0.771219 0.955508 0.801670
O O8 0.631080 0.736234 0.472598
O O9 0.878268 0.571299 0.172476
O O10 0.890247 0.667798 0.235421
O O11 0.500000 0.000000 0.000000
O O12 0.341040 0.471136 0.215368
O O13 0.227751 0.497563 0.049035
O O14 0.057341 0.307010 0.164993
O O15 0.500000 0.500000 0.000000
#
# Coordination Sequence:
#
# PCOD8030299 Si02
#       7
#     2   2   2   2   2   2   2
#     4  11  23  43  70  94 132 170 212 266 331 382
#     4  11  21  44  67  95 129 170 215 266 324 383
#     4  12  22  40  62  95 134 174 220 264 313 376
#     4  12  24  43  64  97 132 174 215 267 322 385
#     4  12  23  40  68  94 134 176 217 264 318 382
#     4  11  22  41  64  96 130 176 218 261 317 380
#     4  11  25  46  71  96 127 167 217 273 326 387
#
# _framework density 21.515636000000001
#
# number of rings (size 3 to 8) (size 9 to 14) (size 15 to 20)
#    0.000    0.571    7.143    2.571    0.000    1.143 
#    0.000    2.857    0.000    0.000    0.000    0.000 
#    0.000    0.000    0.000    0.000    0.000    0.000 
#
# Total GULP energy -173500.507263 kJ/mol
# GULP energy per Si atom -12392.893376 kJ/mol
# Density = 2.146667 g / cm^3
# Si number density = 21.515636 Si / 1000 Ang^3
#
#
#
# Elastic Constant Matrix: (Units=GPa)
#
#
# Indices 1 2 3 4 5 6 
#
# 1 42.5857 20.3024 49.1076 6.1187 6.5683 -8.6242
# 2 20.3024 130.0353 41.6658 3.3701 -4.8823 -3.0941
# 3 49.1076 41.6658 121.2731 -0.7631 3.2067 -10.2112
# 4 6.1187 3.3701 -0.7631 28.3696 -6.3056 3.3547
# 5 6.5683 -4.8823 3.2067 -6.3056 34.3722 8.1617
# 6 -8.6242 -3.0941 -10.2112 3.3547 8.1617 35.2411
#
#
#
# Elastic Compliance Matrix: (Units=1/GPa)
#
#
# Indices 1 2 3 4 5 6 
#
# 1 0.055127 -0.001921 -0.020318 -0.017026 -0.015011 0.012532
# 2 -0.001921 0.008810 -0.002374 -0.000150 0.002011 -0.000836
# 3 -0.020318 -0.002374 0.017101 0.006079 0.003446 -0.001602
# 4 -0.017026 -0.000150 0.006079 0.043074 0.012820 -0.009488
# 5 -0.015011 0.002011 0.003446 0.012820 0.037207 -0.012336
# 6 0.012532 -0.000836 -0.001602 -0.009488 -0.012336 0.034665
#
#
# Mechanical properties :
#
#
# Convention : Reuss Voigt Hill
#
# Bulk Modulus (GPa) = 31.43324 57.33842 44.38583
# Shear Modulus (GPa) = 19.54553 31.78447 25.66500
#
# Velocity S-wave (km/s) = 3.01729 3.84770 3.45752
# Velocity P-wave (km/s) = 5.17493 6.81522 6.05092
#
# Compressibility (1/GPa) = 0.03181346
#
# Stress axis : x y z
#
# Youngs Moduli (GPa) = 18.14000 113.50516 58.47631
#
# Poissons Ratio (x) = 0.21803 1.18811
# Poissons Ratio (y) = 0.03484 0.13880
# Poissons Ratio (z) = 0.36856 0.26941
#
# Static dielectric constant tensor:
#      x y z
#    x 3.890380 -0.248250 -0.039970 
#    y -0.248250 4.465720 -0.071710 
#    z -0.039970 -0.071710 3.956580 
# 
# 
# High freq. dielectric constant tensor:
#      x y z
#    x 1.819490 -0.002520 0.010170 
#    y -0.002520 1.866570 -0.010700 
#    z 0.010170 -0.010700 1.845150 
# 
# From -- ./inp_files/313503.got.cif
#   From: 2010.06.25/outbox.cif.g09.slc.cpg/sg2_157_cif.got.tgz:313503.got - 2010.06.27 13:26:56.
