data_PCOD8030390
_publ_section_title
;
Structure prediction by ZEFSAII (Michael W. Deem and Ramdas Pophale) SiO2 
 PCOD8030390
Probable space group: P -1
;
_chemical_formula_sum "Si O2"
_cell_formula_units_Z 14
_cell_length_a 8.230346
_cell_length_b 23.172456
_cell_length_c 9.136871
_cell_angle_alpha 135.747440
_cell_angle_beta 130.436815
_cell_angle_gamma 30.578977
_cell_volume 616.098272
_symmetry_space_group_name_H-M "P -1"
_symmetry_group_IT_number 2
_symmetry_cell_setting 'triclinic'
loop_
_space_group_symop_operation_xyz
x,y,z
-x,-y,-z
loop_
_atom_site_type_symbol
_atom_site_label
_atom_site_fract_x
_atom_site_fract_y
_atom_site_fract_z
Si Si1 0.089756 0.172942 0.682210
Si Si2 0.190936 0.432886 0.340865
Si Si3 0.317079 0.687870 0.041221
Si Si4 0.824889 0.970146 0.782867
Si Si5 0.811701 0.422001 0.927191
Si Si6 0.085378 0.374962 0.708487
Si Si7 0.877298 0.258461 0.309720
O O1 0.038093 0.106353 0.430669
O O2 0.981649 0.191798 0.821174
O O3 0.865205 0.309562 0.726356
O O4 0.455754 0.096996 0.765769
O O5 0.577345 0.324298 0.363535
O O6 0.000000 0.500000 0.500000
O O7 0.097409 0.536818 0.375729
O O8 0.064934 0.380223 0.118877
O O9 0.556270 0.695495 0.202266
O O10 0.442757 0.566035 0.984460
O O11 0.223787 0.697609 0.837723
O O12 0.873174 0.888845 0.792237
O O13 0.000000 0.000000 0.000000
O O14 0.895252 0.452915 0.886960
O O15 0.082112 0.277230 0.515474
#
# Coordination Sequence:
#
# PCOD8030390 Si02
#       7
#     2   2   2   2   2   2   2
#     4  11  26  46  71 100 135 183 232 278 341 405
#     4  11  24  38  67 108 143 181 223 275 339 415
#     4  11  25  42  68 107 140 172 220 284 346 410
#     4  11  27  48  72  95 132 186 236 285 332 397
#     4  11  21  45  68 100 147 175 215 281 350 409
#     4  11  23  41  65 103 143 179 215 272 354 404
#     4  12  24  43  71  96 138 182 227 282 340 401
#
# _framework density 22.723648000000001
#
# number of rings (size 3 to 8) (size 9 to 14) (size 15 to 20)
#    0.000    0.857    4.286    2.571    6.000    1.714 
#    0.000    1.429    0.000    0.000    0.000    0.000 
#    0.000    0.000    0.000    0.000    0.000    0.000 
#
# Total GULP energy -173489.759820 kJ/mol
# GULP energy per Si atom -12392.125701 kJ/mol
# Density = 2.267193 g / cm^3
# Si number density = 22.723648 Si / 1000 Ang^3
#
#
#
# Elastic Constant Matrix: (Units=GPa)
#
#
# Indices 1 2 3 4 5 6 
#
# 1 45.8789 22.5936 53.2971 10.9393 -1.3600 -23.1076
# 2 22.5936 83.9085 44.8498 2.7141 -7.8014 2.6554
# 3 53.2971 44.8498 153.4111 -1.4669 5.9201 -17.0754
# 4 10.9393 2.7141 -1.4669 36.5772 -2.2103 0.7614
# 5 -1.3600 -7.8014 5.9201 -2.2103 49.3121 1.5592
# 6 -23.1076 2.6554 -17.0754 0.7614 1.5592 27.3982
#
#
#
# Elastic Compliance Matrix: (Units=1/GPa)
#
#
# Indices 1 2 3 4 5 6 
#
# 1 0.098936 -0.016370 -0.021791 -0.030810 -0.000914 0.072356
# 2 -0.016370 0.017814 -0.001471 0.004060 0.003255 -0.016748
# 3 -0.021791 -0.001471 0.013559 0.007266 -0.001823 -0.009884
# 4 -0.030810 0.004060 0.007266 0.037101 0.001309 -0.022956
# 5 -0.000914 0.003255 -0.001823 0.001309 0.021156 -0.003463
# 6 0.072356 -0.016748 -0.009884 -0.022956 -0.003463 0.093822
#
#
# Mechanical properties :
#
#
# Convention : Reuss Voigt Hill
#
# Bulk Modulus (GPa) = 19.59191 58.29773 38.94482
# Shear Modulus (GPa) = 13.20422 33.48803 23.34612
#
# Velocity S-wave (km/s) = 2.41317 3.84306 3.20877
# Velocity P-wave (km/s) = 4.05032 6.73817 5.55913
#
# Compressibility (1/GPa) = 0.05104147
#
# Stress axis : x y z
#
# Youngs Moduli (GPa) = 10.10759 56.13706 73.75195
#
# Poissons Ratio (x) = 0.91898 1.60716
# Poissons Ratio (y) = 0.16546 0.10852
# Poissons Ratio (z) = 0.22026 0.08260
#
# Static dielectric constant tensor:
#      x y z
#    x 4.919810 0.828980 -0.219000 
#    y 0.828980 5.152860 -0.186930 
#    z -0.219000 -0.186930 4.333700 
# 
# 
# High freq. dielectric constant tensor:
#      x y z
#    x 1.905430 0.003610 -0.006360 
#    y 0.003610 1.885960 -0.010490 
#    z -0.006360 -0.010490 1.912600 
# 
# From -- ./inp_files/208120.got.cif
#   From: 2010.06.25/outbox.cif.g09.slc.cpg/sg2_105_cif.got.tgz:208120.got - 2010.06.27 13:26:56.
