data_PCOD8030092
_publ_section_title
;
Structure prediction by ZEFSAII (Michael W. Deem and Ramdas Pophale) SiO2 
 PCOD8030092
Probable space group: P -1
;
_chemical_formula_sum "Si O2"
_cell_formula_units_Z 10
_cell_length_a 9.007154
_cell_length_b 6.619206
_cell_length_c 11.655774
_cell_angle_alpha 80.640088
_cell_angle_beta 64.788508
_cell_angle_gamma 123.852332
_cell_volume 442.034485
_symmetry_space_group_name_H-M "P -1"
_symmetry_group_IT_number 2
_symmetry_cell_setting 'triclinic'
loop_
_space_group_symop_operation_xyz
x,y,z
-x,-y,-z
loop_
_atom_site_type_symbol
_atom_site_label
_atom_site_fract_x
_atom_site_fract_y
_atom_site_fract_z
Si Si1 0.655847 0.435144 0.430095
Si Si2 0.662635 0.853187 0.150838
Si Si3 0.946541 0.983233 0.833379
Si Si4 0.778187 0.800309 0.672229
Si Si5 0.536083 0.974863 0.679606
O O1 0.500000 0.500000 0.500000
O O2 0.596360 0.284195 0.341625
O O3 0.647150 0.263240 0.549999
O O4 0.924246 0.722191 0.303848
O O5 0.430229 0.518033 0.281735
O O6 0.621476 0.059203 0.166499
O O7 0.747424 0.890470 0.990595
O O8 0.861474 0.974316 0.165310
O O9 0.832793 0.757290 0.785838
O O10 0.709984 0.979887 0.688923
O O11 0.000000 0.000000 0.500000
#
# Coordination Sequence:
#
# PCOD8030092 Si02
#       5
#     2   2   2   2   2
#     4  11  21  42  68  98 132 173 226 275 329 396
#     4  11  25  47  65 100 138 181 227 269 341 405
#     4  11  24  45  70  94 144 180 213 290 333 393
#     4  12  26  44  69 102 136 175 229 287 328 395
#     4  11  23  41  71  97 133 179 227 275 336 401
#
# _framework density 22.622669999999999
#
# number of rings (size 3 to 8) (size 9 to 14) (size 15 to 20)
#    0.000    0.800    4.000    3.000    2.800    4.800 
#    0.000    0.000    0.000    0.000    0.000    0.000 
#    0.000    0.000    0.000    0.000    0.000    0.000 
#
# Total GULP energy -123903.836963 kJ/mol
# GULP energy per Si atom -12390.383696 kJ/mol
# Density = 2.257118 g / cm^3
# Si number density = 22.622670 Si / 1000 Ang^3
#
#
#
# Elastic Constant Matrix: (Units=GPa)
#
#
# Indices 1 2 3 4 5 6 
#
# 1 103.9543 58.8225 35.7617 19.2086 -10.6369 2.4570
# 2 58.8225 113.9573 47.0201 26.9181 -15.5966 -12.6929
# 3 35.7617 47.0201 102.6813 27.1396 -29.1978 8.4649
# 4 19.2086 26.9181 27.1396 47.3263 2.2575 1.4493
# 5 -10.6369 -15.5966 -29.1978 2.2575 37.2281 12.8120
# 6 2.4570 -12.6929 8.4649 1.4493 12.8120 32.4558
#
#
#
# Elastic Compliance Matrix: (Units=1/GPa)
#
#
# Indices 1 2 3 4 5 6 
#
# 1 0.014428 -0.007171 -0.000059 -0.001730 0.002877 -0.004940
# 2 -0.007171 0.016285 -0.005703 -0.003242 -0.002827 0.009660
# 3 -0.000059 -0.005703 0.022431 -0.010122 0.021321 -0.016040
# 4 -0.001730 -0.003242 -0.010122 0.029956 -0.013498 0.005493
# 5 0.002877 -0.002827 0.021321 -0.013498 0.053464 -0.027387
# 6 -0.004940 0.009660 -0.016040 0.005493 -0.027387 0.049712
#
#
# Mechanical properties :
#
#
# Convention : Reuss Voigt Hill
#
# Bulk Modulus (GPa) = 36.65878 67.08905 51.87392
# Shear Modulus (GPa) = 22.60038 35.33462 28.96750
#
# Velocity S-wave (km/s) = 3.16415 3.95639 3.58224
# Velocity P-wave (km/s) = 5.43955 7.11272 6.33165
#
# Compressibility (1/GPa) = 0.02727860
#
# Stress axis : x y z
#
# Youngs Moduli (GPa) = 69.30737 61.40655 44.58146
#
# Poissons Ratio (x) = 0.44037 0.00262
# Poissons Ratio (y) = 0.49703 0.25424
# Poissons Ratio (z) = 0.00407 0.35019
#
# Static dielectric constant tensor:
#      x y z
#    x 4.221390 0.003910 0.016430 
#    y 0.003910 4.248350 0.139210 
#    z 0.016430 0.139210 4.311970 
# 
# 
# High freq. dielectric constant tensor:
#      x y z
#    x 1.888300 0.012330 0.000770 
#    y 0.012330 1.897890 0.018010 
#    z 0.000770 0.018010 1.898430 
# 
# From -- ./inp_files/15993.got.cif
#   From: 2010.06.25/outbox.cif.g09.slc.cpg/sg2_8_cif.got.tgz:15993.got - 2010.06.27 13:26:56.
