data_PCOD8030709
_publ_section_title
;
Structure prediction by ZEFSAII (Michael W. Deem and Ramdas Pophale) SiO2 
 PCOD8030709
Probable space group: P -1
;
_chemical_formula_sum "Si O2"
_cell_formula_units_Z 16
_cell_length_a 8.616034
_cell_length_b 14.034741
_cell_length_c 13.976812
_cell_angle_alpha 151.308769
_cell_angle_beta 112.727763
_cell_angle_gamma 84.307144
_cell_volume 629.253418
_symmetry_space_group_name_H-M "P -1"
_symmetry_group_IT_number 2
_symmetry_cell_setting 'triclinic'
loop_
_space_group_symop_operation_xyz
x,y,z
-x,-y,-z
loop_
_atom_site_type_symbol
_atom_site_label
_atom_site_fract_x
_atom_site_fract_y
_atom_site_fract_z
Si Si1 0.884761 0.056558 0.287251
Si Si2 0.471935 0.455569 0.219780
Si Si3 0.060780 0.912930 0.050512
Si Si4 0.875706 0.304110 0.943170
Si Si5 0.647376 0.967387 0.441616
Si Si6 0.708138 0.601502 0.211493
Si Si7 0.709333 0.257272 0.534146
Si Si8 0.697508 0.635862 0.603322
O O1 0.757190 0.181909 0.376212
O O2 0.066545 0.194810 0.526874
O O3 0.963752 0.053894 0.197930
O O4 0.742829 0.784115 0.044404
O O5 0.564489 0.520194 0.195726
O O6 0.448868 0.666180 0.442527
O O7 0.635496 0.469196 0.346379
O O8 0.228242 0.094361 0.175134
O O9 0.153929 0.838756 0.091269
O O10 0.885192 0.673814 0.744140
O O11 0.709644 0.377676 0.972046
O O12 0.094313 0.529676 0.182398
O O13 0.853332 0.150042 0.708877
O O14 0.634999 0.031517 0.386290
O O15 0.500000 0.000000 0.500000
O O16 0.624154 0.710903 0.211131
O O17 0.500000 0.500000 0.500000
#
# Coordination Sequence:
#
# PCOD8030709 Si02
#       8
#     2   2   2   2   2   2   2   2
#     4  11  23  42  67  97 132 178 225 270 330 401
#     4  12  22  43  69  96 139 177 220 279 339 394
#     4  11  22  44  70  98 137 177 222 277 336 407
#     4  11  24  46  69  93 139 183 220 279 344 391
#     4  12  24  41  65 102 136 174 233 282 328 398
#     4  11  25  43  69  97 137 184 224 275 340 398
#     4  11  25  41  69  97 135 181 231 270 333 399
#     4  11  22  39  76 102 129 177 222 274 345 400
#
# _framework density 25.426957999999999
#
# number of rings (size 3 to 8) (size 9 to 14) (size 15 to 20)
#    0.000    0.750    6.250    0.375    1.750    3.500 
#    0.000    1.250    8.250    0.000    0.000    0.000 
#    0.000    0.000    0.000    0.000    0.000    0.000 
#
# Total GULP energy -198251.624305 kJ/mol
# GULP energy per Si atom -12390.726519 kJ/mol
# Density = 2.536908 g / cm^3
# Si number density = 25.426958 Si / 1000 Ang^3
#
#
#
# Elastic Constant Matrix: (Units=GPa)
#
#
# Indices 1 2 3 4 5 6 
#
# 1 96.2394 8.7666 38.6841 4.7130 -15.8142 1.4059
# 2 8.7666 60.8666 41.3625 -4.4616 1.1948 6.9617
# 3 38.6841 41.3625 106.9304 18.6449 -2.7400 2.7115
# 4 4.7130 -4.4616 18.6449 39.7214 4.0427 5.3952
# 5 -15.8142 1.1948 -2.7400 4.0427 49.1289 8.7832
# 6 1.4059 6.9617 2.7115 5.3952 8.7832 28.9016
#
#
#
# Elastic Compliance Matrix: (Units=1/GPa)
#
#
# Indices 1 2 3 4 5 6 
#
# 1 0.013110 0.002196 -0.005643 0.001207 0.004131 -0.002118
# 2 0.002196 0.025950 -0.012296 0.009379 -0.000146 -0.006910
# 3 -0.005643 -0.012296 0.017701 -0.009452 -0.000370 0.003452
# 4 0.001207 0.009379 -0.009452 0.031624 -0.001753 -0.006802
# 5 0.004131 -0.000146 -0.000370 -0.001753 0.023028 -0.006802
# 6 -0.002118 -0.006910 0.003452 -0.006802 -0.006802 0.039381
#
#
# Mechanical properties :
#
#
# Convention : Reuss Voigt Hill
#
# Bulk Modulus (GPa) = 39.56641 49.07364 44.32003
# Shear Modulus (GPa) = 26.21861 35.23194 30.72527
#
# Velocity S-wave (km/s) = 3.21461 3.72642 3.47994
# Velocity P-wave (km/s) = 5.41968 6.15278 5.79783
#
# Compressibility (1/GPa) = 0.02527396
#
# Stress axis : x y z
#
# Youngs Moduli (GPa) = 76.27973 38.53573 56.49443
#
# Poissons Ratio (x) = -0.08464 0.31881
# Poissons Ratio (y) = -0.16754 0.69468
# Poissons Ratio (z) = 0.43046 0.47385
#
# Static dielectric constant tensor:
#      x y z
#    x 5.352040 0.326890 -0.854690 
#    y 0.326890 4.945880 -0.961810 
#    z -0.854690 -0.961810 6.948920 
# 
# 
# High freq. dielectric constant tensor:
#      x y z
#    x 2.000900 0.006980 0.024210 
#    y 0.006980 1.999190 -0.004080 
#    z 0.024210 -0.004080 2.054120 
# 
# From -- ./inp_files/505921.got.cif
#   From: 2010.06.25/outbox.cif.g09.slc.cpg/sg2_253_cif.got.tgz:505921.got - 2010.06.27 13:26:56.
