data_PCOD8030682
_publ_section_title
;
Structure prediction by ZEFSAII (Michael W. Deem and Ramdas Pophale) SiO2 
 PCOD8030682
Probable space group: P -1
;
_chemical_formula_sum "Si O2"
_cell_formula_units_Z 14
_cell_length_a 9.869310
_cell_length_b 20.759649
_cell_length_c 14.076994
_cell_angle_alpha 25.917501
_cell_angle_beta 32.205005
_cell_angle_gamma 41.838827
_cell_volume 670.241423
_symmetry_space_group_name_H-M "P -1"
_symmetry_group_IT_number 2
_symmetry_cell_setting 'triclinic'
loop_
_space_group_symop_operation_xyz
x,y,z
-x,-y,-z
loop_
_atom_site_type_symbol
_atom_site_label
_atom_site_fract_x
_atom_site_fract_y
_atom_site_fract_z
Si Si1 0.094486 0.863228 0.680978
Si Si2 0.607112 0.140003 0.309236
Si Si3 0.662556 0.576177 0.888065
Si Si4 0.460875 0.685717 0.573107
Si Si5 0.778099 0.382068 0.562086
Si Si6 0.980188 0.328223 0.708952
Si Si7 0.415688 0.307655 0.720066
O O1 0.295511 0.916271 0.572757
O O2 0.236639 0.764077 0.653935
O O3 0.000000 0.000000 0.500000
O O4 0.853670 0.776701 0.987543
O O5 0.383825 0.251354 0.305851
O O6 0.500000 0.000000 0.500000
O O7 0.844103 0.230171 0.000613
O O8 0.957598 0.557583 0.720525
O O9 0.500000 0.500000 0.000000
O O10 0.590919 0.490989 0.142346
O O11 0.463303 0.734082 0.397345
O O12 0.739222 0.729997 0.393534
O O13 0.827221 0.297516 0.742814
O O14 0.617294 0.273519 0.728665
O O15 0.612498 0.518586 0.502161
O O16 0.000000 0.500000 0.500000
#
# Coordination Sequence:
#
# PCOD8030682 Si02
#       7
#     2   2   2   2   2   2   2
#     4  12  27  48  67  95 147 192 229 283 363 432
#     4  12  26  44  71 110 146 180 236 308 356 412
#     4  12  20  42  77 103 134 181 245 292 350 415
#     4  12  23  44  78  99 128 192 242 284 346 428
#     4  11  22  39  68 107 136 168 238 307 336 410
#     4  12  20  42  76 101 134 184 242 289 350 421
#     4  11  24  43  65 102 142 179 229 289 357 422
#
# _framework density 20.887996999999999
#
# number of rings (size 3 to 8) (size 9 to 14) (size 15 to 20)
#    0.000    0.286    8.571    0.000    2.000    2.286 
#    2.571    1.429    0.000    0.000    0.000    0.000 
#    0.000    0.000    0.000    0.000    0.000    0.000 
#
# Total GULP energy -173600.602664 kJ/mol
# GULP energy per Si atom -12400.043047 kJ/mol
# Density = 2.084045 g / cm^3
# Si number density = 20.887997 Si / 1000 Ang^3
#
#
#
# Elastic Constant Matrix: (Units=GPa)
#
#
# Indices 1 2 3 4 5 6 
#
# 1 162.5279 54.5009 32.1955 -1.3965 10.5360 12.9799
# 2 54.5009 95.8517 50.0390 3.5110 1.7568 11.6240
# 3 32.1955 50.0390 79.6312 4.3398 8.1766 9.5786
# 4 -1.3965 3.5110 4.3398 42.7733 -0.3007 1.6985
# 5 10.5360 1.7568 8.1766 -0.3007 39.6198 1.7439
# 6 12.9799 11.6240 9.5786 1.6985 1.7439 31.6313
#
#
#
# Elastic Compliance Matrix: (Units=1/GPa)
#
#
# Indices 1 2 3 4 5 6 
#
# 1 0.007831 -0.004132 -0.000236 0.000668 -0.001777 -0.001561
# 2 -0.004132 0.018040 -0.009625 -0.000538 0.002375 -0.002121
# 3 -0.000236 -0.009625 0.019352 -0.001127 -0.003426 -0.001977
# 4 0.000668 -0.000538 -0.001127 0.023602 0.000303 -0.001019
# 5 -0.001777 0.002375 -0.003426 0.000303 0.026342 -0.000575
# 6 -0.001561 -0.002121 -0.001977 -0.001019 -0.000575 0.033720
#
#
# Mechanical properties :
#
#
# Convention : Reuss Voigt Hill
#
# Bulk Modulus (GPa) = 58.01113 67.94241 62.97677
# Shear Modulus (GPa) = 30.74686 36.22324 33.48505
#
# Velocity S-wave (km/s) = 3.84081 4.16885 4.00819
# Velocity P-wave (km/s) = 6.89216 7.46793 7.18582
#
# Compressibility (1/GPa) = 0.01723807
#
# Stress axis : x y z
#
# Youngs Moduli (GPa) = 127.70249 55.43124 51.67321
#
# Poissons Ratio (x) = 0.22904 0.01218
# Poissons Ratio (y) = 0.52767 0.49735
# Poissons Ratio (z) = 0.03010 0.53353
#
# Static dielectric constant tensor:
#      x y z
#    x 5.316750 -0.327120 -0.347910 
#    y -0.327120 3.864280 0.291520 
#    z -0.347910 0.291520 3.901500 
# 
# 
# High freq. dielectric constant tensor:
#      x y z
#    x 1.829630 -0.006480 0.010080 
#    y -0.006480 1.810890 0.027110 
#    z 0.010080 0.027110 1.808940 
# 
# From -- ./inp_files/202674.got.cif
#   From: 2010.06.25/outbox.cif.g09.slc.cpg/sg2_102_cif.got.tgz:202674.got - 2010.06.27 13:26:56.
