data_PCOD8030367
_publ_section_title
;
Structure prediction by ZEFSAII (Michael W. Deem and Ramdas Pophale) SiO2 
 PCOD8030367
Probable space group: P -1
;
_chemical_formula_sum "Si O2"
_cell_formula_units_Z 16
_cell_length_a 11.856293
_cell_length_b 22.284098
_cell_length_c 11.301848
_cell_angle_alpha 150.023318
_cell_angle_beta 37.129279
_cell_angle_gamma 151.902017
_cell_volume 695.682814
_symmetry_space_group_name_H-M "P -1"
_symmetry_group_IT_number 2
_symmetry_cell_setting 'triclinic'
loop_
_space_group_symop_operation_xyz
x,y,z
-x,-y,-z
loop_
_atom_site_type_symbol
_atom_site_label
_atom_site_fract_x
_atom_site_fract_y
_atom_site_fract_z
Si Si1 0.580909 0.363344 0.999540
Si Si2 0.731434 0.170421 0.634528
Si Si3 0.960397 0.696265 0.184480
Si Si4 0.044595 0.152726 0.180123
Si Si5 0.870583 0.133995 0.045469
Si Si6 0.388508 0.336286 0.872305
Si Si7 0.152557 0.655910 0.717298
Si Si8 0.669216 0.809716 0.560562
O O1 0.692698 0.289183 0.830189
O O2 0.555412 0.344939 0.847512
O O3 0.782756 0.547498 0.164225
O O4 0.325519 0.288756 0.147677
O O5 0.783109 0.186854 0.761097
O O6 0.972409 0.215022 0.449436
O O7 0.500000 0.000000 0.500000
O O8 0.835413 0.774562 0.416114
O O9 0.999684 0.654137 0.949321
O O10 0.857959 0.104060 0.144992
O O11 0.000000 0.000000 0.000000
O O12 0.145365 0.281770 0.042124
O O13 0.784949 0.983897 0.789458
O O14 0.735406 0.196573 0.213959
O O15 0.337725 0.208798 0.606146
O O16 0.500000 0.500000 0.000000
O O17 0.388857 0.687577 0.630901
O O18 0.000000 0.500000 0.500000
#
# Coordination Sequence:
#
# PCOD8030367 Si02
#       8
#     2   2   2   2   2   2   2   2
#     4  11  25  46  73 105 147 193 246 303 367 440
#     4  12  28  47  76 102 146 203 246 309 360 433
#     4  12  28  48  74 112 150 193 253 300 372 444
#     4  11  25  47  72 104 143 190 252 298 371 431
#     4  11  25  44  72 109 146 193 242 303 369 435
#     4  11  21  44  73 106 149 189 237 304 375 437
#     4  12  28  46  74 114 155 192 243 303 377 449
#     4  12  25  43  74 107 156 190 242 306 369 443
#
# _framework density 22.998989000000002
#
# number of rings (size 3 to 8) (size 9 to 14) (size 15 to 20)
#    0.000    0.500    3.750    3.375    8.750    1.500 
#    0.000    0.000    0.000    0.000    0.000    0.000 
#    0.000    0.000    0.000    0.000    0.000    0.000 
#
# Total GULP energy -198340.001115 kJ/mol
# GULP energy per Si atom -12396.250070 kJ/mol
# Density = 2.294664 g / cm^3
# Si number density = 22.998989 Si / 1000 Ang^3
#
#
#
# Elastic Constant Matrix: (Units=GPa)
#
#
# Indices 1 2 3 4 5 6 
#
# 1 157.5780 39.4199 63.2846 11.4093 -4.0059 1.3118
# 2 39.4199 89.7411 28.3214 10.3668 -5.2554 3.0377
# 3 63.2846 28.3214 129.9578 11.8062 -2.9952 -2.3825
# 4 11.4093 10.3668 11.8062 38.7897 5.0697 1.4252
# 5 -4.0059 -5.2554 -2.9952 5.0697 43.0553 -0.5885
# 6 1.3118 3.0377 -2.3825 1.4252 -0.5885 34.7321
#
#
#
# Elastic Compliance Matrix: (Units=1/GPa)
#
#
# Indices 1 2 3 4 5 6 
#
# 1 0.008439 -0.002484 -0.003495 -0.000786 0.000327 -0.000303
# 2 -0.002484 0.013090 -0.001398 -0.002508 0.001551 -0.001018
# 3 -0.003495 -0.001398 0.009883 -0.001697 0.000405 0.001009
# 4 -0.000786 -0.002508 -0.001697 0.027731 -0.003777 -0.001069
# 5 0.000327 0.001551 0.000405 -0.003777 0.023925 0.000440
# 6 -0.000303 -0.001018 0.001009 -0.001069 0.000440 0.029013
#
#
# Mechanical properties :
#
#
# Convention : Reuss Voigt Hill
#
# Bulk Modulus (GPa) = 60.02791 71.03654 65.53222
# Shear Modulus (GPa) = 37.76808 39.73215 38.75011
#
# Velocity S-wave (km/s) = 4.05676 4.16090 4.10916
# Velocity P-wave (km/s) = 6.93541 7.35106 7.14626
#
# Compressibility (1/GPa) = 0.01665892
#
# Stress axis : x y z
#
# Youngs Moduli (GPa) = 118.50277 76.39174 101.18105
#
# Poissons Ratio (x) = 0.18973 0.35359
# Poissons Ratio (y) = 0.29432 0.14150
# Poissons Ratio (z) = 0.41412 0.10683
#
# Static dielectric constant tensor:
#      x y z
#    x 4.572760 0.054450 0.028870 
#    y 0.054450 4.209620 -0.289560 
#    z 0.028870 -0.289560 4.131220 
# 
# 
# High freq. dielectric constant tensor:
#      x y z
#    x 1.926430 0.009230 -0.005530 
#    y 0.009230 1.907650 0.003330 
#    z -0.005530 0.003330 1.911120 
# 
# From -- ./inp_files/438714.got.cif
#   From: 2010.06.25/outbox.cif.g09.slc.cpg/sg2_220_cif.got.tgz:438714.got - 2010.06.27 13:26:56.
