data_PCOD8030441
_publ_section_title
;
Structure prediction by ZEFSAII (Michael W. Deem and Ramdas Pophale) SiO2 
 PCOD8030441
Probable space group: P -1
;
_chemical_formula_sum "Si O2"
_cell_formula_units_Z 14
_cell_length_a 11.572367
_cell_length_b 11.304488
_cell_length_c 8.600315
_cell_angle_alpha 61.014319
_cell_angle_beta 132.545353
_cell_angle_gamma 91.123018
_cell_volume 636.865489
_symmetry_space_group_name_H-M "P -1"
_symmetry_group_IT_number 2
_symmetry_cell_setting 'triclinic'
loop_
_space_group_symop_operation_xyz
x,y,z
-x,-y,-z
loop_
_atom_site_type_symbol
_atom_site_label
_atom_site_fract_x
_atom_site_fract_y
_atom_site_fract_z
Si Si1 0.530164 0.058581 0.156373
Si Si2 0.854638 0.628458 0.676454
Si Si3 0.079241 0.088564 0.414345
Si Si4 0.894069 0.406180 0.583485
Si Si5 0.275365 0.325267 0.939790
Si Si6 0.473405 0.201762 0.514114
Si Si7 0.136504 0.850285 0.126040
O O1 0.722789 0.049015 0.349435
O O2 0.518854 0.962550 0.355091
O O3 0.382237 0.232686 0.942693
O O4 0.500000 0.000000 0.000000
O O5 0.901355 0.767007 0.589441
O O6 0.851140 0.548107 0.566672
O O7 0.660364 0.691360 0.540599
O O8 0.000000 0.500000 0.000000
O O9 0.000000 0.000000 0.500000
O O10 0.964106 0.158492 0.112107
O O11 0.804151 0.491428 0.284489
O O12 0.808705 0.300957 0.624100
O O13 0.107449 0.295064 0.836050
O O14 0.403106 0.278203 0.234640
O O15 0.677286 0.162456 0.749084
O O16 0.000000 0.000000 0.000000
#
# Coordination Sequence:
#
# PCOD8030441 Si02
#       7
#     2   2   2   2   2   2   2
#     4  11  22  42  66  94 129 169 222 265 328 393
#     4  11  21  46  67  94 131 172 219 266 330 388
#     4  11  24  42  69  96 128 169 218 275 324 384
#     4  11  24  42  67  93 131 176 214 272 329 392
#     4  11  22  40  63  93 124 173 220 262 327 392
#     4  11  23  39  67  93 129 175 214 267 325 395
#     4  12  25  43  62  96 135 170 219 271 328 383
#
# _framework density 21.982662999999999
#
# number of rings (size 3 to 8) (size 9 to 14) (size 15 to 20)
#    0.000    0.857    2.857    5.571    0.000    3.429 
#    2.571    0.000    0.000    0.000    0.000    0.000 
#    0.000    0.000    0.000    0.000    0.000    0.000 
#
# Total GULP energy -173521.879220 kJ/mol
# GULP energy per Si atom -12394.419944 kJ/mol
# Density = 2.193263 g / cm^3
# Si number density = 21.982663 Si / 1000 Ang^3
#
#
#
# Elastic Constant Matrix: (Units=GPa)
#
#
# Indices 1 2 3 4 5 6 
#
# 1 152.1287 52.3434 45.1141 -11.0439 24.6672 16.9105
# 2 52.3434 88.2608 24.4523 -12.8551 5.1206 2.9615
# 3 45.1141 24.4523 121.8955 -0.7013 9.8256 4.0411
# 4 -11.0439 -12.8551 -0.7013 35.5112 0.1213 -2.6907
# 5 24.6672 5.1206 9.8256 0.1213 56.0462 -6.7450
# 6 16.9105 2.9615 4.0411 -2.6907 -6.7450 36.1025
#
#
#
# Elastic Compliance Matrix: (Units=1/GPa)
#
#
# Indices 1 2 3 4 5 6 
#
# 1 0.010234 -0.004874 -0.002301 0.001020 -0.004242 -0.004853
# 2 -0.004874 0.015054 -0.001347 0.004033 0.001205 0.001725
# 3 -0.002301 -0.001347 0.009362 -0.001019 -0.000507 -0.000030
# 4 0.001020 0.004033 -0.001019 0.030028 -0.000530 0.001445
# 5 -0.004242 0.001205 -0.000507 -0.000530 0.020377 0.005712
# 6 -0.004853 0.001725 -0.000030 0.001445 0.005712 0.031009
#
#
# Mechanical properties :
#
#
# Convention : Reuss Voigt Hill
#
# Bulk Modulus (GPa) = 56.80383 67.34495 62.07439
# Shear Modulus (GPa) = 35.97727 41.55701 38.76714
#
# Velocity S-wave (km/s) = 4.04991 4.35264 4.20400
# Velocity P-wave (km/s) = 6.91125 7.48082 7.20167
#
# Compressibility (1/GPa) = 0.01760445
#
# Stress axis : x y z
#
# Youngs Moduli (GPa) = 97.71123 66.42889 106.81925
#
# Poissons Ratio (x) = 0.32381 0.24582
# Poissons Ratio (y) = 0.47629 0.14387
# Poissons Ratio (z) = 0.22486 0.08947
#
# Static dielectric constant tensor:
#      x y z
#    x 4.174520 -0.119470 0.075280 
#    y -0.119470 3.750390 -0.160070 
#    z 0.075280 -0.160070 4.309140 
# 
# 
# High freq. dielectric constant tensor:
#      x y z
#    x 1.874960 -0.007640 0.000380 
#    y -0.007640 1.838010 -0.012460 
#    z 0.000380 -0.012460 1.895770 
# 
# From -- ./inp_files/262132.got.cif
#   From: 2010.06.25/outbox.cif.g09.slc.cpg/sg2_132_cif.got.tgz:262132.got - 2010.06.27 13:26:56.
