data_PCOD8030746
_publ_section_title
;
Structure prediction by ZEFSAII (Michael W. Deem and Ramdas Pophale) SiO2 
 PCOD8030746
Probable space group: P -1
;
_chemical_formula_sum "Si O2"
_cell_formula_units_Z 16
_cell_length_a 15.530597
_cell_length_b 13.650722
_cell_length_c 8.719975
_cell_angle_alpha 83.602457
_cell_angle_beta 126.295561
_cell_angle_gamma 139.028426
_cell_volume 754.798470
_symmetry_space_group_name_H-M "P -1"
_symmetry_group_IT_number 2
_symmetry_cell_setting 'triclinic'
loop_
_space_group_symop_operation_xyz
x,y,z
-x,-y,-z
loop_
_atom_site_type_symbol
_atom_site_label
_atom_site_fract_x
_atom_site_fract_y
_atom_site_fract_z
Si Si1 0.968361 0.587379 0.898749
Si Si2 0.563927 0.632446 0.268737
Si Si3 0.424433 0.323145 0.086763
Si Si4 0.021049 0.432037 0.657163
Si Si5 0.123969 0.388863 0.500824
Si Si6 0.997308 0.923566 0.651402
Si Si7 0.320010 0.913615 0.419178
Si Si8 0.387830 0.687951 0.222179
O O1 0.979596 0.611751 0.723089
O O2 0.736105 0.436934 0.731280
O O3 0.000000 0.500000 0.000000
O O4 0.140952 0.795641 0.124884
O O5 0.426181 0.423684 0.174929
O O6 0.791936 0.790432 0.557043
O O7 0.463837 0.646240 0.240699
O O8 0.591770 0.668873 0.111506
O O9 0.628466 0.417526 0.309974
O O10 0.209050 0.097224 0.946341
O O11 0.800723 0.246656 0.549475
O O12 0.000000 0.500000 0.500000
O O13 0.074859 0.376524 0.627001
O O14 0.219172 0.608569 0.947341
O O15 0.018591 0.200048 0.402919
O O16 0.000000 0.000000 0.500000
O O17 0.500000 0.000000 0.500000
O O18 0.415878 0.085421 0.573465
#
# Coordination Sequence:
#
# PCOD8030746 Si02
#       8
#     2   2   2   2   2   2   2   2
#     4  11  24  46  66  88 137 182 221 272 333 395
#     4   9  18  35  60  94 124 165 213 259 332 392
#     4   9  18  36  61  93 132 163 200 273 336 386
#     4  11  26  41  65 100 134 166 228 289 323 395
#     4  11  22  40  66 101 129 169 221 272 337 388
#     4   9  20  34  61  95 138 162 202 270 334 399
#     4  11  25  44  65  88 130 183 219 264 338 393
#     4  11  23  41  67  93 126 179 223 267 333 404
#
# _framework density 21.197711000000002
#
# number of rings (size 3 to 8) (size 9 to 14) (size 15 to 20)
#    0.000    1.750    2.500    2.250    3.500    2.500 
#    0.000    2.500    0.000    4.500    0.000    0.000 
#    0.000    0.000    0.000    0.000    0.000    0.000 
#
# Total GULP energy -198225.952035 kJ/mol
# GULP energy per Si atom -12389.122002 kJ/mol
# Density = 2.114946 g / cm^3
# Si number density = 21.197711 Si / 1000 Ang^3
#
#
#
# Elastic Constant Matrix: (Units=GPa)
#
#
# Indices 1 2 3 4 5 6 
#
# 1 125.1467 34.5559 38.0206 18.8478 -0.1475 -0.4040
# 2 34.5559 72.1414 54.4739 14.1654 -2.8682 4.6528
# 3 38.0206 54.4739 122.0714 32.3696 -8.2926 -1.9473
# 4 18.8478 14.1654 32.3696 42.0744 -0.1211 -2.0493
# 5 -0.1475 -2.8682 -8.2926 -0.1211 26.2101 -2.4763
# 6 -0.4040 4.6528 -1.9473 -2.0493 -2.4763 26.2057
#
#
#
# Elastic Compliance Matrix: (Units=1/GPa)
#
#
# Indices 1 2 3 4 5 6 
#
# 1 0.009585 -0.003586 -0.000756 -0.002483 -0.000544 0.000483
# 2 -0.003586 0.022804 -0.009459 0.000968 -0.000969 -0.004823
# 3 -0.000756 -0.009459 0.015058 -0.007926 0.003928 0.002538
# 4 -0.002483 0.000968 -0.007926 0.030714 -0.002142 0.001400
# 5 -0.000544 -0.000969 0.003928 -0.002142 0.039658 0.004036
# 6 0.000483 -0.004823 0.002538 0.001400 0.004036 0.039703
#
#
# Mechanical properties :
#
#
# Convention : Reuss Voigt Hill
#
# Bulk Modulus (GPa) = 50.38923 63.71783 57.05353
# Shear Modulus (GPa) = 26.07722 31.71863 28.89793
#
# Velocity S-wave (km/s) = 3.51121 3.87243 3.69624
# Velocity P-wave (km/s) = 6.34514 7.07943 6.72232
#
# Compressibility (1/GPa) = 0.01984551
#
# Stress axis : x y z
#
# Youngs Moduli (GPa) = 104.32655 43.85196 66.41184
#
# Poissons Ratio (x) = 0.15723 0.05022
# Poissons Ratio (y) = 0.37407 0.62818
# Poissons Ratio (z) = 0.07890 0.41479
#
# Static dielectric constant tensor:
#      x y z
#    x 4.036170 0.132220 0.030940 
#    y 0.132220 3.690800 0.599810 
#    z 0.030940 0.599810 4.550430 
# 
# 
# High freq. dielectric constant tensor:
#      x y z
#    x 1.836320 -0.003300 0.000130 
#    y -0.003300 1.807450 0.019860 
#    z 0.000130 0.019860 1.840500 
# 
# From -- ./inp_files/313437.got.cif
#   From: 2010.06.25/outbox.cif.g09.slc.cpg/sg2_157_cif.got.tgz:313437.got - 2010.06.27 13:26:56.
