data_PCOD8030853
_publ_section_title
;
Structure prediction by ZEFSAII (Michael W. Deem and Ramdas Pophale) SiO2 
 PCOD8030853
Probable space group: P -1
;
_chemical_formula_sum "Si O2"
_cell_formula_units_Z 16
_cell_length_a 13.992462
_cell_length_b 11.220549
_cell_length_c 9.487468
_cell_angle_alpha 76.004697
_cell_angle_beta 109.521621
_cell_angle_gamma 149.067116
_cell_volume 718.578994
_symmetry_space_group_name_H-M "P -1"
_symmetry_group_IT_number 2
_symmetry_cell_setting 'triclinic'
loop_
_space_group_symop_operation_xyz
x,y,z
-x,-y,-z
loop_
_atom_site_type_symbol
_atom_site_label
_atom_site_fract_x
_atom_site_fract_y
_atom_site_fract_z
Si Si1 0.063778 0.798281 0.373865
Si Si2 0.697627 0.463271 0.429516
Si Si3 0.375325 0.964394 0.355149
Si Si4 0.577722 0.141442 0.856884
Si Si5 0.460558 0.451234 0.662721
Si Si6 0.742890 0.002892 0.297719
Si Si7 0.877657 0.889454 0.830979
Si Si8 0.876471 0.625983 0.769262
O O1 0.159354 0.776390 0.354613
O O2 0.845555 0.539625 0.382630
O O3 0.171641 0.948547 0.525389
O O4 0.044244 0.901531 0.246309
O O5 0.702634 0.615083 0.364794
O O6 0.736678 0.471137 0.609476
O O7 0.484494 0.205930 0.350859
O O8 0.356933 0.897937 0.206387
O O9 0.500000 0.000000 0.500000
O O10 0.393092 0.021204 0.739043
O O11 0.762564 0.424624 0.886843
O O12 0.500000 0.000000 0.000000
O O13 0.500000 0.500000 0.500000
O O14 0.383343 0.242751 0.741902
O O15 0.647492 0.667451 0.790535
O O16 0.911574 0.208588 0.209684
O O17 0.909416 0.801095 0.776646
O O18 0.000000 0.000000 0.000000
#
# Coordination Sequence:
#
# PCOD8030853 Si02
#       8
#     2   2   2   2   2   2   2   2
#     4  11  23  42  71 107 139 181 240 298 353 421
#     4  11  22  40  75 107 132 183 243 302 348 416
#     4  12  23  43  70 101 139 187 253 297 337 423
#     4  12  27  45  68 100 142 192 242 299 366 423
#     4  12  19  41  75 102 142 185 234 293 359 434
#     4  11  22  42  74 101 133 188 241 295 356 427
#     4  12  25  41  69 108 149 182 226 295 370 431
#     4  11  23  44  70 101 142 181 239 296 359 433
#
# _framework density 22.266168
#
# number of rings (size 3 to 8) (size 9 to 14) (size 15 to 20)
#    0.000    0.500    7.500    0.750    0.000    6.000 
#    0.000    1.250    0.000    0.000    0.000    0.000 
#    0.000    0.000    0.000    0.000    0.000    0.000 
#
# Total GULP energy -198284.284164 kJ/mol
# GULP energy per Si atom -12392.767760 kJ/mol
# Density = 2.221549 g / cm^3
# Si number density = 22.266168 Si / 1000 Ang^3
#
#
#
# Elastic Constant Matrix: (Units=GPa)
#
#
# Indices 1 2 3 4 5 6 
#
# 1 152.2799 34.1808 26.2186 -11.5875 -10.6498 21.4157
# 2 34.1808 84.5395 36.7792 -10.4077 3.5762 11.8397
# 3 26.2186 36.7792 84.4404 -9.3639 6.6844 10.4601
# 4 -11.5875 -10.4077 -9.3639 33.3193 -0.0779 3.6988
# 5 -10.6498 3.5762 6.6844 -0.0779 26.7250 0.1740
# 6 21.4157 11.8397 10.4601 3.6988 0.1740 38.6176
#
#
#
# Elastic Compliance Matrix: (Units=1/GPa)
#
#
# Indices 1 2 3 4 5 6 
#
# 1 0.008243 -0.002158 -0.001201 0.002288 0.003906 -0.003821
# 2 -0.002158 0.015858 -0.005483 0.002931 -0.001586 -0.002453
# 3 -0.001201 -0.005483 0.015408 0.002418 -0.003579 -0.002042
# 4 0.002288 0.002931 0.002418 0.033068 0.000050 -0.005990
# 5 0.003906 -0.001586 -0.003579 0.000050 0.040088 -0.000896
# 6 -0.003821 -0.002453 -0.002042 -0.005990 -0.000896 0.029897
#
#
# Mechanical properties :
#
#
# Convention : Reuss Voigt Hill
#
# Bulk Modulus (GPa) = 45.82055 57.29074 51.55565
# Shear Modulus (GPa) = 29.84690 34.67114 32.25902
#
# Velocity S-wave (km/s) = 3.66520 3.95032 3.81043
# Velocity P-wave (km/s) = 6.20764 6.82587 6.52408
#
# Compressibility (1/GPa) = 0.02182427
#
# Stress axis : x y z
#
# Youngs Moduli (GPa) = 121.31872 63.05874 64.90097
#
# Poissons Ratio (x) = 0.13611 0.07797
# Poissons Ratio (y) = 0.26186 0.35582
# Poissons Ratio (z) = 0.14575 0.34572
#
# Static dielectric constant tensor:
#      x y z
#    x 4.357900 0.060830 0.026120 
#    y 0.060830 4.284760 0.090330 
#    z 0.026120 0.090330 3.697260 
# 
# 
# High freq. dielectric constant tensor:
#      x y z
#    x 1.895360 0.005200 0.010000 
#    y 0.005200 1.883940 0.002620 
#    z 0.010000 0.002620 1.838400 
# 
# From -- ./inp_files/307402.got.cif
#   From: 2010.06.25/outbox.cif.g09.slc.cpg/sg2_154_cif.got.tgz:307402.got - 2010.06.27 13:26:56.
