data_PCOD8030645
_publ_section_title
;
Structure prediction by ZEFSAII (Michael W. Deem and Ramdas Pophale) SiO2 
 PCOD8030645
Probable space group: P -1
;
_chemical_formula_sum "Si O2"
_cell_formula_units_Z 16
_cell_length_a 8.454903
_cell_length_b 16.442933
_cell_length_c 11.816637
_cell_angle_alpha 120.852127
_cell_angle_beta 54.256937
_cell_angle_gamma 144.384036
_cell_volume 773.975982
_symmetry_space_group_name_H-M "P -1"
_symmetry_group_IT_number 2
_symmetry_cell_setting 'triclinic'
loop_
_space_group_symop_operation_xyz
x,y,z
-x,-y,-z
loop_
_atom_site_type_symbol
_atom_site_label
_atom_site_fract_x
_atom_site_fract_y
_atom_site_fract_z
Si Si1 0.852039 0.934311 0.690302
Si Si2 0.733374 0.444466 0.641087
Si Si3 0.769834 0.259056 0.098964
Si Si4 0.748842 0.421619 0.873525
Si Si5 0.878178 0.811150 0.383280
Si Si6 0.294306 0.799916 0.168892
Si Si7 0.199682 0.324147 0.133132
Si Si8 0.910962 0.046039 0.160128
O O1 0.510573 0.815636 0.765383
O O2 0.925461 0.880094 0.530817
O O3 0.027813 0.972445 0.755728
O O4 0.961093 0.075157 0.702862
O O5 0.713694 0.387310 0.730700
O O6 0.456713 0.319226 0.594706
O O7 0.758969 0.566366 0.733183
O O8 0.000000 0.500000 0.500000
O O9 0.947099 0.418808 0.116212
O O10 0.963444 0.253664 0.083250
O O11 0.672831 0.177638 0.963842
O O12 0.741541 0.322475 0.874132
O O13 0.498085 0.402255 0.005604
O O14 0.015683 0.756352 0.297178
O O15 0.572103 0.945190 0.216762
O O16 0.093954 0.206379 0.179871
O O17 0.000000 0.000000 0.000000
#
# Coordination Sequence:
#
# PCOD8030645 Si02
#       8
#     2   2   2   2   2   2   2   2
#     4  11  25  45  64  92 132 170 215 269 319 385
#     4  11  24  44  68  94 129 172 212 258 324 388
#     4  11  22  39  65  94 128 165 217 263 317 379
#     4  11  22  40  62  95 133 165 211 267 319 378
#     4  11  25  43  67  95 128 172 217 259 323 387
#     4  12  24  38  66  97 126 172 213 268 319 376
#     4  11  23  41  67  96 128 170 212 266 321 381
#     4  12  24  42  66  95 132 168 219 267 324 371
#
# _framework density 20.672474999999999
#
# number of rings (size 3 to 8) (size 9 to 14) (size 15 to 20)
#    0.000    0.750    2.500    6.375    1.750    4.500 
#    0.000    1.875    0.000    0.000    0.000    0.000 
#    0.000    0.000    0.000    0.000    0.000    0.000 
#
# Total GULP energy -198515.746324 kJ/mol
# GULP energy per Si atom -12407.234145 kJ/mol
# Density = 2.062542 g / cm^3
# Si number density = 20.672475 Si / 1000 Ang^3
#
#
#
# Elastic Constant Matrix: (Units=GPa)
#
#
# Indices 1 2 3 4 5 6 
#
# 1 100.8627 40.9501 60.2137 2.5286 2.2255 8.5528
# 2 40.9501 106.2928 41.7587 -13.0220 -2.4657 12.3378
# 3 60.2137 41.7587 131.3539 -7.2932 -6.7659 0.4194
# 4 2.5286 -13.0220 -7.2932 37.0124 9.2794 -5.5012
# 5 2.2255 -2.4657 -6.7659 9.2794 35.9433 2.8401
# 6 8.5528 12.3378 0.4194 -5.5012 2.8401 39.8821
#
#
#
# Elastic Compliance Matrix: (Units=1/GPa)
#
#
# Indices 1 2 3 4 5 6 
#
# 1 0.015421 -0.003709 -0.006147 -0.003634 -0.001230 -0.002509
# 2 -0.003709 0.012390 -0.002021 0.003873 -0.000105 -0.002475
# 3 -0.006147 -0.002021 0.011256 0.001778 0.001748 0.001946
# 4 -0.003634 0.003873 0.001778 0.031567 -0.007677 0.004464
# 5 -0.001230 -0.000105 0.001748 -0.007677 0.030435 -0.002948
# 6 -0.002509 -0.002475 0.001946 0.004464 -0.002948 0.027183
#
#
# Mechanical properties :
#
#
# Convention : Reuss Voigt Hill
#
# Bulk Modulus (GPa) = 65.30466 69.37270 67.33868
# Shear Modulus (GPa) = 31.82481 35.60669 33.71575
#
# Velocity S-wave (km/s) = 3.92787 4.15471 4.04288
# Velocity P-wave (km/s) = 7.22701 7.52637 7.37821
#
# Compressibility (1/GPa) = 0.01531284
#
# Stress axis : x y z
#
# Youngs Moduli (GPa) = 64.84707 80.70942 88.84071
#
# Poissons Ratio (x) = 0.29931 0.54612
# Poissons Ratio (y) = 0.24049 0.17958
# Poissons Ratio (z) = 0.39863 0.16315
#
# Static dielectric constant tensor:
#      x y z
#    x 3.842680 0.059590 0.022970 
#    y 0.059590 4.105980 -0.170950 
#    z 0.022970 -0.170950 3.782850 
# 
# 
# High freq. dielectric constant tensor:
#      x y z
#    x 1.818220 0.005680 -0.000600 
#    y 0.005680 1.822210 -0.004010 
#    z -0.000600 -0.004010 1.811150 
# 
# From -- ./inp_files/298764.got.cif
#   From: 2010.06.25/outbox.cif.g09.slc.cpg/sg2_150_cif.got.tgz:298764.got - 2010.06.27 13:26:56.
