data_PCOD8030913
_publ_section_title
;
Structure prediction by ZEFSAII (Michael W. Deem and Ramdas Pophale) SiO2 
 PCOD8030913
Probable space group: P -1
;
_chemical_formula_sum "Si O2"
_cell_formula_units_Z 12
_cell_length_a 6.288743
_cell_length_b 14.239248
_cell_length_c 16.240988
_cell_angle_alpha 24.464857
_cell_angle_beta 109.285893
_cell_angle_gamma 118.509885
_cell_volume 507.105007
_symmetry_space_group_name_H-M "P -1"
_symmetry_group_IT_number 2
_symmetry_cell_setting 'triclinic'
loop_
_space_group_symop_operation_xyz
x,y,z
-x,-y,-z
loop_
_atom_site_type_symbol
_atom_site_label
_atom_site_fract_x
_atom_site_fract_y
_atom_site_fract_z
Si Si1 0.824548 0.058090 0.993760
Si Si2 0.989389 0.959389 0.270148
Si Si3 0.027386 0.247159 0.203263
Si Si4 0.586577 0.844439 0.573590
Si Si5 0.532061 0.470336 0.622729
Si Si6 0.188567 0.595052 0.592346
O O1 0.532772 0.829649 0.124703
O O2 0.894638 0.028096 0.120343
O O3 0.896536 0.359735 0.751235
O O4 0.000000 0.000000 0.000000
O O5 0.206496 0.870534 0.351158
O O6 0.793658 0.701861 0.499823
O O7 0.072016 0.189868 0.160479
O O8 0.275074 0.292314 0.250256
O O9 0.773963 0.024645 0.384617
O O10 0.000000 0.500000 0.000000
O O11 0.342086 0.624101 0.673855
O O12 0.500000 0.000000 0.500000
O O13 0.500000 0.500000 0.500000
O O14 0.307319 0.511398 0.600655
#
# Coordination Sequence:
#
# PCOD8030913 Si02
#       6
#     2   2   2   2   2   2
#     4   9  22  39  62  95 127 163 217 260 316 389
#     4  11  22  41  67  92 130 174 211 266 329 383
#     4  11  26  43  67  97 131 172 222 268 326 396
#     4  11  24  44  66  97 132 169 217 277 327 386
#     4   9  20  41  61  91 131 165 212 262 319 382
#     4  11  22  41  67  94 130 169 213 265 329 387
#
# _framework density 23.663737999999999
#
# number of rings (size 3 to 8) (size 9 to 14) (size 15 to 20)
#    0.000    1.667    3.333    0.000    2.333    8.667 
#    0.000    3.333    0.000    0.000    0.000    0.000 
#    0.000    0.000    0.000    0.000    0.000    0.000 
#
# Total GULP energy -148687.214853 kJ/mol
# GULP energy per Si atom -12390.601238 kJ/mol
# Density = 2.360988 g / cm^3
# Si number density = 23.663738 Si / 1000 Ang^3
#
#
#
# Elastic Constant Matrix: (Units=GPa)
#
#
# Indices 1 2 3 4 5 6 
#
# 1 31.2634 15.7322 7.4671 -10.8832 1.3105 -1.2912
# 2 15.7322 118.7020 33.8267 -10.5751 -2.6795 -14.7041
# 3 7.4671 33.8267 94.5561 -17.3409 25.6786 -14.5406
# 4 -10.8832 -10.5751 -17.3409 36.1587 -4.2259 2.4044
# 5 1.3105 -2.6795 25.6786 -4.2259 44.1081 -8.3756
# 6 -1.2912 -14.7041 -14.5406 2.4044 -8.3756 43.2395
#
#
#
# Elastic Compliance Matrix: (Units=1/GPa)
#
#
# Indices 1 2 3 4 5 6 
#
# 1 0.037626 -0.004372 0.000585 0.010281 -0.000913 -0.000915
# 2 -0.004372 0.010577 -0.003970 0.000110 0.003631 0.002829
# 3 0.000585 -0.003970 0.015514 0.005342 -0.008406 0.001959
# 4 0.010281 0.000110 0.005342 0.033308 -0.000169 0.000256
# 5 -0.000913 0.003631 -0.008406 -0.000169 0.028541 0.003919
# 6 -0.000915 0.002829 0.001959 0.000256 0.003919 0.025465
#
#
# Mechanical properties :
#
#
# Convention : Reuss Voigt Hill
#
# Bulk Modulus (GPa) = 20.74478 39.84152 30.29315
# Shear Modulus (GPa) = 27.38066 37.20096 32.29081
#
# Velocity S-wave (km/s) = 3.40527 3.96923 3.69802
# Velocity P-wave (km/s) = 4.92409 6.15463 5.57342
#
# Compressibility (1/GPa) = 0.04820490
#
# Stress axis : x y z
#
# Youngs Moduli (GPa) = 26.57751 94.54248 64.45994
#
# Poissons Ratio (x) = 0.41329 -0.03773
# Poissons Ratio (y) = 0.11618 0.25588
# Poissons Ratio (z) = -0.01556 0.37530
#
# Static dielectric constant tensor:
#      x y z
#    x 4.635160 0.096540 -0.449780 
#    y 0.096540 4.434320 -0.495470 
#    z -0.449780 -0.495470 4.454670 
# 
# 
# High freq. dielectric constant tensor:
#      x y z
#    x 1.956930 -0.014200 -0.001170 
#    y -0.014200 1.941760 -0.019110 
#    z -0.001170 -0.019110 1.941200 
# 
# From -- ./inp_files/8289.got.cif
#   From: 2010.06.25/outbox.cif.g09.slc.cpg/sg2_5_cif.got.tgz:8289.got - 2010.06.27 13:26:56.
