data_PCOD8030351
_publ_section_title
;
Structure prediction by ZEFSAII (Michael W. Deem and Ramdas Pophale) SiO2 
 PCOD8030351
Probable space group: P -1
;
_chemical_formula_sum "Si O2"
_cell_formula_units_Z 16
_cell_length_a 9.239019
_cell_length_b 9.274190
_cell_length_c 14.795832
_cell_angle_alpha 143.094074
_cell_angle_beta 86.788861
_cell_angle_gamma 81.943003
_cell_volume 723.037062
_symmetry_space_group_name_H-M "P -1"
_symmetry_group_IT_number 2
_symmetry_cell_setting 'triclinic'
loop_
_space_group_symop_operation_xyz
x,y,z
-x,-y,-z
loop_
_atom_site_type_symbol
_atom_site_label
_atom_site_fract_x
_atom_site_fract_y
_atom_site_fract_z
Si Si1 0.263367 0.679404 0.397512
Si Si2 0.530368 0.300909 0.125034
Si Si3 0.962378 0.748239 0.062756
Si Si4 0.745436 0.919948 0.542817
Si Si5 0.760757 0.565860 0.206618
Si Si6 0.367486 0.026107 0.880331
Si Si7 0.578210 0.034664 0.352237
Si Si8 0.002244 0.762930 0.588220
O O1 0.354881 0.407102 0.218879
O O2 0.118794 0.677952 0.459117
O O3 0.210936 0.870089 0.411566
O O4 0.394603 0.732846 0.480533
O O5 0.604003 0.498287 0.179397
O O6 0.642120 0.164273 0.134545
O O7 0.504224 0.134087 0.959331
O O8 0.802034 0.782329 0.034987
O O9 0.958430 0.020257 0.243781
O O10 0.000000 0.500000 0.000000
O O11 0.096551 0.673591 0.945568
O O12 0.789945 0.664137 0.353694
O O13 0.835550 0.887806 0.616807
O O14 0.569560 0.012964 0.623818
O O15 0.727058 0.790657 0.245444
O O16 0.431933 0.894421 0.717077
O O17 0.000000 0.500000 0.500000
#
# Coordination Sequence:
#
# PCOD8030351 Si02
#       8
#     2   2   2   2   2   2   2   2
#     4  11  22  46  70  96 142 185 240 291 354 426
#     4  11  26  43  69 102 137 182 231 299 364 411
#     4  12  26  48  73 103 145 191 238 292 357 430
#     4  11  24  43  72 105 140 189 241 297 352 430
#     4  11  23  43  70 103 139 180 236 294 355 422
#     4  11  27  44  67 102 140 183 234 295 362 417
#     4  11  21  44  72 102 133 183 246 294 343 425
#     4  12  30  45  69 111 142 190 244 295 363 421
#
# _framework density 22.128881
#
# number of rings (size 3 to 8) (size 9 to 14) (size 15 to 20)
#    0.000    0.750    5.000    1.875    8.750    2.500 
#    0.000    0.000    0.000    0.000    0.000    0.000 
#    0.000    0.000    0.000    0.000    0.000    0.000 
#
# Total GULP energy -198278.989321 kJ/mol
# GULP energy per Si atom -12392.436833 kJ/mol
# Density = 2.207852 g / cm^3
# Si number density = 22.128881 Si / 1000 Ang^3
#
#
#
# Elastic Constant Matrix: (Units=GPa)
#
#
# Indices 1 2 3 4 5 6 
#
# 1 78.6405 43.8334 13.0824 1.7760 -6.3796 -0.0393
# 2 43.8334 110.4084 30.9316 -2.1276 17.2535 -17.5933
# 3 13.0824 30.9316 60.6578 3.5439 -5.9858 -6.5116
# 4 1.7760 -2.1276 3.5439 32.8840 3.7061 6.9527
# 5 -6.3796 17.2535 -5.9858 3.7061 41.1037 -3.4825
# 6 -0.0393 -17.5933 -6.5116 6.9527 -3.4825 33.0138
#
#
#
# Elastic Compliance Matrix: (Units=1/GPa)
#
#
# Indices 1 2 3 4 5 6 
#
# 1 0.018247 -0.009220 0.001142 -0.001701 0.006717 -0.003600
# 2 -0.009220 0.017239 -0.007170 0.002103 -0.009365 0.006331
# 3 0.001142 -0.007170 0.020993 -0.003944 0.006758 0.001865
# 4 -0.001701 0.002103 -0.003944 0.033187 -0.005324 -0.007210
# 5 0.006717 -0.009365 0.006758 -0.005324 0.030828 0.000724
# 6 -0.003600 0.006331 0.001865 -0.007210 0.000724 0.035623
#
#
# Mechanical properties :
#
#
# Convention : Reuss Voigt Hill
#
# Bulk Modulus (GPa) = 38.48570 47.26683 42.87626
# Shear Modulus (GPa) = 25.60511 32.19092 28.89802
#
# Velocity S-wave (km/s) = 3.40529 3.81819 3.61764
# Velocity P-wave (km/s) = 5.73504 6.39095 6.07186
#
# Compressibility (1/GPa) = 0.02598368
#
# Stress axis : x y z
#
# Youngs Moduli (GPa) = 54.80383 58.00720 47.63463
#
# Poissons Ratio (x) = 0.53484 -0.05441
# Poissons Ratio (y) = 0.50531 0.34152
# Poissons Ratio (z) = -0.06259 0.41589
#
# Static dielectric constant tensor:
#      x y z
#    x 3.915250 -0.004130 -0.033840 
#    y -0.004130 3.930150 -0.074620 
#    z -0.033840 -0.074620 4.047930 
# 
# 
# High freq. dielectric constant tensor:
#      x y z
#    x 1.877400 0.000480 -0.003730 
#    y 0.000480 1.867780 -0.006940 
#    z -0.003730 -0.006940 1.873060 
# 
# From -- ./inp_files/226683.got.cif
#   From: 2010.06.25/outbox.cif.g09.slc.cpg/sg2_114_cif.got.tgz:226683.got - 2010.06.27 13:26:56.
