data_PCOD8030457
_publ_section_title
;
Structure prediction by ZEFSAII (Michael W. Deem and Ramdas Pophale) SiO2 
 PCOD8030457
Probable space group: P -1
;
_chemical_formula_sum "Si O2"
_cell_formula_units_Z 16
_cell_length_a 10.505347
_cell_length_b 8.273088
_cell_length_c 20.741578
_cell_angle_alpha 101.774581
_cell_angle_beta 44.433565
_cell_angle_gamma 135.522289
_cell_volume 691.858049
_symmetry_space_group_name_H-M "P -1"
_symmetry_group_IT_number 2
_symmetry_cell_setting 'triclinic'
loop_
_space_group_symop_operation_xyz
x,y,z
-x,-y,-z
loop_
_atom_site_type_symbol
_atom_site_label
_atom_site_fract_x
_atom_site_fract_y
_atom_site_fract_z
Si Si1 0.553180 0.292802 0.608891
Si Si2 0.846840 0.754737 0.172654
Si Si3 0.170091 0.953604 0.451975
Si Si4 0.278246 0.174414 0.564458
Si Si5 0.758102 0.673316 0.977454
Si Si6 0.451940 0.286978 0.178474
Si Si7 0.253911 0.866310 0.132064
Si Si8 0.226913 0.763235 0.756634
O O1 0.428462 0.334546 0.707663
O O2 0.404797 0.181420 0.582715
O O3 0.936484 0.620565 0.496239
O O4 0.448962 0.034859 0.649875
O O5 0.695066 0.486316 0.167039
O O6 0.035470 0.841589 0.175360
O O7 0.059052 0.013624 0.063885
O O8 0.297282 0.063070 0.488513
O O9 0.498062 0.157825 0.307356
O O10 0.000000 0.000000 0.500000
O O11 0.500000 0.500000 0.500000
O O12 0.906422 0.943665 0.687580
O O13 0.023704 0.725275 0.876114
O O14 0.500000 0.500000 0.000000
O O15 0.564020 0.498116 0.099126
O O16 0.451665 0.097281 0.138195
O O17 0.042768 0.552858 0.207940
O O18 0.500000 0.000000 0.000000
#
# Coordination Sequence:
#
# PCOD8030457 Si02
#       8
#     2   2   2   2   2   2   2   2
#     4  11  23  46  69 102 138 178 231 294 347 414
#     4  11  23  41  72  98 134 181 232 286 347 418
#     4  12  24  45  72 101 141 184 235 290 348 420
#     4  12  24  41  73 103 132 185 237 276 350 415
#     4  11  21  46  73 101 138 184 229 294 356 413
#     4  12  23  41  70 102 132 182 235 280 351 417
#     4  12  23  43  63  97 140 179 229 282 344 414
#     4  11  25  43  71 102 143 184 229 295 353 407
#
# _framework density 23.126131000000001
#
# number of rings (size 3 to 8) (size 9 to 14) (size 15 to 20)
#    0.000    0.500    6.250    3.000    0.000    1.000 
#    0.000    1.250    2.750    0.000    0.000    0.000 
#    0.000    0.000    0.000    0.000    0.000    0.000 
#
# Total GULP energy -198262.025729 kJ/mol
# GULP energy per Si atom -12391.376608 kJ/mol
# Density = 2.307349 g / cm^3
# Si number density = 23.126131 Si / 1000 Ang^3
#
#
#
# Elastic Constant Matrix: (Units=GPa)
#
#
# Indices 1 2 3 4 5 6 
#
# 1 43.7463 24.7279 11.4976 -1.9296 -6.0275 -7.5857
# 2 24.7279 167.5629 29.4147 -14.1718 -0.9516 1.9197
# 3 11.4976 29.4147 110.9925 -15.0184 -18.3057 -7.3629
# 4 -1.9296 -14.1718 -15.0184 38.5707 -6.6719 4.2327
# 5 -6.0275 -0.9516 -18.3057 -6.6719 38.4612 -4.7172
# 6 -7.5857 1.9197 -7.3629 4.2327 -4.7172 34.2625
#
#
#
# Elastic Compliance Matrix: (Units=1/GPa)
#
#
# Indices 1 2 3 4 5 6 
#
# 1 0.027053 -0.003965 -0.000571 -0.000263 0.004653 0.006762
# 2 -0.003965 0.006987 -0.001507 0.001809 -0.001093 -0.001967
# 3 -0.000571 -0.001507 0.011331 0.004641 0.006403 0.002701
# 4 -0.000263 0.001809 0.004641 0.029827 0.007158 -0.001861
# 5 0.004653 -0.001093 0.006403 0.007158 0.031721 0.005950
# 6 0.006762 -0.001967 0.002701 -0.001861 0.005950 0.032423
#
#
# Mechanical properties :
#
#
# Convention : Reuss Voigt Hill
#
# Bulk Modulus (GPa) = 30.04421 50.39801 40.22111
# Shear Modulus (GPa) = 30.76460 39.36966 35.06713
#
# Velocity S-wave (km/s) = 3.65128 4.13048 3.89825
# Velocity P-wave (km/s) = 5.54936 6.67741 6.13935
#
# Compressibility (1/GPa) = 0.03328428
#
# Stress axis : x y z
#
# Youngs Moduli (GPa) = 36.96495 143.12442 88.25128
#
# Poissons Ratio (x) = 0.56753 0.05040
# Poissons Ratio (y) = 0.14658 0.13299
# Poissons Ratio (z) = 0.02111 0.21568
#
# Static dielectric constant tensor:
#      x y z
#    x 4.122190 -0.379830 -0.080960 
#    y -0.379830 6.263910 -0.037050 
#    z -0.080960 -0.037050 4.508690 
# 
# 
# High freq. dielectric constant tensor:
#      x y z
#    x 1.891540 -0.005660 -0.003630 
#    y -0.005660 1.929370 -0.022520 
#    z -0.003630 -0.022520 1.930730 
# 
# From -- ./inp_files/349700.got.cif
#   From: 2010.06.25/outbox.cif.g09.slc.cpg/sg2_175_cif.got.tgz:349700.got - 2010.06.27 13:26:56.
