data_PCOD8030211
_publ_section_title
;
Structure prediction by ZEFSAII (Michael W. Deem and Ramdas Pophale) SiO2 
 PCOD8030211
Probable space group: P -1
;
_chemical_formula_sum "Si O2"
_cell_formula_units_Z 16
_cell_length_a 13.099673
_cell_length_b 9.470648
_cell_length_c 8.680091
_cell_angle_alpha 77.809457
_cell_angle_beta 87.356030
_cell_angle_gamma 44.142427
_cell_volume 724.229734
_symmetry_space_group_name_H-M "P -1"
_symmetry_group_IT_number 2
_symmetry_cell_setting 'triclinic'
loop_
_space_group_symop_operation_xyz
x,y,z
-x,-y,-z
loop_
_atom_site_type_symbol
_atom_site_label
_atom_site_fract_x
_atom_site_fract_y
_atom_site_fract_z
Si Si1 0.117406 0.766935 0.108507
Si Si2 0.727068 0.551099 0.066145
Si Si3 0.127464 0.986703 0.458344
Si Si4 0.306782 0.806160 0.189536
Si Si5 0.196647 0.313355 0.702048
Si Si6 0.588716 0.141138 0.110905
Si Si7 0.618252 0.382705 0.269835
Si Si8 0.040432 0.645094 0.405645
O O1 0.271588 0.694330 0.127280
O O2 0.073942 0.755034 0.283308
O O3 0.144098 0.601301 0.035474
O O4 0.000000 0.000000 0.000000
O O5 0.784955 0.614267 0.161327
O O6 0.716240 0.407496 0.181555
O O7 0.572406 0.754569 0.949492
O O8 0.170220 0.972734 0.279736
O O9 0.285835 0.779613 0.562646
O O10 0.000000 0.000000 0.500000
O O11 0.072599 0.193963 0.486255
O O12 0.469617 0.610783 0.295969
O O13 0.316270 0.927477 0.036916
O O14 0.189721 0.425565 0.525433
O O15 0.039783 0.388735 0.691956
O O16 0.331995 0.061161 0.742865
O O17 0.576801 0.302326 0.167635
#
# Coordination Sequence:
#
# PCOD8030211 Si02
#       8
#     2   2   2   2   2   2   2   2
#     4  12  23  40  68 107 131 167 224 287 329 395
#     4  11  23  41  71  97 128 176 228 272 335 395
#     4  12  23  39  67  99 134 173 216 274 337 392
#     4  11  23  39  69 102 132 164 227 279 336 390
#     4  11  25  46  64  90 138 183 218 271 330 403
#     4  11  21  46  68  95 131 178 220 280 332 389
#     4  11  21  43  69  99 133 172 219 286 334 385
#     4  11  25  44  63  93 142 177 217 271 341 391
#
# _framework density 22.092438999999999
#
# number of rings (size 3 to 8) (size 9 to 14) (size 15 to 20)
#    0.000    0.750    5.000    3.750    1.750    0.500 
#    4.500    0.625    0.000    0.000    0.000    0.000 
#    0.000    0.000    0.000    0.000    0.000    0.000 
#
# Total GULP energy -198310.243154 kJ/mol
# GULP energy per Si atom -12394.390197 kJ/mol
# Density = 2.204216 g / cm^3
# Si number density = 22.092439 Si / 1000 Ang^3
#
#
#
# Elastic Constant Matrix: (Units=GPa)
#
#
# Indices 1 2 3 4 5 6 
#
# 1 76.0058 40.8244 39.4914 4.9642 16.2548 -1.5742
# 2 40.8244 112.6746 60.5258 -6.3002 -8.7982 4.0160
# 3 39.4914 60.5258 100.6194 -17.8444 -2.8906 -8.6050
# 4 4.9642 -6.3002 -17.8444 54.8094 2.0479 -0.4546
# 5 16.2548 -8.7982 -2.8906 2.0479 40.0063 5.1172
# 6 -1.5742 4.0160 -8.6050 -0.4546 5.1172 29.3006
#
#
#
# Elastic Compliance Matrix: (Units=1/GPa)
#
#
# Indices 1 2 3 4 5 6 
#
# 1 0.022061 -0.005936 -0.005966 -0.004204 -0.010748 0.002059
# 2 -0.005936 0.015718 -0.007508 -0.000375 0.006080 -0.005746
# 3 -0.005966 -0.007508 0.018343 0.005660 0.001041 0.006002
# 4 -0.004204 -0.000375 0.005660 0.020410 0.000776 0.001669
# 5 -0.010748 0.006080 0.001041 0.000776 0.031581 -0.006608
# 6 0.002059 -0.005746 0.006002 0.001669 -0.006608 0.037970
#
#
# Mechanical properties :
#
#
# Convention : Reuss Voigt Hill
#
# Bulk Modulus (GPa) = 57.79848 63.44254 60.62051
# Shear Modulus (GPa) = 26.22322 34.72049 30.47186
#
# Velocity S-wave (km/s) = 3.44899 3.96864 3.71791
# Velocity P-wave (km/s) = 6.48688 7.05545 6.77713
#
# Compressibility (1/GPa) = 0.01730149
#
# Stress axis : x y z
#
# Youngs Moduli (GPa) = 45.32878 63.62304 54.51550
#
# Poissons Ratio (x) = 0.37767 0.32525
# Poissons Ratio (y) = 0.26907 0.40930
# Poissons Ratio (z) = 0.27044 0.47768
#
# Static dielectric constant tensor:
#      x y z
#    x 4.026890 -0.013710 0.238930 
#    y -0.013710 3.927400 -0.146450 
#    z 0.238930 -0.146450 4.076910 
# 
# 
# High freq. dielectric constant tensor:
#      x y z
#    x 1.860470 0.001640 0.019300 
#    y 0.001640 1.866940 -0.010730 
#    z 0.019300 -0.010730 1.870870 
# 
# From -- ./inp_files/184410.got.cif
#   From: 2010.06.25/outbox.cif.g09.slc.cpg/sg2_93_cif.got.tgz:184410.got - 2010.06.27 13:26:56.
