data_PCOD8030747
_publ_section_title
;
Structure prediction by ZEFSAII (Michael W. Deem and Ramdas Pophale) SiO2 
 PCOD8030747
Probable space group: P -1
;
_chemical_formula_sum "Si O2"
_cell_formula_units_Z 14
_cell_length_a 8.976213
_cell_length_b 23.053221
_cell_length_c 16.826297
_cell_angle_alpha 159.730744
_cell_angle_beta 137.760745
_cell_angle_gamma 33.070483
_cell_volume 638.628639
_symmetry_space_group_name_H-M "P -1"
_symmetry_group_IT_number 2
_symmetry_cell_setting 'triclinic'
loop_
_space_group_symop_operation_xyz
x,y,z
-x,-y,-z
loop_
_atom_site_type_symbol
_atom_site_label
_atom_site_fract_x
_atom_site_fract_y
_atom_site_fract_z
Si Si1 0.065627 0.165483 0.237925
Si Si2 0.996876 0.246109 0.494768
Si Si3 0.432789 0.895096 0.716547
Si Si4 0.373207 0.360623 0.835233
Si Si5 0.265298 0.774293 0.344384
Si Si6 0.848556 0.172252 0.907316
Si Si7 0.620831 0.508468 0.383597
O O1 0.375234 0.047258 0.169885
O O2 0.057826 0.245787 0.425658
O O3 0.848248 0.374158 0.368939
O O4 0.000000 0.000000 0.000000
O O5 0.671493 0.429867 0.620779
O O6 0.171081 0.295430 0.680690
O O7 0.089787 0.016655 0.257523
O O8 0.353167 0.790979 0.487437
O O9 0.593683 0.720015 0.625938
O O10 0.142505 0.110680 0.910757
O O11 0.469171 0.325025 0.735977
O O12 0.647441 0.212769 0.808032
O O13 0.194081 0.609346 0.107357
O O14 0.000000 0.000000 0.500000
O O15 0.703640 0.379116 0.168859
#
# Coordination Sequence:
#
# PCOD8030747 Si02
#       7
#     2   2   2   2   2   2   2
#     4  12  25  48  70  97 131 178 232 283 332 389
#     4  11  25  44  69  99 137 178 222 280 332 394
#     4  11  24  45  70  96 136 176 224 278 335 403
#     4  11  23  40  68 102 136 174 218 273 337 401
#     4  11  22  40  66 101 134 174 222 271 335 403
#     4  11  23  44  69 102 136 175 219 273 345 407
#     4  11  25  47  66  97 138 181 225 273 337 398
#
# _framework density 21.921973999999999
#
# number of rings (size 3 to 8) (size 9 to 14) (size 15 to 20)
#    0.000    0.857    5.714    1.286    0.000    3.429 
#    5.143    0.000    0.000    0.000    0.000    0.000 
#    0.000    0.000    0.000    0.000    0.000    0.000 
#
# Total GULP energy -173661.449104 kJ/mol
# GULP energy per Si atom -12404.389222 kJ/mol
# Density = 2.187208 g / cm^3
# Si number density = 21.921974 Si / 1000 Ang^3
#
#
#
# Elastic Constant Matrix: (Units=GPa)
#
#
# Indices 1 2 3 4 5 6 
#
# 1 126.2187 51.3431 27.9691 -2.2765 -1.0517 -20.5966
# 2 51.3431 110.9090 34.1287 11.2292 1.8969 -5.1831
# 3 27.9691 34.1287 69.2480 4.2514 -0.0766 -16.0662
# 4 -2.2765 11.2292 4.2514 28.7549 -4.5265 3.0371
# 5 -1.0517 1.8969 -0.0766 -4.5265 27.9047 -4.7802
# 6 -20.5966 -5.1831 -16.0662 3.0371 -4.7802 45.0936
#
#
#
# Elastic Compliance Matrix: (Units=1/GPa)
#
#
# Indices 1 2 3 4 5 6 
#
# 1 0.010856 -0.004757 -0.001290 0.002782 0.001859 0.003962
# 2 -0.004757 0.013117 -0.004772 -0.004910 -0.002270 -0.002275
# 3 -0.001290 -0.004772 0.018738 -0.001447 0.001078 0.005750
# 4 0.002782 -0.004910 -0.001447 0.038310 0.006355 -0.001716
# 5 0.001859 -0.002270 0.001078 0.006355 0.037876 0.004559
# 6 0.003962 -0.002275 0.005750 -0.001716 0.004559 0.026372
#
#
# Mechanical properties :
#
#
# Convention : Reuss Voigt Hill
#
# Bulk Modulus (GPa) = 47.45495 59.25083 53.35289
# Shear Modulus (GPa) = 28.74738 33.21296 30.98017
#
# Velocity S-wave (km/s) = 3.62519 3.89659 3.76334
# Velocity P-wave (km/s) = 6.26233 6.87977 6.57830
#
# Compressibility (1/GPa) = 0.02107262
#
# Stress axis : x y z
#
# Youngs Moduli (GPa) = 92.11748 76.23911 53.36802
#
# Poissons Ratio (x) = 0.36266 0.06883
# Poissons Ratio (y) = 0.43819 0.25468
# Poissons Ratio (z) = 0.11881 0.36382
#
# Static dielectric constant tensor:
#      x y z
#    x 4.125510 0.063350 -0.121140 
#    y 0.063350 4.044270 0.060780 
#    z -0.121140 0.060780 3.843260 
# 
# 
# High freq. dielectric constant tensor:
#      x y z
#    x 1.870720 0.006990 -0.006470 
#    y 0.006990 1.870640 0.005110 
#    z -0.006470 0.005110 1.859980 
# 
# From -- ./inp_files/37038.got.cif
#   From: 2010.06.25/outbox.cif.g09.slc.cpg/sg2_19_cif.got.tgz:37038.got - 2010.06.27 13:26:56.
