data_PCOD8030426
_publ_section_title
;
Structure prediction by ZEFSAII (Michael W. Deem and Ramdas Pophale) SiO2 
 PCOD8030426
Probable space group: P -1
;
_chemical_formula_sum "Si O2"
_cell_formula_units_Z 16
_cell_length_a 8.989460
_cell_length_b 12.096758
_cell_length_c 20.056338
_cell_angle_alpha 132.684738
_cell_angle_beta 34.084775
_cell_angle_gamma 141.829195
_cell_volume 753.099147
_symmetry_space_group_name_H-M "P -1"
_symmetry_group_IT_number 2
_symmetry_cell_setting 'triclinic'
loop_
_space_group_symop_operation_xyz
x,y,z
-x,-y,-z
loop_
_atom_site_type_symbol
_atom_site_label
_atom_site_fract_x
_atom_site_fract_y
_atom_site_fract_z
Si Si1 0.651592 0.585451 0.825798
Si Si2 0.683482 0.346036 0.414282
Si Si3 0.006451 0.236121 0.939554
Si Si4 0.750240 0.919583 0.000945
Si Si5 0.931215 0.197582 0.797299
Si Si6 0.727592 0.702300 0.575792
Si Si7 0.317914 0.042902 0.531600
Si Si8 0.622104 0.394071 0.201615
O O1 0.379293 0.385109 0.867092
O O2 0.662204 0.724856 0.931030
O O3 0.592149 0.621257 0.787150
O O4 0.974342 0.594166 0.714109
O O5 0.696720 0.514216 0.509802
O O6 0.452188 0.271725 0.406795
O O7 0.569186 0.195140 0.451134
O O8 0.891079 0.188868 0.887757
O O9 0.921390 0.053430 0.930494
O O10 0.823911 0.313281 0.074382
O O11 0.426473 0.900049 0.138305
O O12 0.000000 0.000000 0.000000
O O13 0.098291 0.098095 0.671078
O O14 0.141883 0.402243 0.778264
O O15 0.599689 0.720895 0.701850
O O16 0.093939 0.862467 0.498736
O O17 0.500000 0.000000 0.500000
#
# Coordination Sequence:
#
# PCOD8030426 Si02
#       8
#     2   2   2   2   2   2   2   2
#     4  11  25  43  68 101 133 174 226 278 326 405
#     4  11  27  47  65  99 142 175 231 275 337 407
#     4  11  24  44  69  98 133 176 218 277 334 395
#     4  12  27  42  67 103 139 174 219 272 344 406
#     4  11  23  46  69 101 134 173 225 279 333 400
#     4  11  26  46  70  96 134 187 217 282 343 395
#     4  12  27  44  72 101 133 180 233 280 332 395
#     4  11  21  45  74  95 132 176 226 278 332 395
#
# _framework density 21.245542
#
# number of rings (size 3 to 8) (size 9 to 14) (size 15 to 20)
#    0.000    0.750    3.750    3.000   10.500    2.500 
#    0.000    0.000    0.000    0.000    0.000    0.000 
#    0.000    0.000    0.000    0.000    0.000    0.000 
#
# Total GULP energy -198493.104090 kJ/mol
# GULP energy per Si atom -12405.819006 kJ/mol
# Density = 2.119719 g / cm^3
# Si number density = 21.245542 Si / 1000 Ang^3
#
#
#
# Elastic Constant Matrix: (Units=GPa)
#
#
# Indices 1 2 3 4 5 6 
#
# 1 76.7459 36.6583 23.3831 0.2781 -24.9001 14.9620
# 2 36.6583 15.3238 -50.3903 -47.2873 3.6929 16.0942
# 3 23.3831 -50.3903 39.9021 -28.8382 -8.0808 11.4734
# 4 0.2781 -47.2873 -28.8382 8.3737 13.9053 4.2274
# 5 -24.9001 3.6929 -8.0808 13.9053 32.5438 -8.1433
# 6 14.9620 16.0942 11.4734 4.2274 -8.1433 37.4113
#
#
#
# Elastic Compliance Matrix: (Units=1/GPa)
#
#
# Indices 1 2 3 4 5 6 
#
# 1 0.015122 0.001540 0.002238 0.008046 0.006806 -0.006824
# 2 0.001540 0.002944 -0.005462 -0.011999 0.005185 0.002277
# 3 0.002238 -0.005462 0.010913 -0.010409 0.009847 0.001427
# 4 0.008046 -0.011999 -0.010409 0.014562 -0.000440 0.003395
# 5 0.006806 0.005185 0.009847 -0.000440 0.038071 0.000364
# 6 -0.006824 0.002277 0.001427 0.003395 0.000364 0.027737
#
#
# Mechanical properties :
#
#
# Convention : Reuss Voigt Hill
#
# Bulk Modulus (GPa) = 39.04650 16.80821 27.92736
# Shear Modulus (GPa) = 41.23603 23.82045 32.52824
#
# Velocity S-wave (km/s) = 4.41037 3.35206 3.91712
# Velocity P-wave (km/s) = 6.65986 4.78647 5.79932
#
# Compressibility (1/GPa) = 0.02561049
#
# Stress axis : x y z
#
# Youngs Moduli (GPa) = 66.12900 339.72875 91.63539
#
# Poissons Ratio (x) = -0.52314 -0.20511
# Poissons Ratio (y) = -0.10183 0.50052
# Poissons Ratio (z) = -0.14802 1.85563
#
# Static dielectric constant tensor:
#      x y z
#    x 3.786100 0.014210 -0.081120 
#    y 0.014210 4.153010 -0.133210 
#    z -0.081120 -0.133210 3.836850 
# 
# 
# High freq. dielectric constant tensor:
#      x y z
#    x 1.829320 0.005490 -0.004750 
#    y 0.005490 1.854420 -0.004870 
#    z -0.004750 -0.004870 1.840370 
# 
# From -- ./inp_files/282596.got.cif
#   From: 2010.06.25/outbox.cif.g09.slc.cpg/sg2_142_cif.got.tgz:282596.got - 2010.06.27 13:26:56.
