data_PCOD8030233
_publ_section_title
;
Structure prediction by ZEFSAII (Michael W. Deem and Ramdas Pophale) SiO2 
 PCOD8030233
Probable space group: P -1
;
_chemical_formula_sum "Si O2"
_cell_formula_units_Z 16
_cell_length_a 9.701418
_cell_length_b 16.726364
_cell_length_c 8.909094
_cell_angle_alpha 78.343137
_cell_angle_beta 110.410025
_cell_angle_gamma 144.451100
_cell_volume 778.842332
_symmetry_space_group_name_H-M "P -1"
_symmetry_group_IT_number 2
_symmetry_cell_setting 'triclinic'
loop_
_space_group_symop_operation_xyz
x,y,z
-x,-y,-z
loop_
_atom_site_type_symbol
_atom_site_label
_atom_site_fract_x
_atom_site_fract_y
_atom_site_fract_z
Si Si1 0.322838 0.230945 0.301169
Si Si2 0.802956 0.970786 0.859129
Si Si3 0.427957 0.189067 0.641152
Si Si4 0.554403 0.431231 0.036019
Si Si5 0.079763 0.619399 0.065543
Si Si6 0.376748 0.878437 0.890866
Si Si7 0.091112 0.883646 0.621881
Si Si8 0.803744 0.784678 0.270163
O O1 0.319377 0.137318 0.275795
O O2 0.463391 0.275995 0.495265
O O3 0.457276 0.345067 0.183227
O O4 0.057807 0.155723 0.268533
O O5 0.592848 0.913942 0.907249
O O6 0.962860 0.115849 0.793312
O O7 0.000000 0.000000 0.000000
O O8 0.702197 0.293347 0.764258
O O9 0.256937 0.150202 0.724024
O O10 0.282324 0.042206 0.586729
O O11 0.848361 0.548200 0.099781
O O12 0.500000 0.500000 0.000000
O O13 0.439101 0.353153 0.861230
O O14 0.162737 0.726248 0.939822
O O15 0.000000 0.500000 0.000000
O O16 0.245554 0.869881 0.710924
O O17 0.500000 0.000000 0.000000
O O18 0.891871 0.773442 0.454854
#
# Coordination Sequence:
#
# PCOD8030233 Si02
#       8
#     2   2   2   2   2   2   2   2
#     4  11  22  42  70  96 130 173 222 273 327 400
#     4  12  21  37  70  99 125 167 224 268 330 394
#     4  11  21  43  71 101 130 172 222 276 338 396
#     4  12  27  43  63  95 133 182 224 267 330 396
#     4  12  25  46  66  90 138 181 223 263 332 415
#     4  12  26  41  68 102 135 174 219 287 339 380
#     4  11  22  43  69 105 134 162 222 285 344 379
#     4  11  22  41  69  96 133 174 215 274 326 404
#
# _framework density 20.543310999999999
#
# number of rings (size 3 to 8) (size 9 to 14) (size 15 to 20)
#    0.000    0.500    6.250    3.750    1.750    1.000 
#    4.500    1.875    0.000    0.000    0.000    0.000 
#    0.000    0.000    0.000    0.000    0.000    0.000 
#
# Total GULP energy -198271.867012 kJ/mol
# GULP energy per Si atom -12391.991688 kJ/mol
# Density = 2.049655 g / cm^3
# Si number density = 20.543311 Si / 1000 Ang^3
#
#
#
# Elastic Constant Matrix: (Units=GPa)
#
#
# Indices 1 2 3 4 5 6 
#
# 1 123.7413 37.7356 54.6617 -11.5618 11.1168 17.9107
# 2 37.7356 97.9236 51.8724 -10.3604 4.1847 10.9960
# 3 54.6617 51.8724 135.6968 -5.1292 19.3112 10.3891
# 4 -11.5618 -10.3604 -5.1292 24.9159 2.1156 1.6176
# 5 11.1168 4.1847 19.3112 2.1156 37.3548 -0.4277
# 6 17.9107 10.9960 10.3891 1.6176 -0.4277 37.7292
#
#
#
# Elastic Compliance Matrix: (Units=1/GPa)
#
#
# Indices 1 2 3 4 5 6 
#
# 1 0.011118 -0.001641 -0.003117 0.004257 -0.001802 -0.004145
# 2 -0.001641 0.013842 -0.004444 0.004139 0.000976 -0.002198
# 3 -0.003117 -0.004444 0.010912 -0.000677 -0.004180 -0.000248
# 4 0.004257 0.004139 -0.000677 0.044351 -0.003950 -0.004987
# 5 -0.001802 0.000976 -0.004180 -0.003950 0.029608 0.002227
# 6 -0.004145 -0.002198 -0.000248 -0.004987 0.002227 0.029420
#
#
# Mechanical properties :
#
#
# Convention : Reuss Voigt Hill
#
# Bulk Modulus (GPa) = 57.24655 71.76676 64.50666
# Shear Modulus (GPa) = 30.58527 34.20612 32.39569
#
# Velocity S-wave (km/s) = 3.86271 4.08496 3.97539
# Velocity P-wave (km/s) = 6.91526 7.56699 7.24845
#
# Compressibility (1/GPa) = 0.01746830
#
# Stress axis : x y z
#
# Youngs Moduli (GPa) = 89.94363 72.24589 91.64089
#
# Poissons Ratio (x) = 0.11852 0.28562
# Poissons Ratio (y) = 0.14756 0.40729
# Poissons Ratio (z) = 0.28033 0.32109
#
# Static dielectric constant tensor:
#      x y z
#    x 3.890500 0.089640 -0.046650 
#    y 0.089640 3.679110 -0.024130 
#    z -0.046650 -0.024130 3.972190 
# 
# 
# High freq. dielectric constant tensor:
#      x y z
#    x 1.807900 0.006800 0.003380 
#    y 0.006800 1.789380 0.001110 
#    z 0.003380 0.001110 1.816650 
# 
# From -- ./inp_files/206499.got.cif
#   From: 2010.06.25/outbox.cif.g09.slc.cpg/sg2_104_cif.got.tgz:206499.got - 2010.06.27 13:26:56.
