data_PCOD8030843
_publ_section_title
;
Structure prediction by ZEFSAII (Michael W. Deem and Ramdas Pophale) SiO2 
 PCOD8030843
Probable space group: P -1
;
_chemical_formula_sum "Si O2"
_cell_formula_units_Z 16
_cell_length_a 10.116036
_cell_length_b 13.077911
_cell_length_c 17.820156
_cell_angle_alpha 33.738156
_cell_angle_beta 37.492448
_cell_angle_gamma 35.581815
_cell_volume 710.087882
_symmetry_space_group_name_H-M "P -1"
_symmetry_group_IT_number 2
_symmetry_cell_setting 'triclinic'
loop_
_space_group_symop_operation_xyz
x,y,z
-x,-y,-z
loop_
_atom_site_type_symbol
_atom_site_label
_atom_site_fract_x
_atom_site_fract_y
_atom_site_fract_z
Si Si1 0.623293 0.161947 0.989519
Si Si2 0.797848 0.261059 0.383783
Si Si3 0.862687 0.096827 0.661016
Si Si4 0.988636 0.870197 0.897974
Si Si5 0.007304 0.599966 0.646810
Si Si6 0.531155 0.569258 0.863137
Si Si7 0.226986 0.384692 0.913781
Si Si8 0.549987 0.823473 0.302539
O O1 0.616945 0.374101 0.888788
O O2 0.439512 0.207673 0.974337
O O3 0.894608 0.012576 0.927455
O O4 0.555940 0.045262 0.158766
O O5 0.947181 0.309391 0.351472
O O6 0.682046 0.458271 0.259567
O O7 0.590536 0.203450 0.544687
O O8 0.991100 0.067401 0.369201
O O9 0.939778 0.280068 0.518176
O O10 0.579203 0.201072 0.700299
O O11 0.894139 0.004194 0.784595
O O12 0.280050 0.754051 0.834950
O O13 0.869417 0.712421 0.049809
O O14 0.174819 0.355777 0.712260
O O15 0.728323 0.653096 0.728974
O O16 0.500000 0.500000 0.000000
O O17 0.000000 0.500000 0.000000
#
# Coordination Sequence:
#
# PCOD8030843 Si02
#       8
#     2   2   2   2   2   2   2   2
#     4  12  26  44  72 106 134 180 232 284 349 398
#     4  11  22  40  72 104 134 175 225 289 350 393
#     4  11  23  42  70 105 133 173 230 289 346 399
#     4  12  26  45  72 105 137 181 230 285 344 409
#     4  11  26  42  66  99 143 183 223 278 344 408
#     4  12  28  47  68  96 144 185 231 277 335 425
#     4  12  21  41  73 105 140 170 228 292 344 397
#     4  11  23  41  69 104 135 173 228 284 345 397
#
# _framework density 22.532422
#
# number of rings (size 3 to 8) (size 9 to 14) (size 15 to 20)
#    0.000    0.500    3.750    5.625    7.000    2.500 
#    0.000    0.625    0.000    0.000    0.000    0.000 
#    0.000    0.000    0.000    0.000    0.000    0.000 
#
# Total GULP energy -198416.682776 kJ/mol
# GULP energy per Si atom -12401.042674 kJ/mol
# Density = 2.248114 g / cm^3
# Si number density = 22.532422 Si / 1000 Ang^3
#
#
#
# Elastic Constant Matrix: (Units=GPa)
#
#
# Indices 1 2 3 4 5 6 
#
# 1 50.9949 23.1520 28.0511 6.4480 -0.2260 -2.6553
# 2 23.1520 112.7199 35.4384 2.8591 -2.8004 -1.0279
# 3 28.0511 35.4384 124.0080 -2.3927 13.2148 -17.2057
# 4 6.4480 2.8591 -2.3927 29.2889 -4.0999 8.6344
# 5 -0.2260 -2.8004 13.2148 -4.0999 37.9284 -1.1271
# 6 -2.6553 -1.0279 -17.2057 8.6344 -1.1271 32.4724
#
#
#
# Elastic Compliance Matrix: (Units=1/GPa)
#
#
# Indices 1 2 3 4 5 6 
#
# 1 0.024461 -0.003392 -0.004639 -0.005583 0.000937 0.000952
# 2 -0.003392 0.010395 -0.002550 0.000126 0.001611 -0.001277
# 3 -0.004639 -0.002550 0.010978 0.000092 -0.003876 0.005198
# 4 -0.005583 0.000126 0.000092 0.039046 0.003848 -0.010652
# 5 0.000937 0.001611 -0.003876 0.003848 0.028198 -0.001971
# 6 0.000952 -0.001277 0.005198 -0.010652 -0.001971 0.036351
#
#
# Mechanical properties :
#
#
# Convention : Reuss Voigt Hill
#
# Bulk Modulus (GPa) = 40.53159 51.22286 45.87723
# Shear Modulus (GPa) = 27.96170 33.34336 30.65253
#
# Velocity S-wave (km/s) = 3.52654 3.85098 3.69233
# Velocity P-wave (km/s) = 5.88295 6.52348 6.21148
#
# Compressibility (1/GPa) = 0.02467211
#
# Stress axis : x y z
#
# Youngs Moduli (GPa) = 40.88067 96.19921 91.09009
#
# Poissons Ratio (x) = 0.32632 0.42260
# Poissons Ratio (y) = 0.13867 0.23226
# Poissons Ratio (z) = 0.18966 0.24529
#
# Static dielectric constant tensor:
#      x y z
#    x 3.820180 0.019950 0.217790 
#    y 0.019950 4.383660 -0.349770 
#    z 0.217790 -0.349770 4.298100 
# 
# 
# High freq. dielectric constant tensor:
#      x y z
#    x 1.859490 -0.008900 0.014750 
#    y -0.008900 1.903570 -0.005520 
#    z 0.014750 -0.005520 1.899940 
# 
# From -- ./inp_files/559632.got.cif
#   From: 2010.06.25/outbox.cif.g09.slc.cpg/sg2_280_cif.got.tgz:559632.got - 2010.06.27 13:26:56.
