data_PCOD8030859
_publ_section_title
;
Structure prediction by ZEFSAII (Michael W. Deem and Ramdas Pophale) SiO2 
 PCOD8030859
Probable space group: P -1
;
_chemical_formula_sum "Si O2"
_cell_formula_units_Z 16
_cell_length_a 9.808697
_cell_length_b 8.587118
_cell_length_c 20.614042
_cell_angle_alpha 40.538383
_cell_angle_beta 138.677029
_cell_angle_gamma 135.661306
_cell_volume 701.663182
_symmetry_space_group_name_H-M "P -1"
_symmetry_group_IT_number 2
_symmetry_cell_setting 'triclinic'
loop_
_space_group_symop_operation_xyz
x,y,z
-x,-y,-z
loop_
_atom_site_type_symbol
_atom_site_label
_atom_site_fract_x
_atom_site_fract_y
_atom_site_fract_z
Si Si1 0.461672 0.551206 0.874986
Si Si2 0.137709 0.292334 0.949895
Si Si3 0.026784 0.004556 0.325129
Si Si4 0.242172 0.518384 0.286394
Si Si5 0.672365 0.278932 0.470161
Si Si6 0.172120 0.416197 0.445293
Si Si7 0.780941 0.589076 0.288300
Si Si8 0.667972 0.958182 0.310733
O O1 0.312375 0.346388 0.937034
O O2 0.409026 0.420130 0.827592
O O3 0.409609 0.813220 0.767077
O O4 0.718372 0.611562 0.963790
O O5 0.973212 0.441881 0.830937
O O6 0.000000 0.000000 0.000000
O O7 0.923157 0.892961 0.253063
O O8 0.845573 0.063204 0.284984
O O9 0.094348 0.762985 0.449334
O O10 0.240299 0.263797 0.326001
O O11 0.245002 0.498580 0.371884
O O12 0.459829 0.742392 0.273663
O O13 0.668153 0.400581 0.501503
O O14 0.651250 0.466554 0.346574
O O15 0.500000 0.000000 0.500000
O O16 0.205352 0.142240 0.555383
O O17 0.928330 0.427102 0.363787
#
# Coordination Sequence:
#
# PCOD8030859 Si02
#       8
#     2   2   2   2   2   2   2   2
#     4  11  25  41  73  94 124 176 218 272 329 374
#     4  11  23  46  67  97 124 166 226 278 321 379
#     4  11  23  41  60  93 138 168 210 262 319 392
#     4  12  25  40  68  99 129 172 221 273 322 382
#     4  11  23  38  62  93 140 182 212 251 323 400
#     4  11  22  41  60 100 135 173 211 258 325 395
#     4  11  22  43  62  92 138 178 210 258 325 395
#     4  12  22  40  65 102 134 165 213 269 327 387
#
# _framework density 22.802965
#
# number of rings (size 3 to 8) (size 9 to 14) (size 15 to 20)
#    0.000    0.750    6.250    1.875    3.500    1.000 
#    0.000    0.625    0.000    1.500    0.000    0.000 
#    0.000    0.000    0.000    0.000    0.000    0.000 
#
# Total GULP energy -198237.760221 kJ/mol
# GULP energy per Si atom -12389.860014 kJ/mol
# Density = 2.275106 g / cm^3
# Si number density = 22.802965 Si / 1000 Ang^3
#
#
#
# Elastic Constant Matrix: (Units=GPa)
#
#
# Indices 1 2 3 4 5 6 
#
# 1 38.9638 16.7552 9.8026 -0.9229 -2.8866 -4.9936
# 2 16.7552 151.9257 52.4095 19.8763 -30.1943 4.0863
# 3 9.8026 52.4095 95.9988 20.8179 -13.9805 -11.8667
# 4 -0.9229 19.8763 20.8179 44.1131 -3.8198 -4.3219
# 5 -2.8866 -30.1943 -13.9805 -3.8198 21.1599 0.1378
# 6 -4.9936 4.0863 -11.8667 -4.3219 0.1378 33.8107
#
#
#
# Elastic Compliance Matrix: (Units=1/GPa)
#
#
# Indices 1 2 3 4 5 6 
#
# 1 0.028017 -0.003450 -0.001295 0.003069 -0.001432 0.004498
# 2 -0.003450 0.011212 -0.003823 -0.002584 0.012560 -0.003588
# 3 -0.001295 -0.003823 0.014674 -0.004477 0.003224 0.004836
# 4 0.003069 -0.002584 -0.004477 0.026127 -0.001527 0.002540
# 5 -0.001432 0.012560 0.003224 -0.001527 0.066847 -0.001066
# 6 0.004498 -0.003588 0.004836 0.002540 -0.001066 0.032701
#
#
# Mechanical properties :
#
#
# Convention : Reuss Voigt Hill
#
# Bulk Modulus (GPa) = 27.19840 49.42477 38.31158
# Shear Modulus (GPa) = 23.92672 33.67814 28.80243
#
# Velocity S-wave (km/s) = 3.24278 3.84724 3.55787
# Velocity P-wave (km/s) = 5.09649 6.43869 5.80651
#
# Compressibility (1/GPa) = 0.03676687
#
# Stress axis : x y z
#
# Youngs Moduli (GPa) = 35.69204 89.18862 68.14692
#
# Poissons Ratio (x) = 0.30772 0.08827
# Poissons Ratio (y) = 0.12315 0.26052
# Poissons Ratio (z) = 0.04623 0.34096
#
# Static dielectric constant tensor:
#      x y z
#    x 4.001120 0.024680 0.301610 
#    y 0.024680 4.461650 0.145540 
#    z 0.301610 0.145540 4.324700 
# 
# 
# High freq. dielectric constant tensor:
#      x y z
#    x 1.879950 0.009520 0.017820 
#    y 0.009520 1.926120 0.011830 
#    z 0.017820 0.011830 1.886420 
# 
# From -- ./inp_files/474092.got.cif
#   From: 2010.06.25/outbox.cif.g09.slc.cpg/sg2_238_cif.got.tgz:474092.got - 2010.06.27 13:26:56.
