data_PCOD8030641
_publ_section_title
;
Structure prediction by ZEFSAII (Michael W. Deem and Ramdas Pophale) SiO2 
 PCOD8030641
Probable space group: P -1
;
_chemical_formula_sum "Si O2"
_cell_formula_units_Z 14
_cell_length_a 13.752290
_cell_length_b 5.163345
_cell_length_c 9.244029
_cell_angle_alpha 78.393750
_cell_angle_beta 89.331590
_cell_angle_gamma 111.572681
_cell_volume 595.289694
_symmetry_space_group_name_H-M "P -1"
_symmetry_group_IT_number 2
_symmetry_cell_setting 'triclinic'
loop_
_space_group_symop_operation_xyz
x,y,z
-x,-y,-z
loop_
_atom_site_type_symbol
_atom_site_label
_atom_site_fract_x
_atom_site_fract_y
_atom_site_fract_z
Si Si1 0.268566 0.514281 0.691528
Si Si2 0.010465 0.398739 0.352501
Si Si3 0.919694 0.696174 0.090222
Si Si4 0.294406 0.125618 0.239264
Si Si5 0.802097 0.983454 0.450643
Si Si6 0.801421 0.442294 0.848354
Si Si7 0.504201 0.289565 0.395510
O O1 0.187817 0.303408 0.832879
O O2 0.247739 0.805446 0.645620
O O3 0.390599 0.586878 0.718865
O O4 0.255290 0.344032 0.559017
O O5 0.985077 0.596798 0.214109
O O6 0.923112 0.077015 0.385277
O O7 0.000000 0.500000 0.500000
O O8 0.126067 0.410364 0.310386
O O9 0.879429 0.479149 0.979223
O O10 0.000000 0.000000 0.000000
O O11 0.276926 0.395041 0.139196
O O12 0.410221 0.226728 0.291072
O O13 0.208209 0.989298 0.380873
O O14 0.271155 0.887320 0.141604
O O15 0.500000 0.500000 0.500000
O O16 0.500000 0.000000 0.500000
#
# Coordination Sequence:
#
# PCOD8030641 Si02
#       7
#     2   2   2   2   2   2   2
#     4  11  23  43  69 100 136 182 232 290 350 413
#     4  11  24  42  71 104 136 180 241 294 349 417
#     4  11  26  48  71 102 146 194 234 284 361 435
#     4  12  24  40  68 100 139 180 230 286 355 411
#     4  11  22  39  65 103 137 171 226 293 349 407
#     4  12  26  44  65  99 147 187 228 287 353 426
#     4  12  22  41  70 105 141 177 233 304 358 402
#
# _framework density 23.517961
#
# number of rings (size 3 to 8) (size 9 to 14) (size 15 to 20)
#    0.000    0.571    4.286    3.857    2.000    5.143 
#    0.000    1.429    0.000    0.000    0.000    0.000 
#    0.000    0.000    0.000    0.000    0.000    0.000 
#
# Total GULP energy -173547.095393 kJ/mol
# GULP energy per Si atom -12396.221100 kJ/mol
# Density = 2.346443 g / cm^3
# Si number density = 23.517961 Si / 1000 Ang^3
#
#
#
# Elastic Constant Matrix: (Units=GPa)
#
#
# Indices 1 2 3 4 5 6 
#
# 1 131.9681 54.7846 27.0441 7.6817 -0.9238 11.9317
# 2 54.7846 132.8959 35.8466 30.7855 2.5381 -0.4130
# 3 27.0441 35.8466 98.1691 18.3302 8.4898 5.4814
# 4 7.6817 30.7855 18.3302 42.5593 11.5907 -3.8984
# 5 -0.9238 2.5381 8.4898 11.5907 40.4092 -0.5824
# 6 11.9317 -0.4130 5.4814 -3.8984 -0.5824 38.9290
#
#
#
# Elastic Compliance Matrix: (Units=1/GPa)
#
#
# Indices 1 2 3 4 5 6 
#
# 1 0.009657 -0.003946 -0.001353 0.001361 0.000324 -0.002670
# 2 -0.003946 0.011251 -0.001914 -0.006957 0.001614 0.000926
# 3 -0.001353 -0.001914 0.012103 -0.003322 -0.001525 -0.001665
# 4 0.001361 -0.006957 -0.003322 0.032180 -0.008020 0.003079
# 5 0.000324 0.001614 -0.001525 -0.008020 0.027270 -0.000263
# 6 -0.002670 0.000926 -0.001665 0.003079 -0.000263 0.027055
#
#
# Mechanical properties :
#
#
# Convention : Reuss Voigt Hill
#
# Bulk Modulus (GPa) = 53.80088 66.48710 60.14399
# Shear Modulus (GPa) = 35.67942 40.73667 38.20804
#
# Velocity S-wave (km/s) = 3.89924 4.16643 4.03505
# Velocity P-wave (km/s) = 6.57254 7.17479 6.88026
#
# Compressibility (1/GPa) = 0.01858706
#
# Stress axis : x y z
#
# Youngs Moduli (GPa) = 103.54758 88.87931 82.62445
#
# Poissons Ratio (x) = 0.35072 0.11176
# Poissons Ratio (y) = 0.40861 0.15811
# Poissons Ratio (z) = 0.14006 0.17008
#
# Static dielectric constant tensor:
#      x y z
#    x 4.710690 0.276670 -0.145140 
#    y 0.276670 4.310120 0.084600 
#    z -0.145140 0.084600 4.233780 
# 
# 
# High freq. dielectric constant tensor:
#      x y z
#    x 1.939080 0.002100 -0.000740 
#    y 0.002100 1.937570 0.011870 
#    z -0.000740 0.011870 1.915400 
# 
# From -- ./inp_files/45478.got.cif
#   From: 2010.06.25/outbox.cif.g09.slc.cpg/sg2_23_cif.got.tgz:45478.got - 2010.06.27 13:26:56.
