data_PCOD8030311
_publ_section_title
;
Structure prediction by ZEFSAII (Michael W. Deem and Ramdas Pophale) SiO2 
 PCOD8030311
Probable space group: P -1
;
_chemical_formula_sum "Si O2"
_cell_formula_units_Z 16
_cell_length_a 17.778502
_cell_length_b 17.672084
_cell_length_c 9.684596
_cell_angle_alpha 140.429692
_cell_angle_beta 149.202378
_cell_angle_gamma 29.343083
_cell_volume 760.473086
_symmetry_space_group_name_H-M "P -1"
_symmetry_group_IT_number 2
_symmetry_cell_setting 'triclinic'
loop_
_space_group_symop_operation_xyz
x,y,z
-x,-y,-z
loop_
_atom_site_type_symbol
_atom_site_label
_atom_site_fract_x
_atom_site_fract_y
_atom_site_fract_z
Si Si1 0.409216 0.454924 0.192116
Si Si2 0.484286 0.846971 0.963073
Si Si3 0.511005 0.551345 0.237801
Si Si4 0.592339 0.138825 0.457489
Si Si5 0.012466 0.364623 0.263792
Si Si6 0.140099 0.202550 0.509884
Si Si7 0.941715 0.394148 0.730820
Si Si8 0.750986 0.815486 0.873496
O O1 0.500000 0.500000 0.500000
O O2 0.523639 0.273306 0.139749
O O3 0.432443 0.486836 0.118054
O O4 0.184577 0.560096 0.020562
O O5 0.413541 0.879933 0.741011
O O6 0.700158 0.779399 0.208267
O O7 0.349833 0.005944 0.060832
O O8 0.375196 0.738487 0.289458
O O9 0.716860 0.488448 0.531029
O O10 0.500000 0.500000 0.000000
O O11 0.395100 0.199185 0.303340
O O12 0.773224 0.972479 0.568712
O O13 0.000000 0.500000 0.500000
O O14 0.046941 0.249525 0.276702
O O15 0.185473 0.271469 0.295418
O O16 0.982527 0.326071 0.545453
O O17 0.000000 0.500000 0.000000
O O18 0.065640 0.254299 0.838430
#
# Coordination Sequence:
#
# PCOD8030311 Si02
#       8
#     2   2   2   2   2   2   2   2
#     4  12  26  46  67  93 142 182 216 269 336 404
#     4  11  21  44  69 101 133 174 224 274 334 389
#     4  12  27  42  65 101 137 176 216 271 344 395
#     4  11  22  43  69 100 134 174 221 277 335 389
#     4  12  26  43  65 106 136 172 223 279 331 387
#     4  11  22  41  70  99 135 166 223 288 327 377
#     4  12  21  41  71  99 123 173 238 269 306 399
#     4  11  23  39  72 101 126 171 232 274 322 388
#
# _framework density 21.039534
#
# number of rings (size 3 to 8) (size 9 to 14) (size 15 to 20)
#    0.000    0.500    6.250    3.000    1.750    3.000 
#    0.000    7.500    0.000    0.000    0.000    0.000 
#    0.000    0.000    0.000    0.000    0.000    0.000 
#
# Total GULP energy -198449.704933 kJ/mol
# GULP energy per Si atom -12403.106558 kJ/mol
# Density = 2.099165 g / cm^3
# Si number density = 21.039534 Si / 1000 Ang^3
#
#
#
# Elastic Constant Matrix: (Units=GPa)
#
#
# Indices 1 2 3 4 5 6 
#
# 1 111.4424 58.7157 11.8664 18.6705 -16.9234 6.9809
# 2 58.7157 135.8564 28.7180 16.2599 0.7690 17.4515
# 3 11.8664 28.7180 64.8943 6.1001 -5.6732 5.8052
# 4 18.6705 16.2599 6.1001 36.4376 0.5426 -3.7197
# 5 -16.9234 0.7690 -5.6732 0.5426 38.3858 4.3462
# 6 6.9809 17.4515 5.8052 -3.7197 4.3462 43.4478
#
#
#
# Elastic Compliance Matrix: (Units=1/GPa)
#
#
# Indices 1 2 3 4 5 6 
#
# 1 0.013583 -0.005374 0.001035 -0.004957 0.006459 -0.001233
# 2 -0.005374 0.011088 -0.003729 -0.001832 -0.002780 -0.002971
# 3 0.001035 -0.003729 0.017483 -0.001996 0.003314 -0.001507
# 4 -0.004957 -0.001832 -0.001996 0.031683 -0.003441 0.004856
# 5 0.006459 -0.002780 0.003314 -0.003441 0.029906 -0.003650
# 6 -0.001233 -0.002971 -0.001507 0.004856 -0.003650 0.025390
#
#
# Mechanical properties :
#
#
# Convention : Reuss Voigt Hill
#
# Bulk Modulus (GPa) = 38.43526 56.75482 47.59504
# Shear Modulus (GPa) = 32.47980 37.84709 35.16345
#
# Velocity S-wave (km/s) = 3.93332 4.24589 4.09259
# Velocity P-wave (km/s) = 6.23986 7.14638 6.70845
#
# Compressibility (1/GPa) = 0.02601777
#
# Stress axis : x y z
#
# Youngs Moduli (GPa) = 73.62128 90.18488 57.19877
#
# Poissons Ratio (x) = 0.48468 -0.05922
# Poissons Ratio (y) = 0.39566 0.21332
# Poissons Ratio (z) = -0.07623 0.33633
#
# Static dielectric constant tensor:
#      x y z
#    x 1.359840 -0.681370 -0.805440 
#    y -0.681370 3.757820 -0.301720 
#    z -0.805440 -0.301720 3.464390 
# 
# 
# High freq. dielectric constant tensor:
#      x y z
#    x 1.822250 0.005390 -0.013860 
#    y 0.005390 1.842010 -0.003280 
#    z -0.013860 -0.003280 1.813080 
# 
# From -- ./inp_files/205187.got.cif
#   From: 2010.06.25/outbox.cif.g09.slc.cpg/sg2_103_cif.got.tgz:205187.got - 2010.06.27 13:26:56.
