data_PCOD8030711
_publ_section_title
;
Structure prediction by ZEFSAII (Michael W. Deem and Ramdas Pophale) SiO2 
 PCOD8030711
Probable space group: P -1
;
_chemical_formula_sum "Si O2"
_cell_formula_units_Z 14
_cell_length_a 16.653825
_cell_length_b 18.636360
_cell_length_c 9.689578
_cell_angle_alpha 43.672973
_cell_angle_beta 38.581787
_cell_angle_gamma 21.575093
_cell_volume 689.557042
_symmetry_space_group_name_H-M "P -1"
_symmetry_group_IT_number 2
_symmetry_cell_setting 'triclinic'
loop_
_space_group_symop_operation_xyz
x,y,z
-x,-y,-z
loop_
_atom_site_type_symbol
_atom_site_label
_atom_site_fract_x
_atom_site_fract_y
_atom_site_fract_z
Si Si1 0.415149 0.609898 0.782888
Si Si2 0.167513 0.445352 0.658047
Si Si3 0.700644 0.091166 0.384776
Si Si4 0.031471 0.129805 0.388742
Si Si5 0.879537 0.308746 0.738539
Si Si6 0.858494 0.466674 0.115046
Si Si7 0.350731 0.742307 0.383139
O O1 0.322942 0.768334 0.784268
O O2 0.700210 0.398190 0.727475
O O3 0.369190 0.667740 0.606309
O O4 0.257632 0.618488 0.032791
O O5 0.430451 0.227562 0.554906
O O6 0.063442 0.607712 0.473623
O O7 0.202202 0.462484 0.744038
O O8 0.982071 0.477046 0.854547
O O9 0.837843 0.959940 0.518019
O O10 0.869884 0.928312 0.263578
O O11 0.032724 0.248424 0.175223
O O12 0.758547 0.265987 0.568606
O O13 0.179223 0.960377 0.315595
O O14 0.611063 0.605707 0.175372
#
# Coordination Sequence:
#
# PCOD8030711 Si02
#       7
#     2   2   2   2   2   2   2
#     4   9  18  30  48  72  98 126 165 198 241 293
#     4  10  21  30  48  74 104 127 163 194 246 298
#     4  10  17  32  46  78  99 124 161 201 247 290
#     4  10  19  30  52  70 102 128 158 201 249 283
#     4  10  17  31  49  69 100 132 155 204 245 281
#     4  11  19  33  47  72 105 130 157 202 241 295
#     4  10  19  34  48  77  99 124 164 202 239 297
#
# _framework density 20.302889
#
# number of rings (size 3 to 8) (size 9 to 14) (size 15 to 20)
#    0.000    2.000    5.714    0.857    0.000    1.714 
#    0.000    0.000    0.000    0.857    0.000   10.000 
#    0.000    0.000    0.000    0.000    0.000    0.000 
#
# Total GULP energy -173524.770821 kJ/mol
# GULP energy per Si atom -12394.626487 kJ/mol
# Density = 2.025668 g / cm^3
# Si number density = 20.302889 Si / 1000 Ang^3
#
#
#
# Elastic Constant Matrix: (Units=GPa)
#
#
# Indices 1 2 3 4 5 6 
#
# 1 17.0527 4.0836 5.8831 1.4486 -9.9770 -2.0942
# 2 4.0836 98.9820 35.4713 7.8883 -5.2852 7.3702
# 3 5.8831 35.4713 133.0097 -2.7907 -17.6189 0.8325
# 4 1.4486 7.8883 -2.7907 28.9525 3.9526 -3.7220
# 5 -9.9770 -5.2852 -17.6189 3.9526 15.8446 0.5999
# 6 -2.0942 7.3702 0.8325 -3.7220 0.5999 20.0732
#
#
#
# Elastic Compliance Matrix: (Units=1/GPa)
#
#
# Indices 1 2 3 4 5 6 
#
# 1 0.101283 -0.001613 0.005176 -0.013146 0.072033 0.006354
# 2 -0.001613 0.012058 -0.003090 -0.004298 0.000843 -0.005289
# 3 0.005176 -0.003090 0.009852 -0.000160 0.013192 0.000842
# 4 -0.013146 -0.004298 -0.000160 0.040176 -0.020225 0.008267
# 5 0.072033 0.000843 0.013192 -0.020225 0.128501 -0.000932
# 6 0.006354 -0.005289 0.000842 0.008267 -0.000932 0.053949
#
#
# Mechanical properties :
#
#
# Convention : Reuss Voigt Hill
#
# Bulk Modulus (GPa) = 8.05533 37.76892 22.91213
# Shear Modulus (GPa) = 12.94490 26.54781 19.74636
#
# Velocity S-wave (km/s) = 2.52779 3.61998 3.12202
# Velocity P-wave (km/s) = 3.53494 6.00962 4.93008
#
# Compressibility (1/GPa) = 0.12414135
#
# Stress axis : x y z
#
# Youngs Moduli (GPa) = 9.87328 82.93275 101.50112
#
# Poissons Ratio (x) = 0.13375 -0.52540
# Poissons Ratio (y) = 0.01592 0.31360
# Poissons Ratio (z) = -0.05111 0.25623
#
# Static dielectric constant tensor:
#      x y z
#    x 3.194530 0.146320 -0.128540 
#    y 0.146320 4.173460 0.080440 
#    z -0.128540 0.080440 3.643380 
# 
# 
# High freq. dielectric constant tensor:
#      x y z
#    x 1.734690 0.007670 -0.009270 
#    y 0.007670 1.814940 0.001910 
#    z -0.009270 0.001910 1.783300 
# 
# From -- ./inp_files/273549.got.cif
#   From: 2010.06.25/outbox.cif.g09.slc.cpg/sg2_137_cif.got.tgz:273549.got - 2010.06.27 13:26:56.
