data_PCOD8030043
_publ_section_title
;
Structure prediction by ZEFSAII (Michael W. Deem and Ramdas Pophale) SiO2 
 PCOD8030043
Probable space group: P -1
;
_chemical_formula_sum "Si O2"
_cell_formula_units_Z 16
_cell_length_a 13.393624
_cell_length_b 9.520760
_cell_length_c 22.863689
_cell_angle_alpha 144.673755
_cell_angle_beta 154.703214
_cell_angle_gamma 46.420837
_cell_volume 706.487590
_symmetry_space_group_name_H-M "P -1"
_symmetry_group_IT_number 2
_symmetry_cell_setting 'triclinic'
loop_
_space_group_symop_operation_xyz
x,y,z
-x,-y,-z
loop_
_atom_site_type_symbol
_atom_site_label
_atom_site_fract_x
_atom_site_fract_y
_atom_site_fract_z
Si Si1 0.026086 0.083670 0.817796
Si Si2 0.714058 0.227425 0.368196
Si Si3 0.820064 0.405467 0.277345
Si Si4 0.503633 0.460162 0.232135
Si Si5 0.007776 0.531891 0.152605
Si Si6 0.405041 0.280426 0.332553
Si Si7 0.259861 0.857580 0.205133
Si Si8 0.606156 0.687487 0.070507
O O1 0.882639 0.206756 0.733028
O O2 0.886455 0.023191 0.784134
O O3 0.048127 0.818464 0.715152
O O4 0.285288 0.252059 0.023064
O O5 0.573753 0.395221 0.312252
O O6 0.594162 0.213782 0.363964
O O7 0.991759 0.357448 0.567048
O O8 0.695167 0.958245 0.237438
O O9 0.728821 0.474037 0.314454
O O10 0.602068 0.311673 0.086109
O O11 0.461393 0.742998 0.306648
O O12 0.824625 0.583727 0.122656
O O13 0.182696 0.364329 0.213065
O O14 0.895078 0.383979 0.986808
O O15 0.500000 0.500000 0.500000
O O16 0.342663 0.040543 0.258120
O O17 0.500000 0.500000 0.000000
#
# Coordination Sequence:
#
# PCOD8030043 Si02
#       8
#     2   2   2   2   2   2   2   2
#     4  11  21  41  75 103 138 183 238 290 349 422
#     4  12  27  46  75 105 146 186 235 294 354 422
#     4  12  25  45  73 109 143 186 236 291 354 421
#     4  11  22  45  70 105 143 180 237 295 351 414
#     4  11  24  45  70 101 140 185 234 292 351 413
#     4  12  28  47  65 102 148 184 236 295 353 423
#     4  11  23  42  73 101 135 188 238 286 348 426
#     4  12  27  46  74 106 146 188 236 291 356 424
#
# _framework density 22.647248000000001
#
# number of rings (size 3 to 8) (size 9 to 14) (size 15 to 20)
#    0.000    0.500    3.750    6.375    3.500    2.500 
#    0.000    2.500    0.000    0.000    0.000    0.000 
#    0.000    0.000    0.000    0.000    0.000    0.000 
#
# Total GULP energy -198327.028578 kJ/mol
# GULP energy per Si atom -12395.439286 kJ/mol
# Density = 2.259570 g / cm^3
# Si number density = 22.647248 Si / 1000 Ang^3
#
#
#
# Elastic Constant Matrix: (Units=GPa)
#
#
# Indices 1 2 3 4 5 6 
#
# 1 -7.7785 148.4118 23.5379 -63.0282 14.8489 79.1694
# 2 148.4118 -1.6280 4.6157 55.8594 23.8976 -58.6651
# 3 23.5379 4.6157 64.5005 21.4875 10.7726 -13.0760
# 4 -63.0282 55.8594 21.4875 -7.5515 -2.4642 32.3997
# 5 14.8489 23.8976 10.7726 -2.4642 30.4632 8.9463
# 6 79.1694 -58.6651 -13.0760 32.3997 8.9463 7.8555
#
#
#
# Elastic Compliance Matrix: (Units=1/GPa)
#
#
# Indices 1 2 3 4 5 6 
#
# 1 0.005603 0.001853 0.002467 -0.008341 -0.006791 0.003609
# 2 0.001853 0.007996 -0.005006 0.009973 -0.003195 -0.004781
# 3 0.002467 -0.005006 0.017822 -0.006720 -0.004044 -0.000263
# 4 -0.008341 0.009973 -0.006720 0.033793 -0.001486 0.009665
# 5 -0.006791 -0.003195 -0.004044 -0.001486 0.040622 -0.002278
# 6 0.003609 -0.004781 -0.000263 0.009665 -0.002278 0.017517
#
#
# Mechanical properties :
#
#
# Convention : Reuss Voigt Hill
#
# Bulk Modulus (GPa) = 33.27906 45.35832 39.31869
# Shear Modulus (GPa) = 37.10787 -1.94465 17.58161
#
# Velocity S-wave (km/s) = 4.05225 -0.92765 2.78928
# Velocity P-wave (km/s) = 6.05151 4.35020 5.26996
#
# Compressibility (1/GPa) = 0.03004892
#
# Stress axis : x y z
#
# Youngs Moduli (GPa) = 178.47660 125.05901 56.10919
#
# Poissons Ratio (x) = -0.23168 -0.13844
# Poissons Ratio (y) = -0.33064 0.28089
# Poissons Ratio (z) = -0.44035 0.62606
#
# Static dielectric constant tensor:
#      x y z
#    x 4.243480 0.018090 -0.008100 
#    y 0.018090 4.040960 0.056830 
#    z -0.008100 0.056830 3.994720 
# 
# 
# High freq. dielectric constant tensor:
#      x y z
#    x 1.912130 0.001680 -0.001940 
#    y 0.001680 1.913410 0.006100 
#    z -0.001940 0.006100 1.880120 
# 
# From -- ./inp_files/594280.got.cif
#   From: 2010.06.25/outbox.cif.g09.slc.cpg/sg2_298_cif.got.tgz:594280.got - 2010.06.27 13:26:56.
