data_PCOD8030775
_publ_section_title
;
Structure prediction by ZEFSAII (Michael W. Deem and Ramdas Pophale) SiO2 
 PCOD8030775
Probable space group: P -1
;
_chemical_formula_sum "Si O2"
_cell_formula_units_Z 16
_cell_length_a 18.095746
_cell_length_b 12.463179
_cell_length_c 9.064158
_cell_angle_alpha 120.875107
_cell_angle_beta 31.690320
_cell_angle_gamma 132.282133
_cell_volume 785.211248
_symmetry_space_group_name_H-M "P -1"
_symmetry_group_IT_number 2
_symmetry_cell_setting 'triclinic'
loop_
_space_group_symop_operation_xyz
x,y,z
-x,-y,-z
loop_
_atom_site_type_symbol
_atom_site_label
_atom_site_fract_x
_atom_site_fract_y
_atom_site_fract_z
Si Si1 0.246320 0.345162 0.440133
Si Si2 0.619716 0.313146 0.061334
Si Si3 0.075247 0.671352 0.009464
Si Si4 0.857131 0.218041 0.700673
Si Si5 0.570832 0.158866 0.556749
Si Si6 0.648520 0.877871 0.828886
Si Si7 0.481725 0.633562 0.417792
Si Si8 0.233130 0.395673 0.157817
O O1 0.265153 0.205703 0.313895
O O2 0.381447 0.472687 0.402911
O O3 0.266141 0.405831 0.283870
O O4 0.062986 0.291741 0.773096
O O5 0.438870 0.184370 0.224116
O O6 0.594971 0.375215 0.299297
O O7 0.739188 0.249771 0.825929
O O8 0.700112 0.440519 0.893779
O O9 0.231689 0.758873 0.697862
O O10 0.140894 0.721826 0.098352
O O11 0.000000 0.500000 0.000000
O O12 0.040055 0.296246 0.376389
O O13 0.790347 0.046403 0.694019
O O14 0.524456 0.247406 0.587044
O O15 0.500000 0.000000 0.500000
O O16 0.495450 0.144857 0.834238
O O17 0.670780 0.673304 0.135241
#
# Coordination Sequence:
#
# PCOD8030775 Si02
#       8
#     2   2   2   2   2   2   2   2
#     4  11  23  41  69  99 130 168 221 272 326 378
#     4  12  24  43  68  91 132 180 216 261 327 394
#     4  11  22  40  67  95 133 163 215 277 321 380
#     4  11  25  44  62  99 133 167 219 273 324 384
#     4  12  23  42  67  98 128 171 216 273 327 382
#     4  12  25  43  69  94 135 176 215 266 334 388
#     4  12  22  43  65  99 133 166 226 264 321 395
#     4  11  24  40  69  96 126 169 220 273 321 379
#
# _framework density 20.376681000000001
#
# number of rings (size 3 to 8) (size 9 to 14) (size 15 to 20)
#    0.000    0.500    6.250    2.250    1.750    3.000 
#    2.250    0.625    0.000    0.000    0.000    0.000 
#    0.000    0.000    0.000    0.000    0.000    0.000 
#
# Total GULP energy -198488.945592 kJ/mol
# GULP energy per Si atom -12405.559100 kJ/mol
# Density = 2.033030 g / cm^3
# Si number density = 20.376681 Si / 1000 Ang^3
#
#
#
# Elastic Constant Matrix: (Units=GPa)
#
#
# Indices 1 2 3 4 5 6 
#
# 1 75.3977 34.7004 20.0095 3.6510 -4.3686 -2.2712
# 2 34.7004 147.1189 37.2835 1.7216 -0.5348 5.5610
# 3 20.0095 37.2835 118.2043 2.6199 -22.8427 -2.2505
# 4 3.6510 1.7216 2.6199 29.0231 0.9923 -10.4349
# 5 -4.3686 -0.5348 -22.8427 0.9923 27.3071 2.0270
# 6 -2.2712 5.5610 -2.2505 -10.4349 2.0270 26.9760
#
#
#
# Elastic Compliance Matrix: (Units=1/GPa)
#
#
# Indices 1 2 3 4 5 6 
#
# 1 0.015294 -0.003324 -0.001240 -0.001187 0.001290 0.001313
# 2 -0.003324 0.008306 -0.002532 -0.000578 -0.002298 -0.002254
# 3 -0.001240 -0.002532 0.011270 -0.000912 0.009190 0.000314
# 4 -0.001187 -0.000578 -0.000912 0.040564 -0.003619 0.015906
# 5 0.001290 -0.002298 0.009190 -0.003619 0.044855 -0.003421
# 6 0.001313 -0.002254 0.000314 0.015906 -0.003421 0.044081
#
#
# Mechanical properties :
#
#
# Convention : Reuss Voigt Hill
#
# Bulk Modulus (GPa) = 48.35697 58.30084 53.32890
# Shear Modulus (GPa) = 26.96080 33.24308 30.10194
#
# Velocity S-wave (km/s) = 3.64142 4.04348 3.84770
# Velocity P-wave (km/s) = 6.43917 7.10445 6.77998
#
# Compressibility (1/GPa) = 0.02067954
#
# Stress axis : x y z
#
# Youngs Moduli (GPa) = 65.38652 120.38827 88.72803
#
# Poissons Ratio (x) = 0.40019 0.11000
# Poissons Ratio (y) = 0.21735 0.22462
# Poissons Ratio (z) = 0.08107 0.30477
#
# Static dielectric constant tensor:
#      x y z
#    x 3.657020 -0.006250 -0.238910 
#    y -0.006250 3.711770 0.018960 
#    z -0.238910 0.018960 4.027160 
# 
# 
# High freq. dielectric constant tensor:
#      x y z
#    x 1.791210 -0.000840 -0.013490 
#    y -0.000840 1.801710 0.007620 
#    z -0.013490 0.007620 1.811810 
# 
# From -- ./inp_files/257128.got.cif
#   From: 2010.06.25/outbox.cif.g09.slc.cpg/sg2_129_cif.got.tgz:257128.got - 2010.06.27 13:26:56.
