data_PCOD8030700
_publ_section_title
;
Structure prediction by ZEFSAII (Michael W. Deem and Ramdas Pophale) SiO2 
 PCOD8030700
Probable space group: P -1
;
_chemical_formula_sum "Si O2"
_cell_formula_units_Z 14
_cell_length_a 12.018249
_cell_length_b 11.431506
_cell_length_c 11.725928
_cell_angle_alpha 136.885535
_cell_angle_beta 145.047078
_cell_angle_gamma 62.742093
_cell_volume 588.894092
_symmetry_space_group_name_H-M "P -1"
_symmetry_group_IT_number 2
_symmetry_cell_setting 'triclinic'
loop_
_space_group_symop_operation_xyz
x,y,z
-x,-y,-z
loop_
_atom_site_type_symbol
_atom_site_label
_atom_site_fract_x
_atom_site_fract_y
_atom_site_fract_z
Si Si1 0.659048 0.857237 0.590426
Si Si2 0.703538 0.440185 0.059726
Si Si3 0.446265 0.919726 0.685201
Si Si4 0.554030 0.660252 0.751368
Si Si5 0.020722 0.758021 0.922297
Si Si6 0.986495 0.695676 0.106328
Si Si7 0.476147 0.660721 0.933929
O O1 0.499212 0.731904 0.275150
O O2 0.536450 0.858961 0.605029
O O3 0.767052 0.061670 0.776626
O O4 0.841270 0.775843 0.704163
O O5 0.916945 0.414952 0.186107
O O6 0.698565 0.452886 0.202489
O O7 0.688714 0.626049 0.124692
O O8 0.519213 0.837484 0.798414
O O9 0.198540 0.850513 0.429949
O O10 0.518236 0.134782 0.910411
O O11 0.500000 0.500000 0.500000
O O12 0.420547 0.590929 0.706594
O O13 0.795494 0.716146 0.031127
O O14 0.933152 0.720821 0.948846
O O15 0.000000 0.500000 0.000000
#
# Coordination Sequence:
#
# PCOD8030700 Si02
#       7
#     2   2   2   2   2   2   2
#     4  11  22  41  74 101 130 180 230 280 335 403
#     4  11  22  45  67  98 140 179 225 278 343 402
#     4  12  23  45  70 102 143 174 229 285 335 405
#     4  12  25  47  69  97 136 184 233 277 336 412
#     4  11  22  39  71 104 129 173 238 275 330 405
#     4  12  24  39  71 104 129 181 228 270 336 406
#     4  11  26  43  68 100 141 183 220 286 348 393
#
# _framework density 23.773372999999999
#
# number of rings (size 3 to 8) (size 9 to 14) (size 15 to 20)
#    0.000    0.571    5.714    3.429    0.000    0.571 
#    0.000    5.714    0.000    0.000    0.000    0.000 
#    0.000    0.000    0.000    0.000    0.000    0.000 
#
# Total GULP energy -173578.787558 kJ/mol
# GULP energy per Si atom -12398.484826 kJ/mol
# Density = 2.371926 g / cm^3
# Si number density = 23.773373 Si / 1000 Ang^3
#
#
#
# Elastic Constant Matrix: (Units=GPa)
#
#
# Indices 1 2 3 4 5 6 
#
# 1 103.4903 23.6548 21.5098 -8.4860 -16.4506 8.0746
# 2 23.6548 154.8232 2.8744 0.4179 -12.3571 -3.5106
# 3 21.5098 2.8744 46.1052 -7.7506 -5.5618 -5.4510
# 4 -8.4860 0.4179 -7.7506 30.0323 -5.4924 2.6666
# 5 -16.4506 -12.3571 -5.5618 -5.4924 29.8632 -5.8955
# 6 8.0746 -3.5106 -5.4510 2.6666 -5.8955 55.1347
#
#
#
# Elastic Compliance Matrix: (Units=1/GPa)
#
#
# Indices 1 2 3 4 5 6 
#
# 1 0.012260 -0.001395 -0.004599 0.003488 0.005584 -0.001911
# 2 -0.001395 0.006873 0.000627 0.000023 0.002386 0.000958
# 3 -0.004599 0.000627 0.025688 0.005795 0.004253 0.003428
# 4 0.003488 0.000023 0.005795 0.037632 0.009791 -0.000709
# 5 0.005584 0.002386 0.004253 0.009791 0.040863 0.003650
# 6 -0.001911 0.000958 0.003428 -0.000709 0.003650 0.019242
#
#
# Mechanical properties :
#
#
# Convention : Reuss Voigt Hill
#
# Bulk Modulus (GPa) = 29.33560 44.49963 36.91762
# Shear Modulus (GPa) = 30.36692 40.09802 35.23247
#
# Velocity S-wave (km/s) = 3.57788 4.11137 3.85387
# Velocity P-wave (km/s) = 5.42538 6.42626 5.94691
#
# Compressibility (1/GPa) = 0.03408827
#
# Stress axis : x y z
#
# Youngs Moduli (GPa) = 81.56539 145.50728 38.92815
#
# Poissons Ratio (x) = 0.20296 0.17902
# Poissons Ratio (y) = 0.11377 -0.02442
# Poissons Ratio (z) = 0.37510 -0.09127
#
# Static dielectric constant tensor:
#      x y z
#    x 4.552700 0.038750 0.058610 
#    y 0.038750 4.721820 -0.007660 
#    z 0.058610 -0.007660 3.938860 
# 
# 
# High freq. dielectric constant tensor:
#      x y z
#    x 1.951690 0.000400 -0.000880 
#    y 0.000400 1.975100 -0.004150 
#    z -0.000880 -0.004150 1.905930 
# 
# From -- ./inp_files/260849.got.cif
#   From: 2010.06.25/outbox.cif.g09.slc.cpg/sg2_131_cif.got.tgz:260849.got - 2010.06.27 13:26:56.
