data_PCOD8030368
_publ_section_title
;
Structure prediction by ZEFSAII (Michael W. Deem and Ramdas Pophale) SiO2 
 PCOD8030368
Probable space group: P -1
;
_chemical_formula_sum "Si O2"
_cell_formula_units_Z 16
_cell_length_a 8.871519
_cell_length_b 8.167079
_cell_length_c 15.086905
_cell_angle_alpha 87.981938
_cell_angle_beta 42.356643
_cell_angle_gamma 77.516680
_cell_volume 706.066696
_symmetry_space_group_name_H-M "P -1"
_symmetry_group_IT_number 2
_symmetry_cell_setting 'triclinic'
loop_
_space_group_symop_operation_xyz
x,y,z
-x,-y,-z
loop_
_atom_site_type_symbol
_atom_site_label
_atom_site_fract_x
_atom_site_fract_y
_atom_site_fract_z
Si Si1 0.629366 0.873161 0.170575
Si Si2 0.748861 0.220635 0.356843
Si Si3 0.225969 0.281382 0.573526
Si Si4 0.413278 0.775389 0.916073
Si Si5 0.929625 0.888048 0.191611
Si Si6 0.209936 0.975622 0.475883
Si Si7 0.893582 0.577124 0.791121
Si Si8 0.778921 0.518795 0.033841
O O1 0.876666 0.833914 0.115839
O O2 0.627523 0.718297 0.106872
O O3 0.574881 0.058340 0.146256
O O4 0.442179 0.873515 0.327519
O O5 0.475108 0.321906 0.467509
O O6 0.900729 0.346964 0.270366
O O7 0.820002 0.090091 0.246689
O O8 0.822284 0.127848 0.421019
O O9 0.204779 0.188639 0.675837
O O10 0.218902 0.164808 0.494558
O O11 0.003159 0.448761 0.664831
O O12 0.660137 0.712847 0.858739
O O13 0.367174 0.618989 0.879472
O O14 0.210694 0.835924 0.077547
O O15 0.000000 0.000000 0.500000
O O16 0.845410 0.479832 0.902037
O O17 0.000000 0.500000 0.000000
#
# Coordination Sequence:
#
# PCOD8030368 Si02
#       8
#     2   2   2   2   2   2   2   2
#     4  12  24  46  70 104 143 183 234 287 349 418
#     4  11  23  44  72  97 132 194 235 276 347 421
#     4  11  22  45  71  94 139 186 229 287 341 417
#     4  12  27  45  70 106 144 182 229 294 357 405
#     4  11  21  44  73  97 138 182 239 283 345 420
#     4  11  24  42  68 104 136 180 232 288 353 410
#     4  12  27  46  66 107 140 179 236 291 352 410
#     4  12  27  44  73 105 138 185 230 289 348 417
#
# _framework density 22.660747000000001
#
# number of rings (size 3 to 8) (size 9 to 14) (size 15 to 20)
#    0.000    0.500    5.000    3.375    3.500    3.000 
#    2.250    1.250    0.000    0.000    0.000    0.000 
#    0.000    0.000    0.000    0.000    0.000    0.000 
#
# Total GULP energy -198341.109106 kJ/mol
# GULP energy per Si atom -12396.319319 kJ/mol
# Density = 2.260917 g / cm^3
# Si number density = 22.660747 Si / 1000 Ang^3
#
#
#
# Elastic Constant Matrix: (Units=GPa)
#
#
# Indices 1 2 3 4 5 6 
#
# 1 94.0559 7.9302 25.9784 7.0801 -13.1662 -5.0978
# 2 7.9302 96.6598 24.2569 8.6243 -3.4121 12.7557
# 3 25.9784 24.2569 98.1288 28.5569 -12.1409 4.7245
# 4 7.0801 8.6243 28.5569 38.7886 -1.6439 2.5341
# 5 -13.1662 -3.4121 -12.1409 -1.6439 29.7476 9.4722
# 6 -5.0978 12.7557 4.7245 2.5341 9.4722 33.9210
#
#
#
# Elastic Compliance Matrix: (Units=1/GPa)
#
#
# Indices 1 2 3 4 5 6 
#
# 1 0.011999 -0.000341 -0.002663 -0.000076 0.003782 0.001252
# 2 -0.000341 0.011635 -0.002199 -0.000535 0.001707 -0.004557
# 3 -0.002663 -0.002199 0.014974 -0.009692 0.004876 -0.002296
# 4 -0.000076 -0.000535 -0.009692 0.032981 -0.002123 -0.000331
# 5 0.003782 0.001707 0.004876 -0.002123 0.041212 -0.012102
# 6 0.001252 -0.004557 -0.002296 -0.000331 -0.012102 0.035106
#
#
# Mechanical properties :
#
#
# Convention : Reuss Voigt Hill
#
# Bulk Modulus (GPa) = 35.45925 45.01950 40.23937
# Shear Modulus (GPa) = 29.81269 35.87004 32.84137
#
# Velocity S-wave (km/s) = 3.63107 3.98290 3.81105
# Velocity P-wave (km/s) = 5.76727 6.40790 6.09601
#
# Compressibility (1/GPa) = 0.02820139
#
# Stress axis : x y z
#
# Youngs Moduli (GPa) = 83.33932 85.94863 66.78396
#
# Poissons Ratio (x) = 0.02933 0.17782
# Poissons Ratio (y) = 0.02844 0.14688
# Poissons Ratio (z) = 0.22190 0.18903
#
# Static dielectric constant tensor:
#      x y z
#    x 4.402520 0.386530 -0.447200 
#    y 0.386530 4.568620 0.317460 
#    z -0.447200 0.317460 4.662540 
# 
# 
# High freq. dielectric constant tensor:
#      x y z
#    x 1.880810 0.010810 -0.010700 
#    y 0.010810 1.903500 0.013150 
#    z -0.010700 0.013150 1.902030 
# 
# From -- ./inp_files/184924.got.cif
#   From: 2010.06.25/outbox.cif.g09.slc.cpg/sg2_93_cif.got.tgz:184924.got - 2010.06.27 13:26:56.
