data_PCOD8030863
_publ_section_title
;
Structure prediction by ZEFSAII (Michael W. Deem and Ramdas Pophale) SiO2 
 PCOD8030863
Probable space group: P -1
;
_chemical_formula_sum "Si O2"
_cell_formula_units_Z 16
_cell_length_a 28.641940
_cell_length_b 16.242336
_cell_length_c 11.011140
_cell_angle_alpha 23.830027
_cell_angle_beta 148.190178
_cell_angle_gamma 159.554800
_cell_volume 721.968881
_symmetry_space_group_name_H-M "P -1"
_symmetry_group_IT_number 2
_symmetry_cell_setting 'triclinic'
loop_
_space_group_symop_operation_xyz
x,y,z
-x,-y,-z
loop_
_atom_site_type_symbol
_atom_site_label
_atom_site_fract_x
_atom_site_fract_y
_atom_site_fract_z
Si Si1 0.450322 0.798180 0.342637
Si Si2 0.675391 0.008439 0.185209
Si Si3 0.138543 0.319091 0.671975
Si Si4 0.264029 0.525690 0.934772
Si Si5 0.600330 0.337529 0.317662
Si Si6 0.025406 0.321003 0.759069
Si Si7 0.480366 0.460327 0.312954
Si Si8 0.098409 0.873456 0.507553
O O1 0.439778 0.674840 0.617045
O O2 0.447100 0.613090 0.485977
O O3 0.580354 0.165847 0.119933
O O4 0.332396 0.762662 0.113332
O O5 0.587941 0.794252 0.163546
O O6 0.631461 0.800892 0.485199
O O7 0.832873 0.230891 0.202179
O O8 0.227936 0.467748 0.791099
O O9 0.250740 0.509006 0.558501
O O10 0.027908 0.314717 0.423978
O O11 0.048721 0.963169 0.932839
O O12 0.185208 0.567210 0.776712
O O13 0.223929 0.246803 0.292050
O O14 0.500000 0.000000 0.500000
O O15 0.595729 0.539566 0.958306
O O16 0.971369 0.178000 0.700274
O O17 0.000000 0.500000 0.500000
#
# Coordination Sequence:
#
# PCOD8030863 Si02
#       8
#     2   2   2   2   2   2   2   2
#     4  12  24  39  63  97 125 164 212 254 307 377
#     4  11  22  41  63  88 129 167 200 258 321 364
#     4   9  18  36  56  83 118 159 203 246 308 363
#     4   9  17  32  55  83 118 152 200 256 302 352
#     4  12  22  41  66  88 128 169 206 255 310 366
#     4   9  18  31  54  88 117 150 199 262 307 350
#     4  11  24  40  62  94 126 163 210 259 307 369
#     4   9  19  35  56  83 119 161 200 248 310 367
#
# _framework density 22.161621
#
# number of rings (size 3 to 8) (size 9 to 14) (size 15 to 20)
#    0.000    1.750    2.500    5.250    3.500    0.000 
#    2.250    0.625    0.000    0.750    0.000    0.000 
#    0.000    0.000    0.000    0.000    0.000    0.000 
#
# Total GULP energy -198253.015200 kJ/mol
# GULP energy per Si atom -12390.813450 kJ/mol
# Density = 2.211118 g / cm^3
# Si number density = 22.161621 Si / 1000 Ang^3
#
#
#
# Elastic Constant Matrix: (Units=GPa)
#
#
# Indices 1 2 3 4 5 6 
#
# 1 102.2134 34.9952 29.3132 0.5293 22.2528 28.1814
# 2 34.9952 71.8892 25.2350 8.3402 6.9504 36.3783
# 3 29.3132 25.2350 71.4427 15.9309 17.9955 14.0199
# 4 0.5293 8.3402 15.9309 28.7631 8.1258 7.5119
# 5 22.2528 6.9504 17.9955 8.1258 44.4921 12.1029
# 6 28.1814 36.3783 14.0199 7.5119 12.1029 38.9415
#
#
#
# Elastic Compliance Matrix: (Units=1/GPa)
#
#
# Indices 1 2 3 4 5 6 
#
# 1 0.014516 -0.002816 -0.003839 0.005583 -0.004619 -0.006134
# 2 -0.002816 0.029584 -0.005758 -0.000441 0.006088 -0.025333
# 3 -0.003839 -0.005758 0.020010 -0.009093 -0.004751 0.004184
# 4 0.005583 -0.000441 -0.009093 0.043094 -0.004979 -0.007120
# 5 -0.004619 0.006088 -0.004751 -0.004979 0.029032 -0.008696
# 6 -0.006134 -0.025333 0.004184 -0.007120 -0.008696 0.056354
#
#
# Mechanical properties :
#
#
# Convention : Reuss Voigt Hill
#
# Bulk Modulus (GPa) = 25.45586 47.18135 36.31861
# Shear Modulus (GPa) = 21.69095 32.83946 27.26521
#
# Velocity S-wave (km/s) = 3.13191 3.85361 3.51135
# Velocity P-wave (km/s) = 4.95882 6.41376 5.73264
#
# Compressibility (1/GPa) = 0.03928368
#
# Stress axis : x y z
#
# Youngs Moduli (GPa) = 68.88749 33.80180 49.97614
#
# Poissons Ratio (x) = 0.09519 0.19187
# Poissons Ratio (y) = 0.19399 0.28776
# Poissons Ratio (z) = 0.26447 0.19463
#
# Static dielectric constant tensor:
#      x y z
#    x 4.075310 0.395220 0.111070 
#    y 0.395220 4.058990 0.153490 
#    z 0.111070 0.153490 3.748020 
# 
# 
# High freq. dielectric constant tensor:
#      x y z
#    x 1.872410 0.026520 0.021490 
#    y 0.026520 1.862900 0.011780 
#    z 0.021490 0.011780 1.844730 
# 
# From -- ./inp_files/306957.got.cif
#   From: 2010.06.25/outbox.cif.g09.slc.cpg/sg2_154_cif.got.tgz:306957.got - 2010.06.27 13:26:56.
