data_PCOD8030116
_publ_section_title
;
Structure prediction by ZEFSAII (Michael W. Deem and Ramdas Pophale) SiO2 
 PCOD8030116
Probable space group: P -1
;
_chemical_formula_sum "Si O2"
_cell_formula_units_Z 16
_cell_length_a 17.810441
_cell_length_b 9.078203
_cell_length_c 11.973373
_cell_angle_alpha 140.149564
_cell_angle_beta 36.325968
_cell_angle_gamma 142.390589
_cell_volume 653.435312
_symmetry_space_group_name_H-M "P -1"
_symmetry_group_IT_number 2
_symmetry_cell_setting 'triclinic'
loop_
_space_group_symop_operation_xyz
x,y,z
-x,-y,-z
loop_
_atom_site_type_symbol
_atom_site_label
_atom_site_fract_x
_atom_site_fract_y
_atom_site_fract_z
Si Si1 0.423921 0.876196 0.634695
Si Si2 0.676379 0.016943 0.583127
Si Si3 0.035805 0.509266 0.215477
Si Si4 0.363500 0.250367 0.056400
Si Si5 0.935339 0.916378 0.178135
Si Si6 0.857689 0.593338 0.662971
Si Si7 0.281838 0.022920 0.246053
Si Si8 0.851797 0.641498 0.343178
O O1 0.312049 0.579544 0.581231
O O2 0.500000 0.000000 0.500000
O O3 0.538977 0.897229 0.600858
O O4 0.336617 0.024967 0.869040
O O5 0.740189 0.325840 0.698751
O O6 0.789726 0.936231 0.345335
O O7 0.633492 0.910421 0.699053
O O8 0.971946 0.536197 0.425886
O O9 0.951919 0.556973 0.242779
O O10 0.201915 0.718197 0.135189
O O11 0.024802 0.219848 0.053020
O O12 0.224014 0.295454 0.255018
O O13 0.390788 0.171938 0.102205
O O14 0.500000 0.500000 0.000000
O O15 0.912324 0.711161 0.186024
O O16 0.063675 0.200231 0.213749
O O17 0.153030 0.102879 0.454343
#
# Coordination Sequence:
#
# PCOD8030116 Si02
#       8
#     2   2   2   2   2   2   2   2
#     4  12  26  48  71 104 147 198 252 298 361 449
#     4  11  26  48  70 107 158 191 239 310 366 436
#     4  12  22  43  75 109 148 188 244 305 364 437
#     4  12  24  46  74 104 138 195 251 292 364 439
#     4  11  25  41  71 112 142 194 242 303 375 425
#     4  12  23  47  73 106 150 190 247 303 363 439
#     4  11  24  44  75 110 145 192 238 309 378 422
#     4  11  21  42  70 105 146 189 245 301 361 435
#
# _framework density 24.485975
#
# number of rings (size 3 to 8) (size 9 to 14) (size 15 to 20)
#    0.000    0.500    5.000    4.875    0.000    3.000 
#    2.250    0.000    0.000    0.000    0.000    0.000 
#    0.000    0.000    0.000    0.000    0.000    0.000 
#
# Total GULP energy -198466.707096 kJ/mol
# GULP energy per Si atom -12404.169193 kJ/mol
# Density = 2.443024 g / cm^3
# Si number density = 24.485975 Si / 1000 Ang^3
#
#
#
# Elastic Constant Matrix: (Units=GPa)
#
#
# Indices 1 2 3 4 5 6 
#
# 1 118.5419 21.7985 30.5259 1.0118 5.4723 4.0337
# 2 21.7985 64.6957 23.7396 5.1489 6.5885 9.0144
# 3 30.5259 23.7396 121.1665 19.4130 17.7484 -7.8801
# 4 1.0118 5.1489 19.4130 43.6717 -7.3954 3.4360
# 5 5.4723 6.5885 17.7484 -7.3954 32.3030 1.3936
# 6 4.0337 9.0144 -7.8801 3.4360 1.3936 34.5244
#
#
#
# Elastic Compliance Matrix: (Units=1/GPa)
#
#
# Indices 1 2 3 4 5 6 
#
# 1 0.009456 -0.002340 -0.002261 0.001228 0.000449 -0.001150
# 2 -0.002340 0.018256 -0.002972 -0.000656 -0.001627 -0.005041
# 3 -0.002261 -0.002972 0.011783 -0.006413 -0.007154 0.004657
# 4 0.001228 -0.000656 -0.006413 0.027858 0.010026 -0.004613
# 5 0.000449 -0.001627 -0.007154 0.010026 0.037602 -0.003776
# 6 -0.001150 -0.005041 0.004657 -0.004613 -0.003776 0.032090
#
#
# Mechanical properties :
#
#
# Convention : Reuss Voigt Hill
#
# Bulk Modulus (GPa) = 41.06725 50.72578 45.89651
# Shear Modulus (GPa) = 31.18998 37.32250 34.25624
#
# Velocity S-wave (km/s) = 3.57289 3.90839 3.74440
# Velocity P-wave (km/s) = 5.81626 6.41315 6.12199
#
# Compressibility (1/GPa) = 0.02435030
#
# Stress axis : x y z
#
# Youngs Moduli (GPa) = 105.74922 54.77652 84.86597
#
# Poissons Ratio (x) = 0.12815 0.19191
# Poissons Ratio (y) = 0.24741 0.25220
# Poissons Ratio (z) = 0.23913 0.16278
#
# Static dielectric constant tensor:
#      x y z
#    x 4.435070 -0.292500 -0.084370 
#    y -0.292500 4.542400 0.310640 
#    z -0.084370 0.310640 4.697530 
# 
# 
# High freq. dielectric constant tensor:
#      x y z
#    x 1.975790 -0.018430 0.003780 
#    y -0.018430 1.980770 0.011010 
#    z 0.003780 0.011010 1.976660 
# 
# From -- ./inp_files/278736.got.cif
#   From: 2010.06.25/outbox.cif.g09.slc.cpg/sg2_140_cif.got.tgz:278736.got - 2010.06.27 13:26:56.
