data_PCOD8030050
_publ_section_title
;
Structure prediction by ZEFSAII (Michael W. Deem and Ramdas Pophale) SiO2 
 PCOD8030050
Probable space group: P -1
;
_chemical_formula_sum "Si O2"
_cell_formula_units_Z 16
_cell_length_a 11.546142
_cell_length_b 21.676036
_cell_length_c 6.418152
_cell_angle_alpha 46.246475
_cell_angle_beta 55.694082
_cell_angle_gamma 38.565370
_cell_volume 722.382905
_symmetry_space_group_name_H-M "P -1"
_symmetry_group_IT_number 2
_symmetry_cell_setting 'triclinic'
loop_
_space_group_symop_operation_xyz
x,y,z
-x,-y,-z
loop_
_atom_site_type_symbol
_atom_site_label
_atom_site_fract_x
_atom_site_fract_y
_atom_site_fract_z
Si Si1 0.266856 0.183454 0.316003
Si Si2 0.122951 0.560110 0.330158
Si Si3 0.266812 0.331676 0.651382
Si Si4 0.524104 0.177124 0.380743
Si Si5 0.625398 0.458715 0.171665
Si Si6 0.984000 0.243060 0.784368
Si Si7 0.685837 0.948379 0.808750
Si Si8 0.377796 0.679968 0.171205
O O1 0.397737 0.158209 0.433572
O O2 0.081570 0.217921 0.522996
O O3 0.342646 0.080449 0.324590
O O4 0.237794 0.280977 0.990224
O O5 0.279478 0.422936 0.518224
O O6 0.919580 0.599653 0.457628
O O7 0.131496 0.623714 0.361765
O O8 0.170104 0.591372 0.993450
O O9 0.439241 0.240470 0.540581
O O10 0.704351 0.044971 0.554253
O O11 0.568481 0.241498 0.042185
O O12 0.541308 0.565755 0.152584
O O13 0.647192 0.357719 0.494586
O O14 0.500000 0.500000 0.000000
O O15 0.821244 0.238149 0.938080
O O16 0.128373 0.162786 0.010188
O O17 0.500000 0.000000 0.000000
#
# Coordination Sequence:
#
# PCOD8030050 Si02
#       8
#     2   2   2   2   2   2   2   2
#     4  12  23  42  71  99 130 181 223 282 341 399
#     4  11  21  42  64 100 138 175 218 282 337 397
#     4  11  23  39  67 103 137 169 227 287 337 386
#     4  12  25  44  67 103 136 173 235 280 336 402
#     4  11  23  43  68  92 142 188 220 265 336 412
#     4  12  25  44  70 101 138 184 228 274 339 410
#     4  12  24  47  73  98 130 179 232 288 342 390
#     4  11  27  42  67 104 136 184 227 269 341 412
#
# _framework density 22.14892
#
# number of rings (size 3 to 8) (size 9 to 14) (size 15 to 20)
#    0.000    0.500    7.500    1.125    1.750    1.000 
#    0.000    0.625    0.000    0.000    0.000    0.000 
#    0.000    0.000    0.000    0.000    0.000    0.000 
#
# Total GULP energy -198302.204445 kJ/mol
# GULP energy per Si atom -12393.887778 kJ/mol
# Density = 2.209851 g / cm^3
# Si number density = 22.148920 Si / 1000 Ang^3
#
#
#
# Elastic Constant Matrix: (Units=GPa)
#
#
# Indices 1 2 3 4 5 6 
#
# 1 61.3496 31.6987 10.6580 -6.0492 -7.1901 0.2105
# 2 31.6987 134.0706 50.4850 -1.0828 -11.6757 25.0164
# 3 10.6580 50.4850 107.2152 -12.7125 -20.7992 14.6220
# 4 -6.0492 -1.0828 -12.7125 43.6066 1.6106 -6.9852
# 5 -7.1901 -11.6757 -20.7992 1.6106 37.9690 -1.6092
# 6 0.2105 25.0164 14.6220 -6.9852 -1.6092 31.5016
#
#
#
# Elastic Compliance Matrix: (Units=1/GPa)
#
#
# Indices 1 2 3 4 5 6 
#
# 1 0.019699 -0.005675 0.000975 0.003557 0.002573 0.004843
# 2 -0.005675 0.011906 -0.004294 -0.003041 0.000020 -0.008097
# 3 0.000975 -0.004294 0.012984 0.003347 0.005768 -0.001586
# 4 0.003557 -0.003041 0.003347 0.025338 0.000772 0.006496
# 5 0.002573 0.000020 0.005768 0.000772 0.029915 -0.001011
# 6 0.004843 -0.008097 -0.001586 0.006496 -0.001011 0.040267
#
#
# Mechanical properties :
#
#
# Convention : Reuss Voigt Hill
#
# Bulk Modulus (GPa) = 37.59624 54.25766 45.92695
# Shear Modulus (GPa) = 29.94652 36.60169 33.27411
#
# Velocity S-wave (km/s) = 3.68102 4.06954 3.88014
# Velocity P-wave (km/s) = 5.92264 6.82872 6.39176
#
# Compressibility (1/GPa) = 0.02659841
#
# Stress axis : x y z
#
# Youngs Moduli (GPa) = 50.76474 83.99416 77.01587
#
# Poissons Ratio (x) = 0.47669 -0.07506
# Poissons Ratio (y) = 0.28810 0.33074
# Poissons Ratio (z) = -0.04947 0.36071
#
# Static dielectric constant tensor:
#      x y z
#    x 3.988750 -0.041470 -0.170030 
#    y -0.041470 4.297290 -0.115080 
#    z -0.170030 -0.115080 4.264940 
# 
# 
# High freq. dielectric constant tensor:
#      x y z
#    x 1.855440 0.005320 -0.005900 
#    y 0.005320 1.876600 0.000890 
#    z -0.005900 0.000890 1.877620 
# 
# From -- ./inp_files/82965.got.cif
#   From: 2010.06.25/outbox.cif.g09.slc.cpg/sg2_42_cif.got.tgz:82965.got - 2010.06.27 13:26:56.
