data_PCOD8030969
_publ_section_title
;
Structure prediction by ZEFSAII (Michael W. Deem and Ramdas Pophale) SiO2 
 PCOD8030969
Probable space group: P -1
;
_chemical_formula_sum "Si O2"
_cell_formula_units_Z 16
_cell_length_a 15.304733
_cell_length_b 27.352507
_cell_length_c 9.192869
_cell_angle_alpha 145.102635
_cell_angle_beta 44.970905
_cell_angle_gamma 160.832640
_cell_volume 674.963039
_symmetry_space_group_name_H-M "P -1"
_symmetry_group_IT_number 2
_symmetry_cell_setting 'triclinic'
loop_
_space_group_symop_operation_xyz
x,y,z
-x,-y,-z
loop_
_atom_site_type_symbol
_atom_site_label
_atom_site_fract_x
_atom_site_fract_y
_atom_site_fract_z
Si Si1 0.174607 0.821358 0.477851
Si Si2 0.338389 0.671270 0.854014
Si Si3 0.301464 0.218389 0.848046
Si Si4 0.749156 0.017038 0.688675
Si Si5 0.295009 0.237009 0.226875
Si Si6 0.735286 0.265804 0.640582
Si Si7 0.228885 0.998952 0.059995
Si Si8 0.197572 0.358383 0.775874
O O1 0.085105 0.697553 0.403385
O O2 0.009905 0.713612 0.256873
O O3 0.500000 0.000000 0.500000
O O4 0.110259 0.872035 0.752884
O O5 0.465197 0.656149 0.693013
O O6 0.460419 0.777422 0.813801
O O7 0.999072 0.476687 0.764729
O O8 0.438403 0.788263 0.164636
O O9 0.297773 0.114518 0.579550
O O10 0.407228 0.307931 0.103232
O O11 0.527206 0.410405 0.947816
O O12 0.982605 0.053481 0.788956
O O13 0.493205 0.903416 0.624988
O O14 0.738754 0.037245 0.919840
O O15 0.044845 0.235146 0.805202
O O16 0.274453 0.320334 0.508438
O O17 0.000000 0.000000 0.000000
#
# Coordination Sequence:
#
# PCOD8030969 Si02
#       8
#     2   2   2   2   2   2   2   2
#     4  12  23  44  69  99 132 170 226 286 326 388
#     4  11  22  41  69  99 128 172 224 281 326 392
#     4  12  25  43  72 103 132 176 227 280 334 390
#     4  12  26  48  66  97 144 181 215 275 335 408
#     4  12  19  40  74 101 133 167 222 288 336 379
#     4  11  24  42  69  96 132 175 223 275 336 386
#     4  12  26  44  67  99 138 178 221 269 341 402
#     4  12  25  44  73 101 132 173 230 282 331 390
#
# _framework density 23.705000999999999
#
# number of rings (size 3 to 8) (size 9 to 14) (size 15 to 20)
#    0.000    0.250    7.500    1.500    3.500    1.500 
#    2.250    0.000    0.000    0.000    0.000    0.000 
#    0.000    0.000    0.000    0.000    0.000    0.000 
#
# Total GULP energy -198316.586645 kJ/mol
# GULP energy per Si atom -12394.786665 kJ/mol
# Density = 2.365105 g / cm^3
# Si number density = 23.705001 Si / 1000 Ang^3
#
#
#
# Elastic Constant Matrix: (Units=GPa)
#
#
# Indices 1 2 3 4 5 6 
#
# 1 98.6339 46.0141 11.6794 -4.0884 -0.5301 -19.0770
# 2 46.0141 151.8452 30.3884 12.4630 3.7658 -29.3304
# 3 11.6794 30.3884 29.6575 6.7367 -4.2612 -11.8030
# 4 -4.0884 12.4630 6.7367 25.4537 -9.1763 -6.2621
# 5 -0.5301 3.7658 -4.2612 -9.1763 40.2495 -6.6285
# 6 -19.0770 -29.3304 -11.8030 -6.2621 -6.6285 46.7472
#
#
#
# Elastic Compliance Matrix: (Units=1/GPa)
#
#
# Indices 1 2 3 4 5 6 
#
# 1 0.012903 -0.003505 -0.000901 0.005865 0.002392 0.003964
# 2 -0.003505 0.009896 -0.007404 -0.003754 -0.002268 0.002085
# 3 -0.000901 -0.007404 0.046314 -0.005114 0.005535 0.006781
# 4 0.005865 -0.003754 -0.005114 0.049644 0.012383 0.007153
# 5 0.002392 -0.002268 0.005535 0.012383 0.029619 0.006809
# 6 0.003964 0.002085 0.006781 0.007153 0.006809 0.027953
#
#
# Mechanical properties :
#
#
# Convention : Reuss Voigt Hill
#
# Bulk Modulus (GPa) = 21.98035 50.70005 36.34020
# Shear Modulus (GPa) = 23.24345 35.29374 29.26859
#
# Velocity S-wave (km/s) = 3.13474 3.86278 3.51764
# Velocity P-wave (km/s) = 4.73230 6.42877 5.64463
#
# Compressibility (1/GPa) = 0.04549518
#
# Stress axis : x y z
#
# Youngs Moduli (GPa) = 77.50279 101.04593 21.59151
#
# Poissons Ratio (x) = 0.35413 0.01946
# Poissons Ratio (y) = 0.27162 0.15985
# Poissons Ratio (z) = 0.06984 0.74810
#
# Static dielectric constant tensor:
#      x y z
#    x 4.732680 -0.328470 -0.235800 
#    y -0.328470 4.389710 0.069200 
#    z -0.235800 0.069200 4.017150 
# 
# 
# High freq. dielectric constant tensor:
#      x y z
#    x 1.948230 -0.007010 -0.012340 
#    y -0.007010 1.952440 0.003440 
#    z -0.012340 0.003440 1.901300 
# 
# From -- ./inp_files/226260.got.cif
#   From: 2010.06.25/outbox.cif.g09.slc.cpg/sg2_114_cif.got.tgz:226260.got - 2010.06.27 13:26:56.
