data_PCOD8030587
_publ_section_title
;
Structure prediction by ZEFSAII (Michael W. Deem and Ramdas Pophale) SiO2 
 PCOD8030587
Probable space group: P -1
;
_chemical_formula_sum "Si O2"
_cell_formula_units_Z 16
_cell_length_a 9.999907
_cell_length_b 9.761192
_cell_length_c 11.900685
_cell_angle_alpha 97.570500
_cell_angle_beta 96.676746
_cell_angle_gamma 136.858109
_cell_volume 747.759041
_symmetry_space_group_name_H-M "P -1"
_symmetry_group_IT_number 2
_symmetry_cell_setting 'triclinic'
loop_
_space_group_symop_operation_xyz
x,y,z
-x,-y,-z
loop_
_atom_site_type_symbol
_atom_site_label
_atom_site_fract_x
_atom_site_fract_y
_atom_site_fract_z
Si Si1 0.959280 0.609203 0.369062
Si Si2 0.936953 0.104438 0.028003
Si Si3 0.475577 0.631241 0.728418
Si Si4 0.784812 0.106448 0.789236
Si Si5 0.094016 0.745524 0.638857
Si Si6 0.740615 0.565030 0.725219
Si Si7 0.490016 0.329508 0.005855
Si Si8 0.534948 0.186551 0.791726
O O1 0.747689 0.527444 0.366808
O O2 0.912856 0.411741 0.323024
O O3 0.067137 0.754925 0.286155
O O4 0.108505 0.745295 0.505365
O O5 0.105585 0.308795 0.141207
O O6 0.724549 0.919457 0.052576
O O7 0.923394 0.177990 0.918290
O O8 0.000000 0.000000 0.000000
O O9 0.576360 0.561462 0.705176
O O10 0.633173 0.863584 0.716978
O O11 0.431411 0.628165 0.855322
O O12 0.645682 0.127759 0.809330
O O13 0.884290 0.666692 0.640107
O O14 0.290403 0.977154 0.732255
O O15 0.611449 0.323662 0.701212
O O16 0.609625 0.339969 0.921192
O O17 0.500000 0.500000 0.000000
#
# Coordination Sequence:
#
# PCOD8030587 Si02
#       8
#     2   2   2   2   2   2   2   2
#     4  11  26  47  71  96 136 184 230 287 338 399
#     4  11  22  40  65  98 143 177 214 272 340 412
#     4  11  25  42  69 103 141 174 223 280 345 405
#     4  11  25  42  69 104 133 178 230 280 334 405
#     4  11  26  47  70  99 135 179 237 285 335 401
#     4  12  24  43  69 104 139 179 218 286 343 404
#     4  11  22  38  67  99 140 179 212 271 342 407
#     4  12  24  42  70 104 133 179 230 280 336 404
#
# _framework density 21.397266999999999
#
# number of rings (size 3 to 8) (size 9 to 14) (size 15 to 20)
#    0.000    0.750    7.500    0.000    3.500    6.500 
#    0.000    1.250    0.000    0.000    0.000    0.000 
#    0.000    0.000    0.000    0.000    0.000    0.000 
#
# Total GULP energy -198343.725004 kJ/mol
# GULP energy per Si atom -12396.482813 kJ/mol
# Density = 2.134857 g / cm^3
# Si number density = 21.397267 Si / 1000 Ang^3
#
#
#
# Elastic Constant Matrix: (Units=GPa)
#
#
# Indices 1 2 3 4 5 6 
#
# 1 105.6883 19.9989 24.2824 -2.4290 8.9301 -3.1133
# 2 19.9989 117.4287 40.4045 -16.6807 8.4962 -6.7724
# 3 24.2824 40.4045 72.2856 -2.2549 -0.1779 -0.6886
# 4 -2.4290 -16.6807 -2.2549 23.7885 -0.9901 -4.6084
# 5 8.9301 8.4962 -0.1779 -0.9901 25.3626 -4.0453
# 6 -3.1133 -6.7724 -0.6886 -4.6084 -4.0453 32.1065
#
#
#
# Elastic Compliance Matrix: (Units=1/GPa)
#
#
# Indices 1 2 3 4 5 6 
#
# 1 0.010625 -0.000276 -0.003402 0.000522 -0.003568 0.000524
# 2 -0.000276 0.012478 -0.006590 0.008597 -0.003269 0.003286
# 3 -0.003402 -0.006590 0.018550 -0.003349 0.003181 -0.001402
# 4 0.000522 0.008597 -0.003349 0.049544 0.000273 0.008938
# 5 -0.003568 -0.003269 0.003181 0.000273 0.042519 0.004429
# 6 0.000524 0.003286 -0.001402 0.008938 0.004429 0.033701
#
#
# Mechanical properties :
#
#
# Convention : Reuss Voigt Hill
#
# Bulk Modulus (GPa) = 47.35863 51.64158 49.50011
# Shear Modulus (GPa) = 25.64196 30.29929 27.97062
#
# Velocity S-wave (km/s) = 3.46551 3.76711 3.61945
# Velocity P-wave (km/s) = 6.18014 6.56571 6.37584
#
# Compressibility (1/GPa) = 0.02111547
#
# Stress axis : x y z
#
# Youngs Moduli (GPa) = 94.12063 80.14330 53.90690
#
# Poissons Ratio (x) = 0.02215 0.18340
# Poissons Ratio (y) = 0.02601 0.35526
# Poissons Ratio (z) = 0.32021 0.52816
#
# Static dielectric constant tensor:
#      x y z
#    x 3.919060 0.042640 -0.068010 
#    y 0.042640 4.048780 -0.085380 
#    z -0.068010 -0.085380 3.642610 
# 
# 
# High freq. dielectric constant tensor:
#      x y z
#    x 1.842690 0.003800 -0.005080 
#    y 0.003800 1.856850 -0.005530 
#    z -0.005080 -0.005530 1.827750 
# 
# From -- ./inp_files/382660.got.cif
#   From: 2010.06.25/outbox.cif.g09.slc.cpg/sg2_192_cif.got.tgz:382660.got - 2010.06.27 13:26:56.
