data_PCOD8030956
_publ_section_title
;
Structure prediction by ZEFSAII (Michael W. Deem and Ramdas Pophale) SiO2 
 PCOD8030956
Probable space group: P -1
;
_chemical_formula_sum "Si O2"
_cell_formula_units_Z 16
_cell_length_a 11.026256
_cell_length_b 6.418928
_cell_length_c 10.923741
_cell_angle_alpha 115.686009
_cell_angle_beta 104.904826
_cell_angle_gamma 70.501803
_cell_volume 651.000480
_symmetry_space_group_name_H-M "P -1"
_symmetry_group_IT_number 2
_symmetry_cell_setting 'triclinic'
loop_
_space_group_symop_operation_xyz
x,y,z
-x,-y,-z
loop_
_atom_site_type_symbol
_atom_site_label
_atom_site_fract_x
_atom_site_fract_y
_atom_site_fract_z
Si Si1 0.189222 0.238659 0.319466
Si Si2 0.417360 0.433049 0.358246
Si Si3 0.038313 0.701264 0.291630
Si Si4 0.010798 0.228808 0.988513
Si Si5 0.408218 0.049364 0.746162
Si Si6 0.820554 0.947424 0.473663
Si Si7 0.775716 0.633297 0.036245
Si Si8 0.642748 0.260617 0.805102
O O1 0.309162 0.352156 0.384707
O O2 0.076540 0.409940 0.250768
O O3 0.142411 0.226532 0.443765
O O4 0.238713 0.973503 0.205770
O O5 0.500000 0.500000 0.500000
O O6 0.360341 0.661146 0.316859
O O7 0.505254 0.205796 0.247456
O O8 0.040562 0.775827 0.167350
O O9 0.898896 0.820046 0.343412
O O10 0.144147 0.803932 0.421101
O O11 0.910933 0.463376 0.086263
O O12 0.162250 0.249321 0.032388
O O13 0.000000 0.000000 0.000000
O O14 0.331665 0.010899 0.591967
O O15 0.502020 0.225848 0.794895
O O16 0.300089 0.153423 0.845262
O O17 0.674965 0.478029 0.942297
#
# Coordination Sequence:
#
# PCOD8030956 Si02
#       8
#     2   2   2   2   2   2   2   2
#     4  11  22  41  69 100 137 185 234 286 356 422
#     4  11  23  41  68 100 141 183 233 295 351 422
#     4  11  24  45  70 103 140 181 238 299 359 422
#     4  11  26  48  74 100 143 189 234 300 356 419
#     4  11  24  44  68 104 144 186 234 293 350 424
#     4  11  23  42  70 104 142 180 234 298 362 420
#     4  11  25  46  67 102 142 184 247 287 346 427
#     4  11  25  43  70  99 143 194 235 286 351 422
#
# _framework density 24.577553000000002
#
# number of rings (size 3 to 8) (size 9 to 14) (size 15 to 20)
#    0.000    1.000    1.250    5.250    0.000   10.500 
#    4.500    0.000    0.000    0.000    0.000    0.000 
#    0.000    0.000    0.000    0.000    0.000    0.000 
#
# Total GULP energy -198283.972915 kJ/mol
# GULP energy per Si atom -12392.748307 kJ/mol
# Density = 2.452161 g / cm^3
# Si number density = 24.577553 Si / 1000 Ang^3
#
#
#
# Elastic Constant Matrix: (Units=GPa)
#
#
# Indices 1 2 3 4 5 6 
#
# 1 129.0055 39.7183 20.1254 8.1836 4.7023 11.1968
# 2 39.7183 167.6385 35.6408 -6.3511 -12.9699 11.7649
# 3 20.1254 35.6408 54.5930 -1.5725 -3.1592 -7.3342
# 4 8.1836 -6.3511 -1.5725 39.3072 -1.5662 -0.1530
# 5 4.7023 -12.9699 -3.1592 -1.5662 55.8212 2.3688
# 6 11.1968 11.7649 -7.3342 -0.1530 2.3688 36.5410
#
#
#
# Elastic Compliance Matrix: (Units=1/GPa)
#
#
# Indices 1 2 3 4 5 6 
#
# 1 0.009107 -0.001534 -0.002870 -0.002319 -0.001232 -0.002803
# 2 -0.001534 0.007756 -0.004766 0.001443 0.001833 -0.003097
# 3 -0.002870 -0.004766 0.023477 0.000802 0.000184 0.007118
# 4 -0.002319 0.001443 0.000802 0.026242 0.001294 0.000433
# 5 -0.001232 0.001833 0.000184 0.001294 0.018549 -0.001373
# 6 -0.002803 -0.003097 0.007118 0.000433 -0.001373 0.030742
#
#
# Mechanical properties :
#
#
# Convention : Reuss Voigt Hill
#
# Bulk Modulus (GPa) = 45.45725 60.24514 52.85120
# Shear Modulus (GPa) = 35.32412 43.38403 39.35408
#
# Velocity S-wave (km/s) = 3.79522 4.20597 4.00587
# Velocity P-wave (km/s) = 6.14333 6.93919 6.55336
#
# Compressibility (1/GPa) = 0.02199869
#
# Stress axis : x y z
#
# Youngs Moduli (GPa) = 109.80662 128.93598 42.59477
#
# Poissons Ratio (x) = 0.19778 0.12226
# Poissons Ratio (y) = 0.16843 0.20302
# Poissons Ratio (z) = 0.31519 0.61454
#
# Static dielectric constant tensor:
#      x y z
#    x 4.236630 0.408950 0.272240 
#    y 0.408950 4.449120 0.172820 
#    z 0.272240 0.172820 4.260340 
# 
# 
# High freq. dielectric constant tensor:
#      x y z
#    x 1.999450 0.000070 0.018460 
#    y 0.000070 1.978000 0.012620 
#    z 0.018460 0.012620 1.986030 
# 
# From -- ./inp_files/411095.got.cif
#   From: 2010.06.25/outbox.cif.g09.slc.cpg/sg2_206_cif.got.tgz:411095.got - 2010.06.27 13:26:56.
