data_PCOD8030000
_publ_section_title
;
Structure prediction by ZEFSAII (Michael W. Deem and Ramdas Pophale) SiO2 
 PCOD8030000
Probable space group: P -1
;
_chemical_formula_sum "Si O2"
_cell_formula_units_Z 16
_cell_length_a 11.716417
_cell_length_b 11.159933
_cell_length_c 20.231420
_cell_angle_alpha 33.334978
_cell_angle_beta 30.398734
_cell_angle_gamma 41.684880
_cell_volume 732.324536
_symmetry_space_group_name_H-M "P -1"
_symmetry_group_IT_number 2
_symmetry_cell_setting 'triclinic'
loop_
_space_group_symop_operation_xyz
x,y,z
-x,-y,-z
loop_
_atom_site_type_symbol
_atom_site_label
_atom_site_fract_x
_atom_site_fract_y
_atom_site_fract_z
Si Si1 0.843073 0.866145 0.686540
Si Si2 0.063074 0.896728 0.692605
Si Si3 0.840023 0.470615 0.794519
Si Si4 0.299702 0.147072 0.997666
Si Si5 0.712533 0.598490 0.316956
Si Si6 0.954225 0.413286 0.491415
Si Si7 0.644067 0.022767 0.094460
Si Si8 0.432132 0.545078 0.681338
O O1 0.714250 0.690488 0.787998
O O2 0.625700 0.004424 0.764001
O O3 0.990758 0.772714 0.719053
O O4 0.000000 0.000000 0.500000
O O5 0.324971 0.801208 0.623410
O O6 0.923351 0.841029 0.852174
O O7 0.018236 0.153136 0.579403
O O8 0.074354 0.495516 0.704522
O O9 0.875911 0.487053 0.690604
O O10 0.712183 0.260839 0.971222
O O11 0.373079 0.394838 0.842200
O O12 0.500000 0.000000 0.000000
O O13 0.246737 0.043579 0.000642
O O14 0.500000 0.500000 0.500000
O O15 0.709014 0.545169 0.266194
O O16 0.721164 0.862657 0.191036
O O17 0.701585 0.509966 0.551492
O O18 0.000000 0.500000 0.500000
#
# Coordination Sequence:
#
# PCOD8030000 Si02
#       8
#     2   2   2   2   2   2   2   2
#     4  12  23  41  69 101 132 179 238 283 344 424
#     4  12  23  43  70 101 133 183 244 287 337 425
#     4  12  24  42  65 101 142 176 229 295 357 411
#     4  11  21  42  69  95 137 185 231 286 344 417
#     4  11  21  41  69  97 133 180 235 279 340 424
#     4  12  26  43  69  98 142 186 230 286 359 417
#     4  11  25  41  66 101 139 182 227 291 359 404
#     4  11  24  41  69 103 130 183 242 290 338 418
#
# _framework density 21.848236
#
# number of rings (size 3 to 8) (size 9 to 14) (size 15 to 20)
#    0.000    0.500    6.250    3.375    0.000    0.500 
#    0.000    0.000    0.000    0.000    0.000    0.000 
#    0.000    0.000    0.000    0.000    0.000    0.000 
#
# Total GULP energy -198218.216423 kJ/mol
# GULP energy per Si atom -12388.638526 kJ/mol
# Density = 2.179851 g / cm^3
# Si number density = 21.848236 Si / 1000 Ang^3
#
#
#
# Elastic Constant Matrix: (Units=GPa)
#
#
# Indices 1 2 3 4 5 6 
#
# 1 87.3030 27.1304 19.1835 0.3324 11.5397 8.9995
# 2 27.1304 108.4821 35.8207 -3.3461 5.7943 -13.2277
# 3 19.1835 35.8207 120.8247 -1.2376 16.7802 10.5641
# 4 0.3324 -3.3461 -1.2376 30.7230 2.8809 -1.7503
# 5 11.5397 5.7943 16.7802 2.8809 34.9049 0.6027
# 6 8.9995 -13.2277 10.5641 -1.7503 0.6027 42.9964
#
#
#
# Elastic Compliance Matrix: (Units=1/GPa)
#
#
# Indices 1 2 3 4 5 6 
#
# 1 0.013500 -0.003581 -0.000244 -0.000422 -0.003650 -0.003834
# 2 -0.003581 0.011933 -0.003515 0.001437 0.000682 0.005333
# 3 -0.000244 -0.003515 0.010250 0.000230 -0.004223 -0.003480
# 4 -0.000422 0.001437 0.000230 0.033104 -0.002974 0.001863
# 5 -0.003650 0.000682 -0.004223 -0.002974 0.031993 0.001442
# 6 -0.003834 0.005333 -0.003480 0.001863 0.001442 0.026612
#
#
# Mechanical properties :
#
#
# Convention : Reuss Voigt Hill
#
# Bulk Modulus (GPa) = 47.61398 53.43102 50.52250
# Shear Modulus (GPa) = 33.54029 37.35654 35.44841
#
# Velocity S-wave (km/s) = 3.92235 4.13948 4.03238
# Velocity P-wave (km/s) = 6.50795 6.88155 6.69736
#
# Compressibility (1/GPa) = 0.02100224
#
# Stress axis : x y z
#
# Youngs Moduli (GPa) = 74.07323 83.80334 97.55630
#
# Poissons Ratio (x) = 0.30012 0.02379
# Poissons Ratio (y) = 0.26527 0.34295
# Poissons Ratio (z) = 0.01807 0.29461
#
# Static dielectric constant tensor:
#      x y z
#    x 4.636030 -0.050440 0.622290 
#    y -0.050440 4.396390 -0.101660 
#    z 0.622290 -0.101660 4.094500 
# 
# 
# High freq. dielectric constant tensor:
#      x y z
#    x 1.851370 -0.004480 0.022370 
#    y -0.004480 1.873790 -0.002290 
#    z 0.022370 -0.002290 1.857030 
# 
# From -- ./inp_files/176370.got.cif
#   From: 2010.06.25/outbox.cif.g09.slc.cpg/sg2_89_cif.got.tgz:176370.got - 2010.06.27 13:26:56.
