data_PCOD8030728
_publ_section_title
;
Structure prediction by ZEFSAII (Michael W. Deem and Ramdas Pophale) SiO2 
 PCOD8030728
Probable space group: P -1
;
_chemical_formula_sum "Si O2"
_cell_formula_units_Z 16
_cell_length_a 17.559311
_cell_length_b 9.110080
_cell_length_c 4.968136
_cell_angle_alpha 87.752648
_cell_angle_beta 107.115872
_cell_angle_gamma 81.691418
_cell_volume 748.753901
_symmetry_space_group_name_H-M "P -1"
_symmetry_group_IT_number 2
_symmetry_cell_setting 'triclinic'
loop_
_space_group_symop_operation_xyz
x,y,z
-x,-y,-z
loop_
_atom_site_type_symbol
_atom_site_label
_atom_site_fract_x
_atom_site_fract_y
_atom_site_fract_z
Si Si1 0.651380 0.612615 0.181174
Si Si2 0.855188 0.244362 0.413757
Si Si3 0.166087 0.419597 0.702401
Si Si4 0.330575 0.739063 0.731031
Si Si5 0.413147 0.208009 0.386734
Si Si6 0.044299 0.846686 0.957478
Si Si7 0.927564 0.633573 0.896863
Si Si8 0.599424 0.122137 0.703755
O O1 0.738904 0.634769 0.162601
O O2 0.642863 0.438729 0.196726
O O3 0.638479 0.688528 0.453641
O O4 0.587588 0.698280 0.896937
O O5 0.855506 0.405369 0.270195
O O6 0.765062 0.210265 0.345097
O O7 0.906155 0.131450 0.264365
O O8 0.895698 0.236652 0.749130
O O9 0.142629 0.392752 0.375274
O O10 0.884256 0.666472 0.138422
O O11 0.354524 0.784422 0.457101
O O12 0.374902 0.834347 0.976299
O O13 0.504073 0.170291 0.584309
O O14 0.377141 0.055491 0.309492
O O15 0.967975 0.767816 0.820225
O O16 0.000000 0.000000 0.000000
O O17 0.000000 0.500000 0.000000
#
# Coordination Sequence:
#
# PCOD8030728 Si02
#       8
#     2   2   2   2   2   2   2   2
#     4  11  24  42  66  99 131 161 213 275 310 360
#     4  11  22  43  63  85 128 162 198 258 312 365
#     4  11  22  40  64  93 118 160 208 257 308 360
#     4  11  24  42  69  96 125 171 217 254 318 385
#     4  11  24  44  66  94 135 167 205 267 314 370
#     4  12  25  41  59  90 125 160 205 257 308 360
#     4  12  21  39  67  86 117 164 211 249 300 374
#     4  11  24  44  66  94 131 175 209 246 322 395
#
# _framework density 21.368839000000001
#
# number of rings (size 3 to 8) (size 9 to 14) (size 15 to 20)
#    0.000    0.750    2.500    5.250    0.000    9.000 
#   13.500    0.000    0.000    0.000    0.000    0.000 
#    0.000    0.000    0.000    0.000    0.000    0.000 
#
# Total GULP energy -198460.158574 kJ/mol
# GULP energy per Si atom -12403.759911 kJ/mol
# Density = 2.132020 g / cm^3
# Si number density = 21.368839 Si / 1000 Ang^3
#
#
#
# Elastic Constant Matrix: (Units=GPa)
#
#
# Indices 1 2 3 4 5 6 
#
# 1 89.2553 32.2344 3.1008 4.1713 -7.6391 2.0476
# 2 32.2344 101.0599 5.9722 16.4581 2.4972 -2.9739
# 3 3.1008 5.9722 77.8401 11.1725 -2.9278 -3.5283
# 4 4.1713 16.4581 11.1725 29.4319 2.7705 -6.4555
# 5 -7.6391 2.4972 -2.9278 2.7705 40.6937 3.8954
# 6 2.0476 -2.9739 -3.5283 -6.4555 3.8954 26.7797
#
#
#
# Elastic Compliance Matrix: (Units=1/GPa)
#
#
# Indices 1 2 3 4 5 6 
#
# 1 0.013046 -0.004264 -0.000157 -0.000102 0.002892 -0.001937
# 2 -0.004264 0.012284 0.000076 -0.006095 -0.001172 0.000401
# 3 -0.000157 0.000076 0.013665 -0.005246 0.001271 0.000371
# 4 -0.000102 -0.006095 -0.005246 0.041775 -0.003753 0.009256
# 5 0.002892 -0.001172 0.001271 -0.003753 0.026002 -0.004871
# 6 -0.001937 0.000401 0.000371 0.009256 -0.004871 0.040523
#
#
# Mechanical properties :
#
#
# Convention : Reuss Voigt Hill
#
# Bulk Modulus (GPa) = 32.99657 38.97445 35.98551
# Shear Modulus (GPa) = 30.10517 34.50424 32.30471
#
# Velocity S-wave (km/s) = 3.75752 4.02269 3.89236
# Velocity P-wave (km/s) = 5.85664 6.31305 6.08912
#
# Compressibility (1/GPa) = 0.03030618
#
# Stress axis : x y z
#
# Youngs Moduli (GPa) = 76.65305 81.40657 73.18066
#
# Poissons Ratio (x) = 0.34709 0.01148
# Poissons Ratio (y) = 0.32682 -0.00559
# Poissons Ratio (z) = 0.01203 -0.00622
#
# Static dielectric constant tensor:
#      x y z
#    x 3.843980 -0.033550 -0.011130 
#    y -0.033550 3.803670 -0.085400 
#    z -0.011130 -0.085400 3.796850 
# 
# 
# High freq. dielectric constant tensor:
#      x y z
#    x 1.850060 -0.002450 -0.001730 
#    y -0.002450 1.835490 0.005450 
#    z -0.001730 0.005450 1.849990 
# 
# From -- ./inp_files/105216.got.cif
#   From: 2010.06.25/outbox.cif.g09.slc.cpg/sg2_53_cif.got.tgz:105216.got - 2010.06.27 13:26:56.
