data_PCOD8030827
_publ_section_title
;
Structure prediction by ZEFSAII (Michael W. Deem and Ramdas Pophale) SiO2 
 PCOD8030827
Probable space group: P -1
;
_chemical_formula_sum "Si O2"
_cell_formula_units_Z 16
_cell_length_a 7.868490
_cell_length_b 19.353853
_cell_length_c 8.522190
_cell_angle_alpha 42.643642
_cell_angle_beta 71.597056
_cell_angle_gamma 56.489590
_cell_volume 723.597856
_symmetry_space_group_name_H-M "P -1"
_symmetry_group_IT_number 2
_symmetry_cell_setting 'triclinic'
loop_
_space_group_symop_operation_xyz
x,y,z
-x,-y,-z
loop_
_atom_site_type_symbol
_atom_site_label
_atom_site_fract_x
_atom_site_fract_y
_atom_site_fract_z
Si Si1 0.853311 0.512718 0.297831
Si Si2 0.100016 0.323110 0.201355
Si Si3 0.271828 0.639581 0.598248
Si Si4 0.260417 0.016631 0.197222
Si Si5 0.686588 0.623054 0.480171
Si Si6 0.310742 0.177059 0.689218
Si Si7 0.738490 0.910960 0.590004
Si Si8 0.054699 0.904392 0.272528
O O1 0.772345 0.421355 0.437677
O O2 0.705422 0.604466 0.318104
O O3 0.090281 0.456611 0.375381
O O4 0.841358 0.578262 0.027094
O O5 0.170190 0.275456 0.438293
O O6 0.212386 0.223423 0.202706
O O7 0.850808 0.372992 0.193845
O O8 0.516716 0.586867 0.647465
O O9 0.178919 0.778453 0.363016
O O10 0.508162 0.935187 0.264523
O O11 0.181853 0.925999 0.333737
O O12 0.173956 0.070009 0.304349
O O13 0.189524 0.124225 0.912903
O O14 0.608223 0.759580 0.318003
O O15 0.845925 0.924374 0.380627
O O16 0.500000 0.000000 0.500000
O O17 0.000000 0.000000 0.000000
#
# Coordination Sequence:
#
# PCOD8030827 Si02
#       8
#     2   2   2   2   2   2   2   2
#     4  11  25  44  68  94 134 170 222 280 326 387
#     4  11  23  44  65  98 132 173 217 274 330 391
#     4  11  23  43  68  94 132 172 221 268 327 395
#     4  11  22  41  66  97 132 175 216 271 328 400
#     4  11  24  44  68  96 127 175 225 268 332 393
#     4  11  22  40  70  94 132 175 217 268 338 393
#     4  11  23  40  66  98 134 170 216 270 329 395
#     4  11  25  41  66 100 133 175 219 271 330 396
#
# _framework density 22.111730000000001
#
# number of rings (size 3 to 8) (size 9 to 14) (size 15 to 20)
#    0.000    1.000    3.750    3.375    1.750    1.500 
#    0.000    0.000    0.000    0.000    0.000    0.000 
#    0.000    0.000    0.000    0.000    0.000    0.000 
#
# Total GULP energy -198278.501951 kJ/mol
# GULP energy per Si atom -12392.406372 kJ/mol
# Density = 2.206140 g / cm^3
# Si number density = 22.111730 Si / 1000 Ang^3
#
#
#
# Elastic Constant Matrix: (Units=GPa)
#
#
# Indices 1 2 3 4 5 6 
#
# 1 121.4614 39.9358 26.0153 -7.1959 -23.3836 7.3573
# 2 39.9358 131.8657 22.8274 3.7817 -8.3178 23.5063
# 3 26.0153 22.8274 100.7873 -2.5253 -8.7972 7.2651
# 4 -7.1959 3.7817 -2.5253 19.3081 6.3311 -7.8891
# 5 -23.3836 -8.3178 -8.7972 6.3311 28.4360 -1.4802
# 6 7.3573 23.5063 7.2651 -7.8891 -1.4802 45.6852
#
#
#
# Elastic Compliance Matrix: (Units=1/GPa)
#
#
# Indices 1 2 3 4 5 6 
#
# 1 0.010971 -0.002753 -0.001556 0.002258 0.007260 0.000522
# 2 -0.002753 0.009816 -0.001161 -0.005699 0.001238 -0.005367
# 3 -0.001556 -0.001161 0.010790 0.000205 0.001633 -0.000780
# 4 0.002258 -0.005699 0.000205 0.063440 -0.013192 0.013064
# 5 0.007260 0.001238 0.001633 -0.013192 0.044791 -0.002893
# 6 0.000522 -0.005367 -0.000780 0.013064 -0.002893 0.026852
#
#
# Mechanical properties :
#
#
# Convention : Reuss Voigt Hill
#
# Bulk Modulus (GPa) = 48.45227 59.07460 53.76343
# Shear Modulus (GPa) = 27.10331 36.37491 31.73911
#
# Velocity S-wave (km/s) = 3.50486 4.06032 3.79277
# Velocity P-wave (km/s) = 6.19183 6.98255 6.59905
#
# Compressibility (1/GPa) = 0.02063887
#
# Stress axis : x y z
#
# Youngs Moduli (GPa) = 91.14673 101.86977 92.67659
#
# Poissons Ratio (x) = 0.28048 0.14418
# Poissons Ratio (y) = 0.25095 0.10756
# Poissons Ratio (z) = 0.14180 0.11822
#
# Static dielectric constant tensor:
#      x y z
#    x 4.256560 0.279650 -0.399690 
#    y 0.279650 4.478870 -0.079750 
#    z -0.399690 -0.079750 3.850860 
# 
# 
# High freq. dielectric constant tensor:
#      x y z
#    x 1.867490 0.013900 -0.018420 
#    y 0.013900 1.893870 -0.004130 
#    z -0.018420 -0.004130 1.847030 
# 
# From -- ./inp_files/222990.got.cif
#   From: 2010.06.25/outbox.cif.g09.slc.cpg/sg2_112_cif.got.tgz:222990.got - 2010.06.27 13:26:56.
