data_PCOD8030086
_publ_section_title
;
Structure prediction by ZEFSAII (Michael W. Deem and Ramdas Pophale) SiO2 
 PCOD8030086
Probable space group: P -1
;
_chemical_formula_sum "Si O2"
_cell_formula_units_Z 16
_cell_length_a 10.077207
_cell_length_b 31.660899
_cell_length_c 9.013518
_cell_angle_alpha 143.243540
_cell_angle_beta 150.254398
_cell_angle_gamma 35.214933
_cell_volume 779.227483
_symmetry_space_group_name_H-M "P -1"
_symmetry_group_IT_number 2
_symmetry_cell_setting 'triclinic'
loop_
_space_group_symop_operation_xyz
x,y,z
-x,-y,-z
loop_
_atom_site_type_symbol
_atom_site_label
_atom_site_fract_x
_atom_site_fract_y
_atom_site_fract_z
Si Si1 0.396376 0.919120 0.940979
Si Si2 0.135434 0.099194 0.156523
Si Si3 0.999763 0.848694 0.501525
Si Si4 0.790716 0.466382 0.277148
Si Si5 0.283590 0.303029 0.563983
Si Si6 0.422607 0.853011 0.453089
Si Si7 0.826206 0.302831 0.917545
Si Si8 0.813435 0.466395 0.634743
O O1 0.388354 0.891380 0.688426
O O2 0.175087 0.899002 0.769085
O O3 0.705084 0.880975 0.213078
O O4 0.302162 0.010095 0.107866
O O5 0.030969 0.147916 0.342362
O O6 0.351104 0.129800 0.376386
O O7 0.881369 0.111651 0.828164
O O8 0.178238 0.757970 0.380604
O O9 0.755501 0.496527 0.495577
O O10 0.000000 0.500000 0.500000
O O11 0.500000 0.500000 0.000000
O O12 0.883907 0.374067 0.103858
O O13 0.471379 0.239745 0.689065
O O14 0.512297 0.331085 0.779709
O O15 0.007050 0.374048 0.567043
O O16 0.119602 0.261395 0.186364
O O17 0.500000 0.500000 0.500000
O O18 0.000000 0.500000 0.000000
#
# Coordination Sequence:
#
# PCOD8030086 Si02
#       8
#     2   2   2   2   2   2   2   2
#     4  12  23  43  69  90 127 182 223 256 321 403
#     4  12  26  40  62 102 136 162 212 291 326 358
#     4  12  23  43  66  94 129 172 225 262 323 384
#     4  11  23  42  67  96 129 164 210 262 319 380
#     4  11  22  42  70  92 127 175 218 258 308 398
#     4  12  23  43  64  94 134 169 221 263 328 379
#     4  11  21  42  68  93 124 174 223 255 307 399
#     4  11  23  43  68  97 128 165 214 257 318 388
#
# _framework density 20.533156999999999
#
# number of rings (size 3 to 8) (size 9 to 14) (size 15 to 20)
#    0.000    0.500    2.500    8.250    0.000    0.000 
#    6.750    0.000    0.000    0.000    0.000    0.000 
#    0.000    0.000    0.000    0.000    0.000    0.000 
#
# Total GULP energy -198333.852878 kJ/mol
# GULP energy per Si atom -12395.865805 kJ/mol
# Density = 2.048642 g / cm^3
# Si number density = 20.533157 Si / 1000 Ang^3
#
#
#
# Elastic Constant Matrix: (Units=GPa)
#
#
# Indices 1 2 3 4 5 6 
#
# 1 151.7832 41.5298 47.0427 11.3486 9.9809 -0.7222
# 2 41.5298 103.7400 30.7007 14.9968 11.2505 -2.5076
# 3 47.0427 30.7007 123.0926 -14.8327 7.8707 0.0998
# 4 11.3486 14.9968 -14.8327 46.6566 6.6335 4.1783
# 5 9.9809 11.2505 7.8707 6.6335 55.9950 0.2298
# 6 -0.7222 -2.5076 0.0998 4.1783 0.2298 29.7129
#
#
#
# Elastic Compliance Matrix: (Units=1/GPa)
#
#
# Indices 1 2 3 4 5 6 
#
# 1 0.008241 -0.002076 -0.002876 -0.002228 -0.000385 0.000351
# 2 -0.002076 0.012018 -0.002632 -0.004166 -0.001188 0.001568
# 3 -0.002876 -0.002632 0.010568 0.005148 -0.001050 -0.001043
# 4 -0.002228 -0.004166 0.005148 0.025668 -0.002514 -0.004013
# 5 -0.000385 -0.001188 -0.001050 -0.002514 0.018611 0.000103
# 6 0.000351 0.001568 -0.001043 -0.004013 0.000103 0.034363
#
#
# Mechanical properties :
#
#
# Convention : Reuss Voigt Hill
#
# Bulk Modulus (GPa) = 63.85470 68.57358 66.21414
# Shear Modulus (GPa) = 38.50423 43.76241 41.13332
#
# Velocity S-wave (km/s) = 4.33508 4.62161 4.48064
# Velocity P-wave (km/s) = 7.49821 7.87071 7.68672
#
# Compressibility (1/GPa) = 0.01566055
#
# Stress axis : x y z
#
# Youngs Moduli (GPa) = 121.34047 83.20721 94.62770
#
# Poissons Ratio (x) = 0.17271 0.27216
# Poissons Ratio (y) = 0.25186 0.24902
# Poissons Ratio (z) = 0.34899 0.21897
#
# Static dielectric constant tensor:
#      x y z
#    x 3.783430 -0.097410 -0.066370 
#    y -0.097410 4.849530 0.172180 
#    z -0.066370 0.172180 4.053480 
# 
# 
# High freq. dielectric constant tensor:
#      x y z
#    x 1.801570 -0.000520 0.005800 
#    y -0.000520 1.812140 -0.005910 
#    z 0.005800 -0.005910 1.830150 
# 
# From -- ./inp_files/226574.got.cif
#   From: 2010.06.25/outbox.cif.g09.slc.cpg/sg2_114_cif.got.tgz:226574.got - 2010.06.27 13:26:56.
