data_PCOD8030453
_publ_section_title
;
Structure prediction by ZEFSAII (Michael W. Deem and Ramdas Pophale) SiO2 
 PCOD8030453
Probable space group: P -1
;
_chemical_formula_sum "Si O2"
_cell_formula_units_Z 16
_cell_length_a 8.549701
_cell_length_b 8.450145
_cell_length_c 17.622963
_cell_angle_alpha 48.299144
_cell_angle_beta 108.858116
_cell_angle_gamma 130.492038
_cell_volume 709.547085
_symmetry_space_group_name_H-M "P -1"
_symmetry_group_IT_number 2
_symmetry_cell_setting 'triclinic'
loop_
_space_group_symop_operation_xyz
x,y,z
-x,-y,-z
loop_
_atom_site_type_symbol
_atom_site_label
_atom_site_fract_x
_atom_site_fract_y
_atom_site_fract_z
Si Si1 0.285154 0.412450 0.818744
Si Si2 0.150688 0.085866 0.565527
Si Si3 0.446496 0.954287 0.594733
Si Si4 0.413552 0.699156 0.066660
Si Si5 0.845129 0.434411 0.563576
Si Si6 0.125382 0.751495 0.221230
Si Si7 0.597680 0.266163 0.118801
Si Si8 0.003049 0.659141 0.798439
O O1 0.334292 0.649871 0.696686
O O2 0.427754 0.322012 0.852229
O O3 0.328488 0.495781 0.887326
O O4 0.037282 0.176202 0.835871
O O5 0.232394 0.382187 0.509506
O O6 0.327084 0.068868 0.567633
O O7 0.000000 0.000000 0.500000
O O8 0.030302 0.896876 0.679955
O O9 0.500000 0.000000 0.500000
O O10 0.656346 0.123443 0.622218
O O11 0.175942 0.459077 0.128893
O O12 0.415754 0.647928 0.994391
O O13 0.500000 0.000000 0.000000
O O14 0.945768 0.456416 0.653792
O O15 0.000000 0.500000 0.500000
O O16 0.084687 0.592992 0.188656
O O17 0.366452 0.002569 0.188460
O O18 0.772060 0.216777 0.167259
#
# Coordination Sequence:
#
# PCOD8030453 Si02
#       8
#     2   2   2   2   2   2   2   2
#     4  11  25  46  71 101 142 184 230 295 354 421
#     4  12  23  43  71 100 143 189 226 292 354 420
#     4  12  25  45  70 105 145 186 239 287 352 428
#     4  12  27  47  71 104 136 183 237 300 355 418
#     4  12  25  42  67 107 144 190 238 280 349 430
#     4  11  21  46  72 101 141 182 233 288 352 424
#     4  11  23  49  72  97 134 186 234 292 353 417
#     4  11  24  46  72 101 143 178 237 290 357 421
#
# _framework density 22.549596999999999
#
# number of rings (size 3 to 8) (size 9 to 14) (size 15 to 20)
#    0.000    0.500    6.250    2.625    3.500    0.500 
#    9.000    0.000    0.000    0.000    0.000    0.000 
#    0.000    0.000    0.000    0.000    0.000    0.000 
#
# Total GULP energy -198305.876264 kJ/mol
# GULP energy per Si atom -12394.117266 kJ/mol
# Density = 2.249827 g / cm^3
# Si number density = 22.549597 Si / 1000 Ang^3
#
#
#
# Elastic Constant Matrix: (Units=GPa)
#
#
# Indices 1 2 3 4 5 6 
#
# 1 161.3088 43.8666 71.5346 -4.3954 6.8390 22.2344
# 2 43.8666 76.8687 28.1978 -1.6543 2.5436 24.1837
# 3 71.5346 28.1978 117.9005 14.4035 -6.1844 7.4785
# 4 -4.3954 -1.6543 14.4035 25.5447 -2.3207 -1.7915
# 5 6.8390 2.5436 -6.1844 -2.3207 46.5810 6.0673
# 6 22.2344 24.1837 7.4785 -1.7915 6.0673 46.9943
#
#
#
# Elastic Compliance Matrix: (Units=1/GPa)
#
#
# Indices 1 2 3 4 5 6 
#
# 1 0.010074 -0.002775 -0.005973 0.004633 -0.001629 -0.002001
# 2 -0.002775 0.017794 -0.002267 0.001447 0.000177 -0.007451
# 3 -0.005973 -0.002267 0.013746 -0.008638 0.002241 0.001187
# 4 0.004633 0.001447 -0.008638 0.044946 0.000319 0.000110
# 5 -0.001629 0.000177 0.002241 0.000319 0.022343 -0.002550
# 6 -0.002001 -0.007451 0.001187 0.000110 -0.002550 0.026205
#
#
# Mechanical properties :
#
#
# Convention : Reuss Voigt Hill
#
# Bulk Modulus (GPa) = 51.06315 71.47513 61.26914
# Shear Modulus (GPa) = 30.55047 37.98926 34.26987
#
# Velocity S-wave (km/s) = 3.68477 4.10896 3.90263
# Velocity P-wave (km/s) = 6.38728 7.36730 6.89472
#
# Compressibility (1/GPa) = 0.01958359
#
# Stress axis : x y z
#
# Youngs Moduli (GPa) = 99.26745 56.20001 72.75032
#
# Poissons Ratio (x) = 0.15593 0.43455
# Poissons Ratio (y) = 0.27542 0.16493
# Poissons Ratio (z) = 0.59294 0.12741
#
# Static dielectric constant tensor:
#      x y z
#    x 4.360160 0.226930 0.052970 
#    y 0.226930 4.120680 0.134920 
#    z 0.052970 0.134920 4.167470 
# 
# 
# High freq. dielectric constant tensor:
#      x y z
#    x 1.897850 0.017800 -0.001930 
#    y 0.017800 1.888610 0.013280 
#    z -0.001930 0.013280 1.897830 
# 
# From -- ./inp_files/556897.got.cif
#   From: 2010.06.25/outbox.cif.g09.slc.cpg/sg2_279_cif.got.tgz:556897.got - 2010.06.27 13:26:56.
