data_PCOD8030172
_publ_section_title
;
Structure prediction by ZEFSAII (Michael W. Deem and Ramdas Pophale) SiO2 
 PCOD8030172
Probable space group: P -1
;
_chemical_formula_sum "Si O2"
_cell_formula_units_Z 16
_cell_length_a 8.548976
_cell_length_b 21.726902
_cell_length_c 11.709324
_cell_angle_alpha 149.971343
_cell_angle_beta 137.432074
_cell_angle_gamma 54.138812
_cell_volume 727.594999
_symmetry_space_group_name_H-M "P -1"
_symmetry_group_IT_number 2
_symmetry_cell_setting 'triclinic'
loop_
_space_group_symop_operation_xyz
x,y,z
-x,-y,-z
loop_
_atom_site_type_symbol
_atom_site_label
_atom_site_fract_x
_atom_site_fract_y
_atom_site_fract_z
Si Si1 0.435345 0.966984 0.785190
Si Si2 0.753142 0.025945 0.621092
Si Si3 0.850135 0.229085 0.814296
Si Si4 0.413042 0.560275 0.895820
Si Si5 0.852542 0.616885 0.370423
Si Si6 0.358700 0.586928 0.635657
Si Si7 0.321837 0.185230 0.923890
Si Si8 0.905539 0.899752 0.878516
O O1 0.215817 0.857884 0.473140
O O2 0.631496 0.897090 0.723923
O O3 0.422581 0.099207 0.932686
O O4 0.500000 0.000000 0.000000
O O5 0.760606 0.147294 0.743574
O O6 0.500000 0.000000 0.500000
O O7 0.804217 0.906519 0.387302
O O8 0.974492 0.053170 0.864349
O O9 0.133744 0.261703 0.007054
O O10 0.729530 0.351375 0.961991
O O11 0.297115 0.423247 0.658586
O O12 0.384479 0.571343 0.762074
O O13 0.688504 0.582352 0.114593
O O14 0.952554 0.762199 0.655381
O O15 0.088406 0.553587 0.397463
O O16 0.500000 0.500000 0.500000
O O17 0.465479 0.726542 0.880514
O O18 0.000000 0.000000 0.000000
#
# Coordination Sequence:
#
# PCOD8030172 Si02
#       8
#     2   2   2   2   2   2   2   2
#     4  11  22  38  60  97 133 175 219 275 333 397
#     4  11  22  38  65  95 135 184 227 281 342 413
#     4  11  21  43  65  94 133 182 228 271 351 405
#     4  11  25  47  76  97 139 182 235 291 346 415
#     4  11  25  47  70 107 132 183 241 280 345 422
#     4  12  27  47  71 102 137 179 233 291 358 411
#     4  11  24  42  63  99 138 180 229 282 349 419
#     4  12  23  38  65  99 136 169 221 280 335 406
#
# _framework density 21.990254
#
# number of rings (size 3 to 8) (size 9 to 14) (size 15 to 20)
#    0.000    0.750    1.250    8.625    1.750    2.500 
#    2.250    0.000    0.000    0.000    0.000    0.000 
#    0.000    0.000    0.000    0.000    0.000    0.000 
#
# Total GULP energy -198287.026910 kJ/mol
# GULP energy per Si atom -12392.939182 kJ/mol
# Density = 2.194020 g / cm^3
# Si number density = 21.990254 Si / 1000 Ang^3
#
#
#
# Elastic Constant Matrix: (Units=GPa)
#
#
# Indices 1 2 3 4 5 6 
#
# 1 105.3214 49.1225 32.3090 -11.5613 4.7076 -5.8931
# 2 49.1225 114.8129 59.1309 -17.1385 -5.0519 -13.9490
# 3 32.3090 59.1309 90.3816 -10.6875 1.2460 16.9815
# 4 -11.5613 -17.1385 -10.6875 41.9554 0.4106 10.0424
# 5 4.7076 -5.0519 1.2460 0.4106 40.1648 -3.7851
# 6 -5.8931 -13.9490 16.9815 10.0424 -3.7851 36.0256
#
#
#
# Elastic Compliance Matrix: (Units=1/GPa)
#
#
# Indices 1 2 3 4 5 6 
#
# 1 0.012194 -0.004311 -0.001476 0.001119 -0.001889 0.000511
# 2 -0.004311 0.019711 -0.014089 -0.000148 0.004753 0.014109
# 3 -0.001476 -0.014089 0.025078 0.004894 -0.004249 -0.019329
# 4 0.001119 -0.000148 0.004894 0.027757 -0.001535 -0.010080
# 5 -0.001889 0.004753 -0.004249 -0.001535 0.026500 0.006746
# 6 0.000511 0.014109 -0.019329 -0.010080 0.006746 0.045934
#
#
# Mechanical properties :
#
#
# Convention : Reuss Voigt Hill
#
# Bulk Modulus (GPa) = 58.03245 65.73783 61.88514
# Shear Modulus (GPa) = 24.67056 34.95939 29.81498
#
# Velocity S-wave (km/s) = 3.35309 3.99151 3.68615
# Velocity P-wave (km/s) = 6.43726 7.15555 6.80589
#
# Compressibility (1/GPa) = 0.01723174
#
# Stress axis : x y z
#
# Youngs Moduli (GPa) = 82.00662 50.73242 39.87523
#
# Poissons Ratio (x) = 0.21870 0.05887
# Poissons Ratio (y) = 0.35351 0.56179
# Poissons Ratio (z) = 0.12107 0.71476
#
# Static dielectric constant tensor:
#      x y z
#    x 4.523140 0.053670 0.545710 
#    y 0.053670 4.174160 0.001700 
#    z 0.545710 0.001700 4.292870 
# 
# 
# High freq. dielectric constant tensor:
#      x y z
#    x 1.863670 -0.005840 0.015060 
#    y -0.005840 1.880700 -0.002670 
#    z 0.015060 -0.002670 1.871100 
# 
# From -- ./inp_files/279583.got.cif
#   From: 2010.06.25/outbox.cif.g09.slc.cpg/sg2_140_cif.got.tgz:279583.got - 2010.06.27 13:26:56.
