data_PCOD8030640
_publ_section_title
;
Structure prediction by ZEFSAII (Michael W. Deem and Ramdas Pophale) SiO2 
 PCOD8030640
Probable space group: P -1
;
_chemical_formula_sum "Si O2"
_cell_formula_units_Z 14
_cell_length_a 7.755347
_cell_length_b 6.733245
_cell_length_c 19.635381
_cell_angle_alpha 71.289505
_cell_angle_beta 42.835523
_cell_angle_gamma 95.187440
_cell_volume 569.630168
_symmetry_space_group_name_H-M "P -1"
_symmetry_group_IT_number 2
_symmetry_cell_setting 'triclinic'
loop_
_space_group_symop_operation_xyz
x,y,z
-x,-y,-z
loop_
_atom_site_type_symbol
_atom_site_label
_atom_site_fract_x
_atom_site_fract_y
_atom_site_fract_z
Si Si1 0.271792 0.772159 0.386328
Si Si2 0.687074 0.676192 0.082914
Si Si3 0.200665 0.804446 0.178978
Si Si4 0.624405 0.369533 0.434792
Si Si5 0.224181 0.977302 0.508168
Si Si6 0.150046 0.135560 0.837967
Si Si7 0.703537 0.873225 0.764598
O O1 0.174290 0.927831 0.446681
O O2 0.588366 0.790787 0.302520
O O3 0.000000 0.500000 0.500000
O O4 0.330307 0.907654 0.281938
O O5 0.494442 0.789452 0.096937
O O6 0.714332 0.687147 0.155699
O O7 0.577121 0.399105 0.122950
O O8 0.006239 0.855261 0.936550
O O9 0.964048 0.544166 0.304968
O O10 0.099515 0.825150 0.129826
O O11 0.219317 0.032734 0.190436
O O12 0.500000 0.500000 0.500000
O O13 0.582015 0.147909 0.518331
O O14 0.429482 0.264552 0.433421
O O15 0.949428 0.854130 0.652335
#
# Coordination Sequence:
#
# PCOD8030640 Si02
#       7
#     2   2   2   2   2   2   2
#     4  12  26  45  72 108 147 189 243 296 366 434
#     4  11  26  53  70 106 144 188 253 292 362 430
#     4  12  24  46  74 106 144 187 239 305 361 422
#     4  11  22  39  65 102 148 182 238 292 353 436
#     4  11  24  39  65 105 141 193 233 286 366 430
#     4  11  27  48  77 102 145 196 235 308 359 423
#     4  12  25  45  73 103 147 189 234 304 355 434
#
# _framework density 24.577348000000001
#
# number of rings (size 3 to 8) (size 9 to 14) (size 15 to 20)
#    0.000    0.571    4.286    3.429    6.000    1.143 
#    0.000    0.000    0.000    0.000    0.000    0.000 
#    0.000    0.000    0.000    0.000    0.000    0.000 
#
# Total GULP energy -173502.062403 kJ/mol
# GULP energy per Si atom -12393.004457 kJ/mol
# Density = 2.452141 g / cm^3
# Si number density = 24.577348 Si / 1000 Ang^3
#
#
#
# Elastic Constant Matrix: (Units=GPa)
#
#
# Indices 1 2 3 4 5 6 
#
# 1 88.0823 29.2484 10.8501 -8.2249 1.9845 6.7556
# 2 29.2484 139.5841 50.6351 -25.9600 -5.1175 24.5603
# 3 10.8501 50.6351 122.0822 -20.9130 -7.5057 15.2189
# 4 -8.2249 -25.9600 -20.9130 40.2081 7.8287 -4.6644
# 5 1.9845 -5.1175 -7.5057 7.8287 12.0530 -16.1162
# 6 6.7556 24.5603 15.2189 -4.6644 -16.1162 34.6539
#
#
#
# Elastic Compliance Matrix: (Units=1/GPa)
#
#
# Indices 1 2 3 4 5 6 
#
# 1 0.013333 -0.000738 0.000080 0.004957 -0.020123 -0.010802
# 2 -0.000738 0.012579 -0.002783 0.009901 -0.029125 -0.019761
# 3 0.000080 -0.002783 0.010137 0.003137 0.000816 -0.001693
# 4 0.004957 0.009901 0.003137 0.043840 -0.073411 -0.037601
# 5 -0.020123 -0.029125 0.000816 -0.073411 0.373538 0.188042
# 6 -0.010802 -0.019761 -0.001693 -0.037601 0.188042 0.128102
#
#
# Mechanical properties :
#
#
# Convention : Reuss Voigt Hill
#
# Bulk Modulus (GPa) = 34.28506 59.02400 46.65453
# Shear Modulus (GPa) = 8.35935 34.65068 21.50501
#
# Velocity S-wave (km/s) = 1.84625 3.75889 2.96124
# Velocity P-wave (km/s) = 4.30407 6.55032 5.54219
#
# Compressibility (1/GPa) = 0.02916723
#
# Stress axis : x y z
#
# Youngs Moduli (GPa) = 75.00214 79.49813 98.64974
#
# Poissons Ratio (x) = 0.05865 -0.00786
# Poissons Ratio (y) = 0.05534 0.27451
# Poissons Ratio (z) = -0.00598 0.22122
#
# Static dielectric constant tensor:
#      x y z
#    x 4.588480 0.160680 0.057620 
#    y 0.160680 4.404230 -0.017120 
#    z 0.057620 -0.017120 4.187530 
# 
# 
# High freq. dielectric constant tensor:
#      x y z
#    x 1.984170 0.001160 -0.006790 
#    y 0.001160 1.979210 -0.007090 
#    z -0.006790 -0.007090 1.978280 
# 
# From -- ./inp_files/27863.got.cif
#   From: 2010.06.25/outbox.cif.g09.slc.cpg/sg2_14_cif.got.tgz:27863.got - 2010.06.27 13:26:56.
