data_PCOD8030678
_publ_section_title
;
Structure prediction by ZEFSAII (Michael W. Deem and Ramdas Pophale) SiO2 
 PCOD8030678
Probable space group: P -1
;
_chemical_formula_sum "Si O2"
_cell_formula_units_Z 16
_cell_length_a 10.083339
_cell_length_b 11.338516
_cell_length_c 9.810731
_cell_angle_alpha 87.899925
_cell_angle_beta 43.068758
_cell_angle_gamma 89.219213
_cell_volume 765.298997
_symmetry_space_group_name_H-M "P -1"
_symmetry_group_IT_number 2
_symmetry_cell_setting 'triclinic'
loop_
_space_group_symop_operation_xyz
x,y,z
-x,-y,-z
loop_
_atom_site_type_symbol
_atom_site_label
_atom_site_fract_x
_atom_site_fract_y
_atom_site_fract_z
Si Si1 0.516597 0.886664 0.311339
Si Si2 0.859064 0.231381 0.498858
Si Si3 0.492884 0.838229 0.639977
Si Si4 0.860996 0.752474 0.945035
Si Si5 0.106523 0.699424 0.016998
Si Si6 0.732335 0.483151 0.661565
Si Si7 0.883657 0.730935 0.451207
Si Si8 0.702632 0.509212 0.995742
O O1 0.339568 0.844812 0.348840
O O2 0.510610 0.819921 0.464632
O O3 0.510652 0.025166 0.327600
O O4 0.715023 0.855773 0.087049
O O5 0.810075 0.370131 0.528000
O O6 0.971198 0.194418 0.279304
O O7 0.995517 0.199164 0.525611
O O8 0.669764 0.781765 0.591826
O O9 0.294737 0.779098 0.842332
O O10 0.750215 0.647989 0.951640
O O11 0.952765 0.698542 0.012572
O O12 0.160061 0.563348 0.004581
O O13 0.002785 0.752434 0.223937
O O14 0.870972 0.592895 0.510270
O O15 0.728396 0.457236 0.827158
O O16 0.513126 0.510235 0.781399
#
# Coordination Sequence:
#
# PCOD8030678 Si02
#       8
#     2   2   2   2   2   2   2   2
#     4  11  26  48  69  96 134 177 227 283 334 387
#     4  12  24  43  71 100 138 176 219 270 338 402
#     4  11  26  48  69  96 134 177 227 283 334 387
#     4  12  24  42  69 104 131 175 226 272 331 401
#     4  12  24  42  69 104 131 175 226 272 331 401
#     4  11  22  40  68  97 141 182 204 267 347 399
#     4  12  24  43  71 100 138 176 219 270 338 402
#     4  11  22  39  68 100 140 175 214 269 335 400
#
# _framework density 20.906862
#
# number of rings (size 3 to 8) (size 9 to 14) (size 15 to 20)
#    0.000    0.500    7.500    1.500    0.000    3.000 
#    0.000    3.750    0.000    0.000    0.000    0.000 
#    0.000    0.000    0.000    0.000    0.000    0.000 
#
# Total GULP energy -198492.474123 kJ/mol
# GULP energy per Si atom -12405.779633 kJ/mol
# Density = 2.085928 g / cm^3
# Si number density = 20.906862 Si / 1000 Ang^3
#
#
#
# Elastic Constant Matrix: (Units=GPa)
#
#
# Indices 1 2 3 4 5 6 
#
# 1 92.3663 15.5270 23.7367 8.6199 -8.0721 4.4280
# 2 15.5270 63.1282 23.3946 10.5322 -4.2682 6.4922
# 3 23.7367 23.3946 133.3480 14.4295 -7.4357 -4.3604
# 4 8.6199 10.5322 14.4295 21.6833 -0.2309 4.1562
# 5 -8.0721 -4.2682 -7.4357 -0.2309 35.2331 -1.1436
# 6 4.4280 6.4922 -4.3604 4.1562 -1.1436 16.5014
#
#
#
# Elastic Compliance Matrix: (Units=1/GPa)
#
#
# Indices 1 2 3 4 5 6 
#
# 1 0.012020 -0.001590 -0.001539 -0.002533 0.002148 -0.002220
# 2 -0.001590 0.018825 -0.002549 -0.005623 0.001142 -0.006158
# 3 -0.001539 -0.002549 0.009022 -0.005134 0.001377 0.005189
# 4 -0.002533 -0.005623 -0.005134 0.055673 -0.002391 -0.012653
# 5 0.002148 0.001142 0.001377 -0.002391 0.029352 0.001975
# 6 -0.002220 -0.006158 0.005189 -0.012653 0.001975 0.068314
#
#
# Mechanical properties :
#
#
# Convention : Reuss Voigt Hill
#
# Bulk Modulus (GPa) = 35.07402 46.01768 40.54585
# Shear Modulus (GPa) = 23.35728 29.76251 26.55990
#
# Velocity S-wave (km/s) = 3.34609 3.77712 3.56812
# Velocity P-wave (km/s) = 5.63393 6.40943 6.03415
#
# Compressibility (1/GPa) = 0.02851113
#
# Stress axis : x y z
#
# Youngs Moduli (GPa) = 83.19582 53.12083 110.83554
#
# Poissons Ratio (x) = 0.08445 0.17062
# Poissons Ratio (y) = 0.13226 0.28251
# Poissons Ratio (z) = 0.12807 0.13540
#
# Static dielectric constant tensor:
#      x y z
#    x 3.998940 -0.025130 -0.099800 
#    y -0.025130 3.485030 0.076000 
#    z -0.099800 0.076000 3.905610 
# 
# 
# High freq. dielectric constant tensor:
#      x y z
#    x 1.833860 0.000040 -0.013580 
#    y 0.000040 1.799320 0.007600 
#    z -0.013580 0.007600 1.832290 
# 
# From -- ./inp_files/187297.got.cif
#   From: 2010.06.25/outbox.cif.g09.slc.cpg/sg2_94_cif.got.tgz:187297.got - 2010.06.27 13:26:56.
