data_PCOD8030963
_publ_section_title
;
Structure prediction by ZEFSAII (Michael W. Deem and Ramdas Pophale) SiO2 
 PCOD8030963
Probable space group: P -1
;
_chemical_formula_sum "Si O2"
_cell_formula_units_Z 14
_cell_length_a 14.633925
_cell_length_b 14.634188
_cell_length_c 11.325075
_cell_angle_alpha 124.596689
_cell_angle_beta 53.064023
_cell_angle_gamma 160.017593
_cell_volume 662.433759
_symmetry_space_group_name_H-M "P -1"
_symmetry_group_IT_number 2
_symmetry_cell_setting 'triclinic'
loop_
_space_group_symop_operation_xyz
x,y,z
-x,-y,-z
loop_
_atom_site_type_symbol
_atom_site_label
_atom_site_fract_x
_atom_site_fract_y
_atom_site_fract_z
Si Si1 0.239754 0.956191 0.092458
Si Si2 0.744419 0.804010 0.635617
Si Si3 0.425269 0.580641 0.497269
Si Si4 0.833975 0.460155 0.894511
Si Si5 0.834158 0.465359 0.625576
Si Si6 0.088255 0.718334 0.283034
Si Si7 0.302228 0.004063 0.544391
O O1 0.196417 0.856345 0.176280
O O2 0.184377 0.039271 0.208937
O O3 0.027719 0.726956 0.991093
O O4 0.548973 0.205027 0.997699
O O5 0.507144 0.643759 0.617511
O O6 0.646477 0.605560 0.632200
O O7 0.000000 0.000000 0.500000
O O8 0.669105 0.844625 0.418166
O O9 0.171914 0.441754 0.585859
O O10 0.776045 0.435250 0.785303
O O11 0.986959 0.477702 0.808630
O O12 0.544657 0.193213 0.586082
O O13 0.000000 0.500000 0.500000
O O14 0.008943 0.724954 0.631650
O O15 0.321415 0.940652 0.366987
#
# Coordination Sequence:
#
# PCOD8030963 Si02
#       7
#     2   2   2   2   2   2   2
#     4  12  26  44  66 102 144 180 212 279 352 420
#     4  11  23  41  72  98 141 174 232 279 341 408
#     4  11  22  41  69 108 130 174 230 285 338 390
#     4  12  28  43  66  99 148 183 220 267 346 417
#     4  12  25  43  68  94 135 191 235 275 316 399
#     4  12  24  42  68 107 139 179 213 281 355 407
#     4  12  23  40  71  99 134 169 240 282 325 384
#
# _framework density 21.134187000000001
#
# number of rings (size 3 to 8) (size 9 to 14) (size 15 to 20)
#    0.000    0.286    5.714    3.000    6.000    0.000 
#    0.000    0.000    0.000    5.143    0.000    0.000 
#    0.000    0.000    0.000    0.000    0.000    0.000 
#
# Total GULP energy -173615.922038 kJ/mol
# GULP energy per Si atom -12401.137288 kJ/mol
# Density = 2.108608 g / cm^3
# Si number density = 21.134187 Si / 1000 Ang^3
#
#
#
# Elastic Constant Matrix: (Units=GPa)
#
#
# Indices 1 2 3 4 5 6 
#
# 1 78.6537 17.3046 45.9938 16.9576 -43.5878 -5.8481
# 2 17.3046 172.7064 72.3170 -11.5796 95.2505 -27.5096
# 3 45.9938 72.3170 131.7061 12.3771 50.1850 -12.6222
# 4 16.9576 -11.5796 12.3771 58.0667 -57.5115 14.3997
# 5 -43.5878 95.2505 50.1850 -57.5115 202.2990 -26.9030
# 6 -5.8481 -27.5096 -12.6222 14.3997 -26.9030 58.5149
#
#
#
# Elastic Compliance Matrix: (Units=1/GPa)
#
#
# Indices 1 2 3 4 5 6 
#
# 1 0.026614 -0.003561 -0.012416 0.005918 0.012520 0.002608
# 2 -0.003561 0.010096 -0.001743 -0.002589 -0.005545 0.002102
# 3 -0.012416 -0.001743 0.016968 -0.008801 -0.008590 -0.000184
# 4 0.005918 -0.002589 -0.008801 0.030579 0.012818 -0.004156
# 5 0.012520 -0.005545 -0.008590 0.012818 0.016169 0.001071
# 6 0.002608 0.002102 -0.000184 -0.004156 0.001071 0.019814
#
#
# Mechanical properties :
#
#
# Convention : Reuss Voigt Hill
#
# Bulk Modulus (GPa) = 54.82409 72.69965 63.76187
# Shear Modulus (GPa) = 30.91048 80.27285 55.59166
#
# Velocity S-wave (km/s) = 3.82852 6.16968 5.13432
# Velocity P-wave (km/s) = 6.74838 9.23185 8.08603
#
# Compressibility (1/GPa) = 0.01824016
#
# Stress axis : x y z
#
# Youngs Moduli (GPa) = 37.57457 99.04959 58.93458
#
# Poissons Ratio (x) = 0.35268 0.73171
# Poissons Ratio (y) = 0.13379 0.10269
# Poissons Ratio (z) = 0.46651 0.17260
#
# Static dielectric constant tensor:
#      x y z
#    x 4.064870 -0.236520 0.090620 
#    y -0.236520 4.163470 0.332000 
#    z 0.090620 0.332000 3.912880 
# 
# 
# High freq. dielectric constant tensor:
#      x y z
#    x 1.827430 -0.007170 0.007980 
#    y -0.007170 1.851620 0.015200 
#    z 0.007980 0.015200 1.805800 
# 
# From -- ./inp_files/452525.got.cif
#   From: 2010.06.25/outbox.cif.g09.slc.cpg/sg2_227_cif.got.tgz:452525.got - 2010.06.27 13:26:56.
