data_PCOD8030656
_publ_section_title
;
Structure prediction by ZEFSAII (Michael W. Deem and Ramdas Pophale) SiO2 
 PCOD8030656
Probable space group: P -1
;
_chemical_formula_sum "Si O2"
_cell_formula_units_Z 12
_cell_length_a 14.932685
_cell_length_b 11.580965
_cell_length_c 11.997653
_cell_angle_alpha 145.523675
_cell_angle_beta 152.674694
_cell_angle_gamma 36.302028
_cell_volume 517.097839
_symmetry_space_group_name_H-M "P -1"
_symmetry_group_IT_number 2
_symmetry_cell_setting 'triclinic'
loop_
_space_group_symop_operation_xyz
x,y,z
-x,-y,-z
loop_
_atom_site_type_symbol
_atom_site_label
_atom_site_fract_x
_atom_site_fract_y
_atom_site_fract_z
Si Si1 0.244036 0.093219 0.266672
Si Si2 0.743643 0.766105 0.230055
Si Si3 0.803200 0.447614 0.487024
Si Si4 0.477922 0.715173 0.086523
Si Si5 0.184433 0.893337 0.274612
Si Si6 0.496348 0.466379 0.339233
O O1 0.280639 0.326566 0.491607
O O2 0.212796 0.027817 0.305507
O O3 0.049275 0.107778 0.984477
O O4 0.438431 0.922111 0.287869
O O5 0.954803 0.619009 0.299172
O O6 0.761265 0.001919 0.466155
O O7 0.680723 0.683869 0.212963
O O8 0.570833 0.748955 0.935019
O O9 0.722606 0.263292 0.194059
O O10 0.716344 0.464862 0.531512
O O11 0.500000 0.500000 0.000000
O O12 0.329224 0.654625 0.240918
O O13 0.500000 0.500000 0.500000
#
# Coordination Sequence:
#
# PCOD8030656 Si02
#       6
#     2   2   2   2   2   2
#     4  11  22  39  66  98 133 168 205 253 319 391
#     4  11  23  42  64  95 128 166 215 263 317 373
#     4  11  23  41  66  95 128 167 210 264 321 374
#     4  11  23  36  60  95 134 171 206 252 313 381
#     4  11  23  40  66  97 131 169 209 256 318 380
#     4  11  26  47  67  91 124 169 221 268 317 373
#
# _framework density 23.206441000000002
#
# number of rings (size 3 to 8) (size 9 to 14) (size 15 to 20)
#    0.000    1.000    3.333    4.000    2.333    4.667 
#    0.000    0.833    0.000    0.000    0.000    0.000 
#    0.000    0.000    0.000    0.000    0.000    0.000 
#
# Total GULP energy -148733.699683 kJ/mol
# GULP energy per Si atom -12394.474974 kJ/mol
# Density = 2.315362 g / cm^3
# Si number density = 23.206441 Si / 1000 Ang^3
#
#
#
# Elastic Constant Matrix: (Units=GPa)
#
#
# Indices 1 2 3 4 5 6 
#
# 1 128.1612 32.5443 45.3139 -2.5581 2.4777 -29.1167
# 2 32.5443 41.6027 22.9389 11.0944 5.2375 -21.8157
# 3 45.3139 22.9389 134.3173 19.8575 -4.9830 -12.5640
# 4 -2.5581 11.0944 19.8575 35.9246 -13.8976 1.5605
# 5 2.4777 5.2375 -4.9830 -13.8976 47.6420 -5.7900
# 6 -29.1167 -21.8157 -12.5640 1.5605 -5.7900 33.6958
#
#
#
# Elastic Compliance Matrix: (Units=1/GPa)
#
#
# Indices 1 2 3 4 5 6 
#
# 1 0.011701 -0.006500 -0.003060 0.005035 0.001843 0.004845
# 2 -0.006500 0.049107 -0.001313 -0.018963 -0.007661 0.025249
# 3 -0.003060 -0.001313 0.009476 -0.005128 -0.000171 0.000247
# 4 0.005035 -0.018963 -0.005128 0.042099 0.012393 -0.009659
# 5 0.001843 -0.007661 -0.000171 0.012393 0.025377 0.000356
# 6 0.004845 0.025249 0.000247 -0.009659 0.000356 0.050812
#
#
# Mechanical properties :
#
#
# Convention : Reuss Voigt Hill
#
# Bulk Modulus (GPa) = 20.60190 56.18613 38.39401
# Shear Modulus (GPa) = 22.07534 37.00476 29.54005
#
# Velocity S-wave (km/s) = 3.08759 3.99756 3.57168
# Velocity P-wave (km/s) = 4.64843 6.75066 5.79566
#
# Compressibility (1/GPa) = 0.04853921
#
# Stress axis : x y z
#
# Youngs Moduli (GPa) = 85.46455 20.36367 105.52453
#
# Poissons Ratio (x) = 0.13236 0.32292
# Poissons Ratio (y) = 0.55550 0.13851
# Poissons Ratio (z) = 0.26153 0.02673
#
# Static dielectric constant tensor:
#      x y z
#    x 4.040650 -0.273300 0.059830 
#    y -0.273300 3.867210 0.348840 
#    z 0.059830 0.348840 5.205730 
# 
# 
# High freq. dielectric constant tensor:
#      x y z
#    x 1.908240 -0.028830 0.011450 
#    y -0.028830 1.884380 0.018810 
#    z 0.011450 0.018810 1.956470 
# 
# From -- ./inp_files/225781.got.cif
#   From: 2010.06.25/outbox.cif.g09.slc.cpg/sg2_113_cif.got.tgz:225781.got - 2010.06.27 13:26:56.
