data_PCOD8030177
_publ_section_title
;
Structure prediction by ZEFSAII (Michael W. Deem and Ramdas Pophale) SiO2 
 PCOD8030177
Probable space group: P -1
;
_chemical_formula_sum "Si O2"
_cell_formula_units_Z 16
_cell_length_a 7.769974
_cell_length_b 15.554138
_cell_length_c 9.903551
_cell_angle_alpha 38.611429
_cell_angle_beta 94.854056
_cell_angle_gamma 88.146403
_cell_volume 734.836144
_symmetry_space_group_name_H-M "P -1"
_symmetry_group_IT_number 2
_symmetry_cell_setting 'triclinic'
loop_
_space_group_symop_operation_xyz
x,y,z
-x,-y,-z
loop_
_atom_site_type_symbol
_atom_site_label
_atom_site_fract_x
_atom_site_fract_y
_atom_site_fract_z
Si Si1 0.287273 0.875347 0.808294
Si Si2 0.829557 0.173328 0.851192
Si Si3 0.028191 0.371923 0.259255
Si Si4 0.237808 0.828040 0.570474
Si Si5 0.800294 0.957204 0.918165
Si Si6 0.888901 0.459665 0.418725
Si Si7 0.645818 0.821019 0.602121
Si Si8 0.346152 0.254469 0.006262
O O1 0.180960 0.866579 0.673799
O O2 0.447079 0.746873 0.975934
O O3 0.362446 0.020516 0.641076
O O4 0.174370 0.850954 0.959605
O O5 0.782750 0.334196 0.605912
O O6 0.714899 0.076237 0.875918
O O7 0.034011 0.126784 0.889067
O O8 0.857499 0.298598 0.323276
O O9 0.025936 0.423001 0.350692
O O10 0.215177 0.276615 0.361872
O O11 0.000000 0.500000 0.000000
O O12 0.448423 0.786999 0.614872
O O13 0.154842 0.960219 0.313604
O O14 0.684249 0.842923 0.004338
O O15 0.000000 0.500000 0.500000
O O16 0.744070 0.588286 0.210071
O O17 0.710870 0.805800 0.780485
#
# Coordination Sequence:
#
# PCOD8030177 Si02
#       8
#     2   2   2   2   2   2   2   2
#     4  11  24  41  71 105 129 174 232 282 350 403
#     4  11  26  40  64 102 136 181 230 273 341 417
#     4  12  27  45  70 100 134 190 231 274 348 406
#     4  11  23  44  72 102 136 175 228 296 335 395
#     4  11  21  43  66  93 137 177 221 284 335 388
#     4  12  26  46  64  95 144 183 222 279 340 415
#     4  11  23  44  73 108 133 168 237 294 336 402
#     4  11  22  44  69  95 139 174 220 292 337 396
#
# _framework density 21.77356
#
# number of rings (size 3 to 8) (size 9 to 14) (size 15 to 20)
#    0.000    0.750    6.250    1.500    5.250    2.500 
#    2.250    0.000    0.000    0.000    0.000    0.000 
#    0.000    0.000    0.000    0.000    0.000    0.000 
#
# Total GULP energy -198339.948907 kJ/mol
# GULP energy per Si atom -12396.246807 kJ/mol
# Density = 2.172400 g / cm^3
# Si number density = 21.773560 Si / 1000 Ang^3
#
#
#
# Elastic Constant Matrix: (Units=GPa)
#
#
# Indices 1 2 3 4 5 6 
#
# 1 60.3728 26.8696 24.9272 -11.5135 2.7117 -3.8001
# 2 26.8696 138.1640 39.3533 11.1169 0.4696 -5.4605
# 3 24.9272 39.3533 121.5322 -5.6586 3.0363 -7.3596
# 4 -11.5135 11.1169 -5.6586 43.7081 -3.5101 0.3285
# 5 2.7117 0.4696 3.0363 -3.5101 30.2913 -4.3225
# 6 -3.8001 -5.4605 -7.3596 0.3285 -4.3225 28.4509
#
#
#
# Elastic Compliance Matrix: (Units=1/GPa)
#
#
# Indices 1 2 3 4 5 6 
#
# 1 0.020528 -0.003663 -0.002660 0.005933 -0.000658 0.001182
# 2 -0.003663 0.008903 -0.002256 -0.003518 0.000107 0.000693
# 3 -0.002660 -0.002256 0.009663 0.001085 -0.000335 0.001648
# 4 0.005933 -0.003518 0.001085 0.025671 0.002457 0.000475
# 5 -0.000658 0.000107 -0.000335 0.002457 0.034102 0.004999
# 6 0.001182 0.000693 0.001648 0.000475 0.004999 0.036619
#
#
# Mechanical properties :
#
#
# Convention : Reuss Voigt Hill
#
# Bulk Modulus (GPa) = 45.58805 55.81882 50.70344
# Shear Modulus (GPa) = 31.25878 35.75133 33.50505
#
# Velocity S-wave (km/s) = 3.79308 4.05651 3.92700
# Velocity P-wave (km/s) = 6.33767 6.90160 6.62564
#
# Compressibility (1/GPa) = 0.02193557
#
# Stress axis : x y z
#
# Youngs Moduli (GPa) = 48.71474 112.32442 103.48690
#
# Poissons Ratio (x) = 0.41143 0.27528
# Poissons Ratio (y) = 0.17844 0.23347
# Poissons Ratio (z) = 0.12958 0.25341
#
# Static dielectric constant tensor:
#      x y z
#    x 3.894350 -0.011700 0.084720 
#    y -0.011700 4.257570 0.044660 
#    z 0.084720 0.044660 4.077690 
# 
# 
# High freq. dielectric constant tensor:
#      x y z
#    x 1.828040 0.002550 0.011330 
#    y 0.002550 1.866860 0.006480 
#    z 0.011330 0.006480 1.869820 
# 
# From -- ./inp_files/205219.got.cif
#   From: 2010.06.25/outbox.cif.g09.slc.cpg/sg2_103_cif.got.tgz:205219.got - 2010.06.27 13:26:56.
