data_PCOD8030447
_publ_section_title
;
Structure prediction by ZEFSAII (Michael W. Deem and Ramdas Pophale) SiO2 
 PCOD8030447
Probable space group: P -1
;
_chemical_formula_sum "Si O2"
_cell_formula_units_Z 12
_cell_length_a 8.671544
_cell_length_b 11.447625
_cell_length_c 9.434857
_cell_angle_alpha 91.921065
_cell_angle_beta 59.780428
_cell_angle_gamma 55.782556
_cell_volume 599.965289
_symmetry_space_group_name_H-M "P -1"
_symmetry_group_IT_number 2
_symmetry_cell_setting 'triclinic'
loop_
_space_group_symop_operation_xyz
x,y,z
-x,-y,-z
loop_
_atom_site_type_symbol
_atom_site_label
_atom_site_fract_x
_atom_site_fract_y
_atom_site_fract_z
Si Si1 0.400158 0.164412 0.501516
Si Si2 0.508871 0.490265 0.327214
Si Si3 0.277822 0.359582 0.841006
Si Si4 0.278144 0.844015 0.859831
Si Si5 0.407484 0.171735 0.052642
Si Si6 0.980745 0.644183 0.540795
O O1 0.301203 0.284908 0.678865
O O2 0.611048 0.143288 0.328062
O O3 0.186935 0.225419 0.495469
O O4 0.500000 0.000000 0.500000
O O5 0.500000 0.500000 0.500000
O O6 0.592745 0.572751 0.220475
O O7 0.686617 0.310565 0.181396
O O8 0.238410 0.589105 0.404341
O O9 0.398274 0.228322 0.902071
O O10 0.000000 0.500000 0.000000
O O11 0.413527 0.827070 0.937724
O O12 0.000000 0.000000 0.000000
O O13 0.138026 0.286091 0.246692
O O14 0.500000 0.000000 0.000000
O O15 0.000000 0.500000 0.500000
#
# Coordination Sequence:
#
# PCOD8030447 Si02
#       6
#     2   2   2   2   2   2
#     4  11  24  45  67  98 136 179 219 278 337 398
#     4  12  24  44  72 100 134 179 229 282 333 401
#     4  12  26  42  70 104 132 175 230 276 336 400
#     4  11  26  45  66  99 139 178 222 277 343 397
#     4  11  25  44  68 100 138 177 220 279 339 399
#     4  11  21  46  70  93 135 178 224 274 335 397
#
# _framework density 20.001156999999999
#
# number of rings (size 3 to 8) (size 9 to 14) (size 15 to 20)
#    0.000    0.667    5.000    4.000    7.000    2.000 
#    0.000    2.500    0.000    0.000    0.000    0.000 
#    0.000    0.000    0.000    0.000    0.000    0.000 
#
# Total GULP energy -148853.353887 kJ/mol
# GULP energy per Si atom -12404.446157 kJ/mol
# Density = 1.995563 g / cm^3
# Si number density = 20.001157 Si / 1000 Ang^3
#
#
#
# Elastic Constant Matrix: (Units=GPa)
#
#
# Indices 1 2 3 4 5 6 
#
# 1 104.8830 46.6182 52.2239 0.9365 -15.6154 5.6189
# 2 46.6182 143.4679 49.6430 -6.5631 -11.4783 10.4603
# 3 52.2239 49.6430 135.8023 6.7873 -9.7969 -2.7507
# 4 0.9365 -6.5631 6.7873 46.3051 -3.3641 1.9536
# 5 -15.6154 -11.4783 -9.7969 -3.3641 42.4462 3.8354
# 6 5.6189 10.4603 -2.7507 1.9536 3.8354 41.6335
#
#
#
# Elastic Compliance Matrix: (Units=1/GPa)
#
#
# Indices 1 2 3 4 5 6 
#
# 1 0.013233 -0.002508 -0.003972 0.000284 0.003454 -0.001750
# 2 -0.002508 0.008955 -0.002353 0.001856 0.001308 -0.002274
# 3 -0.003972 -0.002353 0.009869 -0.001789 -0.000131 0.001875
# 4 0.000284 0.001856 -0.001789 0.022349 0.002134 -0.001868
# 5 0.003454 0.001308 -0.000131 0.002134 0.025617 -0.003263
# 6 -0.001750 -0.002274 0.001875 -0.001868 -0.003263 0.025339
#
#
# Mechanical properties :
#
#
# Convention : Reuss Voigt Hill
#
# Bulk Modulus (GPa) = 69.49761 75.68037 72.58899
# Shear Modulus (GPa) = 39.11542 41.78815 40.45178
#
# Velocity S-wave (km/s) = 4.42708 4.57583 4.50207
# Velocity P-wave (km/s) = 7.80732 8.11405 7.96216
#
# Compressibility (1/GPa) = 0.01438898
#
# Stress axis : x y z
#
# Youngs Moduli (GPa) = 75.57078 111.66941 101.32336
#
# Poissons Ratio (x) = 0.28012 0.40248
# Poissons Ratio (y) = 0.18957 0.23845
# Poissons Ratio (z) = 0.30018 0.26280
#
# Static dielectric constant tensor:
#      x y z
#    x 3.479580 -0.051500 0.339760 
#    y -0.051500 3.851450 -0.189590 
#    z 0.339760 -0.189590 5.017250 
# 
# 
# High freq. dielectric constant tensor:
#      x y z
#    x 1.788340 0.000110 0.006360 
#    y 0.000110 1.795300 0.007530 
#    z 0.006360 0.007530 1.794650 
# 
# From -- ./inp_files/144394.got.cif
#   From: 2010.06.25/outbox.cif.g09.slc.cpg/sg2_73_cif.got.tgz:144394.got - 2010.06.27 13:26:56.
