data_PCOD8030462
_publ_section_title
;
Structure prediction by ZEFSAII (Michael W. Deem and Ramdas Pophale) SiO2 
 PCOD8030462
Probable space group: P -1
;
_chemical_formula_sum "Si O2"
_cell_formula_units_Z 16
_cell_length_a 8.547041
_cell_length_b 18.873177
_cell_length_c 11.085817
_cell_angle_alpha 53.014881
_cell_angle_beta 138.645142
_cell_angle_gamma 97.074481
_cell_volume 738.801004
_symmetry_space_group_name_H-M "P -1"
_symmetry_group_IT_number 2
_symmetry_cell_setting 'triclinic'
loop_
_space_group_symop_operation_xyz
x,y,z
-x,-y,-z
loop_
_atom_site_type_symbol
_atom_site_label
_atom_site_fract_x
_atom_site_fract_y
_atom_site_fract_z
Si Si1 0.175564 0.427446 0.342395
Si Si2 0.185668 0.086748 0.016675
Si Si3 0.265912 0.679238 0.369927
Si Si4 0.573743 0.326620 0.903410
Si Si5 0.027887 0.330822 0.010915
Si Si6 0.681437 0.112828 0.552390
Si Si7 0.304558 0.900429 0.712879
Si Si8 0.431754 0.519847 0.078497
O O1 0.448107 0.337134 0.504812
O O2 0.286715 0.398687 0.574401
O O3 0.048196 0.553895 0.101737
O O4 0.924155 0.413888 0.180978
O O5 0.438967 0.091298 0.100464
O O6 0.341143 0.974419 0.300949
O O7 0.984599 0.188891 0.888657
O O8 0.982267 0.095876 0.781603
O O9 0.358662 0.606133 0.618033
O O10 0.137516 0.636818 0.246453
O O11 0.494147 0.402958 0.897480
O O12 0.615124 0.216920 0.081115
O O13 0.881342 0.291526 0.055222
O O14 0.386662 0.236545 0.296631
O O15 0.707947 0.090184 0.448712
O O16 0.000000 0.000000 0.500000
O O17 0.500000 0.500000 0.000000
#
# Coordination Sequence:
#
# PCOD8030462 Si02
#       8
#     2   2   2   2   2   2   2   2
#     4  11  24  43  70  99 139 184 227 280 331 403
#     4  11  26  46  72 101 132 179 236 281 333 407
#     4  11  22  43  71 100 136 177 232 278 333 408
#     4  11  26  44  65 104 136 179 229 280 339 406
#     4  11  21  46  74  96 136 181 236 280 328 404
#     4  11  26  46  73 101 129 181 233 284 337 403
#     4  12  28  47  70  99 144 178 223 285 352 405
#     4  12  27  40  66 104 146 182 220 276 352 406
#
# _framework density 21.656713
#
# number of rings (size 3 to 8) (size 9 to 14) (size 15 to 20)
#    0.000    0.750    3.750    3.000   10.500    1.000 
#    0.000    0.000    0.000    0.000    0.000    0.000 
#    0.000    0.000    0.000    0.000    0.000    0.000 
#
# Total GULP energy -198463.348365 kJ/mol
# GULP energy per Si atom -12403.959273 kJ/mol
# Density = 2.160742 g / cm^3
# Si number density = 21.656713 Si / 1000 Ang^3
#
#
#
# Elastic Constant Matrix: (Units=GPa)
#
#
# Indices 1 2 3 4 5 6 
#
# 1 97.8216 35.2425 49.9716 6.5055 -2.1770 6.5943
# 2 35.2425 71.1403 17.3993 -0.2048 -4.9211 14.1536
# 3 49.9716 17.3993 99.7103 -1.7839 4.0325 8.8257
# 4 6.5055 -0.2048 -1.7839 32.6863 -8.3559 2.4492
# 5 -2.1770 -4.9211 4.0325 -8.3559 41.0645 -0.3010
# 6 6.5943 14.1536 8.8257 2.4492 -0.3010 41.6389
#
#
#
# Elastic Compliance Matrix: (Units=1/GPa)
#
#
# Indices 1 2 3 4 5 6 
#
# 1 0.016528 -0.006694 -0.007312 -0.003832 0.000023 0.001433
# 2 -0.006694 0.018487 0.000566 0.002469 0.002267 -0.005473
# 3 -0.007312 0.000566 0.013869 0.002046 -0.001281 -0.002104
# 4 -0.003832 0.002469 0.002046 0.033381 0.006665 -0.002581
# 5 0.000023 0.002267 -0.001281 0.006665 0.026102 -0.000706
# 6 0.001433 -0.005473 -0.002104 -0.002581 -0.000706 0.026242
#
#
# Mechanical properties :
#
#
# Convention : Reuss Voigt Hill
#
# Bulk Modulus (GPa) = 45.44477 52.65542 49.05009
# Shear Modulus (GPa) = 29.61647 34.14854 31.88251
#
# Velocity S-wave (km/s) = 3.70204 3.97522 3.84106
# Velocity P-wave (km/s) = 6.26923 6.74064 6.50920
#
# Compressibility (1/GPa) = 0.02200473
#
# Stress axis : x y z
#
# Youngs Moduli (GPa) = 60.50209 54.09074 72.10177
#
# Poissons Ratio (x) = 0.36210 0.52718
# Poissons Ratio (y) = 0.40502 -0.04080
# Poissons Ratio (z) = 0.44237 -0.03061
#
# Static dielectric constant tensor:
#      x y z
#    x 4.074660 0.059670 0.234950 
#    y 0.059670 4.147620 0.092160 
#    z 0.234950 0.092160 4.306510 
# 
# 
# High freq. dielectric constant tensor:
#      x y z
#    x 1.848510 -0.001240 0.001940 
#    y -0.001240 1.861580 0.009750 
#    z 0.001940 0.009750 1.861960 
# 
# From -- ./inp_files/306214.got.cif
#   From: 2010.06.25/outbox.cif.g09.slc.cpg/sg2_154_cif.got.tgz:306214.got - 2010.06.27 13:26:56.
