data_PCOD8030808
_publ_section_title
;
Structure prediction by ZEFSAII (Michael W. Deem and Ramdas Pophale) SiO2 
 PCOD8030808
Probable space group: P -1
;
_chemical_formula_sum "Si O2"
_cell_formula_units_Z 16
_cell_length_a 9.292729
_cell_length_b 15.422095
_cell_length_c 11.053084
_cell_angle_alpha 74.152773
_cell_angle_beta 42.847051
_cell_angle_gamma 47.869354
_cell_volume 719.824812
_symmetry_space_group_name_H-M "P -1"
_symmetry_group_IT_number 2
_symmetry_cell_setting 'triclinic'
loop_
_space_group_symop_operation_xyz
x,y,z
-x,-y,-z
loop_
_atom_site_type_symbol
_atom_site_label
_atom_site_fract_x
_atom_site_fract_y
_atom_site_fract_z
Si Si1 0.934903 0.280632 0.092751
Si Si2 0.132085 0.858312 0.979186
Si Si3 0.167669 0.127547 0.613434
Si Si4 0.178380 0.881673 0.343987
Si Si5 0.758808 0.743579 0.649658
Si Si6 0.793886 0.621729 0.171863
Si Si7 0.659289 0.519539 0.486214
Si Si8 0.413946 0.122466 0.054597
O O1 0.575434 0.389654 0.295542
O O2 0.102996 0.244599 0.130887
O O3 0.015860 0.159503 0.027417
O O4 0.041700 0.332143 0.923309
O O5 0.070360 0.824409 0.154571
O O6 0.496570 0.750622 0.782525
O O7 0.000000 0.000000 0.000000
O O8 0.162616 0.233849 0.535994
O O9 0.080774 0.103627 0.552704
O O10 0.500000 0.000000 0.500000
O O11 0.448768 0.741459 0.291952
O O12 0.312503 0.895381 0.143207
O O13 0.000000 0.000000 0.500000
O O14 0.631731 0.856701 0.781477
O O15 0.047231 0.608770 0.580748
O O16 0.762229 0.579512 0.333759
O O17 0.000000 0.500000 0.000000
O O18 0.500000 0.500000 0.500000
O O19 0.500000 0.000000 0.000000
#
# Coordination Sequence:
#
# PCOD8030808 Si02
#       8
#     2   2   2   2   2   2   2   2
#     4  11  27  44  72 108 141 191 241 294 362 428
#     4  12  27  50  70 102 154 191 234 296 362 439
#     4  12  27  43  71 102 146 189 236 294 366 431
#     4  11  25  41  70 111 139 181 247 304 362 426
#     4  12  25  46  71 104 140 194 237 292 368 425
#     4  11  24  45  73 108 148 184 239 308 367 420
#     4  12  23  44  77 104 141 186 243 302 353 427
#     4  11  22  40  69 103 142 177 238 301 357 419
#
# _framework density 22.227630999999999
#
# number of rings (size 3 to 8) (size 9 to 14) (size 15 to 20)
#    0.000    0.500    5.000    3.000    5.250    1.500 
#    0.000    1.250    0.000    0.000    0.000    0.000 
#    0.000    0.000    0.000    0.000    0.000    0.000 
#
# Total GULP energy -198381.859112 kJ/mol
# GULP energy per Si atom -12398.866195 kJ/mol
# Density = 2.217704 g / cm^3
# Si number density = 22.227631 Si / 1000 Ang^3
#
#
#
# Elastic Constant Matrix: (Units=GPa)
#
#
# Indices 1 2 3 4 5 6 
#
# 1 91.0879 30.4292 40.4551 -1.7359 -17.3009 3.9338
# 2 30.4292 128.9795 63.1187 -11.2260 -13.0910 -11.7446
# 3 40.4551 63.1187 145.3334 -23.6548 -16.5645 -10.9431
# 4 -1.7359 -11.2260 -23.6548 55.1446 -4.6467 0.1735
# 5 -17.3009 -13.0910 -16.5645 -4.6467 35.8858 2.8302
# 6 3.9338 -11.7446 -10.9431 0.1735 2.8302 41.2931
#
#
#
# Elastic Compliance Matrix: (Units=1/GPa)
#
#
# Indices 1 2 3 4 5 6 
#
# 1 0.013869 -0.001680 -0.002915 -0.000737 0.004861 -0.002902
# 2 -0.001680 0.010273 -0.003610 0.000583 0.001186 0.002042
# 3 -0.002915 -0.003610 0.010280 0.003777 0.002370 0.001797
# 4 -0.000737 0.000583 0.003777 0.020197 0.004148 0.000868
# 5 0.004861 0.001186 0.002370 0.004148 0.032410 -0.001737
# 6 -0.002902 0.002042 0.001797 0.000868 -0.001737 0.025666
#
#
# Mechanical properties :
#
#
# Convention : Reuss Voigt Hill
#
# Bulk Modulus (GPa) = 55.52116 70.37854 62.94985
# Shear Modulus (GPa) = 37.00654 41.89122 39.44888
#
# Velocity S-wave (km/s) = 4.08473 4.34596 4.21737
# Velocity P-wave (km/s) = 6.87600 7.54417 7.21782
#
# Compressibility (1/GPa) = 0.01801115
#
# Stress axis : x y z
#
# Youngs Moduli (GPa) = 72.10261 97.33930 97.27260
#
# Poissons Ratio (x) = 0.16357 0.28357
# Poissons Ratio (y) = 0.12116 0.35117
# Poissons Ratio (z) = 0.21020 0.35141
#
# Static dielectric constant tensor:
#      x y z
#    x 4.080590 -0.087230 -0.163160 
#    y -0.087230 4.130810 -0.142590 
#    z -0.163160 -0.142590 4.383920 
# 
# 
# High freq. dielectric constant tensor:
#      x y z
#    x 1.867710 -0.004160 -0.015160 
#    y -0.004160 1.873860 -0.007430 
#    z -0.015160 -0.007430 1.895630 
# 
# From -- ./inp_files/398884.got.cif
#   From: 2010.06.25/outbox.cif.g09.slc.cpg/sg2_200_cif.got.tgz:398884.got - 2010.06.27 13:26:56.
