data_PCOD8030529
_publ_section_title
;
Structure prediction by ZEFSAII (Michael W. Deem and Ramdas Pophale) SiO2 
 PCOD8030529
Probable space group: P -1
;
_chemical_formula_sum "Si O2"
_cell_formula_units_Z 12
_cell_length_a 9.715267
_cell_length_b 11.649460
_cell_length_c 14.479322
_cell_angle_alpha 152.388277
_cell_angle_beta 52.616059
_cell_angle_gamma 136.525278
_cell_volume 519.255892
_symmetry_space_group_name_H-M "P -1"
_symmetry_group_IT_number 2
_symmetry_cell_setting 'triclinic'
loop_
_space_group_symop_operation_xyz
x,y,z
-x,-y,-z
loop_
_atom_site_type_symbol
_atom_site_label
_atom_site_fract_x
_atom_site_fract_y
_atom_site_fract_z
Si Si1 0.112811 0.285687 0.214513
Si Si2 0.092659 0.754064 0.433126
Si Si3 0.355244 0.696670 0.153374
Si Si4 0.640081 0.409257 0.322884
Si Si5 0.504181 0.753792 0.936691
Si Si6 0.771107 0.926598 0.226232
O O1 0.129318 0.550698 0.341814
O O2 0.333838 0.345554 0.189742
O O3 0.974363 0.207688 0.306915
O O4 0.000000 0.000000 0.000000
O O5 0.204280 0.802219 0.323438
O O6 0.863174 0.649691 0.432005
O O7 0.203532 0.054429 0.658902
O O8 0.575305 0.928756 0.269101
O O9 0.353321 0.658609 0.017132
O O10 0.263799 0.380676 0.012077
O O11 0.500000 0.500000 0.500000
O O12 0.616974 0.407411 0.220644
O O13 0.606205 0.098574 0.140387
#
# Coordination Sequence:
#
# PCOD8030529 Si02
#       6
#     2   2   2   2   2   2
#     4  12  19  41  69  94 123 160 213 261 304 360
#     4  12  24  40  66  96 127 166 211 258 311 372
#     4  11  22  40  61  93 132 162 204 259 319 370
#     4  11  25  45  65  90 125 167 214 256 307 378
#     4  11  24  43  67  92 126 167 205 260 317 368
#     4  11  22  37  63  97 130 162 204 262 314 367
#
# _framework density 23.109991999999998
#
# number of rings (size 3 to 8) (size 9 to 14) (size 15 to 20)
#    0.000    0.667    5.000    3.000    0.000    4.667 
#    0.000    1.667    0.000    0.000    0.000    0.000 
#    0.000    0.000    0.000    0.000    0.000    0.000 
#
# Total GULP energy -148748.229747 kJ/mol
# GULP energy per Si atom -12395.685812 kJ/mol
# Density = 2.305739 g / cm^3
# Si number density = 23.109992 Si / 1000 Ang^3
#
#
#
# Elastic Constant Matrix: (Units=GPa)
#
#
# Indices 1 2 3 4 5 6 
#
# 1 125.5676 41.1501 43.2314 -20.4430 16.9121 16.9251
# 2 41.1501 116.0324 33.5604 -45.4389 7.1119 7.5238
# 3 43.2314 33.5604 90.4971 -27.6966 28.1433 18.7763
# 4 -20.4430 -45.4389 -27.6966 40.7786 -3.1221 -6.6327
# 5 16.9121 7.1119 28.1433 -3.1221 36.4908 -9.7658
# 6 16.9251 7.5238 18.7763 -6.6327 -9.7658 25.8997
#
#
#
# Elastic Compliance Matrix: (Units=1/GPa)
#
#
# Indices 1 2 3 4 5 6 
#
# 1 0.011085 -0.002714 -0.000300 0.000414 -0.006654 -0.008641
# 2 -0.002714 0.016064 0.000589 0.017017 -0.000660 0.000789
# 3 -0.000300 0.000589 0.031651 0.014544 -0.031454 -0.031057
# 4 0.000414 0.017017 0.014544 0.051461 -0.012248 -0.007197
# 5 -0.006654 -0.000660 -0.031454 -0.012248 0.067074 0.049497
# 6 -0.008641 0.000789 -0.031057 -0.007197 0.049497 0.083363
#
#
# Mechanical properties :
#
#
# Convention : Reuss Voigt Hill
#
# Bulk Modulus (GPa) = 18.53593 63.10897 40.82245
# Shear Modulus (GPa) = 17.63470 34.91082 26.27276
#
# Velocity S-wave (km/s) = 2.76538 3.89091 3.37539
# Velocity P-wave (km/s) = 4.27020 6.89586 5.73531
#
# Compressibility (1/GPa) = 0.05394928
#
# Stress axis : x y z
#
# Youngs Moduli (GPa) = 90.21280 62.25279 31.59421
#
# Poissons Ratio (x) = 0.16896 0.00948
# Poissons Ratio (y) = 0.24485 -0.01860
# Poissons Ratio (z) = 0.02706 -0.03665
#
# Static dielectric constant tensor:
#      x y z
#    x 3.990720 0.006340 0.316550 
#    y 0.006340 5.541940 0.749840 
#    z 0.316550 0.749840 4.794940 
# 
# 
# High freq. dielectric constant tensor:
#      x y z
#    x 1.897080 0.000700 0.014010 
#    y 0.000700 1.917130 -0.014620 
#    z 0.014010 -0.014620 1.931090 
# 
# From -- ./inp_files/160423.got.cif
#   From: 2010.06.25/outbox.cif.g09.slc.cpg/sg2_81_cif.got.tgz:160423.got - 2010.06.27 13:26:56.
