data_PCOD8030637
_publ_section_title
;
Structure prediction by ZEFSAII (Michael W. Deem and Ramdas Pophale) SiO2 
 PCOD8030637
Probable space group: P -1
;
_chemical_formula_sum "Si O2"
_cell_formula_units_Z 14
_cell_length_a 15.502631
_cell_length_b 5.054900
_cell_length_c 23.526433
_cell_angle_alpha 83.280523
_cell_angle_beta 161.767692
_cell_angle_gamma 92.779542
_cell_volume 561.094001
_symmetry_space_group_name_H-M "P -1"
_symmetry_group_IT_number 2
_symmetry_cell_setting 'triclinic'
loop_
_space_group_symop_operation_xyz
x,y,z
-x,-y,-z
loop_
_atom_site_type_symbol
_atom_site_label
_atom_site_fract_x
_atom_site_fract_y
_atom_site_fract_z
Si Si1 0.887005 0.048916 0.581458
Si Si2 0.007364 0.174629 0.833050
Si Si3 0.427000 0.466663 0.227050
Si Si4 0.546093 0.175973 0.470616
Si Si5 0.746552 0.525393 0.197227
Si Si6 0.372526 0.614085 0.066735
Si Si7 0.157348 0.657140 0.161315
O O1 0.701893 0.231142 0.412595
O O2 0.683104 0.002078 0.506613
O O3 0.119036 0.219192 0.743700
O O4 0.024392 0.754958 0.650425
O O5 0.785139 0.328439 0.643410
O O6 0.860984 0.119172 0.804811
O O7 0.241800 0.347871 0.986685
O O8 0.150819 0.883767 0.904271
O O9 0.469889 0.633268 0.192937
O O10 0.373979 0.672476 0.244252
O O11 0.153878 0.328820 0.058349
O O12 0.262241 0.378641 0.269602
O O13 0.500000 0.000000 0.500000
O O14 0.635825 0.581888 0.190543
O O15 0.500000 0.500000 0.000000
#
# Coordination Sequence:
#
# PCOD8030637 Si02
#       7
#     2   2   2   2   2   2   2
#     4  11  26  43  68  96 131 168 210 269 317 382
#     4  11  22  39  64  98 129 168 216 263 320 377
#     4   9  21  42  62  95 130 170 217 254 319 382
#     4  11  22  40  66  99 132 168 213 261 323 386
#     4  12  25  46  69  96 128 167 216 270 325 371
#     4  11  24  42  68  92 129 174 216 268 314 378
#     4   9  20  38  63  92 133 172 207 265 316 380
#
# _framework density 24.951256000000001
#
# number of rings (size 3 to 8) (size 9 to 14) (size 15 to 20)
#    0.000    1.429    0.000    5.143    0.000    7.429 
#    0.000    1.429    0.000    0.000    0.000    0.000 
#    0.000    0.000    0.000    0.000    0.000    0.000 
#
# Total GULP energy -173537.340351 kJ/mol
# GULP energy per Si atom -12395.524311 kJ/mol
# Density = 2.489447 g / cm^3
# Si number density = 24.951256 Si / 1000 Ang^3
#
#
#
# Elastic Constant Matrix: (Units=GPa)
#
#
# Indices 1 2 3 4 5 6 
#
# 1 131.4204 18.8505 31.5267 -9.5368 10.9528 -0.0513
# 2 18.8505 66.8851 4.2547 -23.0789 14.5623 0.9916
# 3 31.5267 4.2547 107.6131 -19.0117 0.1244 -1.4857
# 4 -9.5368 -23.0789 -19.0117 14.8477 -6.9633 5.3219
# 5 10.9528 14.5623 0.1244 -6.9633 47.3090 -3.4596
# 6 -0.0513 0.9916 -1.4857 5.3219 -3.4596 38.8649
#
#
#
# Elastic Compliance Matrix: (Units=1/GPa)
#
#
# Indices 1 2 3 4 5 6 
#
# 1 0.008700 -0.003915 -0.003419 -0.005862 -0.001616 0.000639
# 2 -0.003915 0.051612 0.017487 0.105216 -0.000645 -0.015119
# 3 -0.003419 0.017487 0.018822 0.052725 0.002629 -0.006717
# 4 -0.005862 0.105216 0.052725 0.315698 0.012167 -0.042823
# 5 -0.001616 -0.000645 0.002629 0.012167 0.023534 0.000544
# 6 0.000639 -0.015119 -0.006717 -0.042823 0.000544 0.031772
#
#
# Mechanical properties :
#
#
# Convention : Reuss Voigt Hill
#
# Bulk Modulus (GPa) = 10.05635 46.13137 28.09386
# Shear Modulus (GPa) = 10.79962 36.95677 23.87819
#
# Velocity S-wave (km/s) = 2.08271 3.85276 3.09689
# Velocity P-wave (km/s) = 3.13412 6.19035 4.90628
#
# Compressibility (1/GPa) = 0.09943968
#
# Stress axis : x y z
#
# Youngs Moduli (GPa) = 114.93633 19.37543 53.12959
#
# Poissons Ratio (x) = 0.07585 0.18165
# Poissons Ratio (y) = 0.44995 -0.92905
# Poissons Ratio (z) = 0.39297 -0.33881
#
# Static dielectric constant tensor:
#      x y z
#    x 5.163550 -0.319460 -0.181760 
#    y -0.319460 4.200870 0.268190 
#    z -0.181760 0.268190 4.918850 
# 
# 
# High freq. dielectric constant tensor:
#      x y z
#    x 2.011070 -0.012460 -0.002850 
#    y -0.012460 1.968400 0.000070 
#    z -0.002850 0.000070 2.004660 
# 
# From -- ./inp_files/611238.got.cif
#   From: 2010.06.25/outbox.cif.g09.slc.cpg/sg2_306_cif.got.tgz:611238.got - 2010.06.27 13:26:56.
