data_PCOD8030103
_publ_section_title
;
Structure prediction by ZEFSAII (Michael W. Deem and Ramdas Pophale) SiO2 
 PCOD8030103
Probable space group: P -1
;
_chemical_formula_sum "Si O2"
_cell_formula_units_Z 16
_cell_length_a 11.548428
_cell_length_b 8.631418
_cell_length_c 14.544916
_cell_angle_alpha 113.915202
_cell_angle_beta 96.537940
_cell_angle_gamma 39.459730
_cell_volume 791.290608
_symmetry_space_group_name_H-M "P -1"
_symmetry_group_IT_number 2
_symmetry_cell_setting 'triclinic'
loop_
_space_group_symop_operation_xyz
x,y,z
-x,-y,-z
loop_
_atom_site_type_symbol
_atom_site_label
_atom_site_fract_x
_atom_site_fract_y
_atom_site_fract_z
Si Si1 0.418329 0.022462 0.128770
Si Si2 0.814159 0.418034 0.669157
Si Si3 0.064654 0.242652 0.481895
Si Si4 0.924619 0.051923 0.736262
Si Si5 0.419139 0.631696 0.423773
Si Si6 0.272372 0.772847 0.799145
Si Si7 0.546707 0.362798 0.874872
Si Si8 0.225913 0.203038 0.962631
O O1 0.398344 0.896014 0.169896
O O2 0.641851 0.797548 0.065999
O O3 0.350378 0.267443 0.233860
O O4 0.281216 0.128017 0.056876
O O5 0.938343 0.212025 0.718688
O O6 0.725334 0.351766 0.604945
O O7 0.939641 0.361116 0.589948
O O8 0.000000 0.500000 0.500000
O O9 0.012589 0.176706 0.377914
O O10 0.289131 0.953763 0.468354
O O11 0.710914 0.271884 0.811273
O O12 0.066444 0.919802 0.802570
O O13 0.500000 0.500000 0.500000
O O14 0.601650 0.424209 0.324507
O O15 0.351117 0.595722 0.855321
O O16 0.269951 0.977530 0.860196
O O17 0.500000 0.500000 0.000000
O O18 0.000000 0.500000 0.000000
#
# Coordination Sequence:
#
# PCOD8030103 Si02
#       8
#     2   2   2   2   2   2   2   2
#     4  11  24  42  64  96 134 173 225 281 334 394
#     4  11  21  42  69  93 134 174 224 280 334 400
#     4  11  23  43  70 100 140 179 222 287 348 404
#     4  11  24  44  68  98 133 181 228 273 339 411
#     4  11  22  42  68 100 130 177 230 276 339 410
#     4  12  23  44  68  97 135 175 227 275 335 407
#     4  12  25  43  66  94 142 182 217 279 342 395
#     4  11  24  41  68  96 130 177 229 276 332 401
#
# _framework density 20.220132
#
# number of rings (size 3 to 8) (size 9 to 14) (size 15 to 20)
#    0.000    0.750    5.000    4.500    3.500    1.500 
#    2.250    1.250    0.000    0.000    0.000    0.000 
#    0.000    0.000    0.000    0.000    0.000    0.000 
#
# Total GULP energy -198339.472159 kJ/mol
# GULP energy per Si atom -12396.217010 kJ/mol
# Density = 2.017411 g / cm^3
# Si number density = 20.220132 Si / 1000 Ang^3
#
#
#
# Elastic Constant Matrix: (Units=GPa)
#
#
# Indices 1 2 3 4 5 6 
#
# 1 81.3659 56.6297 28.2924 -1.6150 -4.7666 5.5262
# 2 56.6297 157.2631 52.8086 -6.2465 8.6151 1.8857
# 3 28.2924 52.8086 101.4061 -3.4139 -7.4516 5.5996
# 4 -1.6150 -6.2465 -3.4139 39.4075 0.2228 5.6463
# 5 -4.7666 8.6151 -7.4516 0.2228 29.0403 -2.6158
# 6 5.5262 1.8857 5.5996 5.6463 -2.6158 46.1976
#
#
#
# Elastic Compliance Matrix: (Units=1/GPa)
#
#
# Indices 1 2 3 4 5 6 
#
# 1 0.017249 -0.005986 -0.001320 -0.000179 0.004143 -0.001403
# 2 -0.005986 0.010157 -0.003973 0.000994 -0.004988 0.000379
# 3 -0.001320 -0.003973 0.012677 0.000542 0.004116 -0.001050
# 4 -0.000179 0.000994 0.000542 0.026051 -0.000683 -0.003307
# 5 0.004143 -0.004988 0.004116 -0.000683 0.037785 0.001432
# 6 -0.001403 0.000379 -0.001050 -0.003307 0.001432 0.022411
#
#
# Mechanical properties :
#
#
# Convention : Reuss Voigt Hill
#
# Bulk Modulus (GPa) = 57.05670 68.38849 62.72260
# Shear Modulus (GPa) = 32.31452 36.41606 34.36529
#
# Velocity S-wave (km/s) = 4.00201 4.24840 4.12704
# Velocity P-wave (km/s) = 7.04512 7.61319 7.33466
#
# Compressibility (1/GPa) = 0.01752642
#
# Stress axis : x y z
#
# Youngs Moduli (GPa) = 57.97336 98.45865 78.88120
#
# Poissons Ratio (x) = 0.58933 0.10409
# Poissons Ratio (y) = 0.34700 0.31341
# Poissons Ratio (z) = 0.07650 0.39120
#
# Static dielectric constant tensor:
#      x y z
#    x 3.743040 0.386510 -0.079950 
#    y 0.386510 5.187980 -0.295490 
#    z -0.079950 -0.295490 3.895590 
# 
# 
# High freq. dielectric constant tensor:
#      x y z
#    x 1.778550 0.000840 -0.003330 
#    y 0.000840 1.801850 -0.000910 
#    z -0.003330 -0.000910 1.805940 
# 
# From -- ./inp_files/516106.got.cif
#   From: 2010.06.25/outbox.cif.g09.slc.cpg/sg2_259_cif.got.tgz:516106.got - 2010.06.27 13:26:56.
