data_PCOD8030860
_publ_section_title
;
Structure prediction by ZEFSAII (Michael W. Deem and Ramdas Pophale) SiO2 
 PCOD8030860
Probable space group: P -1
;
_chemical_formula_sum "Si O2"
_cell_formula_units_Z 16
_cell_length_a 10.379437
_cell_length_b 17.524131
_cell_length_c 8.869575
_cell_angle_alpha 103.024428
_cell_angle_beta 135.610804
_cell_angle_gamma 49.443618
_cell_volume 765.627162
_symmetry_space_group_name_H-M "P -1"
_symmetry_group_IT_number 2
_symmetry_cell_setting 'triclinic'
loop_
_space_group_symop_operation_xyz
x,y,z
-x,-y,-z
loop_
_atom_site_type_symbol
_atom_site_label
_atom_site_fract_x
_atom_site_fract_y
_atom_site_fract_z
Si Si1 0.690230 0.227632 0.492357
Si Si2 0.951680 0.114567 0.360135
Si Si3 0.189473 0.282466 0.060875
Si Si4 0.263178 0.567975 0.038802
Si Si5 0.745367 0.383399 0.522688
Si Si6 0.947339 0.969447 0.096223
Si Si7 0.464661 0.030219 0.159689
Si Si8 0.663834 0.346924 0.133072
O O1 0.689532 0.321227 0.542996
O O2 0.788356 0.161941 0.704140
O O3 0.901333 0.132481 0.503998
O O4 0.404528 0.284410 0.228860
O O5 0.737914 0.233255 0.144467
O O6 0.898702 0.044589 0.224166
O O7 0.254503 0.048522 0.555810
O O8 0.036104 0.345616 0.117318
O O9 0.982753 0.359124 0.785521
O O10 0.310472 0.159159 0.102823
O O11 0.465390 0.516966 0.330260
O O12 0.357653 0.461204 0.976553
O O13 0.278857 0.638738 0.977551
O O14 0.841096 0.332830 0.408711
O O15 0.696130 0.987727 0.891881
O O16 0.000000 0.000000 0.000000
O O17 0.500000 0.000000 0.000000
#
# Coordination Sequence:
#
# PCOD8030860 Si02
#       8
#     2   2   2   2   2   2   2   2
#     4  11  22  41  61  91 126 164 214 258 308 383
#     4  11  22  42  68  86 129 174 210 253 318 385
#     4  12  22  35  69  91 121 164 211 260 316 360
#     4   9  20  39  62  93 121 161 209 263 312 373
#     4   9  19  40  62  88 119 165 205 256 303 378
#     4  12  26  40  60  99 133 160 211 270 311 372
#     4  12  23  41  68  92 127 177 210 250 320 389
#     4   8  19  39  65  87 122 164 206 253 320 374
#
# _framework density 20.897901999999998
#
# number of rings (size 3 to 8) (size 9 to 14) (size 15 to 20)
#    0.750    0.750    3.750    2.250    1.750    2.000 
#    0.000    0.000    0.000    8.250    0.000    0.000 
#    0.000    0.000    0.000    0.000    0.000    0.000 
#
# Total GULP energy -198271.879189 kJ/mol
# GULP energy per Si atom -12391.992449 kJ/mol
# Density = 2.085034 g / cm^3
# Si number density = 20.897902 Si / 1000 Ang^3
#
#
#
# Elastic Constant Matrix: (Units=GPa)
#
#
# Indices 1 2 3 4 5 6 
#
# 1 103.2199 20.8107 49.7457 -14.8903 -0.9153 5.5168
# 2 20.8107 67.5507 30.2991 -18.5325 -1.4855 -1.2214
# 3 49.7457 30.2991 88.5454 -13.2167 14.1943 12.5863
# 4 -14.8903 -18.5325 -13.2167 29.0171 9.1915 -1.6353
# 5 -0.9153 -1.4855 14.1943 9.1915 40.7453 -12.2313
# 6 5.5168 -1.2214 12.5863 -1.6353 -12.2313 27.4050
#
#
#
# Elastic Compliance Matrix: (Units=1/GPa)
#
#
# Indices 1 2 3 4 5 6 
#
# 1 0.014007 0.000375 -0.008625 0.002508 0.003649 0.002937
# 2 0.000375 0.020711 -0.007198 0.009555 0.002925 0.006029
# 3 -0.008625 -0.007198 0.024153 0.005824 -0.014993 -0.016021
# 4 0.002508 0.009555 0.005824 0.048748 -0.014520 -0.006326
# 5 0.003649 0.002925 -0.014993 -0.014520 0.040248 0.023379
# 6 0.002937 0.006029 -0.016021 -0.006326 0.023379 0.053582
#
#
# Mechanical properties :
#
#
# Convention : Reuss Voigt Hill
#
# Bulk Modulus (GPa) = 35.74639 51.22523 43.48581
# Shear Modulus (GPa) = 20.68943 29.99752 25.34348
#
# Velocity S-wave (km/s) = 3.14988 3.79282 3.48620
# Velocity P-wave (km/s) = 5.51102 6.61408 6.08758
#
# Compressibility (1/GPa) = 0.02797485
#
# Stress axis : x y z
#
# Youngs Moduli (GPa) = 71.39509 48.28296 41.40327
#
# Poissons Ratio (x) = -0.01812 0.35712
# Poissons Ratio (y) = -0.02679 0.29800
# Poissons Ratio (z) = 0.61581 0.34752
#
# Static dielectric constant tensor:
#      x y z
#    x 3.634960 -0.028310 -0.046680 
#    y -0.028310 3.853670 -0.213400 
#    z -0.046680 -0.213400 3.808920 
# 
# 
# High freq. dielectric constant tensor:
#      x y z
#    x 1.804660 -0.003460 -0.011200 
#    y -0.003460 1.827790 -0.017920 
#    z -0.011200 -0.017920 1.804630 
# 
# From -- ./inp_files/215205.got.cif
#   From: 2010.06.25/outbox.cif.g09.slc.cpg/sg2_108_cif.got.tgz:215205.got - 2010.06.27 13:26:56.
