data_PCOD8030870
_publ_section_title
;
Structure prediction by ZEFSAII (Michael W. Deem and Ramdas Pophale) SiO2 
 PCOD8030870
Probable space group: P -1
;
_chemical_formula_sum "Si O2"
_cell_formula_units_Z 16
_cell_length_a 15.633708
_cell_length_b 9.251266
_cell_length_c 9.657859
_cell_angle_alpha 106.937340
_cell_angle_beta 142.958360
_cell_angle_gamma 82.899061
_cell_volume 790.437699
_symmetry_space_group_name_H-M "P -1"
_symmetry_group_IT_number 2
_symmetry_cell_setting 'triclinic'
loop_
_space_group_symop_operation_xyz
x,y,z
-x,-y,-z
loop_
_atom_site_type_symbol
_atom_site_label
_atom_site_fract_x
_atom_site_fract_y
_atom_site_fract_z
Si Si1 0.082002 0.073868 0.497266
Si Si2 0.624247 0.953092 0.242069
Si Si3 0.350983 0.392645 0.759911
Si Si4 0.833480 0.397667 0.929195
Si Si5 0.098022 0.060865 0.016428
Si Si6 0.146750 0.391416 0.241477
Si Si7 0.637058 0.060740 0.595512
Si Si8 0.863348 0.566786 0.292875
O O1 0.217113 0.991143 0.607399
O O2 0.119382 0.251009 0.630509
O O3 0.000000 0.000000 0.500000
O O4 0.963807 0.049027 0.218017
O O5 0.619825 0.772599 0.202521
O O6 0.601818 0.033148 0.380770
O O7 0.500000 0.000000 0.000000
O O8 0.280576 0.381834 0.512889
O O9 0.258937 0.483502 0.765643
O O10 0.500000 0.500000 0.000000
O O11 0.804262 0.464855 0.758565
O O12 0.720966 0.238223 0.767303
O O13 0.808476 0.508709 0.053572
O O14 0.004157 0.391814 0.150762
O O15 0.102828 0.241027 0.045577
O O16 0.260807 0.051034 0.253957
O O17 0.000000 0.000000 0.000000
O O18 0.500000 0.000000 0.500000
O O19 0.000000 0.500000 0.500000
#
# Coordination Sequence:
#
# PCOD8030870 Si02
#       8
#     2   2   2   2   2   2   2   2
#     4  11  24  41  68 102 129 172 223 281 336 397
#     4  11  26  47  66  96 135 177 231 279 336 408
#     4  11  25  44  67  95 137 182 215 272 348 404
#     4  11  24  41  69 103 136 172 227 285 331 410
#     4  12  20  44  71  94 135 178 228 281 332 408
#     4  11  22  43  70 101 132 178 227 277 344 398
#     4  12  27  44  69 101 134 182 230 279 348 405
#     4  11  22  41  64 100 134 169 221 267 336 406
#
# _framework density 20.241949000000002
#
# number of rings (size 3 to 8) (size 9 to 14) (size 15 to 20)
#    0.000    0.750    5.000    2.250    5.250    2.000 
#    0.000    1.250    0.000    0.000    0.000    0.000 
#    0.000    0.000    0.000    0.000    0.000    0.000 
#
# Total GULP energy -198240.427158 kJ/mol
# GULP energy per Si atom -12390.026697 kJ/mol
# Density = 2.019588 g / cm^3
# Si number density = 20.241949 Si / 1000 Ang^3
#
#
#
# Elastic Constant Matrix: (Units=GPa)
#
#
# Indices 1 2 3 4 5 6 
#
# 1 156.4299 44.4510 66.1644 5.4791 0.5283 5.0152
# 2 44.4510 88.8406 45.1852 -2.4026 0.6686 -2.9717
# 3 66.1644 45.1852 137.9437 -5.2484 -6.7690 -1.8336
# 4 5.4791 -2.4026 -5.2484 43.4206 -5.2025 -0.2422
# 5 0.5283 0.6686 -6.7690 -5.2025 42.2778 6.8442
# 6 5.0152 -2.9717 -1.8336 -0.2422 6.8442 34.8119
#
#
#
# Elastic Compliance Matrix: (Units=1/GPa)
#
#
# Indices 1 2 3 4 5 6 
#
# 1 0.008721 -0.002727 -0.003405 -0.001740 -0.000571 -0.001568
# 2 -0.002727 0.014439 -0.003422 0.000627 -0.000929 0.001632
# 3 -0.003405 -0.003422 0.010165 0.001695 0.001872 0.000378
# 4 -0.001740 0.000627 0.001695 0.023877 0.003234 -0.000076
# 5 -0.000571 -0.000929 0.001872 0.003234 0.025153 -0.004821
# 6 -0.001568 0.001632 0.000378 -0.000076 -0.004821 0.030058
#
#
# Mechanical properties :
#
#
# Convention : Reuss Voigt Hill
#
# Bulk Modulus (GPa) = 70.33454 77.20170 73.76812
# Shear Modulus (GPa) = 36.69474 39.26297 37.97885
#
# Velocity S-wave (km/s) = 4.26233 4.40896 4.33626
# Velocity P-wave (km/s) = 7.68411 8.00880 7.84813
#
# Compressibility (1/GPa) = 0.01421777
#
# Stress axis : x y z
#
# Youngs Moduli (GPa) = 114.66893 69.25456 98.38010
#
# Poissons Ratio (x) = 0.18885 0.33496
# Poissons Ratio (y) = 0.31269 0.33665
# Poissons Ratio (z) = 0.39042 0.23698
#
# Static dielectric constant tensor:
#      x y z
#    x 4.058710 -0.157330 0.048860 
#    y -0.157330 3.903240 0.109690 
#    z 0.048860 0.109690 3.646870 
# 
# 
# High freq. dielectric constant tensor:
#      x y z
#    x 1.801320 -0.003460 -0.004900 
#    y -0.003460 1.796430 0.004910 
#    z -0.004900 0.004910 1.796900 
# 
# From -- ./inp_files/226666.got.cif
#   From: 2010.06.25/outbox.cif.g09.slc.cpg/sg2_114_cif.got.tgz:226666.got - 2010.06.27 13:26:56.
