data_PCOD8030423
_publ_section_title
;
Structure prediction by ZEFSAII (Michael W. Deem and Ramdas Pophale) SiO2 
 PCOD8030423
Probable space group: P -1
;
_chemical_formula_sum "Si O2"
_cell_formula_units_Z 16
_cell_length_a 11.359082
_cell_length_b 8.794596
_cell_length_c 8.873712
_cell_angle_alpha 102.742216
_cell_angle_beta 111.073735
_cell_angle_gamma 110.621501
_cell_volume 710.371125
_symmetry_space_group_name_H-M "P -1"
_symmetry_group_IT_number 2
_symmetry_cell_setting 'triclinic'
loop_
_space_group_symop_operation_xyz
x,y,z
-x,-y,-z
loop_
_atom_site_type_symbol
_atom_site_label
_atom_site_fract_x
_atom_site_fract_y
_atom_site_fract_z
Si Si1 0.860771 0.468208 0.337277
Si Si2 0.122038 0.171587 0.673416
Si Si3 0.146025 0.224891 0.046129
Si Si4 0.720281 0.968401 0.774150
Si Si5 0.921414 0.332488 0.031715
Si Si6 0.648308 0.876249 0.387181
Si Si7 0.587386 0.442727 0.645123
Si Si8 0.392200 0.788428 0.631464
O O1 0.861200 0.654504 0.365543
O O2 0.870046 0.390572 0.166535
O O3 0.709014 0.321142 0.301886
O O4 0.000000 0.500000 0.500000
O O5 0.094818 0.184046 0.840237
O O6 0.264109 0.152352 0.712836
O O7 0.000000 0.000000 0.500000
O O8 0.161292 0.062444 0.087616
O O9 0.300034 0.394975 0.171484
O O10 0.032677 0.257639 0.098225
O O11 0.726835 0.915455 0.593502
O O12 0.562014 0.855467 0.749900
O O13 0.776567 0.178981 0.855238
O O14 0.000000 0.500000 0.000000
O O15 0.506231 0.690982 0.296662
O O16 0.620083 0.037293 0.368792
O O17 0.500000 0.500000 0.500000
O O18 0.661255 0.345601 0.564062
#
# Coordination Sequence:
#
# PCOD8030423 Si02
#       8
#     2   2   2   2   2   2   2   2
#     4  12  28  47  75 104 145 193 239 307 362 432
#     4  12  28  47  70 106 147 189 243 300 363 427
#     4  12  26  47  75 104 143 189 243 296 363 432
#     4  11  26  47  76 105 143 192 241 295 364 435
#     4  12  28  48  70 105 142 188 247 301 359 435
#     4  11  25  43  74 105 150 190 235 298 362 431
#     4  11  21  45  74 109 142 187 239 299 358 437
#     4  11  25  46  74 110 147 190 240 295 371 428
#
# _framework density 22.523437999999999
#
# number of rings (size 3 to 8) (size 9 to 14) (size 15 to 20)
#    0.000    0.500    3.750    4.875   10.500    1.000 
#    0.000    0.000    0.000    0.000    0.000    0.000 
#    0.000    0.000    0.000    0.000    0.000    0.000 
#
# Total GULP energy -198375.939326 kJ/mol
# GULP energy per Si atom -12398.496208 kJ/mol
# Density = 2.247217 g / cm^3
# Si number density = 22.523438 Si / 1000 Ang^3
#
#
#
# Elastic Constant Matrix: (Units=GPa)
#
#
# Indices 1 2 3 4 5 6 
#
# 1 111.3506 31.0577 7.5708 6.5361 -14.5966 -7.7250
# 2 31.0577 140.1307 17.6200 20.3885 5.6797 -2.6414
# 3 7.5708 17.6200 80.5707 28.9463 4.0606 4.7503
# 4 6.5361 20.3885 28.9463 40.3058 -3.2500 5.9566
# 5 -14.5966 5.6797 4.0606 -3.2500 32.3768 -1.4703
# 6 -7.7250 -2.6414 4.7503 5.9566 -1.4703 47.4225
#
#
#
# Elastic Compliance Matrix: (Units=1/GPa)
#
#
# Indices 1 2 3 4 5 6 
#
# 1 0.010546 -0.002460 -0.000980 0.000411 0.005432 0.001796
# 2 -0.002460 0.008419 0.000014 -0.004185 -0.002985 0.000500
# 3 -0.000980 0.000014 0.017191 -0.012442 -0.003869 -0.000438
# 4 0.000411 -0.004185 -0.012442 0.036777 0.006019 -0.003353
# 5 0.005432 -0.002985 -0.003869 0.006019 0.035014 0.001436
# 6 0.001796 0.000500 -0.000438 -0.003353 0.001436 0.021917
#
#
# Mechanical properties :
#
#
# Convention : Reuss Voigt Hill
#
# Bulk Modulus (GPa) = 34.12479 49.39434 41.75956
# Shear Modulus (GPa) = 34.13367 42.40791 38.27079
#
# Velocity S-wave (km/s) = 3.89713 4.34387 4.12655
# Velocity P-wave (km/s) = 5.95263 6.86562 6.42536
#
# Compressibility (1/GPa) = 0.02930421
#
# Stress axis : x y z
#
# Youngs Moduli (GPa) = 94.82286 118.78031 58.16951
#
# Poissons Ratio (x) = 0.29222 0.05701
# Poissons Ratio (y) = 0.23328 -0.00084
# Poissons Ratio (z) = 0.09294 -0.00171
#
# Static dielectric constant tensor:
#      x y z
#    x 4.204100 -0.047120 0.267160 
#    y -0.047120 4.495650 0.419920 
#    z 0.267160 0.419920 3.534580 
# 
# 
# High freq. dielectric constant tensor:
#      x y z
#    x 1.900170 -0.001580 -0.000190 
#    y -0.001580 1.913950 0.023750 
#    z -0.000190 0.023750 1.878020 
# 
# From -- ./inp_files/245146.got.cif
#   From: 2010.06.25/outbox.cif.g09.slc.cpg/sg2_123_cif.got.tgz:245146.got - 2010.06.27 13:26:56.
