data_PCOD8030699
_publ_section_title
;
Structure prediction by ZEFSAII (Michael W. Deem and Ramdas Pophale) SiO2 
 PCOD8030699
Probable space group: P -1
;
_chemical_formula_sum "Si O2"
_cell_formula_units_Z 14
_cell_length_a 8.335579
_cell_length_b 12.570385
_cell_length_c 10.982411
_cell_angle_alpha 67.964477
_cell_angle_beta 37.708101
_cell_angle_gamma 63.152432
_cell_volume 627.641034
_symmetry_space_group_name_H-M "P -1"
_symmetry_group_IT_number 2
_symmetry_cell_setting 'triclinic'
loop_
_space_group_symop_operation_xyz
x,y,z
-x,-y,-z
loop_
_atom_site_type_symbol
_atom_site_label
_atom_site_fract_x
_atom_site_fract_y
_atom_site_fract_z
Si Si1 0.138027 0.606323 0.388398
Si Si2 0.265386 0.269160 0.224739
Si Si3 0.660200 0.987083 0.731546
Si Si4 0.067476 0.002523 0.668425
Si Si5 0.131240 0.172067 0.005020
Si Si6 0.117089 0.787430 0.120479
Si Si7 0.255468 0.399779 0.941928
O O1 0.127258 0.667166 0.238372
O O2 0.454423 0.568122 0.264545
O O3 0.000000 0.500000 0.500000
O O4 0.950427 0.701149 0.550480
O O5 0.230206 0.150646 0.230984
O O6 0.576248 0.224878 0.104028
O O7 0.211185 0.383555 0.119310
O O8 0.837391 0.052009 0.680342
O O9 0.666636 0.004757 0.572124
O O10 0.350055 0.042693 0.931812
O O11 0.022535 0.097189 0.764202
O O12 0.099833 0.867443 0.760442
O O13 0.259282 0.273323 0.935944
O O14 0.051050 0.213072 0.899496
O O15 0.000000 0.500000 0.000000
#
# Coordination Sequence:
#
# PCOD8030699 Si02
#       7
#     2   2   2   2   2   2   2
#     4  11  27  49  72  98 136 187 236 281 344 412
#     4  11  23  45  73  96 137 184 228 282 343 409
#     4  11  22  39  70  99 136 181 227 280 339 413
#     4  11  22  40  64 100 139 179 225 273 346 411
#     4  12  25  41  67 103 141 179 222 288 345 404
#     4  11  25  42  67 102 142 180 228 281 347 410
#     4  11  28  48  71 102 137 181 238 284 340 410
#
# _framework density 22.305744000000001
#
# number of rings (size 3 to 8) (size 9 to 14) (size 15 to 20)
#    0.000    0.857    4.286    2.571    6.000    3.429 
#    0.000    0.000    0.000    0.000    0.000    0.000 
#    0.000    0.000    0.000    0.000    0.000    0.000 
#
# Total GULP energy -173471.396895 kJ/mol
# GULP energy per Si atom -12390.814064 kJ/mol
# Density = 2.225497 g / cm^3
# Si number density = 22.305744 Si / 1000 Ang^3
#
#
#
# Elastic Constant Matrix: (Units=GPa)
#
#
# Indices 1 2 3 4 5 6 
#
# 1 82.1613 30.9524 17.9756 -5.5732 0.9746 2.8814
# 2 30.9524 106.3076 32.1594 -10.5631 -12.4136 0.2222
# 3 17.9756 32.1594 90.8384 -4.7922 -0.0866 5.5181
# 4 -5.5732 -10.5631 -4.7922 35.0914 1.5143 -6.6710
# 5 0.9746 -12.4136 -0.0866 1.5143 27.4102 -7.8331
# 6 2.8814 0.2222 5.5181 -6.6710 -7.8331 29.6678
#
#
#
# Elastic Compliance Matrix: (Units=1/GPa)
#
#
# Indices 1 2 3 4 5 6 
#
# 1 0.014083 -0.003987 -0.001239 0.000665 -0.002835 -0.001706
# 2 -0.003987 0.012798 -0.003784 0.003070 0.006747 0.003467
# 3 -0.001239 -0.003784 0.012764 -0.000035 -0.002451 -0.002880
# 4 0.000665 0.003070 -0.000035 0.030837 0.001754 0.007316
# 5 -0.002835 0.006747 -0.002451 0.001754 0.043093 0.012453
# 6 -0.001706 0.003467 -0.002880 0.007316 0.012453 0.039315
#
#
# Mechanical properties :
#
#
# Convention : Reuss Voigt Hill
#
# Bulk Modulus (GPa) = 46.24354 49.05359 47.64856
# Shear Modulus (GPa) = 28.07114 31.64852 29.85983
#
# Velocity S-wave (km/s) = 3.55134 3.77085 3.66274
# Velocity P-wave (km/s) = 6.13129 6.40299 6.26861
#
# Compressibility (1/GPa) = 0.02162464
#
# Stress axis : x y z
#
# Youngs Moduli (GPa) = 71.00848 78.13817 78.34361
#
# Poissons Ratio (x) = 0.31152 0.09709
# Poissons Ratio (y) = 0.28309 0.29646
# Poissons Ratio (z) = 0.08800 0.29568
#
# Static dielectric constant tensor:
#      x y z
#    x 3.928180 0.042960 0.070090 
#    y 0.042960 3.864550 -0.128210 
#    z 0.070090 -0.128210 4.313410 
# 
# 
# High freq. dielectric constant tensor:
#      x y z
#    x 1.873990 0.006340 0.007940 
#    y 0.006340 1.869170 -0.013910 
#    z 0.007940 -0.013910 1.891890 
# 
# From -- ./inp_files/389642.got.cif
#   From: 2010.06.25/outbox.cif.g09.slc.cpg/sg2_195_cif.got.tgz:389642.got - 2010.06.27 13:26:56.
