data_PCOD8030176
_publ_section_title
;
Structure prediction by ZEFSAII (Michael W. Deem and Ramdas Pophale) SiO2 
 PCOD8030176
Probable space group: P -1
;
_chemical_formula_sum "Si O2"
_cell_formula_units_Z 14
_cell_length_a 30.501661
_cell_length_b 12.092020
_cell_length_c 14.317683
_cell_angle_alpha 150.137690
_cell_angle_beta 18.396893
_cell_angle_gamma 158.496933
_cell_volume 605.293182
_symmetry_space_group_name_H-M "P -1"
_symmetry_group_IT_number 2
_symmetry_cell_setting 'triclinic'
loop_
_space_group_symop_operation_xyz
x,y,z
-x,-y,-z
loop_
_atom_site_type_symbol
_atom_site_label
_atom_site_fract_x
_atom_site_fract_y
_atom_site_fract_z
Si Si1 0.216358 0.526142 0.418770
Si Si2 0.344806 0.013797 0.638929
Si Si3 0.757496 0.605463 0.279079
Si Si4 0.900393 0.832716 0.785143
Si Si5 0.708514 0.775605 0.815815
Si Si6 0.971069 0.717762 0.747872
Si Si7 0.181273 0.688585 0.915103
O O1 0.206311 0.465513 0.284166
O O2 0.243545 0.317504 0.258479
O O3 0.023729 0.428491 0.773279
O O4 0.375375 0.882309 0.390760
O O5 0.531693 0.357229 0.539121
O O6 0.176618 0.004336 0.953806
O O7 0.287310 0.785221 0.672183
O O8 0.849213 0.582059 0.988495
O O9 0.824716 0.557859 0.203652
O O10 0.827945 0.937268 0.386026
O O11 0.859008 0.719053 0.892042
O O12 0.127560 0.081148 0.488065
O O13 0.699511 0.021641 0.045015
O O14 0.500000 0.500000 0.000000
O O15 0.000000 0.500000 0.500000
#
# Coordination Sequence:
#
# PCOD8030176 Si02
#       7
#     2   2   2   2   2   2   2
#     4  11  22  40  62 102 143 176 222 266 340 418
#     4  12  24  41  70 105 143 174 221 283 351 407
#     4  11  27  45  69 106 131 180 242 277 332 412
#     4  11  24  43  68  96 137 185 222 280 347 395
#     4  11  22  37  64 100 141 177 224 268 333 416
#     4  11  26  50  73  91 134 185 236 289 333 393
#     4  11  21  43  66 100 148 177 213 284 347 403
#
# _framework density 23.129286
#
# number of rings (size 3 to 8) (size 9 to 14) (size 15 to 20)
#    0.000    0.857    2.857    5.143    4.000    2.857 
#    0.000    1.429    0.000    0.000    0.000    0.000 
#    0.000    0.000    0.000    0.000    0.000    0.000 
#
# Total GULP energy -173621.732286 kJ/mol
# GULP energy per Si atom -12401.552306 kJ/mol
# Density = 2.307664 g / cm^3
# Si number density = 23.129286 Si / 1000 Ang^3
#
#
#
# Elastic Constant Matrix: (Units=GPa)
#
#
# Indices 1 2 3 4 5 6 
#
# 1 122.7118 39.3304 30.8352 -4.7143 5.5474 -0.9523
# 2 39.3304 100.3153 31.2790 15.5243 3.7906 2.1669
# 3 30.8352 31.2790 58.0407 7.3289 -4.9062 -5.7158
# 4 -4.7143 15.5243 7.3289 35.2557 11.0248 2.9201
# 5 5.5474 3.7906 -4.9062 11.0248 30.0191 5.7026
# 6 -0.9523 2.1669 -5.7158 2.9201 5.7026 28.7796
#
#
#
# Elastic Compliance Matrix: (Units=1/GPa)
#
#
# Indices 1 2 3 4 5 6 
#
# 1 0.010893 -0.003367 -0.005024 0.005353 -0.004363 -0.000062
# 2 -0.003367 0.013727 -0.005058 -0.005420 0.000371 -0.001673
# 3 -0.005024 -0.005058 0.024399 -0.006049 0.006960 0.004295
# 4 0.005353 -0.005420 -0.006049 0.037466 -0.014770 -0.001491
# 5 -0.004363 0.000371 0.006960 -0.014770 0.041688 -0.005552
# 6 -0.000062 -0.001673 0.004295 -0.001491 -0.005552 0.036975
#
#
# Mechanical properties :
#
#
# Convention : Reuss Voigt Hill
#
# Bulk Modulus (GPa) = 45.20296 53.77300 49.48798
# Shear Modulus (GPa) = 25.07291 30.78575 27.92933
#
# Velocity S-wave (km/s) = 3.29604 3.65229 3.47872
# Velocity P-wave (km/s) = 5.83705 6.40975 6.13009
#
# Compressibility (1/GPa) = 0.02212244
#
# Stress axis : x y z
#
# Youngs Moduli (GPa) = 91.80271 72.85178 40.98512
#
# Poissons Ratio (x) = 0.24526 0.20590
# Poissons Ratio (y) = 0.30905 0.20730
# Poissons Ratio (z) = 0.46119 0.36847
#
# Static dielectric constant tensor:
#      x y z
#    x 4.372780 0.184500 0.012440 
#    y 0.184500 4.518940 0.142560 
#    z 0.012440 0.142560 3.958820 
# 
# 
# High freq. dielectric constant tensor:
#      x y z
#    x 1.919210 0.025490 -0.005250 
#    y 0.025490 1.925440 0.017410 
#    z -0.005250 0.017410 1.896710 
# 
# From -- ./inp_files/270843.got.cif
#   From: 2010.06.25/outbox.cif.g09.slc.cpg/sg2_136_cif.got.tgz:270843.got - 2010.06.27 13:26:56.
