data_PCOD8030464
_publ_section_title
;
Structure prediction by ZEFSAII (Michael W. Deem and Ramdas Pophale) SiO2 
 PCOD8030464
Probable space group: P -1
;
_chemical_formula_sum "Si O2"
_cell_formula_units_Z 14
_cell_length_a 9.742270
_cell_length_b 17.520338
_cell_length_c 21.460454
_cell_angle_alpha 19.538109
_cell_angle_beta 145.112290
_cell_angle_gamma 133.964479
_cell_volume 638.422011
_symmetry_space_group_name_H-M "P -1"
_symmetry_group_IT_number 2
_symmetry_cell_setting 'triclinic'
loop_
_space_group_symop_operation_xyz
x,y,z
-x,-y,-z
loop_
_atom_site_type_symbol
_atom_site_label
_atom_site_fract_x
_atom_site_fract_y
_atom_site_fract_z
Si Si1 0.057564 0.434762 0.887007
Si Si2 0.739748 0.864373 0.931542
Si Si3 0.412285 0.649646 0.060260
Si Si4 0.736226 0.510655 0.540228
Si Si5 0.510382 0.455690 0.375915
Si Si6 0.549066 0.714798 0.741256
Si Si7 0.963077 0.824810 0.457719
O O1 0.807026 0.395132 0.850760
O O2 0.934061 0.716613 0.597332
O O3 0.213563 0.236694 0.044056
O O4 0.264298 0.418426 0.029560
O O5 0.555764 0.766403 0.977427
O O6 0.609545 0.161661 0.651532
O O7 0.019905 0.758365 0.152751
O O8 0.145955 0.876610 0.810225
O O9 0.586686 0.514404 0.290004
O O10 0.326100 0.447811 0.149249
O O11 0.500000 0.500000 0.500000
O O12 0.653117 0.561580 0.397907
O O13 0.808835 0.736775 0.416103
O O14 0.269698 0.699862 0.652566
O O15 0.500000 0.000000 0.500000
#
# Coordination Sequence:
#
# PCOD8030464 Si02
#       7
#     2   2   2   2   2   2   2
#     4  11  23  45  71  96 140 185 227 280 345 404
#     4  11  23  46  70 103 141 180 229 283 342 416
#     4  12  26  44  70 106 141 174 236 289 339 412
#     4  11  21  46  74  99 140 183 225 283 344 414
#     4  12  25  43  72 108 135 185 230 278 351 408
#     4  12  26  46  68 100 141 183 233 288 341 407
#     4  11  24  45  69 102 136 183 231 280 342 412
#
# _framework density 21.929069999999999
#
# number of rings (size 3 to 8) (size 9 to 14) (size 15 to 20)
#    0.000    0.571    7.143    2.571    0.000    5.143 
#    0.000    0.000    0.000    0.000    0.000    0.000 
#    0.000    0.000    0.000    0.000    0.000    0.000 
#
# Total GULP energy -173568.816228 kJ/mol
# GULP energy per Si atom -12397.772588 kJ/mol
# Density = 2.187916 g / cm^3
# Si number density = 21.929070 Si / 1000 Ang^3
#
#
#
# Elastic Constant Matrix: (Units=GPa)
#
#
# Indices 1 2 3 4 5 6 
#
# 1 77.6725 51.4473 40.5864 5.5394 -2.1367 -24.1643
# 2 51.4473 169.7687 71.5913 13.2407 -3.7618 -35.6331
# 3 40.5864 71.5913 120.9586 -8.5579 -1.3085 -24.5805
# 4 5.5394 13.2407 -8.5579 40.8209 -1.4416 -3.3516
# 5 -2.1367 -3.7618 -1.3085 -1.4416 33.6817 9.0435
# 6 -24.1643 -35.6331 -24.5805 -3.3516 9.0435 42.7125
#
#
#
# Elastic Compliance Matrix: (Units=1/GPa)
#
#
# Indices 1 2 3 4 5 6 
#
# 1 0.018557 -0.002704 -0.003490 -0.001892 -0.001034 0.006305
# 2 -0.002704 0.009532 -0.004192 -0.003304 -0.000444 0.003845
# 3 -0.003490 -0.004192 0.012720 0.004671 -0.000626 0.002348
# 4 -0.001892 -0.003304 0.004671 0.026896 0.000618 0.000841
# 5 -0.001034 -0.000444 -0.000626 0.000618 0.031720 -0.007983
# 6 0.006305 0.003845 0.002348 0.000841 -0.007983 0.033294
#
#
# Mechanical properties :
#
#
# Convention : Reuss Voigt Hill
#
# Bulk Modulus (GPa) = 49.90507 77.29444 63.59975
# Shear Modulus (GPa) = 31.21673 37.09466 34.15570
#
# Velocity S-wave (km/s) = 3.77707 4.11734 3.95087
# Velocity P-wave (km/s) = 6.46750 7.61100 7.06243
#
# Compressibility (1/GPa) = 0.02003805
#
# Stress axis : x y z
#
# Youngs Moduli (GPa) = 53.88752 104.90639 78.61573
#
# Poissons Ratio (x) = 0.28365 0.27438
# Poissons Ratio (y) = 0.14571 0.32954
# Poissons Ratio (z) = 0.18807 0.43974
#
# Static dielectric constant tensor:
#      x y z
#    x 4.158430 0.063820 0.170080 
#    y 0.063820 4.303860 0.178190 
#    z 0.170080 0.178190 4.148430 
# 
# 
# High freq. dielectric constant tensor:
#      x y z
#    x 1.866240 -0.008060 0.006330 
#    y -0.008060 1.862890 0.004120 
#    z 0.006330 0.004120 1.871180 
# 
# From -- ./inp_files/395492.got.cif
#   From: 2010.06.25/outbox.cif.g09.slc.cpg/sg2_198_cif.got.tgz:395492.got - 2010.06.27 13:26:56.
