data_PCOD8030784
_publ_section_title
;
Structure prediction by ZEFSAII (Michael W. Deem and Ramdas Pophale) SiO2 
 PCOD8030784
Probable space group: P -1
;
_chemical_formula_sum "Si O2"
_cell_formula_units_Z 16
_cell_length_a 6.527691
_cell_length_b 12.943780
_cell_length_c 25.873018
_cell_angle_alpha 25.878660
_cell_angle_beta 126.261363
_cell_angle_gamma 116.027977
_cell_volume 741.804572
_symmetry_space_group_name_H-M "P -1"
_symmetry_group_IT_number 2
_symmetry_cell_setting 'triclinic'
loop_
_space_group_symop_operation_xyz
x,y,z
-x,-y,-z
loop_
_atom_site_type_symbol
_atom_site_label
_atom_site_fract_x
_atom_site_fract_y
_atom_site_fract_z
Si Si1 0.821035 0.745761 0.713935
Si Si2 0.582084 0.037551 0.100160
Si Si3 0.706540 0.138499 0.376758
Si Si4 0.887221 0.587464 0.181115
Si Si5 0.955553 0.387316 0.990167
Si Si6 0.986696 0.356195 0.711830
Si Si7 0.180914 0.111110 0.594290
Si Si8 0.581201 0.056332 0.770736
O O1 0.507141 0.879871 0.603383
O O2 0.899700 0.554035 0.765134
O O3 0.974470 0.953225 0.644659
O O4 0.861111 0.604846 0.837587
O O5 0.736258 0.244921 0.031405
O O6 0.565819 0.928602 0.203432
O O7 0.284788 0.151921 0.983606
O O8 0.730374 0.820942 0.181636
O O9 0.686686 0.424398 0.237120
O O10 0.634524 0.016426 0.368333
O O11 0.000000 0.000000 0.500000
O O12 0.038614 0.629731 0.236226
O O13 0.228889 0.213730 0.087841
O O14 0.000000 0.500000 0.000000
O O15 0.976372 0.615462 0.567878
O O16 0.745624 0.257835 0.699644
O O17 0.355304 0.119429 0.666057
#
# Coordination Sequence:
#
# PCOD8030784 Si02
#       8
#     2   2   2   2   2   2   2   2
#     4  11  24  40  75 103 132 175 220 289 346 397
#     4  11  24  43  68  98 135 179 233 281 334 399
#     4  11  23  45  69 103 136 172 218 284 344 404
#     4  11  23  44  68 102 134 173 236 278 339 402
#     4  11  22  40  68 101 135 177 223 283 348 393
#     4  11  26  46  65  96 141 190 224 280 328 403
#     4  11  25  44  68 103 137 179 230 274 339 407
#     4  11  25  43  67  99 137 182 231 277 333 400
#
# _framework density 21.569022
#
# number of rings (size 3 to 8) (size 9 to 14) (size 15 to 20)
#    0.000    1.000    3.750    2.250    1.750    7.000 
#    0.000    0.000    0.000    0.000    0.000    0.000 
#    0.000    0.000    0.000    0.000    0.000    0.000 
#
# Total GULP energy -198456.132101 kJ/mol
# GULP energy per Si atom -12403.508256 kJ/mol
# Density = 2.151993 g / cm^3
# Si number density = 21.569022 Si / 1000 Ang^3
#
#
#
# Elastic Constant Matrix: (Units=GPa)
#
#
# Indices 1 2 3 4 5 6 
#
# 1 149.7294 51.2126 46.7380 -0.9237 14.1581 -14.5863
# 2 51.2126 121.0648 52.0468 5.9319 11.2229 -18.0445
# 3 46.7380 52.0468 85.8727 3.1920 2.8236 1.0398
# 4 -0.9237 5.9319 3.1920 40.4627 1.6130 -4.9338
# 5 14.1581 11.2229 2.8236 1.6130 34.1466 5.7121
# 6 -14.5863 -18.0445 1.0398 -4.9338 5.7121 24.7302
#
#
#
# Elastic Compliance Matrix: (Units=1/GPa)
#
#
# Indices 1 2 3 4 5 6 
#
# 1 0.009475 -0.000612 -0.004781 0.001684 -0.004537 0.006727
# 2 -0.000612 0.014413 -0.008364 0.000213 -0.005790 0.011887
# 3 -0.004781 -0.008364 0.019359 -0.001994 0.005118 -0.011316
# 4 0.001684 0.000213 -0.001994 0.025863 -0.003011 0.007088
# 5 -0.004537 -0.005790 0.005118 -0.003011 0.035449 -0.015905
# 6 0.006727 0.011887 -0.011316 0.007088 -0.015905 0.058641
#
#
# Mechanical properties :
#
#
# Convention : Reuss Voigt Hill
#
# Bulk Modulus (GPa) = 63.55819 72.96239 68.26029
# Shear Modulus (GPa) = 25.51570 33.64588 29.58079
#
# Velocity S-wave (km/s) = 3.44318 3.95386 3.70732
# Velocity P-wave (km/s) = 6.73340 7.39898 7.07402
#
# Compressibility (1/GPa) = 0.01573361
#
# Stress axis : x y z
#
# Youngs Moduli (GPa) = 105.53903 69.38385 51.65475
#
# Poissons Ratio (x) = 0.04247 0.24696
# Poissons Ratio (y) = 0.06460 0.43202
# Poissons Ratio (z) = 0.50458 0.58030
#
# Static dielectric constant tensor:
#      x y z
#    x 4.110130 -0.168510 -0.046150 
#    y -0.168510 3.980450 -0.042540 
#    z -0.046150 -0.042540 4.042490 
# 
# 
# High freq. dielectric constant tensor:
#      x y z
#    x 1.852470 -0.008580 -0.001240 
#    y -0.008580 1.852090 -0.000100 
#    z -0.001240 -0.000100 1.857150 
# 
# From -- ./inp_files/70060.got.cif
#   From: 2010.06.25/outbox.cif.g09.slc.cpg/sg2_36_cif.got.tgz:70060.got - 2010.06.27 13:26:56.
