data_PCOD8030247
_publ_section_title
;
Structure prediction by ZEFSAII (Michael W. Deem and Ramdas Pophale) SiO2 
 PCOD8030247
Probable space group: P -1
;
_chemical_formula_sum "Si O2"
_cell_formula_units_Z 16
_cell_length_a 8.471956
_cell_length_b 15.493043
_cell_length_c 11.832722
_cell_angle_alpha 29.674120
_cell_angle_beta 71.298636
_cell_angle_gamma 83.019357
_cell_volume 686.240612
_symmetry_space_group_name_H-M "P -1"
_symmetry_group_IT_number 2
_symmetry_cell_setting 'triclinic'
loop_
_space_group_symop_operation_xyz
x,y,z
-x,-y,-z
loop_
_atom_site_type_symbol
_atom_site_label
_atom_site_fract_x
_atom_site_fract_y
_atom_site_fract_z
Si Si1 0.713533 0.152551 0.857255
Si Si2 0.709785 0.725911 0.961714
Si Si3 0.859406 0.984029 0.213295
Si Si4 0.699470 0.008699 0.462119
Si Si5 0.094322 0.386149 0.426144
Si Si6 0.371642 0.533907 0.374736
Si Si7 0.264973 0.148632 0.951438
Si Si8 0.042724 0.615706 0.972248
O O1 0.587269 0.273265 0.780442
O O2 0.888876 0.300454 0.598246
O O3 0.742207 0.055752 0.074890
O O4 0.637514 0.987269 0.970117
O O5 0.861814 0.636922 0.030953
O O6 0.700415 0.823404 0.734969
O O7 0.526320 0.561393 0.215938
O O8 0.745909 0.877586 0.881367
O O9 0.814944 0.766121 0.451737
O O10 0.807595 0.024965 0.303517
O O11 0.065278 0.087969 0.017648
O O12 0.806208 0.186663 0.310401
O O13 0.500000 0.000000 0.500000
O O14 0.191697 0.500475 0.383439
O O15 0.119274 0.517504 0.163002
O O16 0.360283 0.365873 0.652851
O O17 0.000000 0.500000 0.000000
#
# Coordination Sequence:
#
# PCOD8030247 Si02
#       8
#     2   2   2   2   2   2   2   2
#     4  11  22  39  72 107 137 188 236 288 355 418
#     4  12  27  46  69 101 146 187 227 303 362 415
#     4  11  21  43  72 101 138 182 239 290 353 416
#     4  12  27  49  73  99 139 189 247 294 354 432
#     4  11  22  41  72 102 139 185 240 290 346 432
#     4  12  24  44  69 108 147 184 240 286 354 433
#     4  11  23  43  68 105 146 183 231 293 354 422
#     4  12  27  46  71 106 140 190 242 297 365 421
#
# _framework density 23.315439000000001
#
# number of rings (size 3 to 8) (size 9 to 14) (size 15 to 20)
#    0.000    0.500    3.750    5.625    3.500    1.500 
#    2.250    2.500    0.000    0.000    0.000    0.000 
#    0.000    0.000    0.000    0.000    0.000    0.000 
#
# Total GULP energy -198501.043691 kJ/mol
# GULP energy per Si atom -12406.315231 kJ/mol
# Density = 2.326237 g / cm^3
# Si number density = 23.315439 Si / 1000 Ang^3
#
#
#
# Elastic Constant Matrix: (Units=GPa)
#
#
# Indices 1 2 3 4 5 6 
#
# 1 66.4517 35.4721 25.4893 -11.9314 15.5725 -24.6512
# 2 35.4721 144.7694 40.0503 -16.0855 1.1852 -3.2169
# 3 25.4893 40.0503 116.4626 -3.9646 8.4477 -13.1521
# 4 -11.9314 -16.0855 -3.9646 41.3708 7.9944 1.0115
# 5 15.5725 1.1852 8.4477 7.9944 46.1978 3.7056
# 6 -24.6512 -3.2169 -13.1521 1.0115 3.7056 37.4099
#
#
#
# Elastic Compliance Matrix: (Units=1/GPa)
#
#
# Indices 1 2 3 4 5 6 
#
# 1 0.030724 -0.005676 -0.001227 0.008570 -0.013105 0.020392
# 2 -0.005676 0.009007 -0.002433 0.001301 0.002229 -0.004077
# 3 -0.001227 -0.002433 0.010107 -0.000093 -0.001572 0.002694
# 4 0.008570 0.001301 -0.000093 0.028606 -0.008319 0.005777
# 5 -0.013105 0.002229 -0.001572 -0.008319 0.028665 -0.011611
# 6 0.020392 -0.004077 0.002694 0.005777 -0.011611 0.041759
#
#
# Mechanical properties :
#
#
# Convention : Reuss Voigt Hill
#
# Bulk Modulus (GPa) = 32.08688 58.85635 45.47162
# Shear Modulus (GPa) = 28.10125 40.10715 34.10420
#
# Velocity S-wave (km/s) = 3.47546 4.15203 3.82872
# Velocity P-wave (km/s) = 5.46782 6.94867 6.25224
#
# Compressibility (1/GPa) = 0.03116539
#
# Stress axis : x y z
#
# Youngs Moduli (GPa) = 32.54810 111.02385 98.94389
#
# Poissons Ratio (x) = 0.63016 0.12142
# Poissons Ratio (y) = 0.18474 0.24073
# Poissons Ratio (z) = 0.03994 0.27012
#
# Static dielectric constant tensor:
#      x y z
#    x 4.232180 -0.001740 -0.063770 
#    y -0.001740 4.446560 -0.119970 
#    z -0.063770 -0.119970 4.209680 
# 
# 
# High freq. dielectric constant tensor:
#      x y z
#    x 1.945590 0.004540 -0.000970 
#    y 0.004540 1.928090 -0.005380 
#    z -0.000970 -0.005380 1.926140 
# 
# From -- ./inp_files/307724.got.cif
#   From: 2010.06.25/outbox.cif.g09.slc.cpg/sg2_154_cif.got.tgz:307724.got - 2010.06.27 13:26:56.
