data_PCOD8030263
_publ_section_title
;
Structure prediction by ZEFSAII (Michael W. Deem and Ramdas Pophale) SiO2 
 PCOD8030263
Probable space group: P -1
;
_chemical_formula_sum "Si O2"
_cell_formula_units_Z 14
_cell_length_a 13.086562
_cell_length_b 10.387419
_cell_length_c 12.265203
_cell_angle_alpha 82.807128
_cell_angle_beta 47.590986
_cell_angle_gamma 43.749868
_cell_volume 600.379128
_symmetry_space_group_name_H-M "P -1"
_symmetry_group_IT_number 2
_symmetry_cell_setting 'triclinic'
loop_
_space_group_symop_operation_xyz
x,y,z
-x,-y,-z
loop_
_atom_site_type_symbol
_atom_site_label
_atom_site_fract_x
_atom_site_fract_y
_atom_site_fract_z
Si Si1 0.145312 0.584055 0.096401
Si Si2 0.377029 0.980176 0.152785
Si Si3 0.760235 0.894451 0.530904
Si Si4 0.581876 0.446971 0.784742
Si Si5 0.216881 0.972035 0.055076
Si Si6 0.875169 0.082594 0.416633
Si Si7 0.808744 0.781166 0.121109
O O1 0.030373 0.634606 0.292593
O O2 0.894027 0.790960 0.167159
O O3 0.369597 0.291509 0.931300
O O4 0.296606 0.598847 0.995205
O O5 0.163888 0.185892 0.384938
O O6 0.257650 0.975674 0.153410
O O7 0.500000 0.000000 0.000000
O O8 0.690821 0.102667 0.529142
O O9 0.512618 0.000477 0.661806
O O10 0.486869 0.675155 0.843211
O O11 0.825159 0.210401 0.718864
O O12 0.699115 0.325212 0.592570
O O13 0.148900 0.155797 0.017159
O O14 0.943610 0.100330 0.250836
O O15 0.000000 0.500000 0.000000
#
# Coordination Sequence:
#
# PCOD8030263 Si02
#       7
#     2   2   2   2   2   2   2
#     4  12  24  46  72  97 144 187 227 286 348 414
#     4  12  23  44  69 102 137 180 233 286 342 407
#     4  12  24  45  72 100 137 185 231 280 354 408
#     4  11  22  43  71 106 142 176 232 290 350 408
#     4  12  24  44  73 107 136 180 239 290 342 415
#     4  11  21  43  73 105 138 181 228 292 349 402
#     4  12  26  51  69  97 148 190 228 288 350 413
#
# _framework density 23.318598999999999
#
# number of rings (size 3 to 8) (size 9 to 14) (size 15 to 20)
#    0.000    0.286    7.143    2.571    0.000    1.143 
#   10.286    1.429    0.000    0.000    0.000    0.000 
#    0.000    0.000    0.000    0.000    0.000    0.000 
#
# Total GULP energy -173538.493003 kJ/mol
# GULP energy per Si atom -12395.606643 kJ/mol
# Density = 2.326553 g / cm^3
# Si number density = 23.318599 Si / 1000 Ang^3
#
#
#
# Elastic Constant Matrix: (Units=GPa)
#
#
# Indices 1 2 3 4 5 6 
#
# 1 86.2790 18.9149 35.3488 -7.1395 1.0492 -11.5104
# 2 18.9149 89.9059 43.2588 -25.7549 -2.2975 8.2605
# 3 35.3488 43.2588 146.8617 -29.0386 2.4233 4.1274
# 4 -7.1395 -25.7549 -29.0386 27.9212 10.9536 -5.4363
# 5 1.0492 -2.2975 2.4233 10.9536 36.8046 -5.1365
# 6 -11.5104 8.2605 4.1274 -5.4363 -5.1365 27.3392
#
#
#
# Elastic Compliance Matrix: (Units=1/GPa)
#
#
# Indices 1 2 3 4 5 6 
#
# 1 0.014268 -0.002344 -0.003091 -0.000659 0.000853 0.007211
# 2 -0.002344 0.016489 -0.001410 0.013773 -0.003421 -0.003660
# 3 -0.003091 -0.001410 0.009924 0.009422 -0.003622 -0.001181
# 4 -0.000659 0.013773 0.009422 0.066318 -0.018954 0.003765
# 5 0.000853 -0.003421 -0.003622 -0.018954 0.033433 0.004452
# 6 0.007211 -0.003660 -0.001181 0.003765 0.004452 0.042483
#
#
# Mechanical properties :
#
#
# Convention : Reuss Voigt Hill
#
# Bulk Modulus (GPa) = 37.04956 57.56574 47.30765
# Shear Modulus (GPa) = 24.31887 33.44794 28.88341
#
# Velocity S-wave (km/s) = 3.23289 3.79144 3.52325
# Velocity P-wave (km/s) = 5.46428 6.62623 6.07311
#
# Compressibility (1/GPa) = 0.02699087
#
# Stress axis : x y z
#
# Youngs Moduli (GPa) = 70.08888 60.64764 100.76352
#
# Poissons Ratio (x) = 0.14217 0.31143
# Poissons Ratio (y) = 0.16430 0.14208
# Poissons Ratio (z) = 0.21662 0.08551
#
# Static dielectric constant tensor:
#      x y z
#    x 4.581750 0.146170 -0.135240 
#    y 0.146170 3.851970 -0.106760 
#    z -0.135240 -0.106760 4.444360 
# 
# 
# High freq. dielectric constant tensor:
#      x y z
#    x 1.931820 0.023920 0.000430 
#    y 0.023920 1.878920 -0.011710 
#    z 0.000430 -0.011710 1.945120 
# 
# From -- ./inp_files/451318.got.cif
#   From: 2010.06.25/outbox.cif.g09.slc.cpg/sg2_226_cif.got.tgz:451318.got - 2010.06.27 13:26:56.
