data_PCOD8030381
_publ_section_title
;
Structure prediction by ZEFSAII (Michael W. Deem and Ramdas Pophale) SiO2 
 PCOD8030381
Probable space group: P -1
;
_chemical_formula_sum "Si O2"
_cell_formula_units_Z 14
_cell_length_a 15.936340
_cell_length_b 14.209402
_cell_length_c 9.215174
_cell_angle_alpha 39.026721
_cell_angle_beta 138.898926
_cell_angle_gamma 151.104685
_cell_volume 616.172311
_symmetry_space_group_name_H-M "P -1"
_symmetry_group_IT_number 2
_symmetry_cell_setting 'triclinic'
loop_
_space_group_symop_operation_xyz
x,y,z
-x,-y,-z
loop_
_atom_site_type_symbol
_atom_site_label
_atom_site_fract_x
_atom_site_fract_y
_atom_site_fract_z
Si Si1 0.156026 0.966109 0.441941
Si Si2 0.274220 0.563388 0.138217
Si Si3 0.189251 0.235079 0.601005
Si Si4 0.693416 0.270056 0.712431
Si Si5 0.665558 0.921788 0.162501
Si Si6 0.514049 0.619249 0.739992
Si Si7 0.948987 0.414012 0.374324
O O1 0.138641 0.823025 0.468035
O O2 0.963082 0.875867 0.342130
O O3 0.254075 0.975448 0.697980
O O4 0.279266 0.202210 0.257002
O O5 0.157153 0.320886 0.319950
O O6 0.286639 0.685788 0.143361
O O7 0.475275 0.682744 0.211581
O O8 0.182983 0.566993 0.878302
O O9 0.194947 0.070524 0.749075
O O10 0.383928 0.443437 0.661508
O O11 0.548431 0.259946 0.458427
O O12 0.881499 0.456518 0.662640
O O13 0.638080 0.052272 0.880268
O O14 0.500000 0.500000 0.000000
O O15 0.000000 0.500000 0.500000
#
# Coordination Sequence:
#
# PCOD8030381 Si02
#       7
#     2   2   2   2   2   2   2
#     4  12  23  47  76 104 148 190 240 302 368 426
#     4  11  21  44  76 102 148 187 245 305 354 424
#     4  11  25  45  71 115 144 186 247 301 359 436
#     4  11  22  47  72 103 143 188 246 301 354 425
#     4  12  23  42  80 112 137 187 253 304 357 424
#     4  11  26  47  74 101 149 196 234 294 373 435
#     4  12  26  44  72 110 147 193 244 301 368 436
#
# _framework density 22.720917
#
# number of rings (size 3 to 8) (size 9 to 14) (size 15 to 20)
#    0.000    0.571    7.143    3.429    0.000    2.857 
#    2.571    2.143    0.000    0.000    0.000    0.000 
#    0.000    0.000    0.000    0.000    0.000    0.000 
#
# Total GULP energy -173603.123173 kJ/mol
# GULP energy per Si atom -12400.223084 kJ/mol
# Density = 2.266920 g / cm^3
# Si number density = 22.720917 Si / 1000 Ang^3
#
#
#
# Elastic Constant Matrix: (Units=GPa)
#
#
# Indices 1 2 3 4 5 6 
#
# 1 102.3797 53.8799 64.4069 2.9321 12.9942 -5.3552
# 2 53.8799 127.3974 44.7085 -8.7703 -5.4754 10.8862
# 3 64.4069 44.7085 143.6679 -15.5029 4.9393 -13.5975
# 4 2.9321 -8.7703 -15.5029 38.5087 -6.0139 -1.9996
# 5 12.9942 -5.4754 4.9393 -6.0139 29.7622 -2.7547
# 6 -5.3552 10.8862 -13.5975 -1.9996 -2.7547 34.5553
#
#
#
# Elastic Compliance Matrix: (Units=1/GPa)
#
#
# Indices 1 2 3 4 5 6 
#
# 1 0.019075 -0.006701 -0.006791 -0.007176 -0.009773 0.001201
# 2 -0.006701 0.011873 -0.000933 0.003471 0.005549 -0.004503
# 3 -0.006791 -0.000933 0.011188 0.005401 0.002412 0.004149
# 4 -0.007176 0.003471 0.005401 0.031073 0.009382 0.002465
# 5 -0.009773 0.005549 0.002412 0.009382 0.040518 0.001459
# 6 0.001201 -0.004503 0.004149 0.002465 0.001459 0.032435
#
#
# Mechanical properties :
#
#
# Convention : Reuss Voigt Hill
#
# Bulk Modulus (GPa) = 75.26672 77.71508 76.49090
# Shear Modulus (GPa) = 27.86446 34.59523 31.22984
#
# Velocity S-wave (km/s) = 3.50577 3.90630 3.71144
# Velocity P-wave (km/s) = 7.04172 7.39081 7.21837
#
# Compressibility (1/GPa) = 0.01328608
#
# Stress axis : x y z
#
# Youngs Moduli (GPa) = 52.42516 84.22351 89.38319
#
# Poissons Ratio (x) = 0.56436 0.60699
# Poissons Ratio (y) = 0.35129 0.08342
# Poissons Ratio (z) = 0.35601 0.07860
#
# Static dielectric constant tensor:
#      x y z
#    x 4.454980 -0.051980 -0.025740 
#    y -0.051980 4.349040 0.089540 
#    z -0.025740 0.089540 4.403680 
# 
# 
# High freq. dielectric constant tensor:
#      x y z
#    x 1.881970 0.014750 0.016260 
#    y 0.014750 1.909940 -0.008110 
#    z 0.016260 -0.008110 1.885630 
# 
# From -- ./inp_files/153803.got.cif
#   From: 2010.06.25/outbox.cif.g09.slc.cpg/sg2_77_cif.got.tgz:153803.got - 2010.06.27 13:26:56.
