data_PCOD8030912
_publ_section_title
;
Structure prediction by ZEFSAII (Michael W. Deem and Ramdas Pophale) SiO2 
 PCOD8030912
Probable space group: P -1
;
_chemical_formula_sum "Si O2"
_cell_formula_units_Z 16
_cell_length_a 11.001986
_cell_length_b 11.004380
_cell_length_c 13.379011
_cell_angle_alpha 58.524559
_cell_angle_beta 89.182100
_cell_angle_gamma 41.059161
_cell_volume 667.563568
_symmetry_space_group_name_H-M "P -1"
_symmetry_group_IT_number 2
_symmetry_cell_setting 'triclinic'
loop_
_space_group_symop_operation_xyz
x,y,z
-x,-y,-z
loop_
_atom_site_type_symbol
_atom_site_label
_atom_site_fract_x
_atom_site_fract_y
_atom_site_fract_z
Si Si1 0.297988 0.387512 0.514335
Si Si2 0.692193 0.891963 0.481344
Si Si3 0.504559 0.393297 0.258888
Si Si4 0.013200 0.104253 0.851814
Si Si5 0.760521 0.624217 0.262756
Si Si6 0.672459 0.227392 0.543350
Si Si7 0.456594 0.848338 0.983184
Si Si8 0.206401 0.714404 0.852318
O O1 0.252580 0.266200 0.546645
O O2 0.252578 0.457910 0.601973
O O3 0.576201 0.161072 0.580091
O O4 0.103186 0.683635 0.328036
O O5 0.944807 0.658308 0.643404
O O6 0.500000 0.000000 0.500000
O O7 0.562564 0.169880 0.329304
O O8 0.645819 0.302539 0.396189
O O9 0.600747 0.381032 0.168050
O O10 0.200793 0.726286 0.138301
O O11 0.143216 0.835160 0.911770
O O12 0.218246 0.993393 0.951117
O O13 0.622372 0.680782 0.153502
O O14 0.623525 0.915611 0.155591
O O15 0.500000 0.500000 0.500000
O O16 0.959167 0.943162 0.692158
O O17 0.636736 0.593896 0.005318
#
# Coordination Sequence:
#
# PCOD8030912 Si02
#       8
#     2   2   2   2   2   2   2   2
#     4  11  23  42  75  98 131 176 232 297 338 393
#     4  12  21  41  72 103 134 169 235 293 347 395
#     4  11  24  40  73 104 134 184 229 292 347 400
#     4  11  23  47  66 104 141 176 232 294 333 409
#     4  11  25  44  70 101 136 183 231 285 346 413
#     4  11  22  41  67 104 142 168 226 303 339 392
#     4  11  26  44  66  98 150 186 222 280 350 420
#     4  12  25  42  71  99 141 189 231 271 356 419
#
# _framework density 23.967755
#
# number of rings (size 3 to 8) (size 9 to 14) (size 15 to 20)
#    0.000    0.750    6.250    2.625    3.500    0.500 
#    0.000    1.875    0.000    0.000    0.000    0.000 
#    0.000    0.000    0.000    0.000    0.000    0.000 
#
# Total GULP energy -198421.945214 kJ/mol
# GULP energy per Si atom -12401.371576 kJ/mol
# Density = 2.391320 g / cm^3
# Si number density = 23.967755 Si / 1000 Ang^3
#
#
#
# Elastic Constant Matrix: (Units=GPa)
#
#
# Indices 1 2 3 4 5 6 
#
# 1 109.0472 43.9564 49.6233 -12.5278 26.2667 0.1075
# 2 43.9564 119.6445 51.0360 -11.0260 -6.1410 -4.6347
# 3 49.6233 51.0360 75.4357 -20.5100 29.8837 -18.7175
# 4 -12.5278 -11.0260 -20.5100 48.0146 1.2872 -2.3916
# 5 26.2667 -6.1410 29.8837 1.2872 45.7840 -6.3519
# 6 0.1075 -4.6347 -18.7175 -2.3916 -6.3519 41.9276
#
#
#
# Elastic Compliance Matrix: (Units=1/GPa)
#
#
# Indices 1 2 3 4 5 6 
#
# 1 0.014587 -0.002999 -0.006448 0.000301 -0.005127 -0.004007
# 2 -0.002999 0.017632 -0.018806 -0.005409 0.015911 -0.004337
# 3 -0.006448 -0.018806 0.051348 0.017609 -0.030440 0.017254
# 4 0.000301 -0.005409 0.017609 0.027861 -0.012203 0.007003
# 5 -0.005127 0.015911 -0.030440 -0.012203 0.046367 -0.005489
# 6 -0.004007 -0.004337 0.017254 0.007003 -0.005489 0.030652
#
#
# Mechanical properties :
#
#
# Convention : Reuss Voigt Hill
#
# Bulk Modulus (GPa) = 36.95313 65.92875 51.44094
# Shear Modulus (GPa) = 19.68707 37.77935 28.73321
#
# Velocity S-wave (km/s) = 2.86911 3.97452 3.46617
# Velocity P-wave (km/s) = 5.14073 6.97348 6.12603
#
# Compressibility (1/GPa) = 0.02706131
#
# Stress axis : x y z
#
# Youngs Moduli (GPa) = 68.55428 56.71507 19.47482
#
# Poissons Ratio (x) = 0.17010 0.12557
# Poissons Ratio (y) = 0.20561 0.36624
# Poissons Ratio (z) = 0.44204 1.06657
#
# Static dielectric constant tensor:
#      x y z
#    x 3.925810 -0.395550 0.527760 
#    y -0.395550 3.871720 -0.041630 
#    z 0.527760 -0.041630 4.360090 
# 
# 
# High freq. dielectric constant tensor:
#      x y z
#    x 1.959230 0.009730 0.013510 
#    y 0.009730 1.957220 -0.010950 
#    z 0.013510 -0.010950 1.963150 
# 
# From -- ./inp_files/519599.got.cif
#   From: 2010.06.25/outbox.cif.g09.slc.cpg/sg2_260_cif.got.tgz:519599.got - 2010.06.27 13:26:56.
