data_PCOD8030187
_publ_section_title
;
Structure prediction by ZEFSAII (Michael W. Deem and Ramdas Pophale) SiO2 
 PCOD8030187
Probable space group: P -1
;
_chemical_formula_sum "Si O2"
_cell_formula_units_Z 16
_cell_length_a 16.565532
_cell_length_b 9.233213
_cell_length_c 19.544238
_cell_angle_alpha 45.772552
_cell_angle_beta 20.787142
_cell_angle_gamma 55.887316
_cell_volume 709.564347
_symmetry_space_group_name_H-M "P -1"
_symmetry_group_IT_number 2
_symmetry_cell_setting 'triclinic'
loop_
_space_group_symop_operation_xyz
x,y,z
-x,-y,-z
loop_
_atom_site_type_symbol
_atom_site_label
_atom_site_fract_x
_atom_site_fract_y
_atom_site_fract_z
Si Si1 0.019875 0.782336 0.337599
Si Si2 0.018911 0.569116 0.839060
Si Si3 0.644949 0.478210 0.826781
Si Si4 0.277851 0.574071 0.007660
Si Si5 0.501150 0.915828 0.322749
Si Si6 0.703380 0.767623 0.080962
Si Si7 0.786900 0.774737 0.244504
Si Si8 0.207032 0.436516 0.547214
O O1 0.255388 0.711667 0.175117
O O2 0.869915 0.696477 0.554726
O O3 0.837309 0.693090 0.446489
O O4 0.133336 0.039918 0.161199
O O5 0.214498 0.790553 0.579183
O O6 0.150680 0.394448 0.799796
O O7 0.791620 0.467663 0.001814
O O8 0.874478 0.618925 0.002472
O O9 0.439988 0.430369 0.945583
O O10 0.500000 0.500000 0.000000
O O11 0.436823 0.828848 0.809023
O O12 0.032582 0.503772 0.270720
O O13 0.666480 0.860028 0.152799
O O14 0.552636 0.816281 0.386717
O O15 0.447293 0.651080 0.283515
O O16 0.748687 0.697631 0.378687
O O17 0.000000 0.000000 0.000000
#
# Coordination Sequence:
#
# PCOD8030187 Si02
#       8
#     2   2   2   2   2   2   2   2
#     4  11  24  44  68 100 135 173 216 278 338 393
#     4  11  25  40  66  96 131 180 219 275 326 396
#     4  11  22  42  75  98 128 172 223 272 334 408
#     4  11  21  44  68  95 134 180 217 272 339 389
#     4  12  22  43  69  94 139 179 225 276 326 385
#     4  12  24  42  67 100 136 177 223 273 334 390
#     4  11  21  43  67  95 134 182 224 271 329 384
#     4  11  22  42  68  92 141 177 213 281 327 387
#
# _framework density 22.549047000000002
#
# number of rings (size 3 to 8) (size 9 to 14) (size 15 to 20)
#    0.000    0.750    7.500    1.875    0.000    0.500 
#    0.000    8.125    0.000    0.000    0.000    0.000 
#    0.000    0.000    0.000    0.000    0.000    0.000 
#
# Total GULP energy -198249.849099 kJ/mol
# GULP energy per Si atom -12390.615569 kJ/mol
# Density = 2.249772 g / cm^3
# Si number density = 22.549047 Si / 1000 Ang^3
#
#
#
# Elastic Constant Matrix: (Units=GPa)
#
#
# Indices 1 2 3 4 5 6 
#
# 1 68.0828 33.4965 7.6742 -2.6866 0.2486 -6.1410
# 2 33.4965 81.5068 41.2719 2.1435 -0.5032 0.0501
# 3 7.6742 41.2719 103.0828 -16.2152 6.2492 9.9985
# 4 -2.6866 2.1435 -16.2152 41.9055 9.4319 -5.0423
# 5 0.2486 -0.5032 6.2492 9.4319 31.5054 7.2333
# 6 -6.1410 0.0501 9.9985 -5.0423 7.2333 31.6615
#
#
#
# Elastic Compliance Matrix: (Units=1/GPa)
#
#
# Indices 1 2 3 4 5 6 
#
# 1 0.019666 -0.009624 0.002794 0.004038 -0.003057 0.004289
# 2 -0.009624 0.020842 -0.008747 -0.006151 0.004234 -0.001084
# 3 0.002794 -0.008747 0.014582 0.007122 -0.004767 -0.001826
# 4 0.004038 -0.006151 0.007122 0.030674 -0.012150 0.006205
# 5 -0.003057 0.004234 -0.004767 -0.012150 0.038680 -0.009866
# 6 0.004289 -0.001084 -0.001826 0.006205 -0.009866 0.036236
#
#
# Mechanical properties :
#
#
# Convention : Reuss Voigt Hill
#
# Bulk Modulus (GPa) = 41.78221 46.39529 44.08875
# Shear Modulus (GPa) = 25.02337 32.36314 28.69325
#
# Velocity S-wave (km/s) = 3.33488 3.79256 3.57106
# Velocity P-wave (km/s) = 5.77912 6.30856 6.04963
#
# Compressibility (1/GPa) = 0.02393363
#
# Stress axis : x y z
#
# Youngs Moduli (GPa) = 50.85043 47.98000 68.57974
#
# Poissons Ratio (x) = 0.46177 -0.19160
# Poissons Ratio (y) = 0.48940 0.59989
# Poissons Ratio (z) = -0.14207 0.41970
#
# Static dielectric constant tensor:
#      x y z
#    x 3.609300 -0.004560 -0.359920 
#    y -0.004560 4.266090 0.222660 
#    z -0.359920 0.222660 4.315000 
# 
# 
# High freq. dielectric constant tensor:
#      x y z
#    x 1.874720 -0.002590 -0.009840 
#    y -0.002590 1.880630 0.012000 
#    z -0.009840 0.012000 1.907700 
# 
# From -- ./inp_files/599442.got.cif
#   From: 2010.06.25/outbox.cif.g09.slc.cpg/sg2_300_cif.got.tgz:599442.got - 2010.06.27 13:26:56.
