data_PCOD8030848
_publ_section_title
;
Structure prediction by ZEFSAII (Michael W. Deem and Ramdas Pophale) SiO2 
 PCOD8030848
Probable space group: P -1
;
_chemical_formula_sum "Si O2"
_cell_formula_units_Z 14
_cell_length_a 9.086231
_cell_length_b 15.392552
_cell_length_c 19.748348
_cell_angle_alpha 162.338446
_cell_angle_beta 52.003009
_cell_angle_gamma 131.233405
_cell_volume 629.246638
_symmetry_space_group_name_H-M "P -1"
_symmetry_group_IT_number 2
_symmetry_cell_setting 'triclinic'
loop_
_space_group_symop_operation_xyz
x,y,z
-x,-y,-z
loop_
_atom_site_type_symbol
_atom_site_label
_atom_site_fract_x
_atom_site_fract_y
_atom_site_fract_z
Si Si1 0.895371 0.507607 0.218940
Si Si2 0.683844 0.888173 0.770594
Si Si3 0.972919 0.228479 0.479746
Si Si4 0.479316 0.509059 0.360181
Si Si5 0.497728 0.106881 0.857211
Si Si6 0.194749 0.279297 0.152426
Si Si7 0.136537 0.471274 0.000380
O O1 0.699495 0.612867 0.344173
O O2 0.009669 0.645883 0.356272
O O3 0.054206 0.616491 0.194900
O O4 0.822599 0.144904 0.970184
O O5 0.517724 0.669743 0.702714
O O6 0.811500 0.694199 0.557001
O O7 0.598998 0.049164 0.855174
O O8 0.848666 0.403354 0.603610
O O9 0.867494 0.871953 0.241856
O O10 0.322453 0.291673 0.193153
O O11 0.413850 0.800420 0.611497
O O12 0.321034 0.238586 0.021744
O O13 0.642985 0.342238 0.941084
O O14 0.000000 0.000000 0.000000
O O15 0.000000 0.500000 0.000000
#
# Coordination Sequence:
#
# PCOD8030848 Si02
#       7
#     2   2   2   2   2   2   2
#     4  11  22  40  73 101 129 181 226 276 338 394
#     4  11  22  41  68 103 133 171 233 283 322 405
#     4  11  25  43  69 102 139 180 222 281 341 392
#     4  12  24  41  73  99 136 181 226 274 351 395
#     4  12  25  43  68 101 137 177 227 284 330 404
#     4  12  28  46  65 102 144 177 221 283 346 406
#     4  11  22  45  68 103 139 169 236 284 319 405
#
# _framework density 22.248826999999999
#
# number of rings (size 3 to 8) (size 9 to 14) (size 15 to 20)
#    0.000    0.571    5.714    2.571    2.000    8.571 
#    0.000    1.429    0.000    0.000    0.000    0.000 
#    0.000    0.000    0.000    0.000    0.000    0.000 
#
# Total GULP energy -173594.342021 kJ/mol
# GULP energy per Si atom -12399.595859 kJ/mol
# Density = 2.219819 g / cm^3
# Si number density = 22.248827 Si / 1000 Ang^3
#
#
#
# Elastic Constant Matrix: (Units=GPa)
#
#
# Indices 1 2 3 4 5 6 
#
# 1 61.5731 40.6654 19.0916 -7.3974 -5.1613 2.5035
# 2 40.6654 144.2444 52.4435 -12.4151 -5.7967 14.2119
# 3 19.0916 52.4435 118.1887 -17.2728 -9.9945 -2.6903
# 4 -7.3974 -12.4151 -17.2728 43.8346 0.6303 -2.1087
# 5 -5.1613 -5.7967 -9.9945 0.6303 48.6499 -1.9650
# 6 2.5035 14.2119 -2.6903 -2.1087 -1.9650 28.2908
#
#
#
# Elastic Compliance Matrix: (Units=1/GPa)
#
#
# Indices 1 2 3 4 5 6 
#
# 1 0.020265 -0.005453 -0.000454 0.001730 0.001430 0.001131
# 2 -0.005453 0.010373 -0.003827 0.000269 -0.000338 -0.005096
# 3 -0.000454 -0.003827 0.010946 0.003288 0.001838 0.003376
# 4 0.001730 0.000269 0.003288 0.024559 0.000650 0.001900
# 5 0.001430 -0.000338 0.001838 0.000650 0.021106 0.001732
# 6 0.001131 -0.005096 0.003376 0.001900 0.001732 0.038390
#
#
# Mechanical properties :
#
#
# Convention : Reuss Voigt Hill
#
# Bulk Modulus (GPa) = 45.21902 60.93411 53.07657
# Shear Modulus (GPa) = 32.79149 38.27545 35.53347
#
# Velocity S-wave (km/s) = 3.84324 4.15219 4.00070
# Velocity P-wave (km/s) = 6.32948 7.10173 6.72670
#
# Compressibility (1/GPa) = 0.02211459
#
# Stress axis : x y z
#
# Youngs Moduli (GPa) = 49.34666 96.40323 91.36129
#
# Poissons Ratio (x) = 0.52568 0.04151
# Poissons Ratio (y) = 0.26908 0.34966
# Poissons Ratio (z) = 0.02242 0.36895
#
# Static dielectric constant tensor:
#      x y z
#    x 3.690760 -0.046910 -0.055050 
#    y -0.046910 6.089810 0.658410 
#    z -0.055050 0.658410 4.784650 
# 
# 
# High freq. dielectric constant tensor:
#      x y z
#    x 1.846920 0.005820 0.006210 
#    y 0.005820 1.880120 -0.015480 
#    z 0.006210 -0.015480 1.900120 
# 
# From -- ./inp_files/561299.got.cif
#   From: 2010.06.25/outbox.cif.g09.slc.cpg/sg2_281_cif.got.tgz:561299.got - 2010.06.27 13:26:56.
