data_PCOD8030947
_publ_section_title
;
Structure prediction by ZEFSAII (Michael W. Deem and Ramdas Pophale) SiO2 
 PCOD8030947
Probable space group: P -1
;
_chemical_formula_sum "Si O2"
_cell_formula_units_Z 16
_cell_length_a 25.545447
_cell_length_b 5.081047
_cell_length_c 8.980699
_cell_angle_alpha 123.508369
_cell_angle_beta 127.050686
_cell_angle_gamma 60.996550
_cell_volume 755.140870
_symmetry_space_group_name_H-M "P -1"
_symmetry_group_IT_number 2
_symmetry_cell_setting 'triclinic'
loop_
_space_group_symop_operation_xyz
x,y,z
-x,-y,-z
loop_
_atom_site_type_symbol
_atom_site_label
_atom_site_fract_x
_atom_site_fract_y
_atom_site_fract_z
Si Si1 0.955617 0.342830 0.483709
Si Si2 0.154505 0.791207 0.962330
Si Si3 0.241995 0.224638 0.115468
Si Si4 0.335196 0.501459 0.558698
Si Si5 0.044360 0.245587 0.105355
Si Si6 0.417321 0.818300 0.572514
Si Si7 0.435336 0.423414 0.178679
Si Si8 0.354734 0.917976 0.979130
O O1 0.888454 0.301652 0.275209
O O2 0.933160 0.573756 0.658442
O O3 0.000000 0.500000 0.500000
O O4 0.000000 0.000000 0.500000
O O5 0.182259 0.470477 0.005962
O O6 0.215604 0.922106 0.038663
O O7 0.111380 0.063424 0.079987
O O8 0.268096 0.400655 0.354934
O O9 0.303623 0.089711 0.070055
O O10 0.364340 0.669121 0.524879
O O11 0.390523 0.198271 0.619678
O O12 0.314643 0.755071 0.737733
O O13 0.000000 0.500000 0.000000
O O14 0.000000 0.000000 0.000000
O O15 0.428311 0.650149 0.380206
O O16 0.487193 0.767581 0.767127
O O17 0.414779 0.650443 0.071470
O O18 0.387022 0.175693 0.028740
#
# Coordination Sequence:
#
# PCOD8030947 Si02
#       8
#     2   2   2   2   2   2   2   2
#     4  12  23  43  71 103 135 167 209 259 329 388
#     4  12  26  42  72  98 133 176 214 274 314 386
#     4  12  26  46  63  94 138 174 228 262 322 382
#     4  12  25  43  68  93 132 179 220 276 331 389
#     4  12  23  43  71 103 135 167 209 259 329 388
#     4  11  22  41  68  98 129 170 221 280 345 394
#     4  11  22  41  68  98 129 170 221 280 345 394
#     4  12  25  43  68  93 132 179 220 276 331 389
#
# _framework density 21.188098
#
# number of rings (size 3 to 8) (size 9 to 14) (size 15 to 20)
#    0.000    0.250    5.000    4.500    0.000    7.000 
#    0.000    0.000    0.000    0.000    0.000    0.000 
#    0.000    0.000    0.000    0.000    0.000    0.000 
#
# Total GULP energy -198524.915867 kJ/mol
# GULP energy per Si atom -12407.807242 kJ/mol
# Density = 2.113987 g / cm^3
# Si number density = 21.188098 Si / 1000 Ang^3
#
#
#
# Elastic Constant Matrix: (Units=GPa)
#
#
# Indices 1 2 3 4 5 6 
#
# 1 64.6789 9.7344 13.9579 5.2756 14.0180 9.0078
# 2 9.7344 99.9466 17.9377 -4.1863 -2.0936 3.3206
# 3 13.9579 17.9377 171.7517 4.3344 -7.2950 -11.8016
# 4 5.2756 -4.1863 4.3344 37.1289 5.4327 5.1320
# 5 14.0180 -2.0936 -7.2950 5.4327 34.1651 -1.2972
# 6 9.0078 3.3206 -11.8016 5.1320 -1.2972 32.5154
#
#
#
# Elastic Compliance Matrix: (Units=1/GPa)
#
#
# Indices 1 2 3 4 5 6 
#
# 1 0.018864 -0.001447 -0.002147 -0.000513 -0.008438 -0.006113
# 2 -0.001447 0.010462 -0.001073 0.001584 0.000705 -0.001279
# 3 -0.002147 -0.001073 0.006486 -0.001414 0.002554 0.003384
# 4 -0.000513 0.001584 -0.001414 0.028776 -0.004770 -0.005265
# 5 -0.008438 0.000705 0.002554 -0.004770 0.034280 0.005313
# 6 -0.006113 -0.001279 0.003384 -0.005265 0.005313 0.034850
#
#
# Mechanical properties :
#
#
# Convention : Reuss Voigt Hill
#
# Bulk Modulus (GPa) = 37.76817 46.62634 42.19725
# Shear Modulus (GPa) = 32.92106 40.41169 36.66637
#
# Velocity S-wave (km/s) = 3.94604 4.37198 4.16446
# Velocity P-wave (km/s) = 6.21495 6.89488 6.56372
#
# Compressibility (1/GPa) = 0.02647733
#
# Stress axis : x y z
#
# Youngs Moduli (GPa) = 53.01061 95.57974 154.18828
#
# Poissons Ratio (x) = 0.13831 0.33110
# Poissons Ratio (y) = 0.07671 0.16544
# Poissons Ratio (z) = 0.11384 0.10256
#
# Static dielectric constant tensor:
#      x y z
#    x 3.741160 0.081640 -0.152090 
#    y 0.081640 4.023060 0.018160 
#    z -0.152090 0.018160 4.283700 
# 
# 
# High freq. dielectric constant tensor:
#      x y z
#    x 1.828590 0.012830 -0.004430 
#    y 0.012830 1.846750 0.003060 
#    z -0.004430 0.003060 1.848140 
# 
# From -- ./inp_files/351122.got.cif
#   From: 2010.06.25/outbox.cif.g09.slc.cpg/sg2_176_cif.got.tgz:351122.got - 2010.06.27 13:26:56.
