data_PCOD8030532
_publ_section_title
;
Structure prediction by ZEFSAII (Michael W. Deem and Ramdas Pophale) SiO2 
 PCOD8030532
Probable space group: P -1
;
_chemical_formula_sum "Si O2"
_cell_formula_units_Z 16
_cell_length_a 8.600431
_cell_length_b 20.232150
_cell_length_c 11.205299
_cell_angle_alpha 40.906551
_cell_angle_beta 137.427264
_cell_angle_gamma 109.126266
_cell_volume 739.508729
_symmetry_space_group_name_H-M "P -1"
_symmetry_group_IT_number 2
_symmetry_cell_setting 'triclinic'
loop_
_space_group_symop_operation_xyz
x,y,z
-x,-y,-z
loop_
_atom_site_type_symbol
_atom_site_label
_atom_site_fract_x
_atom_site_fract_y
_atom_site_fract_z
Si Si1 0.389044 0.946924 0.168848
Si Si2 0.848199 0.523122 0.508835
Si Si3 0.690789 0.235783 0.091635
Si Si4 0.271036 0.679992 0.237813
Si Si5 0.834459 0.817772 0.411478
Si Si6 0.891169 0.579508 0.711250
Si Si7 0.041852 0.107463 0.060716
Si Si8 0.546266 0.052410 0.297799
O O1 0.557961 0.940002 0.391651
O O2 0.592362 0.851429 0.320699
O O3 0.280846 0.082987 0.889517
O O4 0.139291 0.927696 0.074035
O O5 0.799386 0.417056 0.642121
O O6 0.007461 0.520552 0.725393
O O7 0.000000 0.500000 0.500000
O O8 0.570200 0.646105 0.170430
O O9 0.609718 0.139406 0.139218
O O10 0.910986 0.181549 0.393052
O O11 0.844393 0.255611 0.041997
O O12 0.584522 0.620115 0.478644
O O13 0.167648 0.772626 0.158245
O O14 0.937584 0.688337 0.595858
O O15 0.000000 0.500000 0.000000
O O16 0.239461 0.132697 0.060840
O O17 0.229296 0.000157 0.401079
#
# Coordination Sequence:
#
# PCOD8030532 Si02
#       8
#     2   2   2   2   2   2   2   2
#     4  11  22  39  61  94 129 165 218 261 324 384
#     4  11  24  43  66  93 130 172 217 271 336 397
#     4  11  22  41  66  94 126 170 222 265 329 391
#     4  11  22  40  65  90 123 169 218 266 320 390
#     4  11  22  37  64  95 124 163 217 274 314 383
#     4  11  22  41  65  95 127 165 221 274 324 385
#     4  11  23  42  60  93 130 169 216 260 332 390
#     4  11  24  39  64  91 133 173 205 271 327 392
#
# _framework density 21.635985000000002
#
# number of rings (size 3 to 8) (size 9 to 14) (size 15 to 20)
#    0.000    1.000    2.500    6.375    1.750    1.000 
#    0.000    3.750    0.000    0.000    0.000    0.000 
#    0.000    0.000    0.000    0.000    0.000    0.000 
#
# Total GULP energy -198270.001543 kJ/mol
# GULP energy per Si atom -12391.875096 kJ/mol
# Density = 2.158674 g / cm^3
# Si number density = 21.635985 Si / 1000 Ang^3
#
#
#
# Elastic Constant Matrix: (Units=GPa)
#
#
# Indices 1 2 3 4 5 6 
#
# 1 183.7141 61.2492 21.7763 -7.9916 -9.7255 -5.4260
# 2 61.2492 145.9666 22.4595 -5.1072 6.3346 11.8401
# 3 21.7763 22.4595 45.5776 3.5068 6.4224 2.0455
# 4 -7.9916 -5.1072 3.5068 33.7283 -0.9006 -0.0981
# 5 -9.7255 6.3346 6.4224 -0.9006 12.7541 1.3420
# 6 -5.4260 11.8401 2.0455 -0.0981 1.3420 46.3716
#
#
#
# Elastic Compliance Matrix: (Units=1/GPa)
#
#
# Indices 1 2 3 4 5 6 
#
# 1 0.007485 -0.003041 -0.003561 0.001928 0.008984 0.001553
# 2 -0.003041 0.008904 -0.002125 0.000698 -0.005372 -0.002379
# 3 -0.003561 -0.002125 0.027261 -0.004419 -0.015633 -0.000634
# 4 0.001928 0.000698 -0.004419 0.030818 0.005509 0.000148
# 5 0.008984 -0.005372 -0.015633 0.005509 0.096149 0.000342
# 6 0.001553 -0.002379 -0.000634 0.000148 0.000342 0.022372
#
#
# Mechanical properties :
#
#
# Convention : Reuss Voigt Hill
#
# Bulk Modulus (GPa) = 38.17548 65.13648 51.65598
# Shear Modulus (GPa) = 22.81275 36.55569 29.68422
#
# Velocity S-wave (km/s) = 3.25066 4.11491 3.70805
# Velocity P-wave (km/s) = 5.63665 7.26275 6.50075
#
# Compressibility (1/GPa) = 0.02619483
#
# Stress axis : x y z
#
# Youngs Moduli (GPa) = 133.60834 112.30384 36.68302
#
# Poissons Ratio (x) = 0.34152 0.13064
# Poissons Ratio (y) = 0.40631 0.07795
# Poissons Ratio (z) = 0.47583 0.23864
#
# Static dielectric constant tensor:
#      x y z
#    x 3.884400 -0.121570 -0.069180 
#    y -0.121570 4.175110 0.126470 
#    z -0.069180 0.126470 3.963300 
# 
# 
# High freq. dielectric constant tensor:
#      x y z
#    x 1.843000 0.002730 -0.001290 
#    y 0.002730 1.867830 0.002790 
#    z -0.001290 0.002790 1.845460 
# 
# From -- ./inp_files/261037.got.cif
#   From: 2010.06.25/outbox.cif.g09.slc.cpg/sg2_131_cif.got.tgz:261037.got - 2010.06.27 13:26:56.
