data_PCOD8030305
_publ_section_title
;
Structure prediction by ZEFSAII (Michael W. Deem and Ramdas Pophale) SiO2 
 PCOD8030305
Probable space group: P -1
;
_chemical_formula_sum "Si O2"
_cell_formula_units_Z 16
_cell_length_a 9.302636
_cell_length_b 9.157621
_cell_length_c 14.311086
_cell_angle_alpha 105.778440
_cell_angle_beta 77.998699
_cell_angle_gamma 48.534086
_cell_volume 741.054851
_symmetry_space_group_name_H-M "P -1"
_symmetry_group_IT_number 2
_symmetry_cell_setting 'triclinic'
loop_
_space_group_symop_operation_xyz
x,y,z
-x,-y,-z
loop_
_atom_site_type_symbol
_atom_site_label
_atom_site_fract_x
_atom_site_fract_y
_atom_site_fract_z
Si Si1 0.728513 0.414343 0.351508
Si Si2 0.737419 0.401788 0.950877
Si Si3 0.574939 0.927775 0.221753
Si Si4 0.899323 0.732450 0.593902
Si Si5 0.827141 0.453035 0.153050
Si Si6 0.286873 0.247102 0.027845
Si Si7 0.350314 0.964721 0.498833
Si Si8 0.180629 0.990958 0.710488
O O1 0.813964 0.344943 0.220548
O O2 0.506423 0.692649 0.436201
O O3 0.915396 0.322254 0.383964
O O4 0.683408 0.275239 0.359609
O O5 0.702581 0.581699 0.926693
O O6 0.936822 0.157088 0.824260
O O7 0.500000 0.500000 0.000000
O O8 0.807135 0.378762 0.044952
O O9 0.637083 0.734865 0.246573
O O10 0.656748 0.027517 0.256979
O O11 0.303549 0.148042 0.285406
O O12 0.717714 0.775437 0.085213
O O13 0.000000 0.500000 0.500000
O O14 0.795518 0.912736 0.554636
O O15 0.063107 0.352684 0.118896
O O16 0.500000 0.000000 0.000000
O O17 0.500000 0.000000 0.500000
O O18 0.163801 0.084331 0.627206
#
# Coordination Sequence:
#
# PCOD8030305 Si02
#       8
#     2   2   2   2   2   2   2   2
#     4  12  27  43  73 108 141 182 235 291 366 418
#     4  11  26  44  68 106 144 186 234 294 356 413
#     4  11  21  44  68  96 139 186 232 289 344 415
#     4  12  25  43  75 105 132 184 245 285 353 433
#     4  11  22  46  72  97 145 192 234 289 347 424
#     4  11  23  40  69 103 134 187 249 281 343 431
#     4  12  24  48  75  99 139 185 234 298 349 418
#     4  12  25  44  71 100 147 182 228 293 363 415
#
# _framework density 21.590845999999999
#
# number of rings (size 3 to 8) (size 9 to 14) (size 15 to 20)
#    0.000    0.500    6.250    1.875    5.250    3.000 
#    0.000    1.250    0.000    0.000    0.000    0.000 
#    0.000    0.000    0.000    0.000    0.000    0.000 
#
# Total GULP energy -198347.264563 kJ/mol
# GULP energy per Si atom -12396.704035 kJ/mol
# Density = 2.154170 g / cm^3
# Si number density = 21.590846 Si / 1000 Ang^3
#
#
#
# Elastic Constant Matrix: (Units=GPa)
#
#
# Indices 1 2 3 4 5 6 
#
# 1 104.3321 43.2106 33.8823 -0.4750 -0.6691 0.9010
# 2 43.2106 120.6438 35.5041 5.5622 5.4301 -3.4416
# 3 33.8823 35.5041 95.8566 5.3163 -5.5665 2.6985
# 4 -0.4750 5.5622 5.3163 39.2213 5.4290 -0.3311
# 5 -0.6691 5.4301 -5.5665 5.4290 33.9033 2.1713
# 6 0.9010 -3.4416 2.6985 -0.3311 2.1713 38.9207
#
#
#
# Elastic Compliance Matrix: (Units=1/GPa)
#
#
# Indices 1 2 3 4 5 6 
#
# 1 0.012009 -0.003487 -0.002989 0.001019 0.000166 -0.000380
# 2 -0.003487 0.010531 -0.002784 -0.000848 -0.002161 0.001318
# 3 -0.002989 -0.002784 0.012820 -0.001785 0.002857 -0.001240
# 4 0.001019 -0.000848 -0.001785 0.026486 -0.004410 0.000496
# 5 0.000166 -0.002161 0.002857 -0.004410 0.031159 -0.002169
# 6 -0.000380 0.001318 -0.001240 0.000496 -0.002169 0.026030
#
#
# Mechanical properties :
#
#
# Convention : Reuss Voigt Hill
#
# Bulk Modulus (GPa) = 59.38320 60.66960 60.02640
# Shear Modulus (GPa) = 34.92437 36.29146 35.60791
#
# Velocity S-wave (km/s) = 4.02625 4.10429 4.06546
# Velocity P-wave (km/s) = 7.01269 7.11484 7.06395
#
# Compressibility (1/GPa) = 0.01683978
#
# Stress axis : x y z
#
# Youngs Moduli (GPa) = 83.27349 94.95941 78.00432
#
# Poissons Ratio (x) = 0.33108 0.23319
# Poissons Ratio (y) = 0.29034 0.21714
# Poissons Ratio (z) = 0.24895 0.26433
#
# Static dielectric constant tensor:
#      x y z
#    x 4.071710 0.137540 1.019010 
#    y 0.137540 3.593800 2.070190 
#    z 1.019010 2.070190 0.027150 
# 
# 
# High freq. dielectric constant tensor:
#      x y z
#    x 1.839850 0.006520 -0.005130 
#    y 0.006520 1.851970 0.001130 
#    z -0.005130 0.001130 1.869050 
# 
# From -- ./inp_files/208065.got.cif
#   From: 2010.06.25/outbox.cif.g09.slc.cpg/sg2_105_cif.got.tgz:208065.got - 2010.06.27 13:26:56.
