data_PCOD8030502
_publ_section_title
;
Structure prediction by ZEFSAII (Michael W. Deem and Ramdas Pophale) SiO2 
 PCOD8030502
Probable space group: P -1
;
_chemical_formula_sum "Si O2"
_cell_formula_units_Z 16
_cell_length_a 9.352390
_cell_length_b 22.242170
_cell_length_c 19.677127
_cell_angle_alpha 20.100267
_cell_angle_beta 132.794410
_cell_angle_gamma 138.466190
_cell_volume 927.699961
_symmetry_space_group_name_H-M "P -1"
_symmetry_group_IT_number 2
_symmetry_cell_setting 'triclinic'
loop_
_space_group_symop_operation_xyz
x,y,z
-x,-y,-z
loop_
_atom_site_type_symbol
_atom_site_label
_atom_site_fract_x
_atom_site_fract_y
_atom_site_fract_z
Si Si1 0.437230 0.505837 0.395545
Si Si2 0.705715 0.590932 0.017478
Si Si3 0.549210 0.918750 0.003865
Si Si4 0.929606 0.341019 0.382818
Si Si5 0.144717 0.847000 0.036837
Si Si6 0.738195 0.463155 0.301657
Si Si7 0.451687 0.238087 0.571088
Si Si8 0.980043 0.013528 0.686628
O O1 0.500000 0.500000 0.500000
O O2 0.182503 0.425812 0.388135
O O3 0.517791 0.374956 0.514380
O O4 0.552437 0.730647 0.167841
O O5 0.636227 0.551564 0.116674
O O6 0.873079 0.496154 0.157097
O O7 0.500000 0.500000 0.000000
O O8 0.827117 0.822732 0.797306
O O9 0.773988 0.029699 0.999101
O O10 0.527406 0.067673 0.785241
O O11 0.345103 0.827915 0.085861
O O12 0.849796 0.140633 0.527204
O O13 0.804349 0.306517 0.451685
O O14 0.957604 0.635317 0.219681
O O15 0.056341 0.962165 0.836963
O O16 0.564760 0.366026 0.406797
O O17 0.194245 0.142174 0.575208
#
# Coordination Sequence:
#
# PCOD8030502 Si02
#       8
#     2   2   2   2   2   2   2   2
#     4  11  19  33  55  77 100 146 188 206 237 308
#     4   9  19  36  60  79  99 131 172 213 257 317
#     4  10  17  31  48  73  96 143 182 206 244 308
#     4   9  18  33  55  74 102 137 173 209 252 305
#     4   9  16  31  51  67 102 138 176 211 247 298
#     4   9  19  36  49  75 108 130 165 224 270 291
#     4  10  21  32  50  76 107 136 167 222 262 293
#     4   9  17  33  55  74  97 137 174 199 253 321
#
# _framework density 17.246956000000001
#
# number of rings (size 3 to 8) (size 9 to 14) (size 15 to 20)
#    0.750    1.750    1.250    3.750    0.000    1.000 
#    4.500    1.250    0.000    3.000    0.000    0.000 
#    0.000    0.000    0.000    0.000    0.000    0.000 
#
# Total GULP energy -198257.862051 kJ/mol
# GULP energy per Si atom -12391.116378 kJ/mol
# Density = 1.720770 g / cm^3
# Si number density = 17.246956 Si / 1000 Ang^3
#
#
#
# Elastic Constant Matrix: (Units=GPa)
#
#
# Indices 1 2 3 4 5 6 
#
# 1 62.8134 31.1798 50.4546 -12.7035 -3.0971 1.7758
# 2 31.1798 104.8495 41.0875 -16.4089 2.0771 -0.4666
# 3 50.4546 41.0875 107.7256 -24.0508 8.2914 -2.9115
# 4 -12.7035 -16.4089 -24.0508 26.2842 -1.0647 3.9397
# 5 -3.0971 2.0771 8.2914 -1.0647 39.6966 -2.5684
# 6 1.7758 -0.4666 -2.9115 3.9397 -2.5684 13.2021
#
#
#
# Elastic Compliance Matrix: (Units=1/GPa)
#
#
# Indices 1 2 3 4 5 6 
#
# 1 0.027938 -0.003520 -0.011920 0.001492 0.004500 -0.006081
# 2 -0.003520 0.012015 -0.002017 0.004063 -0.000428 -0.000842
# 3 -0.011920 -0.002017 0.018023 0.009001 -0.004218 0.002000
# 4 0.001492 0.004063 0.009001 0.051539 -0.001483 -0.013740
# 5 0.004500 -0.000428 -0.004218 -0.001483 0.026670 0.004080
# 6 -0.006081 -0.000842 0.002000 -0.013740 0.004080 0.081869
#
#
# Mechanical properties :
#
#
# Convention : Reuss Voigt Hill
#
# Bulk Modulus (GPa) = 43.36011 57.87027 50.61519
# Shear Modulus (GPa) = 19.18248 26.01434 22.59841
#
# Velocity S-wave (km/s) = 3.33862 3.88795 3.62371
# Velocity P-wave (km/s) = 6.32907 7.33360 6.84977
#
# Compressibility (1/GPa) = 0.02306267
#
# Stress axis : x y z
#
# Youngs Moduli (GPa) = 35.79416 83.22847 55.48359
#
# Poissons Ratio (x) = 0.29293 0.66137
# Poissons Ratio (y) = 0.12598 0.11191
# Poissons Ratio (z) = 0.42667 0.16787
#
# Static dielectric constant tensor:
#      x y z
#    x 3.011910 -0.030510 0.323640 
#    y -0.030510 3.048730 -0.251060 
#    z 0.323640 -0.251060 3.384190 
# 
# 
# High freq. dielectric constant tensor:
#      x y z
#    x 1.631240 0.003880 0.024030 
#    y 0.003880 1.649510 -0.017480 
#    z 0.024030 -0.017480 1.668340 
# 
# From -- ./inp_files/503642.got.cif
#   From: 2010.06.25/outbox.cif.g09.slc.cpg/sg2_252_cif.got.tgz:503642.got - 2010.06.27 13:26:56.
