data_PCOD8030477
_publ_section_title
;
Structure prediction by ZEFSAII (Michael W. Deem and Ramdas Pophale) SiO2 
 PCOD8030477
Probable space group: P -1
;
_chemical_formula_sum "Si O2"
_cell_formula_units_Z 16
_cell_length_a 9.592787
_cell_length_b 16.192975
_cell_length_c 13.242259
_cell_angle_alpha 24.953624
_cell_angle_beta 63.639934
_cell_angle_gamma 66.326762
_cell_volume 777.577874
_symmetry_space_group_name_H-M "P -1"
_symmetry_group_IT_number 2
_symmetry_cell_setting 'triclinic'
loop_
_space_group_symop_operation_xyz
x,y,z
-x,-y,-z
loop_
_atom_site_type_symbol
_atom_site_label
_atom_site_fract_x
_atom_site_fract_y
_atom_site_fract_z
Si Si1 0.722676 0.914584 0.757793
Si Si2 0.392848 0.807882 0.950593
Si Si3 0.878015 0.463442 0.666666
Si Si4 0.459673 0.478836 0.922025
Si Si5 0.982927 0.206470 0.103865
Si Si6 0.290080 0.236327 0.486289
Si Si7 0.150425 0.670898 0.780532
Si Si8 0.854148 0.796639 0.635779
O O1 0.834271 0.784020 0.937401
O O2 0.748761 0.867180 0.684088
O O3 0.761240 0.144236 0.503069
O O4 0.546338 0.858395 0.911721
O O5 0.274227 0.644227 0.214391
O O6 0.459534 0.720367 0.921040
O O7 0.293707 0.002927 0.749917
O O8 0.839317 0.672683 0.498114
O O9 0.000000 0.500000 0.500000
O O10 0.951617 0.323589 0.882534
O O11 0.545288 0.670261 0.635000
O O12 0.274145 0.487606 0.940171
O O13 0.500000 0.500000 0.000000
O O14 0.882384 0.290523 0.134743
O O15 0.940224 0.979815 0.353589
O O16 0.253445 0.297142 0.313574
O O17 0.988705 0.640075 0.802420
#
# Coordination Sequence:
#
# PCOD8030477 Si02
#       8
#     2   2   2   2   2   2   2   2
#     4   9  18  32  59  86 120 155 177 218 278 345
#     4  11  22  38  56  84 116 150 191 231 283 338
#     4  11  25  43  61  81 106 143 199 255 289 326
#     4  11  22  31  51  86 123 156 184 222 268 338
#     4   9  18  36  56  85 117 150 192 228 270 333
#     4  11  22  37  58  84 114 149 191 232 284 339
#     4   9  17  33  55  87 123 152 184 214 269 342
#     4   9  18  32  57  88 119 154 181 219 272 342
#
# _framework density 20.576718
#
# number of rings (size 3 to 8) (size 9 to 14) (size 15 to 20)
#    0.000    2.000    2.500    3.750    1.750    2.500 
#    0.000    3.750    0.000    0.750    0.000    0.000 
#    0.000    0.000    0.000    0.000    0.000    0.000 
#
# Total GULP energy -198271.130470 kJ/mol
# GULP energy per Si atom -12391.945654 kJ/mol
# Density = 2.052988 g / cm^3
# Si number density = 20.576718 Si / 1000 Ang^3
#
#
#
# Elastic Constant Matrix: (Units=GPa)
#
#
# Indices 1 2 3 4 5 6 
#
# 1 150.2121 44.5438 45.8204 7.6120 -13.4842 -15.7608
# 2 44.5438 65.7597 39.9694 -12.7200 11.7084 -15.4805
# 3 45.8204 39.9694 89.2120 -11.1709 4.9758 -15.1035
# 4 7.6120 -12.7200 -11.1709 35.2151 -6.4237 1.2020
# 5 -13.4842 11.7084 4.9758 -6.4237 25.7298 -8.1461
# 6 -15.7608 -15.4805 -15.1035 1.2020 -8.1461 26.0149
#
#
#
# Elastic Compliance Matrix: (Units=1/GPa)
#
#
# Indices 1 2 3 4 5 6 
#
# 1 0.011363 -0.007692 -0.002823 -0.004411 0.010186 0.004062
# 2 -0.007692 0.029337 -0.006759 0.007638 -0.012732 0.004534
# 3 -0.002823 -0.006759 0.016767 0.003438 0.000476 0.003993
# 4 -0.004411 0.007638 0.003438 0.033631 0.002972 0.003246
# 5 0.010186 -0.012732 0.000476 0.002972 0.055776 0.016199
# 6 0.004062 0.004534 0.003993 0.003246 0.016199 0.050838
#
#
# Mechanical properties :
#
#
# Convention : Reuss Voigt Hill
#
# Bulk Modulus (GPa) = 43.63058 62.87235 53.25146
# Shear Modulus (GPa) = 20.84191 29.04864 24.94528
#
# Velocity S-wave (km/s) = 3.18604 3.76137 3.48560
# Velocity P-wave (km/s) = 5.89783 7.03458 6.49113
#
# Compressibility (1/GPa) = 0.02291970
#
# Stress axis : x y z
#
# Youngs Moduli (GPa) = 88.00154 34.08668 59.64006
#
# Poissons Ratio (x) = 0.26220 0.16836
# Poissons Ratio (y) = 0.67692 0.40310
# Poissons Ratio (z) = 0.24842 0.23039
#
# Static dielectric constant tensor:
#      x y z
#    x 4.322040 -0.039230 -0.314680 
#    y -0.039230 3.402320 -0.458710 
#    z -0.314680 -0.458710 3.787330 
# 
# 
# High freq. dielectric constant tensor:
#      x y z
#    x 1.832210 -0.004490 -0.017860 
#    y -0.004490 1.759460 -0.053430 
#    z -0.017860 -0.053430 1.798790 
# 
# From -- ./inp_files/398077.got.cif
#   From: 2010.06.25/outbox.cif.g09.slc.cpg/sg2_200_cif.got.tgz:398077.got - 2010.06.27 13:26:56.
