data_PCOD8030376
_publ_section_title
;
Structure prediction by ZEFSAII (Michael W. Deem and Ramdas Pophale) SiO2 
 PCOD8030376
Probable space group: P -1
;
_chemical_formula_sum "Si O2"
_cell_formula_units_Z 14
_cell_length_a 8.841334
_cell_length_b 9.132368
_cell_length_c 12.837016
_cell_angle_alpha 55.192895
_cell_angle_beta 121.771280
_cell_angle_gamma 131.022800
_cell_volume 622.470911
_symmetry_space_group_name_H-M "P -1"
_symmetry_group_IT_number 2
_symmetry_cell_setting 'triclinic'
loop_
_space_group_symop_operation_xyz
x,y,z
-x,-y,-z
loop_
_atom_site_type_symbol
_atom_site_label
_atom_site_fract_x
_atom_site_fract_y
_atom_site_fract_z
Si Si1 0.476721 0.285866 0.043440
Si Si2 0.959634 0.683832 0.386077
Si Si3 0.739795 0.105813 0.241791
Si Si4 0.668502 0.983802 0.498376
Si Si5 0.425699 0.295268 0.790496
Si Si6 0.889462 0.991657 0.856021
Si Si7 0.813918 0.718315 0.743417
O O1 0.690350 0.284208 0.116788
O O2 0.349300 0.113599 0.155236
O O3 0.500000 0.500000 0.000000
O O4 0.360175 0.224518 0.914967
O O5 0.720810 0.619330 0.340412
O O6 0.000000 0.500000 0.500000
O O7 0.095662 0.857203 0.448335
O O8 0.034777 0.781255 0.257410
O O9 0.987755 0.220742 0.281086
O O10 0.647155 0.019007 0.356656
O O11 0.617237 0.907501 0.203837
O O12 0.653296 0.766008 0.605229
O O13 0.500000 0.000000 0.500000
O O14 0.669764 0.470102 0.807753
O O15 0.902974 0.841401 0.834913
O O16 0.000000 0.000000 0.000000
#
# Coordination Sequence:
#
# PCOD8030376 Si02
#       7
#     2   2   2   2   2   2   2
#     4  12  26  46  74 104 144 198 252 305 369 448
#     4  11  24  42  73 109 151 191 249 311 366 450
#     4  12  26  48  72 103 149 193 243 318 373 441
#     4  11  24  47  73 103 147 190 244 304 374 444
#     4  12  25  46  72 108 150 191 248 305 377 444
#     4  11  21  44  74 104 149 197 249 310 365 441
#     4  11  24  45  71 107 147 188 245 306 371 448
#
# _framework density 22.491008999999998
#
# number of rings (size 3 to 8) (size 9 to 14) (size 15 to 20)
#    0.000    0.571    5.714    3.429    2.000    1.143 
#    7.714    0.000    0.000    0.000    0.000    0.000 
#    0.000    0.000    0.000    0.000    0.000    0.000 
#
# Total GULP energy -173513.752371 kJ/mol
# GULP energy per Si atom -12393.839455 kJ/mol
# Density = 2.243982 g / cm^3
# Si number density = 22.491009 Si / 1000 Ang^3
#
#
#
# Elastic Constant Matrix: (Units=GPa)
#
#
# Indices 1 2 3 4 5 6 
#
# 1 144.1932 54.9056 55.1097 -5.4699 2.3513 -7.0211
# 2 54.9056 107.0177 57.6344 -9.0404 -5.3311 3.7328
# 3 55.1097 57.6344 139.1238 -2.0273 -2.7037 -21.0049
# 4 -5.4699 -9.0404 -2.0273 41.2712 -4.3202 -1.9288
# 5 2.3513 -5.3311 -2.7037 -4.3202 46.9410 -6.1104
# 6 -7.0211 3.7328 -21.0049 -1.9288 -6.1104 32.2587
#
#
#
# Elastic Compliance Matrix: (Units=1/GPa)
#
#
# Indices 1 2 3 4 5 6 
#
# 1 0.009166 -0.003703 -0.001957 0.000267 -0.000837 0.001006
# 2 -0.003703 0.014579 -0.005376 0.002279 0.001004 -0.005667
# 3 -0.001957 -0.005376 0.011383 -0.000396 0.001122 0.007797
# 4 0.000267 0.002279 -0.000396 0.025104 0.002736 0.001556
# 5 -0.000837 0.001004 0.001122 0.002736 0.022406 0.004840
# 6 0.001006 -0.005667 0.007797 0.001556 0.004840 0.037961
#
#
# Mechanical properties :
#
#
# Convention : Reuss Voigt Hill
#
# Bulk Modulus (GPa) = 76.58829 80.62600 78.60714
# Shear Modulus (GPa) = 34.00817 38.93985 36.47401
#
# Velocity S-wave (km/s) = 3.89276 4.16547 4.03142
# Velocity P-wave (km/s) = 7.37100 7.68510 7.52969
#
# Compressibility (1/GPa) = 0.01305683
#
# Stress axis : x y z
#
# Youngs Moduli (GPa) = 109.10006 68.59033 87.84672
#
# Poissons Ratio (x) = 0.25397 0.17194
# Poissons Ratio (y) = 0.40396 0.47226
# Poissons Ratio (z) = 0.21354 0.36874
#
# Static dielectric constant tensor:
#      x y z
#    x 4.272250 0.407620 -0.376270 
#    y 0.407620 4.769400 -0.975160 
#    z -0.376270 -0.975160 5.336350 
# 
# 
# High freq. dielectric constant tensor:
#      x y z
#    x 1.888130 0.013010 0.000110 
#    y 0.013010 1.878480 0.000770 
#    z 0.000110 0.000770 1.900860 
# 
# From -- ./inp_files/181962.got.cif
#   From: 2010.06.25/outbox.cif.g09.slc.cpg/sg2_91_cif.got.tgz:181962.got - 2010.06.27 13:26:56.
