data_PCOD8030990
_publ_section_title
;
Structure prediction by ZEFSAII (Michael W. Deem and Ramdas Pophale) SiO2 
 PCOD8030990
Probable space group: P -1
;
_chemical_formula_sum "Si O2"
_cell_formula_units_Z 16
_cell_length_a 9.344191
_cell_length_b 8.792309
_cell_length_c 14.420183
_cell_angle_alpha 124.165978
_cell_angle_beta 112.526011
_cell_angle_gamma 103.786242
_cell_volume 728.886419
_symmetry_space_group_name_H-M "P -1"
_symmetry_group_IT_number 2
_symmetry_cell_setting 'triclinic'
loop_
_space_group_symop_operation_xyz
x,y,z
-x,-y,-z
loop_
_atom_site_type_symbol
_atom_site_label
_atom_site_fract_x
_atom_site_fract_y
_atom_site_fract_z
Si Si1 0.682404 0.723520 0.668739
Si Si2 0.786063 0.308388 0.352497
Si Si3 0.731301 0.305528 0.697019
Si Si4 0.897323 0.023975 0.192043
Si Si5 0.021721 0.873239 0.332524
Si Si6 0.309453 0.342014 0.141120
Si Si7 0.736005 0.646504 0.352203
Si Si8 0.530654 0.113504 0.400023
O O1 0.500000 0.500000 0.500000
O O2 0.668903 0.732983 0.778501
O O3 0.663741 0.916060 0.688401
O O4 0.880057 0.769455 0.700997
O O5 0.708370 0.434941 0.326887
O O6 0.661179 0.162981 0.360681
O O7 0.000000 0.500000 0.500000
O O8 0.782270 0.128135 0.223046
O O9 0.890543 0.259094 0.722712
O O10 0.811448 0.551804 0.844878
O O11 0.663161 0.311818 0.577538
O O12 0.541884 0.121198 0.647409
O O13 0.886359 0.865569 0.217173
O O14 0.802954 0.876491 0.026224
O O15 0.889846 0.733168 0.339072
O O16 0.192007 0.138237 0.489125
O O17 0.523584 0.539976 0.223785
#
# Coordination Sequence:
#
# PCOD8030990 Si02
#       8
#     2   2   2   2   2   2   2   2
#     4  12  22  47  72  99 133 179 234 288 332 398
#     4  12  24  43  71 100 132 181 233 283 340 400
#     4  11  24  41  70 103 134 177 228 282 340 400
#     4  12  28  45  66 104 143 181 223 283 348 412
#     4  11  24  45  69 102 136 178 237 281 328 406
#     4  12  27  45  67 102 145 181 221 281 354 409
#     4  11  24  44  71 101 136 177 233 287 334 405
#     4  11  22  41  71 101 128 173 241 287 325 397
#
# _framework density 21.951295999999999
#
# number of rings (size 3 to 8) (size 9 to 14) (size 15 to 20)
#    0.000    0.500    5.000    4.125    5.250    1.500 
#    0.000    0.000    0.000    0.000    0.000    0.000 
#    0.000    0.000    0.000    0.000    0.000    0.000 
#
# Total GULP energy -198384.932479 kJ/mol
# GULP energy per Si atom -12399.058280 kJ/mol
# Density = 2.190133 g / cm^3
# Si number density = 21.951296 Si / 1000 Ang^3
#
#
#
# Elastic Constant Matrix: (Units=GPa)
#
#
# Indices 1 2 3 4 5 6 
#
# 1 121.7536 48.2052 38.9327 10.0759 -16.4740 -4.3290
# 2 48.2052 103.1663 44.3173 -5.2123 -13.4676 1.6787
# 3 38.9327 44.3173 114.1319 -5.2925 -23.2860 -3.1390
# 4 10.0759 -5.2123 -5.2925 23.3940 -3.7825 -3.8316
# 5 -16.4740 -13.4676 -23.2860 -3.7825 35.4902 4.6384
# 6 -4.3290 1.6787 -3.1390 -3.8316 4.6384 44.6658
#
#
#
# Elastic Compliance Matrix: (Units=1/GPa)
#
#
# Indices 1 2 3 4 5 6 
#
# 1 0.011404 -0.004552 -0.002089 -0.006084 0.001488 0.000453
# 2 -0.004552 0.013656 -0.003265 0.004351 0.001517 -0.000968
# 3 -0.002089 -0.003265 0.012198 0.004006 0.006159 0.000482
# 4 -0.006084 0.004351 0.004006 0.048754 0.006252 0.003061
# 5 0.001488 0.001517 0.006159 0.006252 0.034480 -0.002524
# 6 0.000453 -0.000968 0.000482 0.003061 -0.002524 0.023027
#
#
# Mechanical properties :
#
#
# Convention : Reuss Voigt Hill
#
# Bulk Modulus (GPa) = 57.31819 66.88470 62.10145
# Shear Modulus (GPa) = 29.55985 34.54977 32.05481
#
# Velocity S-wave (km/s) = 3.67360 3.97158 3.82549
# Velocity P-wave (km/s) = 6.64545 7.18102 6.91842
#
# Compressibility (1/GPa) = 0.01744647
#
# Stress axis : x y z
#
# Youngs Moduli (GPa) = 87.68519 73.22597 81.98219
#
# Poissons Ratio (x) = 0.33332 0.17124
# Poissons Ratio (y) = 0.39914 0.26770
# Poissons Ratio (z) = 0.18315 0.23910
#
# Static dielectric constant tensor:
#      x y z
#    x 4.668610 -0.666360 -0.207890 
#    y -0.666360 5.045800 0.176390 
#    z -0.207890 0.176390 3.723190 
# 
# 
# High freq. dielectric constant tensor:
#      x y z
#    x 1.879090 0.001570 -0.008160 
#    y 0.001570 1.883980 -0.003440 
#    z -0.008160 -0.003440 1.825840 
# 
# From -- ./inp_files/298380.got.cif
#   From: 2010.06.25/outbox.cif.g09.slc.cpg/sg2_150_cif.got.tgz:298380.got - 2010.06.27 13:26:56.
