data_PCOD8030042
_publ_section_title
;
Structure prediction by ZEFSAII (Michael W. Deem and Ramdas Pophale) SiO2 
 PCOD8030042
Probable space group: P -1
;
_chemical_formula_sum "Si O2"
_cell_formula_units_Z 16
_cell_length_a 20.325199
_cell_length_b 17.464967
_cell_length_c 6.095603
_cell_angle_alpha 103.526718
_cell_angle_beta 76.982049
_cell_angle_gamma 159.944329
_cell_volume 721.358948
_symmetry_space_group_name_H-M "P -1"
_symmetry_group_IT_number 2
_symmetry_cell_setting 'triclinic'
loop_
_space_group_symop_operation_xyz
x,y,z
-x,-y,-z
loop_
_atom_site_type_symbol
_atom_site_label
_atom_site_fract_x
_atom_site_fract_y
_atom_site_fract_z
Si Si1 0.175121 0.649812 0.083093
Si Si2 0.427089 0.474126 0.235027
Si Si3 0.078631 0.720946 0.667677
Si Si4 0.234802 0.138915 0.460119
Si Si5 0.932924 0.844605 0.845146
Si Si6 0.190980 0.530366 0.677145
Si Si7 0.034659 0.816205 0.071720
Si Si8 0.567348 0.991397 0.551398
O O1 0.097658 0.522872 0.274748
O O2 0.341031 0.890609 0.197931
O O3 0.256055 0.677574 0.864904
O O4 0.000000 0.500000 0.000000
O O5 0.300972 0.287475 0.377021
O O6 0.606157 0.710839 0.378503
O O7 0.294283 0.398847 0.192554
O O8 0.500000 0.500000 0.000000
O O9 0.002514 0.668641 0.454534
O O10 0.270044 0.877046 0.621023
O O11 0.121427 0.840561 0.877859
O O12 0.204282 0.033146 0.246279
O O13 0.038571 0.943863 0.603207
O O14 0.960157 0.804660 0.968451
O O15 0.000000 0.000000 0.000000
O O16 0.387164 0.733059 0.526698
O O17 0.144464 0.408196 0.795164
O O18 0.500000 0.000000 0.500000
#
# Coordination Sequence:
#
# PCOD8030042 Si02
#       8
#     2   2   2   2   2   2   2   2
#     4  11  21  41  75 101 132 179 231 289 346 411
#     4  11  23  41  74 112 133 170 243 295 347 414
#     4  11  24  46  66 101 148 181 227 292 356 420
#     4  11  23  44  72 101 139 184 228 293 358 419
#     4  12  23  45  77 101 135 184 240 297 346 417
#     4  11  24  44  67 102 141 184 231 287 362 419
#     4  11  26  46  69  95 148 192 228 289 364 421
#     4  12  23  43  79 103 134 183 239 293 341 417
#
# _framework density 22.180357999999998
#
# number of rings (size 3 to 8) (size 9 to 14) (size 15 to 20)
#    0.000    0.750    5.000    2.625    0.000    0.000 
#    0.000   12.500    0.000    0.000    0.000    0.000 
#    0.000    0.000    0.000    0.000    0.000    0.000 
#
# Total GULP energy -198388.186737 kJ/mol
# GULP energy per Si atom -12399.261671 kJ/mol
# Density = 2.212987 g / cm^3
# Si number density = 22.180358 Si / 1000 Ang^3
#
#
#
# Elastic Constant Matrix: (Units=GPa)
#
#
# Indices 1 2 3 4 5 6 
#
# 1 114.9826 58.2415 54.6598 5.8507 1.7455 11.8091
# 2 58.2415 112.9078 52.3208 9.7093 -4.9931 20.7790
# 3 54.6598 52.3208 125.5612 11.6219 -4.5652 11.0080
# 4 5.8507 9.7093 11.6219 47.0818 -4.6563 3.4727
# 5 1.7455 -4.9931 -4.5652 -4.6563 37.6251 0.0272
# 6 11.8091 20.7790 11.0080 3.4727 0.0272 38.5193
#
#
#
# Elastic Compliance Matrix: (Units=1/GPa)
#
#
# Indices 1 2 3 4 5 6 
#
# 1 0.013036 -0.005101 -0.003607 0.000171 -0.001698 -0.000228
# 2 -0.005101 0.013961 -0.003008 -0.000973 0.001607 -0.005021
# 3 -0.003607 -0.003008 0.010987 -0.001533 0.000912 -0.000274
# 4 0.000171 -0.000973 -0.001533 0.022116 0.002415 -0.001085
# 5 -0.001698 0.001607 0.000912 0.002415 0.027280 -0.000844
# 6 -0.000228 -0.005021 -0.000274 -0.001085 -0.000844 0.028916
#
#
# Mechanical properties :
#
#
# Convention : Reuss Voigt Hill
#
# Bulk Modulus (GPa) = 68.71960 75.98843 72.35402
# Shear Modulus (GPa) = 34.58341 37.19388 35.88864
#
# Velocity S-wave (km/s) = 3.95294 4.09942 4.02685
# Velocity P-wave (km/s) = 7.20304 7.53264 7.36968
#
# Compressibility (1/GPa) = 0.01455189
#
# Stress axis : x y z
#
# Youngs Moduli (GPa) = 76.71235 71.63005 91.01682
#
# Poissons Ratio (x) = 0.36536 0.32829
# Poissons Ratio (y) = 0.39128 0.27380
# Poissons Ratio (z) = 0.27670 0.21548
#
# Static dielectric constant tensor:
#      x y z
#    x 4.564200 -0.093580 -0.489690 
#    y -0.093580 4.170000 0.242360 
#    z -0.489690 0.242360 4.524540 
# 
# 
# High freq. dielectric constant tensor:
#      x y z
#    x 1.857450 0.003160 0.006550 
#    y 0.003160 1.875210 0.001930 
#    z 0.006550 0.001930 1.892060 
# 
# From -- ./inp_files/117514.got.cif
#   From: 2010.06.25/outbox.cif.g09.slc.cpg/sg2_59_cif.got.tgz:117514.got - 2010.06.27 13:26:56.
