data_PCOD8030010
_publ_section_title
;
Structure prediction by ZEFSAII (Michael W. Deem and Ramdas Pophale) SiO2 
 PCOD8030010
Probable space group: P -1
;
_chemical_formula_sum "Si O2"
_cell_formula_units_Z 16
_cell_length_a 26.450442
_cell_length_b 10.106919
_cell_length_c 9.335846
_cell_angle_alpha 46.264714
_cell_angle_beta 134.119709
_cell_angle_gamma 153.872478
_cell_volume 771.456334
_symmetry_space_group_name_H-M "P -1"
_symmetry_group_IT_number 2
_symmetry_cell_setting 'triclinic'
loop_
_space_group_symop_operation_xyz
x,y,z
-x,-y,-z
loop_
_atom_site_type_symbol
_atom_site_label
_atom_site_fract_x
_atom_site_fract_y
_atom_site_fract_z
Si Si1 0.320350 0.644225 0.176883
Si Si2 0.573995 0.325708 0.143160
Si Si3 0.544638 0.679351 0.306871
Si Si4 0.680348 0.694230 0.367622
Si Si5 0.017989 0.131914 0.585032
Si Si6 0.936954 0.353728 0.334620
Si Si7 0.711042 0.354051 0.194967
Si Si8 0.918859 0.712200 0.951549
O O1 0.290811 0.418945 0.393067
O O2 0.448150 0.994064 0.202860
O O3 0.316327 0.577719 0.050588
O O4 0.217184 0.578324 0.046897
O O5 0.636915 0.554009 0.228355
O O6 0.655089 0.327729 0.246164
O O7 0.558547 0.426492 0.900301
O O8 0.500000 0.500000 0.500000
O O9 0.582146 0.603455 0.325258
O O10 0.654012 0.036945 0.294400
O O11 0.798012 0.055476 0.310442
O O12 0.150257 0.383903 0.712535
O O13 0.984631 0.276687 0.400776
O O14 0.000000 0.000000 0.500000
O O15 0.926171 0.828194 0.727995
O O16 0.964370 0.597120 0.118169
O O17 0.000000 0.500000 0.500000
O O18 0.000000 0.000000 0.000000
#
# Coordination Sequence:
#
# PCOD8030010 Si02
#       8
#     2   2   2   2   2   2   2   2
#     4  11  21  41  70  94 130 177 222 269 335 406
#     4  11  24  42  64  98 134 172 217 275 341 389
#     4  11  23  42  63  94 130 172 223 266 325 403
#     4  12  23  40  67 100 132 168 220 285 333 392
#     4  12  26  46  67 101 140 171 225 287 342 387
#     4  12  23  43  72 101 129 181 234 268 336 411
#     4  11  23  43  65  91 129 177 219 268 329 406
#     4  12  23  44  71 100 129 180 229 281 330 404
#
# _framework density 20.739993999999999
#
# number of rings (size 3 to 8) (size 9 to 14) (size 15 to 20)
#    0.000    0.500    3.750    6.750    0.000    0.500 
#    4.500    0.000    0.000    0.000    0.000    0.000 
#    0.000    0.000    0.000    0.000    0.000    0.000 
#
# Total GULP energy -198414.879364 kJ/mol
# GULP energy per Si atom -12400.929960 kJ/mol
# Density = 2.069279 g / cm^3
# Si number density = 20.739994 Si / 1000 Ang^3
#
#
#
# Elastic Constant Matrix: (Units=GPa)
#
#
# Indices 1 2 3 4 5 6 
#
# 1 136.4993 41.9354 37.2442 -3.9908 1.4400 -13.5686
# 2 41.9354 103.8453 38.4004 -2.3540 -6.9393 1.0128
# 3 37.2442 38.4004 101.9250 -22.0876 1.2142 -13.0707
# 4 -3.9908 -2.3540 -22.0876 26.1461 -3.0323 2.3510
# 5 1.4400 -6.9393 1.2142 -3.0323 41.9183 2.5655
# 6 -13.5686 1.0128 -13.0707 2.3510 2.5655 41.0103
#
#
#
# Elastic Compliance Matrix: (Units=1/GPa)
#
#
# Indices 1 2 3 4 5 6 
#
# 1 0.009041 -0.003007 -0.002042 -0.000956 -0.000973 0.002531
# 2 -0.003007 0.012686 -0.004657 -0.002733 0.002311 -0.002780
# 3 -0.002042 -0.004657 0.015359 0.011853 -0.000514 0.003687
# 4 -0.000956 -0.002733 0.011853 0.048125 0.002681 0.000602
# 5 -0.000973 0.002311 -0.000514 0.002681 0.024618 -0.002237
# 6 0.002531 -0.002780 0.003687 0.000602 -0.002237 0.026571
#
#
# Mechanical properties :
#
#
# Convention : Reuss Voigt Hill
#
# Bulk Modulus (GPa) = 56.57927 64.15885 60.36906
# Shear Modulus (GPa) = 30.92117 36.79426 33.85772
#
# Velocity S-wave (km/s) = 3.86540 4.21654 4.04478
# Velocity P-wave (km/s) = 6.87468 7.39646 7.14034
#
# Compressibility (1/GPa) = 0.01767432
#
# Stress axis : x y z
#
# Youngs Moduli (GPa) = 110.60843 78.82877 65.10765
#
# Poissons Ratio (x) = 0.23707 0.13293
# Poissons Ratio (y) = 0.33264 0.30319
# Poissons Ratio (z) = 0.22582 0.36708
#
# Static dielectric constant tensor:
#      x y z
#    x 4.050370 -0.100560 0.190530 
#    y -0.100560 3.572370 0.025660 
#    z 0.190530 0.025660 3.795790 
# 
# 
# High freq. dielectric constant tensor:
#      x y z
#    x 1.819290 0.005280 0.003230 
#    y 0.005280 1.816180 0.002490 
#    z 0.003230 0.002490 1.818220 
# 
# From -- ./inp_files/225809.got.cif
#   From: 2010.06.25/outbox.cif.g09.slc.cpg/sg2_113_cif.got.tgz:225809.got - 2010.06.27 13:26:56.
