data_PCOD8030384
_publ_section_title
;
Structure prediction by ZEFSAII (Michael W. Deem and Ramdas Pophale) SiO2 
 PCOD8030384
Probable space group: P -1
;
_chemical_formula_sum "Si O2"
_cell_formula_units_Z 16
_cell_length_a 26.358131
_cell_length_b 11.455790
_cell_length_c 8.826536
_cell_angle_alpha 47.780144
_cell_angle_beta 32.756923
_cell_angle_gamma 31.229166
_cell_volume 737.030838
_symmetry_space_group_name_H-M "P -1"
_symmetry_group_IT_number 2
_symmetry_cell_setting 'triclinic'
loop_
_space_group_symop_operation_xyz
x,y,z
-x,-y,-z
loop_
_atom_site_type_symbol
_atom_site_label
_atom_site_fract_x
_atom_site_fract_y
_atom_site_fract_z
Si Si1 0.999575 0.787184 0.422751
Si Si2 0.849983 0.282589 0.361141
Si Si3 0.538288 0.619360 0.422164
Si Si4 0.378617 0.672138 0.041513
Si Si5 0.230306 0.087042 0.257789
Si Si6 0.695407 0.127459 0.413065
Si Si7 0.252854 0.421690 0.935042
Si Si8 0.032905 0.276596 0.102444
O O1 0.929620 0.754189 0.503582
O O2 0.953325 0.809914 0.689725
O O3 0.159129 0.560004 0.198461
O O4 0.964293 0.011432 0.278867
O O5 0.715769 0.368209 0.697275
O O6 0.811738 0.404234 0.191605
O O7 0.907910 0.344968 0.272155
O O8 0.664753 0.352889 0.289567
O O9 0.441770 0.792624 0.374606
O O10 0.597176 0.697399 0.295818
O O11 0.435121 0.640382 0.762630
O O12 0.294249 0.921914 0.097360
O O13 0.500000 0.500000 0.000000
O O14 0.282144 0.955450 0.400188
O O15 0.268539 0.221543 0.027874
O O16 0.826522 0.925600 0.160844
O O17 0.000000 0.500000 0.000000
#
# Coordination Sequence:
#
# PCOD8030384 Si02
#       8
#     2   2   2   2   2   2   2   2
#     4  11  23  42  65  93 131 167 218 260 314 382
#     4  11  23  40  70  91 125 172 217 260 315 383
#     4  11  24  42  67  92 130 169 215 264 309 395
#     4  11  21  45  63  93 124 167 215 254 312 382
#     4  11  23  40  66  92 130 166 210 271 315 376
#     4  11  23  43  64  91 128 172 210 260 324 376
#     4  12  23  40  63  99 126 168 212 261 329 370
#     4  12  25  44  66  98 131 163 215 274 322 371
#
# _framework density 21.708724
#
# number of rings (size 3 to 8) (size 9 to 14) (size 15 to 20)
#    0.000    0.750    2.500    6.375    0.000    3.000 
#    2.250    0.000    0.000    0.000    0.000    0.000 
#    0.000    0.000    0.000    0.000    0.000    0.000 
#
# Total GULP energy -198419.287554 kJ/mol
# GULP energy per Si atom -12401.205472 kJ/mol
# Density = 2.165931 g / cm^3
# Si number density = 21.708724 Si / 1000 Ang^3
#
#
#
# Elastic Constant Matrix: (Units=GPa)
#
#
# Indices 1 2 3 4 5 6 
#
# 1 150.8724 42.4953 52.1415 -9.9691 -22.3913 -4.4985
# 2 42.4953 75.0300 46.6755 4.9457 -10.8182 10.5021
# 3 52.1415 46.6755 89.6164 3.0660 -16.9088 12.8476
# 4 -9.9691 4.9457 3.0660 32.4048 4.2005 -4.2360
# 5 -22.3913 -10.8182 -16.9088 4.2005 50.2708 -5.8359
# 6 -4.4985 10.5021 12.8476 -4.2360 -5.8359 36.5140
#
#
#
# Elastic Compliance Matrix: (Units=1/GPa)
#
#
# Indices 1 2 3 4 5 6 
#
# 1 0.009865 -0.003517 -0.004265 0.004268 0.002380 0.004603
# 2 -0.003517 0.021363 -0.008334 -0.004103 0.000094 -0.004106
# 3 -0.004265 -0.008334 0.019231 -0.002809 0.002449 -0.004829
# 4 0.004268 -0.004103 -0.002809 0.034157 -0.002046 0.006330
# 5 0.002380 0.000094 0.002449 -0.002046 0.022284 0.002729
# 6 0.004603 -0.004106 -0.004829 0.006330 0.002729 0.032005
#
#
# Mechanical properties :
#
#
# Convention : Reuss Voigt Hill
#
# Bulk Modulus (GPa) = 54.85893 66.46037 60.65965
# Shear Modulus (GPa) = 28.21472 35.45169 31.83320
#
# Velocity S-wave (km/s) = 3.60904 4.04550 3.83349
# Velocity P-wave (km/s) = 6.53393 7.24586 6.89908
#
# Compressibility (1/GPa) = 0.01822857
#
# Stress axis : x y z
#
# Youngs Moduli (GPa) = 101.36640 46.81039 51.99846
#
# Poissons Ratio (x) = 0.16461 0.22178
# Poissons Ratio (y) = 0.35646 0.43334
# Poissons Ratio (z) = 0.43234 0.39010
#
# Static dielectric constant tensor:
#      x y z
#    x 4.016820 0.096020 0.605220 
#    y 0.096020 3.989750 0.094370 
#    z 0.605220 0.094370 4.225120 
# 
# 
# High freq. dielectric constant tensor:
#      x y z
#    x 1.872550 -0.009500 -0.003070 
#    y -0.009500 1.852790 0.006900 
#    z -0.003070 0.006900 1.848800 
# 
# From -- ./inp_files/357034.got.cif
#   From: 2010.06.25/outbox.cif.g09.slc.cpg/sg2_179_cif.got.tgz:357034.got - 2010.06.27 13:26:56.
