data_PCOD8030079
_publ_section_title
;
Structure prediction by ZEFSAII (Michael W. Deem and Ramdas Pophale) SiO2 
 PCOD8030079
Probable space group: P -1
;
_chemical_formula_sum "Si O2"
_cell_formula_units_Z 16
_cell_length_a 14.791442
_cell_length_b 11.868012
_cell_length_c 8.225532
_cell_angle_alpha 76.300785
_cell_angle_beta 34.787369
_cell_angle_gamma 63.780654
_cell_volume 716.305259
_symmetry_space_group_name_H-M "P -1"
_symmetry_group_IT_number 2
_symmetry_cell_setting 'triclinic'
loop_
_space_group_symop_operation_xyz
x,y,z
-x,-y,-z
loop_
_atom_site_type_symbol
_atom_site_label
_atom_site_fract_x
_atom_site_fract_y
_atom_site_fract_z
Si Si1 0.203801 0.454716 0.670038
Si Si2 0.822121 0.542848 0.842502
Si Si3 0.290886 0.878141 0.626952
Si Si4 0.306618 0.598726 0.696453
Si Si5 0.562828 0.601711 0.935777
Si Si6 0.760214 0.119212 0.666871
Si Si7 0.150391 0.046340 0.090311
Si Si8 0.678811 0.770474 0.195942
O O1 0.269394 0.564755 0.579866
O O2 0.255637 0.419097 0.418681
O O3 0.332620 0.321745 0.615229
O O4 0.000000 0.500000 0.000000
O O5 0.634678 0.574771 0.021131
O O6 0.000000 0.500000 0.500000
O O7 0.840395 0.428238 0.977240
O O8 0.801883 0.675478 0.907826
O O9 0.271757 0.745648 0.707086
O O10 0.247065 0.935616 0.486677
O O11 0.485120 0.861298 0.384715
O O12 0.166935 0.965742 0.926474
O O13 0.500000 0.500000 0.500000
O O14 0.500000 0.500000 0.000000
O O15 0.405296 0.744038 0.105606
O O16 0.943242 0.130131 0.405333
O O17 0.755549 0.031648 0.856600
O O18 0.233699 0.142655 0.893436
#
# Coordination Sequence:
#
# PCOD8030079 Si02
#       8
#     2   2   2   2   2   2   2   2
#     4  11  24  41  66 105 138 180 229 285 361 425
#     4  11  24  41  65 103 142 177 221 289 363 414
#     4  12  23  47  73  99 136 191 242 287 359 419
#     4  11  21  42  67  98 136 177 226 285 351 427
#     4  12  24  40  71 103 137 179 227 296 354 418
#     4  11  26  48  68 105 138 184 249 288 352 425
#     4  11  28  46  71 100 143 192 239 297 343 426
#     4  11  24  46  65  97 144 181 238 288 350 428
#
# _framework density 22.336845
#
# number of rings (size 3 to 8) (size 9 to 14) (size 15 to 20)
#    0.000    0.750    3.750    4.500    7.000    1.500 
#    2.250    0.000    0.000    0.000    0.000    0.000 
#    0.000    0.000    0.000    0.000    0.000    0.000 
#
# Total GULP energy -198261.057640 kJ/mol
# GULP energy per Si atom -12391.316102 kJ/mol
# Density = 2.228601 g / cm^3
# Si number density = 22.336845 Si / 1000 Ang^3
#
#
#
# Elastic Constant Matrix: (Units=GPa)
#
#
# Indices 1 2 3 4 5 6 
#
# 1 114.1232 34.7242 13.0144 2.0567 12.2638 4.3959
# 2 34.7242 83.4446 23.2915 3.2315 4.7879 25.2453
# 3 13.0144 23.2915 112.5436 13.4512 13.9786 4.9285
# 4 2.0567 3.2315 13.4512 25.7082 2.6228 -6.9312
# 5 12.2638 4.7879 13.9786 2.6228 43.2612 -3.1605
# 6 4.3959 25.2453 4.9285 -6.9312 -3.1605 38.3421
#
#
#
# Elastic Compliance Matrix: (Units=1/GPa)
#
#
# Indices 1 2 3 4 5 6 
#
# 1 0.010381 -0.004749 -0.000079 0.000542 -0.002289 0.001856
# 2 -0.004749 0.018410 -0.002178 -0.003984 -0.000628 -0.012069
# 3 -0.000079 -0.002178 0.010359 -0.005133 -0.002849 -0.001051
# 4 0.000542 -0.003984 -0.005133 0.045104 0.000042 0.011378
# 5 -0.002289 -0.000628 -0.002849 0.000042 0.024979 0.003109
# 6 0.001856 -0.012069 -0.001051 0.011378 0.003109 0.036263
#
#
# Mechanical properties :
#
#
# Convention : Reuss Voigt Hill
#
# Bulk Modulus (GPa) = 39.78253 50.24130 45.01192
# Shear Modulus (GPa) = 29.78175 37.40105 33.59140
#
# Velocity S-wave (km/s) = 3.65540 4.09640 3.88217
# Velocity P-wave (km/s) = 5.97201 6.70189 6.34745
#
# Compressibility (1/GPa) = 0.02513666
#
# Stress axis : x y z
#
# Youngs Moduli (GPa) = 96.32792 54.31862 96.53674
#
# Poissons Ratio (x) = 0.25796 0.00766
# Poissons Ratio (y) = 0.45747 0.21027
# Poissons Ratio (z) = 0.00765 0.11831
#
# Static dielectric constant tensor:
#      x y z
#    x 4.682520 -0.043480 0.374310 
#    y -0.043480 3.858780 0.063700 
#    z 0.374310 0.063700 4.162930 
# 
# 
# High freq. dielectric constant tensor:
#      x y z
#    x 1.899120 -0.000780 0.002660 
#    y -0.000780 1.858610 -0.000860 
#    z 0.002660 -0.000860 1.898640 
# 
# From -- ./inp_files/271353.got.cif
#   From: 2010.06.25/outbox.cif.g09.slc.cpg/sg2_136_cif.got.tgz:271353.got - 2010.06.27 13:26:56.
