data_PCOD8030650
_publ_section_title
;
Structure prediction by ZEFSAII (Michael W. Deem and Ramdas Pophale) SiO2 
 PCOD8030650
Probable space group: P -1
;
_chemical_formula_sum "Si O2"
_cell_formula_units_Z 14
_cell_length_a 9.567385
_cell_length_b 24.215356
_cell_length_c 13.135842
_cell_angle_alpha 26.401043
_cell_angle_beta 145.368862
_cell_angle_gamma 148.880753
_cell_volume 678.262675
_symmetry_space_group_name_H-M "P -1"
_symmetry_group_IT_number 2
_symmetry_cell_setting 'triclinic'
loop_
_space_group_symop_operation_xyz
x,y,z
-x,-y,-z
loop_
_atom_site_type_symbol
_atom_site_label
_atom_site_fract_x
_atom_site_fract_y
_atom_site_fract_z
Si Si1 0.437786 0.374647 0.244774
Si Si2 0.171360 0.219301 0.740761
Si Si3 0.968389 0.347460 0.578611
Si Si4 0.698463 0.155982 0.898440
Si Si5 0.098490 0.892922 0.694259
Si Si6 0.542286 0.374202 0.520980
Si Si7 0.397806 0.021797 0.290113
O O1 0.653187 0.319694 0.427039
O O2 0.456293 0.438010 0.266484
O O3 0.134007 0.241223 0.280360
O O4 0.500000 0.500000 0.000000
O O5 0.351381 0.327378 0.582506
O O6 0.086879 0.313868 0.604273
O O7 0.348728 0.159038 0.012492
O O8 0.899593 0.104560 0.709997
O O9 0.953486 0.235631 0.840563
O O10 0.152454 0.509430 0.453819
O O11 0.522602 0.238986 0.672176
O O12 0.822354 0.168628 0.061297
O O13 0.500000 0.000000 0.000000
O O14 0.365517 0.974535 0.647846
O O15 0.000000 0.000000 0.500000
O O16 0.500000 0.000000 0.500000
#
# Coordination Sequence:
#
# PCOD8030650 Si02
#       7
#     2   2   2   2   2   2   2
#     4  11  23  41  66  94 130 168 217 275 326 384
#     4  11  24  44  69  94 137 177 220 272 331 404
#     4  11  24  42  66  96 131 176 220 263 334 399
#     4  11  22  39  66  94 125 170 218 264 324 389
#     4  12  23  39  64  96 129 160 217 277 323 386
#     4  11  22  44  65  92 132 175 217 265 332 394
#     4  11  25  43  66  99 136 172 220 278 335 388
#
# _framework density 20.640969999999999
#
# number of rings (size 3 to 8) (size 9 to 14) (size 15 to 20)
#    0.000    0.857    1.429    8.143    4.000    0.000 
#    2.571    0.714    0.000    0.000    0.000    0.000 
#    0.000    0.000    0.000    0.000    0.000    0.000 
#
# Total GULP energy -173435.494028 kJ/mol
# GULP energy per Si atom -12388.249573 kJ/mol
# Density = 2.059399 g / cm^3
# Si number density = 20.640970 Si / 1000 Ang^3
#
#
#
# Elastic Constant Matrix: (Units=GPa)
#
#
# Indices 1 2 3 4 5 6 
#
# 1 148.7332 27.0496 59.3896 0.8864 -21.5011 6.3592
# 2 27.0496 103.3292 32.3913 -0.1852 -5.8023 4.8308
# 3 59.3896 32.3913 109.4205 8.0745 -30.2853 0.9271
# 4 0.8864 -0.1852 8.0745 38.7552 -2.5426 -4.1161
# 5 -21.5011 -5.8023 -30.2853 -2.5426 36.7859 -4.4198
# 6 6.3592 4.8308 0.9271 -4.1161 -4.4198 37.0925
#
#
#
# Elastic Compliance Matrix: (Units=1/GPa)
#
#
# Indices 1 2 3 4 5 6 
#
# 1 0.008792 -0.000871 -0.004133 0.000645 0.001519 -0.001038
# 2 -0.000871 0.010886 -0.003206 0.000498 -0.001555 -0.001318
# 3 -0.004133 -0.003206 0.015136 -0.002272 0.009580 0.001637
# 4 0.000645 0.000498 -0.002272 0.026626 0.000777 0.002929
# 5 0.001519 -0.001555 0.009580 0.000777 0.036262 0.004110
# 6 -0.001038 -0.001318 0.001637 0.002929 0.004110 0.028083
#
#
# Mechanical properties :
#
#
# Convention : Reuss Voigt Hill
#
# Bulk Modulus (GPa) = 54.36065 66.57155 60.46610
# Shear Modulus (GPa) = 33.70724 38.70354 36.20539
#
# Velocity S-wave (km/s) = 4.04546 4.33492 4.19269
# Velocity P-wave (km/s) = 6.94366 7.57480 7.26608
#
# Compressibility (1/GPa) = 0.01839566
#
# Stress axis : x y z
#
# Youngs Moduli (GPa) = 113.73762 91.86126 66.06582
#
# Poissons Ratio (x) = 0.08003 0.27302
# Poissons Ratio (y) = 0.09909 0.21179
# Poissons Ratio (z) = 0.47002 0.29448
#
# Static dielectric constant tensor:
#      x y z
#    x 3.789880 0.016400 -0.328530 
#    y 0.016400 4.335050 -0.198860 
#    z -0.328530 -0.198860 4.337380 
# 
# 
# High freq. dielectric constant tensor:
#      x y z
#    x 1.813340 0.001810 -0.021950 
#    y 0.001810 1.815570 -0.003840 
#    z -0.021950 -0.003840 1.817840 
# 
# From -- ./inp_files/183726.got.cif
#   From: 2010.06.25/outbox.cif.g09.slc.cpg/sg2_92_cif.got.tgz:183726.got - 2010.06.27 13:26:56.
