data_PCOD8030690
_publ_section_title
;
Structure prediction by ZEFSAII (Michael W. Deem and Ramdas Pophale) SiO2 
 PCOD8030690
Probable space group: P -1
;
_chemical_formula_sum "Si O2"
_cell_formula_units_Z 16
_cell_length_a 18.315911
_cell_length_b 11.887968
_cell_length_c 9.362160
_cell_angle_alpha 49.823076
_cell_angle_beta 47.837793
_cell_angle_gamma 31.637281
_cell_volume 778.241589
_symmetry_space_group_name_H-M "P -1"
_symmetry_group_IT_number 2
_symmetry_cell_setting 'triclinic'
loop_
_space_group_symop_operation_xyz
x,y,z
-x,-y,-z
loop_
_atom_site_type_symbol
_atom_site_label
_atom_site_fract_x
_atom_site_fract_y
_atom_site_fract_z
Si Si1 0.677069 0.549389 0.008781
Si Si2 0.332324 0.962050 0.620466
Si Si3 0.790337 0.172318 0.661938
Si Si4 0.139165 0.438805 0.415943
Si Si5 0.021978 0.815187 0.449961
Si Si6 0.860331 0.073191 0.180680
Si Si7 0.449402 0.713694 0.951071
Si Si8 0.569206 0.569925 0.417687
O O1 0.811248 0.509708 0.823586
O O2 0.564187 0.680458 0.919311
O O3 0.722614 0.329483 0.137908
O O4 0.612443 0.643151 0.177207
O O5 0.184982 0.025099 0.761511
O O6 0.407240 0.869370 0.751682
O O7 0.446963 0.787275 0.492849
O O8 0.278810 0.186648 0.479449
O O9 0.710054 0.367904 0.492451
O O10 0.844779 0.215853 0.685881
O O11 0.930916 0.921777 0.629569
O O12 0.684383 0.165552 0.866320
O O13 0.000000 0.500000 0.500000
O O14 0.092439 0.582827 0.500013
O O15 0.893844 0.000768 0.358633
O O16 0.000000 0.000000 0.000000
O O17 0.500000 0.500000 0.000000
O O18 0.500000 0.500000 0.500000
#
# Coordination Sequence:
#
# PCOD8030690 Si02
#       8
#     2   2   2   2   2   2   2   2
#     4  12  24  39  70 100 129 175 228 277 335 396
#     4  12  25  41  67  96 137 180 216 277 342 396
#     4  11  22  39  69 104 133 166 227 296 326 380
#     4  12  27  46  65  94 144 183 218 268 340 419
#     4  11  23  39  66  97 135 177 219 276 339 389
#     4  12  19  36  67  96 123 170 236 268 317 391
#     4  12  21  39  67 102 129 167 227 285 331 387
#     4  12  21  41  70 102 133 167 224 286 333 390
#
# _framework density 20.559166999999999
#
# number of rings (size 3 to 8) (size 9 to 14) (size 15 to 20)
#    0.000    0.250    8.750    1.500    0.000    1.000 
#    0.000    0.625    0.000    0.000    0.000    0.000 
#    0.000    0.000    0.000    0.000    0.000    0.000 
#
# Total GULP energy -198318.535835 kJ/mol
# GULP energy per Si atom -12394.908490 kJ/mol
# Density = 2.051237 g / cm^3
# Si number density = 20.559167 Si / 1000 Ang^3
#
#
#
# Elastic Constant Matrix: (Units=GPa)
#
#
# Indices 1 2 3 4 5 6 
#
# 1 100.7405 35.7469 32.0943 -1.3191 6.0554 -7.5724
# 2 35.7469 127.0660 42.0668 -2.4881 5.0231 16.2985
# 3 32.0943 42.0668 104.4687 3.2108 4.7992 4.6166
# 4 -1.3191 -2.4881 3.2108 41.8887 -9.5253 3.2938
# 5 6.0554 5.0231 4.7992 -9.5253 34.2777 -1.7841
# 6 -7.5724 16.2985 4.6166 3.2938 -1.7841 35.5611
#
#
#
# Elastic Compliance Matrix: (Units=1/GPa)
#
#
# Indices 1 2 3 4 5 6 
#
# 1 0.012260 -0.003082 -0.002656 -0.000200 -0.001173 0.004328
# 2 -0.003082 0.010449 -0.003039 0.001040 -0.000541 -0.005174
# 3 -0.002656 -0.003039 0.011734 -0.001374 -0.001143 -0.000626
# 4 -0.000200 0.001040 -0.001374 0.025842 0.007133 -0.002377
# 5 -0.001173 -0.000541 -0.001143 0.007133 0.031658 0.001074
# 6 0.004328 -0.005174 -0.000626 -0.002377 0.001074 0.031769
#
#
# Mechanical properties :
#
#
# Convention : Reuss Voigt Hill
#
# Bulk Modulus (GPa) = 59.21528 61.34347 60.27938
# Shear Modulus (GPa) = 34.03763 37.16999 35.60381
#
# Velocity S-wave (km/s) = 4.07331 4.25662 4.16597
# Velocity P-wave (km/s) = 7.14055 7.35260 7.24735
#
# Compressibility (1/GPa) = 0.01688753
#
# Stress axis : x y z
#
# Youngs Moduli (GPa) = 81.56836 95.70720 85.21922
#
# Poissons Ratio (x) = 0.29499 0.22638
# Poissons Ratio (y) = 0.25141 0.25897
# Poissons Ratio (z) = 0.21668 0.29085
#
# Static dielectric constant tensor:
#      x y z
#    x 3.841880 0.031930 0.197040 
#    y 0.031930 3.953580 0.333460 
#    z 0.197040 0.333460 3.896240 
# 
# 
# High freq. dielectric constant tensor:
#      x y z
#    x 1.803000 -0.019660 0.008400 
#    y -0.019660 1.809020 0.017030 
#    z 0.008400 0.017030 1.797330 
# 
# From -- ./inp_files/332838.got.cif
#   From: 2010.06.25/outbox.cif.g09.slc.cpg/sg2_167_cif.got.tgz:332838.got - 2010.06.27 13:26:56.
