data_PCOD8030140
_publ_section_title
;
Structure prediction by ZEFSAII (Michael W. Deem and Ramdas Pophale) SiO2 
 PCOD8030140
Probable space group: P -1
;
_chemical_formula_sum "Si O2"
_cell_formula_units_Z 16
_cell_length_a 20.069046
_cell_length_b 10.552058
_cell_length_c 17.933493
_cell_angle_alpha 34.599659
_cell_angle_beta 20.332443
_cell_angle_gamma 34.953804
_cell_volume 727.033096
_symmetry_space_group_name_H-M "P -1"
_symmetry_group_IT_number 2
_symmetry_cell_setting 'triclinic'
loop_
_space_group_symop_operation_xyz
x,y,z
-x,-y,-z
loop_
_atom_site_type_symbol
_atom_site_label
_atom_site_fract_x
_atom_site_fract_y
_atom_site_fract_z
Si Si1 0.709833 0.972817 0.831015
Si Si2 0.224646 0.322290 0.518438
Si Si3 0.373334 0.911483 0.855648
Si Si4 0.990254 0.514893 0.808819
Si Si5 0.592118 0.240245 0.546215
Si Si6 0.955194 0.087353 0.138577
Si Si7 0.839426 0.140395 0.465964
Si Si8 0.797000 0.233582 0.756144
O O1 0.839851 0.066685 0.587700
O O2 0.693754 0.126830 0.848096
O O3 0.805858 0.702909 0.876165
O O4 0.500000 0.000000 0.000000
O O5 0.459573 0.212276 0.318400
O O6 0.172051 0.436945 0.598231
O O7 0.168720 0.517022 0.419266
O O8 0.094945 0.136930 0.735595
O O9 0.444155 0.104840 0.733661
O O10 0.331139 0.736749 0.047518
O O11 0.183284 0.029445 0.950113
O O12 0.077684 0.628920 0.732125
O O13 0.913919 0.294871 0.021718
O O14 0.500000 0.500000 0.500000
O O15 0.626500 0.191661 0.622782
O O16 0.813902 0.168418 0.317339
O O17 0.992612 0.934959 0.362579
#
# Coordination Sequence:
#
# PCOD8030140 Si02
#       8
#     2   2   2   2   2   2   2   2
#     4  11  23  39  68 102 130 170 220 277 335 380
#     4  11  24  46  65  94 137 172 228 265 320 399
#     4  11  25  44  66  98 130 177 223 266 330 390
#     4  11  23  44  67  95 135 172 218 274 328 392
#     4  11  25  42  68 101 135 169 220 272 329 396
#     4  11  26  44  65  96 133 182 217 266 329 388
#     4  11  21  42  71  97 131 170 215 283 333 375
#     4  11  21  44  67  96 135 167 223 278 325 385
#
# _framework density 22.007251
#
# number of rings (size 3 to 8) (size 9 to 14) (size 15 to 20)
#    0.000    1.000    3.750    3.000    5.250    3.000 
#    2.250    0.000    0.000    0.000    0.000    0.000 
#    0.000    0.000    0.000    0.000    0.000    0.000 
#
# Total GULP energy -198407.560744 kJ/mol
# GULP energy per Si atom -12400.472546 kJ/mol
# Density = 2.195716 g / cm^3
# Si number density = 22.007251 Si / 1000 Ang^3
#
#
#
# Elastic Constant Matrix: (Units=GPa)
#
#
# Indices 1 2 3 4 5 6 
#
# 1 69.1864 46.5599 20.1917 6.8925 -9.1891 -24.4945
# 2 46.5599 131.3179 42.5581 -21.8961 -18.8450 -9.0836
# 3 20.1917 42.5581 90.5121 -14.6996 -6.0627 -8.2529
# 4 6.8925 -21.8961 -14.6996 44.0997 -6.8737 2.0499
# 5 -9.1891 -18.8450 -6.0627 -6.8737 35.4543 2.4478
# 6 -24.4945 -9.0836 -8.2529 2.0499 2.4478 30.7594
#
#
#
# Elastic Compliance Matrix: (Units=1/GPa)
#
#
# Indices 1 2 3 4 5 6 
#
# 1 0.031557 -0.011485 -0.001807 -0.012618 -0.002219 0.022271
# 2 -0.011485 0.014718 -0.002995 0.009453 0.006634 -0.006761
# 3 -0.001807 -0.002995 0.013562 0.003400 0.000847 0.001021
# 4 -0.012618 0.009453 0.003400 0.032345 0.009244 -0.009235
# 5 -0.002219 0.006634 0.000847 0.009244 0.033290 -0.002846
# 6 0.022271 -0.006761 0.001021 -0.009235 -0.002846 0.049365
#
#
# Mechanical properties :
#
#
# Convention : Reuss Voigt Hill
#
# Bulk Modulus (GPa) = 36.67979 56.62618 46.65298
# Shear Modulus (GPa) = 23.09480 34.17645 28.63563
#
# Velocity S-wave (km/s) = 3.24299 3.94504 3.61112
# Velocity P-wave (km/s) = 5.54310 6.82185 6.21545
#
# Compressibility (1/GPa) = 0.02726297
#
# Stress axis : x y z
#
# Youngs Moduli (GPa) = 31.68862 67.94180 73.73653
#
# Poissons Ratio (x) = 0.78031 0.13323
# Poissons Ratio (y) = 0.36395 0.22086
# Poissons Ratio (z) = 0.05726 0.20351
#
# Static dielectric constant tensor:
#      x y z
#    x 3.756200 0.000630 0.147400 
#    y 0.000630 3.885640 -0.187220 
#    z 0.147400 -0.187220 4.109470 
# 
# 
# High freq. dielectric constant tensor:
#      x y z
#    x 1.857130 -0.003020 0.006550 
#    y -0.003020 1.874840 -0.002540 
#    z 0.006550 -0.002540 1.873690 
# 
# From -- ./inp_files/428891.got.cif
#   From: 2010.06.25/outbox.cif.g09.slc.cpg/sg2_215_cif.got.tgz:428891.got - 2010.06.27 13:26:56.
