data_PCOD8030216
_publ_section_title
;
Structure prediction by ZEFSAII (Michael W. Deem and Ramdas Pophale) SiO2 
 PCOD8030216
Probable space group: P -1
;
_chemical_formula_sum "Si O2"
_cell_formula_units_Z 16
_cell_length_a 18.399460
_cell_length_b 9.316763
_cell_length_c 14.679806
_cell_angle_alpha 140.218723
_cell_angle_beta 149.814329
_cell_angle_gamma 41.188016
_cell_volume 778.538344
_symmetry_space_group_name_H-M "P -1"
_symmetry_group_IT_number 2
_symmetry_cell_setting 'triclinic'
loop_
_space_group_symop_operation_xyz
x,y,z
-x,-y,-z
loop_
_atom_site_type_symbol
_atom_site_label
_atom_site_fract_x
_atom_site_fract_y
_atom_site_fract_z
Si Si1 0.619980 0.405548 0.160606
Si Si2 0.549647 0.726770 0.919614
Si Si3 0.138937 0.990699 0.391595
Si Si4 0.345395 0.117407 0.337336
Si Si5 0.860005 0.575552 0.268829
Si Si6 0.405221 0.551455 0.513281
Si Si7 0.174898 0.284392 0.410034
Si Si8 0.809675 0.134090 0.093101
O O1 0.543417 0.358863 0.146134
O O2 0.697718 0.605740 0.363257
O O3 0.732730 0.167749 0.126243
O O4 0.500000 0.500000 0.000000
O O5 0.514021 0.631605 0.738973
O O6 0.727510 0.633686 0.080311
O O7 0.500000 0.000000 0.000000
O O8 0.138408 0.194932 0.561880
O O9 0.181264 0.060352 0.370692
O O10 0.972908 0.947751 0.186382
O O11 0.252118 0.752641 0.430642
O O12 0.362083 0.326065 0.393417
O O13 0.210498 0.201659 0.304505
O O14 0.500000 0.000000 0.500000
O O15 0.298975 0.931493 0.131245
O O16 0.836919 0.384324 0.221525
O O17 0.013808 0.475375 0.331066
O O18 0.500000 0.500000 0.500000
#
# Coordination Sequence:
#
# PCOD8030216 Si02
#       8
#     2   2   2   2   2   2   2   2
#     4  12  21  40  70 101 129 174 235 274 323 398
#     4  12  25  42  68 101 134 179 225 280 337 394
#     4  11  22  44  68  99 138 173 221 284 342 394
#     4  12  26  45  66  99 136 178 231 279 331 407
#     4  11  21  43  70 102 135 168 229 283 338 389
#     4  12  28  46  65  97 142 180 220 277 348 402
#     4  11  22  42  71  98 131 177 224 282 332 396
#     4  11  23  40  72  98 130 180 225 275 338 402
#
# _framework density 20.551331999999999
#
# number of rings (size 3 to 8) (size 9 to 14) (size 15 to 20)
#    0.000    0.500    6.250    3.000    1.750    3.500 
#    2.250    1.875    0.000    0.000    0.000    0.000 
#    0.000    0.000    0.000    0.000    0.000    0.000 
#
# Total GULP energy -198452.879717 kJ/mol
# GULP energy per Si atom -12403.304982 kJ/mol
# Density = 2.050456 g / cm^3
# Si number density = 20.551332 Si / 1000 Ang^3
#
#
#
# Elastic Constant Matrix: (Units=GPa)
#
#
# Indices 1 2 3 4 5 6 
#
# 1 133.7656 43.0292 33.3870 -0.1739 -6.8333 -4.1724
# 2 43.0292 120.9733 32.9879 -17.6488 10.1763 2.3098
# 3 33.3870 32.9879 115.0437 -13.9842 -1.1527 -1.8767
# 4 -0.1739 -17.6488 -13.9842 40.0420 -4.5538 -2.7084
# 5 -6.8333 10.1763 -1.1527 -4.5538 34.2742 1.8638
# 6 -4.1724 2.3098 -1.8767 -2.7084 1.8638 26.7053
#
#
#
# Elastic Compliance Matrix: (Units=1/GPa)
#
#
# Indices 1 2 3 4 5 6 
#
# 1 0.009139 -0.003207 -0.001892 -0.001676 0.002421 0.001233
# 2 -0.003207 0.010716 -0.001747 0.003655 -0.003343 -0.000947
# 3 -0.001892 -0.001747 0.010117 0.002903 0.000824 0.000803
# 4 -0.001676 0.003655 0.002903 0.028006 0.002274 0.002308
# 5 0.002421 -0.003343 0.000824 0.002274 0.031047 -0.001211
# 6 0.001233 -0.000947 0.000803 0.002308 -0.001211 0.038095
#
#
# Mechanical properties :
#
#
# Convention : Reuss Voigt Hill
#
# Bulk Modulus (GPa) = 61.42238 65.39897 63.41068
# Shear Modulus (GPa) = 34.19085 37.56286 35.87686
#
# Velocity S-wave (km/s) = 4.08325 4.27987 4.18271
# Velocity P-wave (km/s) = 7.22376 7.50429 7.36536
#
# Compressibility (1/GPa) = 0.01628071
#
# Stress axis : x y z
#
# Youngs Moduli (GPa) = 109.41551 93.32207 98.84751
#
# Poissons Ratio (x) = 0.29924 0.18704
# Poissons Ratio (y) = 0.35084 0.17266
# Poissons Ratio (z) = 0.20704 0.16301
#
# Static dielectric constant tensor:
#      x y z
#    x 4.318730 -0.384780 0.505580 
#    y -0.384780 3.913050 -0.333350 
#    z 0.505580 -0.333350 4.433700 
# 
# 
# High freq. dielectric constant tensor:
#      x y z
#    x 1.811190 -0.014050 0.001620 
#    y -0.014050 1.800570 -0.007930 
#    z 0.001620 -0.007930 1.819490 
# 
# From -- ./inp_files/186832.got.cif
#   From: 2010.06.25/outbox.cif.g09.slc.cpg/sg2_94_cif.got.tgz:186832.got - 2010.06.27 13:26:56.
