data_PCOD8030941
_publ_section_title
;
Structure prediction by ZEFSAII (Michael W. Deem and Ramdas Pophale) SiO2 
 PCOD8030941
Probable space group: P -1
;
_chemical_formula_sum "Si O2"
_cell_formula_units_Z 14
_cell_length_a 12.292824
_cell_length_b 15.409266
_cell_length_c 9.545223
_cell_angle_alpha 126.815166
_cell_angle_beta 116.006933
_cell_angle_gamma 28.335881
_cell_volume 667.951998
_symmetry_space_group_name_H-M "P -1"
_symmetry_group_IT_number 2
_symmetry_cell_setting 'triclinic'
loop_
_space_group_symop_operation_xyz
x,y,z
-x,-y,-z
loop_
_atom_site_type_symbol
_atom_site_label
_atom_site_fract_x
_atom_site_fract_y
_atom_site_fract_z
Si Si1 0.105882 0.640490 0.788461
Si Si2 0.573402 0.321774 0.404804
Si Si3 0.965172 0.066581 0.888437
Si Si4 0.335209 0.087752 0.614112
Si Si5 0.345300 0.137430 0.178493
Si Si6 0.145358 0.521296 0.399937
Si Si7 0.620456 0.197323 0.624696
O O1 0.059605 0.665700 0.618798
O O2 0.354619 0.392449 0.722477
O O3 0.886856 0.757071 0.858395
O O4 0.137384 0.735506 0.959083
O O5 0.500000 0.500000 0.500000
O O6 0.347845 0.424209 0.330165
O O7 0.628143 0.256567 0.537715
O O8 0.791169 0.118240 0.237028
O O9 0.780387 0.135792 0.767503
O O10 0.000000 0.000000 0.000000
O O11 0.074614 0.338106 0.687526
O O12 0.500000 0.000000 0.500000
O O13 0.466325 0.042026 0.772901
O O14 0.291044 0.993602 0.521763
O O15 0.258702 0.326112 0.340285
O O16 0.500000 0.000000 0.000000
#
# Coordination Sequence:
#
# PCOD8030941 Si02
#       7
#     2   2   2   2   2   2   2
#     4  11  22  41  68  94 135 178 223 282 332 400
#     4  11  23  44  69  96 138 181 229 284 341 407
#     4  12  25  42  65 103 138 175 233 284 338 410
#     4  12  23  42  76  99 136 186 226 273 346 414
#     4  12  25  45  68 102 140 173 230 288 337 401
#     4  11  23  45  69 100 134 181 228 273 345 407
#     4  11  24  45  69 100 134 188 228 276 351 405
#
# _framework density 20.959589000000001
#
# number of rings (size 3 to 8) (size 9 to 14) (size 15 to 20)
#    0.000    0.571    4.286    6.429    0.000    0.571 
#    2.571    0.000    0.000    0.000    0.000    0.000 
#    0.000    0.000    0.000    0.000    0.000    0.000 
#
# Total GULP energy -173537.808439 kJ/mol
# GULP energy per Si atom -12395.557746 kJ/mol
# Density = 2.091188 g / cm^3
# Si number density = 20.959589 Si / 1000 Ang^3
#
#
#
# Elastic Constant Matrix: (Units=GPa)
#
#
# Indices 1 2 3 4 5 6 
#
# 1 107.3547 38.6355 25.9685 -18.5381 -15.9165 -18.8780
# 2 38.6355 124.8900 27.5079 -14.5491 -26.3878 -25.9262
# 3 25.9685 27.5079 87.2032 -5.4690 -21.5790 -7.1553
# 4 -18.5381 -14.5491 -5.4690 31.8912 3.2609 -0.9107
# 5 -15.9165 -26.3878 -21.5790 3.2609 37.3925 7.1190
# 6 -18.8780 -25.9262 -7.1553 -0.9107 7.1190 50.1302
#
#
#
# Elastic Compliance Matrix: (Units=1/GPa)
#
#
# Indices 1 2 3 4 5 6 
#
# 1 0.012266 -0.001572 -0.002072 0.005975 0.001754 0.003370
# 2 -0.001572 0.011212 -0.001141 0.003572 0.005448 0.004335
# 3 -0.002072 -0.001141 0.014019 0.000011 0.006457 -0.000286
# 4 0.005975 0.003572 0.000011 0.036490 0.001009 0.004619
# 5 0.001754 0.005448 0.006457 0.001009 0.035080 -0.000564
# 6 0.003370 0.004335 -0.000286 0.004619 -0.000564 0.023582
#
#
# Mechanical properties :
#
#
# Convention : Reuss Voigt Hill
#
# Bulk Modulus (GPa) = 35.80638 55.96351 45.88494
# Shear Modulus (GPa) = 32.99726 39.03850 36.01788
#
# Velocity S-wave (km/s) = 3.97208 4.32042 4.14991
# Velocity P-wave (km/s) = 6.17715 7.18656 6.70089
#
# Compressibility (1/GPa) = 0.02792798
#
# Stress axis : x y z
#
# Youngs Moduli (GPa) = 81.52527 89.19237 71.33011
#
# Poissons Ratio (x) = 0.14023 0.14777
# Poissons Ratio (y) = 0.12818 0.08137
# Poissons Ratio (z) = 0.16889 0.10174
#
# Static dielectric constant tensor:
#      x y z
#    x 3.978500 -0.089300 0.075720 
#    y -0.089300 4.025890 0.077240 
#    z 0.075720 0.077240 3.783020 
# 
# 
# High freq. dielectric constant tensor:
#      x y z
#    x 1.834730 -0.012370 0.003250 
#    y -0.012370 1.836830 0.001910 
#    z 0.003250 0.001910 1.812420 
# 
# From -- ./inp_files/175745.got.cif
#   From: 2010.06.25/outbox.cif.g09.slc.cpg/sg2_88_cif.got.tgz:175745.got - 2010.06.27 13:26:56.
