data_PCOD8030269
_publ_section_title
;
Structure prediction by ZEFSAII (Michael W. Deem and Ramdas Pophale) SiO2 
 PCOD8030269
Probable space group: P -1
;
_chemical_formula_sum "Si O2"
_cell_formula_units_Z 16
_cell_length_a 9.430641
_cell_length_b 15.180303
_cell_length_c 8.969625
_cell_angle_alpha 89.980233
_cell_angle_beta 112.811943
_cell_angle_gamma 139.187674
_cell_volume 675.896218
_symmetry_space_group_name_H-M "P -1"
_symmetry_group_IT_number 2
_symmetry_cell_setting 'triclinic'
loop_
_space_group_symop_operation_xyz
x,y,z
-x,-y,-z
loop_
_atom_site_type_symbol
_atom_site_label
_atom_site_fract_x
_atom_site_fract_y
_atom_site_fract_z
Si Si1 0.578611 0.538151 0.706027
Si Si2 0.459633 0.878232 0.752097
Si Si3 0.395020 0.174507 0.959621
Si Si4 0.902301 0.826526 0.002775
Si Si5 0.251628 0.766019 0.360953
Si Si6 0.900123 0.745933 0.303311
Si Si7 0.279004 0.989806 0.667766
Si Si8 0.811772 0.487784 0.982050
O O1 0.500000 0.500000 0.500000
O O2 0.306678 0.414230 0.693536
O O3 0.752522 0.534414 0.832039
O O4 0.748387 0.707582 0.802199
O O5 0.365660 0.782077 0.563695
O O6 0.318989 0.905795 0.728277
O O7 0.381127 0.776536 0.857295
O O8 0.782363 0.041082 0.884474
O O9 0.185476 0.113323 0.999701
O O10 0.231503 0.028097 0.791956
O O11 0.526611 0.312605 0.913257
O O12 0.776370 0.720654 0.099246
O O13 0.458994 0.850602 0.311566
O O14 0.190838 0.838630 0.379442
O O15 0.959133 0.593710 0.189837
O O16 0.006548 0.873168 0.457840
O O17 0.000000 0.500000 0.000000
#
# Coordination Sequence:
#
# PCOD8030269 Si02
#       8
#     2   2   2   2   2   2   2   2
#     4  12  28  47  74 103 136 187 240 287 350 422
#     4  11  24  44  71 101 137 186 233 284 347 416
#     4  12  27  41  67 107 143 181 229 292 346 408
#     4  12  23  47  72  97 143 180 229 286 351 414
#     4  11  21  44  74  98 130 185 236 277 346 419
#     4  11  21  43  73  97 132 182 230 278 345 413
#     4  11  22  43  71 101 135 187 232 281 347 418
#     4  12  25  44  70 100 142 182 229 290 347 409
#
# _framework density 23.672273000000001
#
# number of rings (size 3 to 8) (size 9 to 14) (size 15 to 20)
#    0.000    0.500    6.250    2.625    1.750    4.000 
#    2.250    0.000    0.000    0.000    0.000    0.000 
#    0.000    0.000    0.000    0.000    0.000    0.000 
#
# Total GULP energy -198264.164408 kJ/mol
# GULP energy per Si atom -12391.510275 kJ/mol
# Density = 2.361839 g / cm^3
# Si number density = 23.672273 Si / 1000 Ang^3
#
#
#
# Elastic Constant Matrix: (Units=GPa)
#
#
# Indices 1 2 3 4 5 6 
#
# 1 96.9673 9.2180 30.4020 12.4798 -11.5283 -7.6352
# 2 9.2180 41.1130 22.6847 -0.1155 -3.6510 3.1820
# 3 30.4020 22.6847 179.4989 13.5937 -22.6583 -11.7073
# 4 12.4798 -0.1155 13.5937 35.7791 3.8252 2.4126
# 5 -11.5283 -3.6510 -22.6583 3.8252 25.6345 10.3322
# 6 -7.6352 3.1820 -11.7073 2.4126 10.3322 28.2908
#
#
#
# Elastic Compliance Matrix: (Units=1/GPa)
#
#
# Indices 1 2 3 4 5 6 
#
# 1 0.011991 -0.002051 -0.000760 -0.004493 0.004309 0.001962
# 2 -0.002051 0.027313 -0.003412 0.002287 0.002016 -0.005969
# 3 -0.000760 -0.003412 0.007140 -0.003130 0.005370 0.001439
# 4 -0.004493 0.002287 -0.003130 0.031757 -0.008202 -0.002478
# 5 0.004309 0.002016 0.005370 -0.008202 0.053530 -0.015692
# 6 0.001962 -0.005969 0.001439 -0.002478 -0.015692 0.043086
#
#
# Mechanical properties :
#
#
# Convention : Reuss Voigt Hill
#
# Bulk Modulus (GPa) = 29.41379 49.13205 39.27292
# Shear Modulus (GPa) = 25.17669 34.95917 30.06793
#
# Velocity S-wave (km/s) = 3.26475 3.84708 3.56782
# Velocity P-wave (km/s) = 5.16371 6.36660 5.79644
#
# Compressibility (1/GPa) = 0.03399765
#
# Stress axis : x y z
#
# Youngs Moduli (GPa) = 83.39624 36.61206 140.06097
#
# Poissons Ratio (x) = 0.07510 0.10638
# Poissons Ratio (y) = 0.17107 0.47795
# Poissons Ratio (z) = 0.06334 0.12494
#
# Static dielectric constant tensor:
#      x y z
#    x 4.385530 -0.167610 -0.011960 
#    y -0.167610 4.185940 -0.047980 
#    z -0.011960 -0.047980 4.937920 
# 
# 
# High freq. dielectric constant tensor:
#      x y z
#    x 1.939310 0.002760 -0.004150 
#    y 0.002760 1.921080 0.002680 
#    z -0.004150 0.002680 1.953920 
# 
# From -- ./inp_files/207920.got.cif
#   From: 2010.06.25/outbox.cif.g09.slc.cpg/sg2_104_cif.got.tgz:207920.got - 2010.06.27 13:26:56.
