data_PCOD8030369
_publ_section_title
;
Structure prediction by ZEFSAII (Michael W. Deem and Ramdas Pophale) SiO2 
 PCOD8030369
Probable space group: P -1
;
_chemical_formula_sum "Si O2"
_cell_formula_units_Z 16
_cell_length_a 17.843660
_cell_length_b 28.529011
_cell_length_c 11.874023
_cell_angle_alpha 31.285879
_cell_angle_beta 158.557342
_cell_angle_gamma 159.737236
_cell_volume 756.987606
_symmetry_space_group_name_H-M "P -1"
_symmetry_group_IT_number 2
_symmetry_cell_setting 'triclinic'
loop_
_space_group_symop_operation_xyz
x,y,z
-x,-y,-z
loop_
_atom_site_type_symbol
_atom_site_label
_atom_site_fract_x
_atom_site_fract_y
_atom_site_fract_z
Si Si1 0.339525 0.262322 0.816446
Si Si2 0.238937 0.463111 0.779892
Si Si3 0.357110 0.954748 0.766770
Si Si4 0.635740 0.864877 0.280418
Si Si5 0.576731 0.206030 0.436980
Si Si6 0.720011 0.324421 0.627012
Si Si7 0.642444 0.372306 0.790541
Si Si8 0.628897 0.519601 0.820120
O O1 0.600820 0.329491 0.949748
O O2 0.399235 0.379465 0.716426
O O3 0.012471 0.160675 0.503695
O O4 0.344636 0.179479 0.080106
O O5 0.183768 0.541809 0.483864
O O6 0.912879 0.301647 0.652111
O O7 0.500000 0.500000 0.000000
O O8 0.353080 0.515844 0.958030
O O9 0.463411 0.073073 0.595939
O O10 0.461059 0.902464 0.947580
O O11 0.500000 0.000000 0.000000
O O12 0.561772 0.801410 0.430832
O O13 0.515666 0.755930 0.243442
O O14 0.000000 0.000000 0.500000
O O15 0.607394 0.283866 0.424577
O O16 0.027386 0.364907 0.993165
O O17 0.483527 0.415936 0.460568
O O18 0.000000 0.500000 0.000000
#
# Coordination Sequence:
#
# PCOD8030369 Si02
#       8
#     2   2   2   2   2   2   2   2
#     4  12  24  46  71 103 139 184 243 290 351 433
#     4  11  23  39  72 106 142 177 227 298 363 410
#     4  12  26  48  72  98 137 196 240 283 353 440
#     4  12  27  44  69 105 141 184 241 292 357 427
#     4  11  24  45  72 102 136 184 238 285 346 432
#     4  11  21  44  73  98 139 181 239 283 352 429
#     4  12  27  43  67 103 147 182 235 303 360 406
#     4  11  22  43  72 102 136 187 238 284 347 430
#
# _framework density 21.136409
#
# number of rings (size 3 to 8) (size 9 to 14) (size 15 to 20)
#    0.000    0.500    3.750    5.250    8.750    0.000 
#    0.000    0.625    0.000    0.000    0.000    0.000 
#    0.000    0.000    0.000    0.000    0.000    0.000 
#
# Total GULP energy -198418.923315 kJ/mol
# GULP energy per Si atom -12401.182707 kJ/mol
# Density = 2.108830 g / cm^3
# Si number density = 21.136409 Si / 1000 Ang^3
#
#
#
# Elastic Constant Matrix: (Units=GPa)
#
#
# Indices 1 2 3 4 5 6 
#
# 1 105.8972 68.6074 65.9228 5.7415 15.9141 -2.6318
# 2 68.6074 146.5924 69.5642 0.1910 5.9970 4.7851
# 3 65.9228 69.5642 134.4459 -4.4971 2.8023 -2.0476
# 4 5.7415 0.1910 -4.4971 50.2883 -2.8649 4.2373
# 5 15.9141 5.9970 2.8023 -2.8649 38.4029 1.6537
# 6 -2.6318 4.7851 -2.0476 4.2373 1.6537 42.9599
#
#
#
# Elastic Compliance Matrix: (Units=1/GPa)
#
#
# Indices 1 2 3 4 5 6 
#
# 1 0.017711 -0.005295 -0.005884 -0.003056 -0.006395 0.001942
# 2 -0.005295 0.010739 -0.002988 0.000492 0.000847 -0.001744
# 3 -0.005884 -0.002988 0.011890 0.001847 0.002163 0.000274
# 4 -0.003056 0.000492 0.001847 0.020746 0.002702 -0.002304
# 5 -0.006395 0.000847 0.002163 0.002702 0.028677 -0.001753
# 6 0.001942 -0.001744 0.000274 -0.002304 -0.001753 0.023899
#
#
# Mechanical properties :
#
#
# Convention : Reuss Voigt Hill
#
# Bulk Modulus (GPa) = 83.28842 88.34715 85.81779
# Shear Modulus (GPa) = 34.24690 38.51961 36.38325
#
# Velocity S-wave (km/s) = 4.02964 4.27362 4.15342
# Velocity P-wave (km/s) = 7.81929 8.13886 7.98068
#
# Compressibility (1/GPa) = 0.01200647
#
# Stress axis : x y z
#
# Youngs Moduli (GPa) = 56.46074 93.11550 84.10287
#
# Poissons Ratio (x) = 0.49302 0.49488
# Poissons Ratio (y) = 0.29894 0.25133
# Poissons Ratio (z) = 0.33223 0.27826
#
# Static dielectric constant tensor:
#      x y z
#    x 4.058940 0.113300 0.134860 
#    y 0.113300 4.009930 -0.064140 
#    z 0.134860 -0.064140 3.879700 
# 
# 
# High freq. dielectric constant tensor:
#      x y z
#    x 1.832920 0.007430 0.002450 
#    y 0.007430 1.840620 -0.005770 
#    z 0.002450 -0.005770 1.833360 
# 
# From -- ./inp_files/399579.got.cif
#   From: 2010.06.25/outbox.cif.g09.slc.cpg/sg2_200_cif.got.tgz:399579.got - 2010.06.27 13:26:56.
