data_PCOD8030672
_publ_section_title
;
Structure prediction by ZEFSAII (Michael W. Deem and Ramdas Pophale) SiO2 
 PCOD8030672
Probable space group: P -1
;
_chemical_formula_sum "Si O2"
_cell_formula_units_Z 16
_cell_length_a 13.766562
_cell_length_b 8.536338
_cell_length_c 13.055750
_cell_angle_alpha 85.722291
_cell_angle_beta 132.316362
_cell_angle_gamma 128.649503
_cell_volume 709.523831
_symmetry_space_group_name_H-M "P -1"
_symmetry_group_IT_number 2
_symmetry_cell_setting 'triclinic'
loop_
_space_group_symop_operation_xyz
x,y,z
-x,-y,-z
loop_
_atom_site_type_symbol
_atom_site_label
_atom_site_fract_x
_atom_site_fract_y
_atom_site_fract_z
Si Si1 0.275709 0.995644 0.512122
Si Si2 0.487060 0.641628 0.850027
Si Si3 0.090716 0.860522 0.812837
Si Si4 0.642060 0.544246 0.806242
Si Si5 0.262686 0.620257 0.516176
Si Si6 0.380031 0.186076 0.351302
Si Si7 0.977745 0.292874 0.001862
Si Si8 0.076274 0.137566 0.655641
O O1 0.318046 0.852129 0.557146
O O2 0.049668 0.821726 0.408337
O O3 0.449001 0.245487 0.690125
O O4 0.287671 0.065221 0.401454
O O5 0.629865 0.647884 0.890237
O O6 0.333635 0.596286 0.669523
O O7 0.325943 0.404341 0.823653
O O8 0.653367 0.909123 0.014540
O O9 0.986035 0.635257 0.671749
O O10 0.993436 0.738763 0.860772
O O11 0.020860 0.964216 0.714774
O O12 0.630854 0.637893 0.689513
O O13 0.854191 0.640367 0.953775
O O14 0.384052 0.659461 0.502084
O O15 0.251116 0.968860 0.185043
O O16 0.000000 0.500000 0.000000
O O17 0.000000 0.000000 0.500000
#
# Coordination Sequence:
#
# PCOD8030672 Si02
#       8
#     2   2   2   2   2   2   2   2
#     4  12  24  40  72 100 138 184 228 285 352 404
#     4  11  25  47  70  98 135 186 233 287 329 406
#     4  12  24  46  74  95 141 185 221 287 348 402
#     4  11  22  39  67  98 136 180 231 278 348 406
#     4  11  23  44  70 101 143 176 222 282 363 409
#     4  11  22  42  64 104 141 177 227 279 347 427
#     4  12  24  40  68 107 146 173 219 287 352 424
#     4  12  24  48  71  99 133 188 245 285 327 398
#
# _framework density 22.550336000000001
#
# number of rings (size 3 to 8) (size 9 to 14) (size 15 to 20)
#    0.000    0.500    5.000    5.250    1.750    0.500 
#    0.000    0.625    0.000    0.000    0.000    0.000 
#    0.000    0.000    0.000    0.000    0.000    0.000 
#
# Total GULP energy -198421.032560 kJ/mol
# GULP energy per Si atom -12401.314535 kJ/mol
# Density = 2.249901 g / cm^3
# Si number density = 22.550336 Si / 1000 Ang^3
#
#
#
# Elastic Constant Matrix: (Units=GPa)
#
#
# Indices 1 2 3 4 5 6 
#
# 1 70.2145 47.5076 17.5587 -10.4554 18.2036 -6.7839
# 2 47.5076 122.6952 37.2941 11.7880 8.5603 -11.9188
# 3 17.5587 37.2941 116.3444 23.1933 -8.4590 -7.8031
# 4 -10.4554 11.7880 23.1933 36.2395 -3.5020 -8.2253
# 5 18.2036 8.5603 -8.4590 -3.5020 32.4908 0.9049
# 6 -6.7839 -11.9188 -7.8031 -8.2253 0.9049 29.3244
#
#
#
# Elastic Compliance Matrix: (Units=1/GPa)
#
#
# Indices 1 2 3 4 5 6 
#
# 1 0.027527 -0.009160 -0.004536 0.013883 -0.012853 0.005729
# 2 -0.009160 0.012726 -0.001467 -0.005521 0.000772 0.001090
# 3 -0.004536 -0.001467 0.011656 -0.008012 0.005125 -0.000949
# 4 0.013883 -0.005521 -0.008012 0.040445 -0.004337 0.010314
# 5 -0.012853 0.000772 0.005125 -0.004337 0.038746 -0.003708
# 6 0.005729 0.001090 -0.000949 0.010314 -0.003708 0.038624
#
#
# Mechanical properties :
#
#
# Convention : Reuss Voigt Hill
#
# Bulk Modulus (GPa) = 46.33310 57.10833 51.72071
# Shear Modulus (GPa) = 24.12606 33.40385 28.76495
#
# Velocity S-wave (km/s) = 3.27444 3.85294 3.57541
# Velocity P-wave (km/s) = 5.90653 6.72111 6.32695
#
# Compressibility (1/GPa) = 0.02158284
#
# Stress axis : x y z
#
# Youngs Moduli (GPa) = 36.32734 78.58217 85.79304
#
# Poissons Ratio (x) = 0.71985 0.38915
# Poissons Ratio (y) = 0.33278 0.12583
# Poissons Ratio (z) = 0.16478 0.11526
#
# Static dielectric constant tensor:
#      x y z
#    x 3.804430 0.065910 -0.005720 
#    y 0.065910 4.259880 0.198590 
#    z -0.005720 0.198590 4.178740 
# 
# 
# High freq. dielectric constant tensor:
#      x y z
#    x 1.861720 0.003760 -0.002560 
#    y 0.003760 1.900630 0.011750 
#    z -0.002560 0.011750 1.901070 
# 
# From -- ./inp_files/529679.got.cif
#   From: 2010.06.25/outbox.cif.g09.slc.cpg/sg2_265_cif.got.tgz:529679.got - 2010.06.27 13:26:56.
