data_PCOD8030522
_publ_section_title
;
Structure prediction by ZEFSAII (Michael W. Deem and Ramdas Pophale) SiO2 
 PCOD8030522
Probable space group: P -1
;
_chemical_formula_sum "Si O2"
_cell_formula_units_Z 14
_cell_length_a 20.387011
_cell_length_b 13.980740
_cell_length_c 11.473690
_cell_angle_alpha 21.475415
_cell_angle_beta 140.504795
_cell_angle_gamma 149.930272
_cell_volume 589.708015
_symmetry_space_group_name_H-M "P -1"
_symmetry_group_IT_number 2
_symmetry_cell_setting 'triclinic'
loop_
_space_group_symop_operation_xyz
x,y,z
-x,-y,-z
loop_
_atom_site_type_symbol
_atom_site_label
_atom_site_fract_x
_atom_site_fract_y
_atom_site_fract_z
Si Si1 0.495240 0.479590 0.379709
Si Si2 0.282786 0.521623 0.287268
Si Si3 0.232578 0.170739 0.244991
Si Si4 0.702893 0.216377 0.758762
Si Si5 0.148087 0.482017 0.939930
Si Si6 0.075108 0.755325 0.921327
Si Si7 0.411128 0.614153 0.774885
O O1 0.500000 0.500000 0.500000
O O2 0.571035 0.327893 0.634565
O O3 0.344232 0.242240 0.403674
O O4 0.570593 0.827123 0.016829
O O5 0.243455 0.661585 0.173787
O O6 0.180687 0.118776 0.595971
O O7 0.282345 0.651264 0.010708
O O8 0.144040 0.769240 0.555070
O O9 0.145990 0.264416 0.079523
O O10 0.297217 0.372524 0.985852
O O11 0.669997 0.429137 0.402600
O O12 0.838245 0.288759 0.819432
O O13 0.026749 0.252525 0.125025
O O14 0.000000 0.500000 0.000000
O O15 0.500000 0.000000 0.500000
O O16 0.500000 0.500000 0.000000
#
# Coordination Sequence:
#
# PCOD8030522 Si02
#       7
#     2   2   2   2   2   2   2
#     4  11  22  37  62 103 138 169 218 289 357 413
#     4  11  23  39  69 100 138 182 227 286 353 417
#     4  12  26  43  68 101 139 184 230 286 354 405
#     4  11  25  42  70 101 134 185 235 284 341 418
#     4  12  25  43  67 101 142 181 225 293 347 411
#     4  11  24  44  68 104 140 185 235 282 348 420
#     4  12  26  49  73  99 142 186 238 283 338 424
#
# _framework density 23.740561
#
# number of rings (size 3 to 8) (size 9 to 14) (size 15 to 20)
#    0.000    0.571    4.286    3.857    6.000    1.143 
#    0.000    1.429    0.000    0.000    0.000    0.000 
#    0.000    0.000    0.000    0.000    0.000    0.000 
#
# Total GULP energy -173452.487712 kJ/mol
# GULP energy per Si atom -12389.463408 kJ/mol
# Density = 2.368653 g / cm^3
# Si number density = 23.740561 Si / 1000 Ang^3
#
#
#
# Elastic Constant Matrix: (Units=GPa)
#
#
# Indices 1 2 3 4 5 6 
#
# 1 136.2267 8.3893 43.3835 7.2852 11.9564 13.5972
# 2 8.3893 48.5407 15.3015 10.8734 12.4335 16.3836
# 3 43.3835 15.3015 118.3939 17.9368 17.1008 2.1851
# 4 7.2852 10.8734 17.9368 39.5153 -5.8856 3.9873
# 5 11.9564 12.4335 17.1008 -5.8856 43.9787 3.2202
# 6 13.5972 16.3836 2.1851 3.9873 3.2202 32.2793
#
#
#
# Elastic Compliance Matrix: (Units=1/GPa)
#
#
# Indices 1 2 3 4 5 6 
#
# 1 0.008762 0.001176 -0.003051 -0.000352 -0.001289 -0.003909
# 2 0.001176 0.029134 -0.001708 -0.007271 -0.007878 -0.013483
# 3 -0.003051 -0.001708 0.011010 -0.004768 -0.003780 0.002373
# 4 -0.000352 -0.007271 -0.004768 0.030798 0.008160 -0.000457
# 5 -0.001289 -0.007878 -0.003780 0.008160 0.027804 0.001016
# 6 -0.003909 -0.013483 0.002373 -0.000457 0.001016 0.039264
#
#
# Mechanical properties :
#
#
# Convention : Reuss Voigt Hill
#
# Bulk Modulus (GPa) = 23.95821 48.59001 36.27411
# Shear Modulus (GPa) = 29.78836 38.89379 34.34107
#
# Velocity S-wave (km/s) = 3.54608 4.05196 3.80743
# Velocity P-wave (km/s) = 5.18458 6.51174 5.88568
#
# Compressibility (1/GPa) = 0.04173935
#
# Stress axis : x y z
#
# Youngs Moduli (GPa) = 114.12816 34.32425 90.82911
#
# Poissons Ratio (x) = -0.04036 0.27713
# Poissons Ratio (y) = -0.13419 0.15512
# Poissons Ratio (z) = 0.34822 0.05862
#
# Static dielectric constant tensor:
#      x y z
#    x -0.874200 -2.337380 -2.400460 
#    y -2.337380 2.657640 -0.800710 
#    z -2.400460 -0.800710 2.820430 
# 
# 
# High freq. dielectric constant tensor:
#      x y z
#    x 1.945280 0.019650 0.013130 
#    y 0.019650 1.920460 0.007400 
#    z 0.013130 0.007400 1.951260 
# 
# From -- ./inp_files/77895.got.cif
#   From: 2010.06.25/outbox.cif.g09.slc.cpg/sg2_39_cif.got.tgz:77895.got - 2010.06.27 13:26:56.
