data_PCOD8030205
_publ_section_title
;
Structure prediction by ZEFSAII (Michael W. Deem and Ramdas Pophale) SiO2 
 PCOD8030205
Probable space group: P -1
;
_chemical_formula_sum "Si O2"
_cell_formula_units_Z 12
_cell_length_a 9.471536
_cell_length_b 14.005688
_cell_length_c 9.013786
_cell_angle_alpha 45.284249
_cell_angle_beta 53.933661
_cell_angle_gamma 47.404615
_cell_volume 610.860133
_symmetry_space_group_name_H-M "P -1"
_symmetry_group_IT_number 2
_symmetry_cell_setting 'triclinic'
loop_
_space_group_symop_operation_xyz
x,y,z
-x,-y,-z
loop_
_atom_site_type_symbol
_atom_site_label
_atom_site_fract_x
_atom_site_fract_y
_atom_site_fract_z
Si Si1 0.572039 0.837557 0.701292
Si Si2 0.389158 0.424392 0.559653
Si Si3 0.991556 0.386575 0.258223
Si Si4 0.027285 0.831688 0.700509
Si Si5 0.606221 0.856848 0.992050
Si Si6 0.429998 0.653320 0.790043
O O1 0.511385 0.872711 0.871561
O O2 0.460132 0.766370 0.755839
O O3 0.800426 0.716946 0.681840
O O4 0.500000 0.000000 0.500000
O O5 0.500000 0.500000 0.500000
O O6 0.154177 0.523130 0.617113
O O7 0.446484 0.393210 0.386860
O O8 0.442416 0.264984 0.769956
O O9 0.908731 0.273551 0.370142
O O10 0.000000 0.500000 0.000000
O O11 0.196636 0.743672 0.810733
O O12 0.831406 0.825230 0.882599
O O13 0.000000 0.000000 0.500000
O O14 0.500000 0.000000 0.000000
O O15 0.500000 0.500000 0.000000
#
# Coordination Sequence:
#
# PCOD8030205 Si02
#       6
#     2   2   2   2   2   2
#     4  11  23  42  64  95 137 165 208 282 336 367
#     4  12  23  41  71  96 126 179 229 265 316 405
#     4  11  21  43  69  93 129 177 226 265 321 401
#     4  11  22  42  68  94 131 175 216 264 327 396
#     4  11  24  44  69  95 128 179 230 259 320 411
#     4  12  25  42  65  99 134 164 218 284 334 373
#
# _framework density 19.644431999999998
#
# number of rings (size 3 to 8) (size 9 to 14) (size 15 to 20)
#    0.000    0.667    5.000    6.000    0.000    0.667 
#    3.000    0.833    0.000    0.000    0.000    0.000 
#    0.000    0.000    0.000    0.000    0.000    0.000 
#
# Total GULP energy -148675.876084 kJ/mol
# GULP energy per Si atom -12389.656340 kJ/mol
# Density = 1.959972 g / cm^3
# Si number density = 19.644432 Si / 1000 Ang^3
#
#
#
# Elastic Constant Matrix: (Units=GPa)
#
#
# Indices 1 2 3 4 5 6 
#
# 1 142.7295 54.6300 53.5415 -2.7478 4.5746 10.8544
# 2 54.6300 134.0780 66.3568 -4.0036 10.8667 16.0683
# 3 53.5415 66.3568 157.6002 -17.1505 8.6845 7.1790
# 4 -2.7478 -4.0036 -17.1505 52.1117 8.1194 6.9343
# 5 4.5746 10.8667 8.6845 8.1194 34.3799 -8.4513
# 6 10.8544 16.0683 7.1790 6.9343 -8.4513 47.7466
#
#
#
# Elastic Compliance Matrix: (Units=1/GPa)
#
#
# Indices 1 2 3 4 5 6 
#
# 1 0.008744 -0.002533 -0.001891 -0.000242 -0.000030 -0.000821
# 2 -0.002533 0.010777 -0.003302 0.000521 -0.003141 -0.003186
# 3 -0.001891 -0.003302 0.008811 0.002885 -0.001737 -0.000510
# 4 -0.000242 0.000521 0.002885 0.021972 -0.007288 -0.005035
# 5 -0.000030 -0.003141 -0.001737 -0.007288 0.034323 0.008459
# 6 -0.000821 -0.003186 -0.000510 -0.005035 0.008459 0.024508
#
#
# Mechanical properties :
#
#
# Convention : Reuss Voigt Hill
#
# Bulk Modulus (GPa) = 77.64753 87.05156 82.34955
# Shear Modulus (GPa) = 38.79581 44.17293 41.48437
#
# Velocity S-wave (km/s) = 4.44881 4.74711 4.60038
# Velocity P-wave (km/s) = 8.12413 8.62882 8.38027
#
# Compressibility (1/GPa) = 0.01287871
#
# Stress axis : x y z
#
# Youngs Moduli (GPa) = 114.36349 92.79354 113.49621
#
# Poissons Ratio (x) = 0.23506 0.21466
# Poissons Ratio (y) = 0.28970 0.37476
# Poissons Ratio (z) = 0.21630 0.30640
#
# Static dielectric constant tensor:
#      x y z
#    x 3.698980 0.321050 -0.096260 
#    y 0.321050 3.529740 -0.003680 
#    z -0.096260 -0.003680 3.639390 
# 
# 
# High freq. dielectric constant tensor:
#      x y z
#    x 1.774030 0.007560 -0.008070 
#    y 0.007560 1.793960 -0.015140 
#    z -0.008070 -0.015140 1.763880 
# 
# From -- ./inp_files/145105.got.cif
#   From: 2010.06.25/outbox.cif.g09.slc.cpg/sg2_73_cif.got.tgz:145105.got - 2010.06.27 13:26:56.
