data_PCOD8030830
_publ_section_title
;
Structure prediction by ZEFSAII (Michael W. Deem and Ramdas Pophale) SiO2 
 PCOD8030830
Probable space group: P -1
;
_chemical_formula_sum "Si O2"
_cell_formula_units_Z 16
_cell_length_a 9.876274
_cell_length_b 14.797673
_cell_length_c 5.974292
_cell_angle_alpha 92.845073
_cell_angle_beta 115.621910
_cell_angle_gamma 108.146840
_cell_volume 730.590107
_symmetry_space_group_name_H-M "P -1"
_symmetry_group_IT_number 2
_symmetry_cell_setting 'triclinic'
loop_
_space_group_symop_operation_xyz
x,y,z
-x,-y,-z
loop_
_atom_site_type_symbol
_atom_site_label
_atom_site_fract_x
_atom_site_fract_y
_atom_site_fract_z
Si Si1 0.373715 0.959670 0.209704
Si Si2 0.576619 0.535191 0.810966
Si Si3 0.264530 0.259603 0.899847
Si Si4 0.504174 0.851967 0.957302
Si Si5 0.208774 0.703198 0.477650
Si Si6 0.078527 0.325280 0.419471
Si Si7 0.170699 0.511321 0.217008
Si Si8 0.049669 0.812794 0.075581
O O1 0.190631 0.919313 0.169355
O O2 0.500000 0.000000 0.500000
O O3 0.385666 0.044912 0.056688
O O4 0.411002 0.871565 0.107565
O O5 0.500000 0.500000 0.500000
O O6 0.724375 0.496436 0.922009
O O7 0.500000 0.500000 0.000000
O O8 0.635851 0.652950 0.850538
O O9 0.217502 0.314444 0.670390
O O10 0.099369 0.183169 0.882034
O O11 0.376769 0.202238 0.890481
O O12 0.372592 0.788827 0.678059
O O13 0.254391 0.612859 0.419183
O O14 0.126187 0.738987 0.222259
O O15 0.078253 0.666854 0.575736
O O16 0.166169 0.424946 0.366575
O O17 0.018293 0.227482 0.218860
O O18 0.000000 0.500000 0.000000
#
# Coordination Sequence:
#
# PCOD8030830 Si02
#       8
#     2   2   2   2   2   2   2   2
#     4  11  24  46  74 100 133 168 232 304 360 427
#     4  12  27  47  68 103 154 200 243 301 359 427
#     4  11  26  44  67 101 144 188 230 286 362 434
#     4  11  25  43  69 104 131 176 234 289 363 431
#     4  11  22  40  71 103 135 184 240 290 349 422
#     4  11  22  44  67 101 148 184 235 292 353 427
#     4  12  23  42  70 105 136 189 247 288 341 421
#     4  11  22  44  70  99 137 180 230 292 355 419
#
# _framework density 21.900106999999998
#
# number of rings (size 3 to 8) (size 9 to 14) (size 15 to 20)
#    0.000    0.750    5.000    2.625    0.000    4.500 
#    0.000    1.250    0.000    0.000    0.000    0.000 
#    0.000    0.000    0.000    0.000    0.000    0.000 
#
# Total GULP energy -198329.425609 kJ/mol
# GULP energy per Si atom -12395.589101 kJ/mol
# Density = 2.185026 g / cm^3
# Si number density = 21.900107 Si / 1000 Ang^3
#
#
#
# Elastic Constant Matrix: (Units=GPa)
#
#
# Indices 1 2 3 4 5 6 
#
# 1 142.6618 55.1631 41.4709 -3.9620 -0.8426 -5.5225
# 2 55.1631 90.5858 34.7562 15.1072 3.0973 -4.0516
# 3 41.4709 34.7562 100.8443 9.9846 -3.8986 2.4200
# 4 -3.9620 15.1072 9.9846 36.0313 3.7399 1.3954
# 5 -0.8426 3.0973 -3.8986 3.7399 30.2851 0.5747
# 6 -5.5225 -4.0516 2.4200 1.3954 0.5747 43.4154
#
#
#
# Elastic Compliance Matrix: (Units=1/GPa)
#
#
# Indices 1 2 3 4 5 6 
#
# 1 0.010191 -0.005887 -0.002603 0.004280 0.000008 0.000754
# 2 -0.005887 0.016960 -0.002829 -0.006873 -0.001437 0.001232
# 3 -0.002603 -0.002829 0.012342 -0.002697 0.002162 -0.001225
# 4 0.004280 -0.006873 -0.002697 0.032252 -0.003490 -0.000937
# 5 0.000008 -0.001437 0.002162 -0.003490 0.033887 -0.000590
# 6 0.000754 0.001232 -0.001225 -0.000937 -0.000590 0.023350
#
#
# Mechanical properties :
#
#
# Convention : Reuss Voigt Hill
#
# Bulk Modulus (GPa) = 59.33393 66.31913 62.82653
# Shear Modulus (GPa) = 31.79847 35.45981 33.62914
#
# Velocity S-wave (km/s) = 3.81462 4.02825 3.92289
# Velocity P-wave (km/s) = 6.82302 7.20999 7.01917
#
# Compressibility (1/GPa) = 0.01685376
#
# Stress axis : x y z
#
# Youngs Moduli (GPa) = 98.12594 58.96115 81.02474
#
# Poissons Ratio (x) = 0.34713 0.21094
# Poissons Ratio (y) = 0.57771 0.22921
# Poissons Ratio (z) = 0.25546 0.16680
#
# Static dielectric constant tensor:
#      x y z
#    x 4.296590 0.083300 0.007190 
#    y 0.083300 3.990030 0.087260 
#    z 0.007190 0.087260 3.952530 
# 
# 
# High freq. dielectric constant tensor:
#      x y z
#    x 1.873110 0.010110 0.001770 
#    y 0.010110 1.853030 0.008540 
#    z 0.001770 0.008540 1.868800 
# 
# From -- ./inp_files/39529.got.cif
#   From: 2010.06.25/outbox.cif.g09.slc.cpg/sg2_20_cif.got.tgz:39529.got - 2010.06.27 13:26:56.
