data_PCOD8030444
_publ_section_title
;
Structure prediction by ZEFSAII (Michael W. Deem and Ramdas Pophale) SiO2 
 PCOD8030444
Probable space group: P -1
;
_chemical_formula_sum "Si O2"
_cell_formula_units_Z 16
_cell_length_a 12.204644
_cell_length_b 9.422613
_cell_length_c 9.490957
_cell_angle_alpha 90.733910
_cell_angle_beta 91.532752
_cell_angle_gamma 138.769688
_cell_volume 718.209435
_symmetry_space_group_name_H-M "P -1"
_symmetry_group_IT_number 2
_symmetry_cell_setting 'triclinic'
loop_
_space_group_symop_operation_xyz
x,y,z
-x,-y,-z
loop_
_atom_site_type_symbol
_atom_site_label
_atom_site_fract_x
_atom_site_fract_y
_atom_site_fract_z
Si Si1 0.605890 0.877927 0.911430
Si Si2 0.113892 0.301178 0.261918
Si Si3 0.894969 0.295606 0.084536
Si Si4 0.336204 0.298491 0.571485
Si Si5 0.647751 0.181719 0.267298
Si Si6 0.150488 0.016942 0.301453
Si Si7 0.853308 0.601280 0.423022
Si Si8 0.504766 0.266925 0.788390
O O1 0.456884 0.811316 0.828510
O O2 0.705422 0.873223 0.807304
O O3 0.524312 0.730032 0.046804
O O4 0.740377 0.117095 0.976191
O O5 0.076068 0.331033 0.414477
O O6 0.306589 0.514527 0.237816
O O7 0.996655 0.256811 0.138934
O O8 0.072829 0.093945 0.258202
O O9 0.826007 0.313929 0.213434
O O10 0.000000 0.500000 0.000000
O O11 0.500000 0.500000 0.500000
O O12 0.242996 0.348599 0.615033
O O13 0.376103 0.247734 0.710622
O O14 0.227422 0.097606 0.460540
O O15 0.719913 0.340456 0.405526
O O16 0.536717 0.931443 0.277984
O O17 0.005584 0.755221 0.313714
#
# Coordination Sequence:
#
# PCOD8030444 Si02
#       8
#     2   2   2   2   2   2   2   2
#     4  11  25  44  68 101 134 180 228 277 335 401
#     4  11  24  44  70 103 134 179 226 278 347 397
#     4  11  23  44  65  94 142 182 222 278 340 403
#     4  11  21  46  68  99 139 181 226 275 338 397
#     4  11  25  44  68 101 134 180 228 277 335 401
#     4  11  25  43  70 102 138 179 224 281 336 406
#     4  11  25  43  70 102 138 179 224 281 336 406
#     4  11  24  43  71 101 135 181 224 281 335 405
#
# _framework density 22.277623999999999
#
# number of rings (size 3 to 8) (size 9 to 14) (size 15 to 20)
#    0.000    1.000    2.500    6.000    7.000    2.000 
#    4.500    0.000    0.000    0.000    0.000    0.000 
#    0.000    0.000    0.000    0.000    0.000    0.000 
#
# Total GULP energy -198218.421958 kJ/mol
# GULP energy per Si atom -12388.651372 kJ/mol
# Density = 2.222692 g / cm^3
# Si number density = 22.277624 Si / 1000 Ang^3
#
#
#
# Elastic Constant Matrix: (Units=GPa)
#
#
# Indices 1 2 3 4 5 6 
#
# 1 76.6032 -9.7852 14.5692 -1.8228 1.8493 9.2713
# 2 -9.7852 146.9451 128.2021 -12.9907 5.1180 -18.8683
# 3 14.5692 128.2021 270.3179 -24.3438 16.5213 -62.5258
# 4 -1.8228 -12.9907 -24.3438 37.1467 -2.9102 -3.9686
# 5 1.8493 5.1180 16.5213 -2.9102 36.2543 -4.6030
# 6 9.2713 -18.8683 -62.5258 -3.9686 -4.6030 41.1919
#
#
#
# Elastic Compliance Matrix: (Units=1/GPa)
#
#
# Indices 1 2 3 4 5 6 
#
# 1 0.015795 0.004267 -0.005389 -0.002371 -0.000419 -0.010056
# 2 0.004267 0.013429 -0.008623 -0.001544 0.000680 -0.007971
# 3 -0.005389 -0.008623 0.012733 0.006762 -0.001601 0.017063
# 4 -0.002371 -0.001544 0.006762 0.032245 0.001543 0.013370
# 5 -0.000419 0.000680 -0.001601 0.001543 0.028528 0.001312
# 6 -0.010056 -0.007971 0.017063 0.013370 0.001312 0.050224
#
#
# Mechanical properties :
#
#
# Convention : Reuss Voigt Hill
#
# Bulk Modulus (GPa) = 44.50961 84.42649 64.46805
# Shear Modulus (GPa) = 27.78803 46.97726 37.38264
#
# Velocity S-wave (km/s) = 3.53562 4.59706 4.10083
# Velocity P-wave (km/s) = 6.05726 8.13370 7.17103
#
# Compressibility (1/GPa) = 0.02246706
#
# Stress axis : x y z
#
# Youngs Moduli (GPa) = 63.31117 74.46515 78.53504
#
# Poissons Ratio (x) = -0.31775 0.42322
# Poissons Ratio (y) = -0.27016 0.67723
# Poissons Ratio (z) = 0.34118 0.64214
#
# Static dielectric constant tensor:
#      x y z
#    x 4.020130 0.023960 0.059860 
#    y 0.023960 4.116080 0.014850 
#    z 0.059860 0.014850 4.220780 
# 
# 
# High freq. dielectric constant tensor:
#      x y z
#    x 1.884840 0.014910 0.001530 
#    y 0.014910 1.888000 -0.004110 
#    z 0.001530 -0.004110 1.874030 
# 
# From -- ./inp_files/244073.got.cif
#   From: 2010.06.25/outbox.cif.g09.slc.cpg/sg2_123_cif.got.tgz:244073.got - 2010.06.27 13:26:56.
