data_PCOD8030282
_publ_section_title
;
Structure prediction by ZEFSAII (Michael W. Deem and Ramdas Pophale) SiO2 
 PCOD8030282
Probable space group: P -1
;
_chemical_formula_sum "Si O2"
_cell_formula_units_Z 14
_cell_length_a 11.819713
_cell_length_b 11.538884
_cell_length_c 7.953608
_cell_angle_alpha 54.776586
_cell_angle_beta 68.007316
_cell_angle_gamma 46.230948
_cell_volume 639.369499
_symmetry_space_group_name_H-M "P -1"
_symmetry_group_IT_number 2
_symmetry_cell_setting 'triclinic'
loop_
_space_group_symop_operation_xyz
x,y,z
-x,-y,-z
loop_
_atom_site_type_symbol
_atom_site_label
_atom_site_fract_x
_atom_site_fract_y
_atom_site_fract_z
Si Si1 0.160625 0.329373 0.622919
Si Si2 0.570864 0.824753 0.997776
Si Si3 0.420189 0.635274 0.770654
Si Si4 0.389515 0.959799 0.662543
Si Si5 0.669153 0.533647 0.456357
Si Si6 0.108463 0.784911 0.637403
Si Si7 0.888538 0.703238 0.943167
O O1 0.273285 0.385066 0.516792
O O2 0.000000 0.500000 0.500000
O O3 0.221210 0.158554 0.612257
O O4 0.147511 0.271399 0.861438
O O5 0.600959 0.658918 0.223371
O O6 0.454067 0.859819 0.889485
O O7 0.727373 0.783685 0.867004
O O8 0.500000 0.000000 0.000000
O O9 0.381270 0.829337 0.658502
O O10 0.537118 0.539465 0.624535
O O11 0.251145 0.691596 0.771238
O O12 0.500000 0.500000 0.000000
O O13 0.500000 0.000000 0.500000
O O14 0.813107 0.326369 0.489062
O O15 0.971022 0.785956 0.778714
O O16 0.000000 0.000000 0.500000
O O17 0.000000 0.500000 0.000000
#
# Coordination Sequence:
#
# PCOD8030282 Si02
#       7
#     2   2   2   2   2   2   2
#     4  11  25  40  72 104 139 172 235 299 340 396
#     4  11  21  43  76 103 131 179 246 286 333 406
#     4  12  29  48  71 104 149 187 226 293 362 423
#     4  12  25  43  74 106 135 184 240 285 342 417
#     4  11  24  49  70 101 136 192 231 290 344 425
#     4  12  29  46  72 105 143 189 231 288 354 427
#     4  11  24  44  73  99 134 184 236 283 340 409
#
# _framework density 21.896571000000002
#
# number of rings (size 3 to 8) (size 9 to 14) (size 15 to 20)
#    0.000    0.571    7.143    1.286   10.000    1.143 
#    0.000    1.429    0.000    0.000    0.000    0.000 
#    0.000    0.000    0.000    0.000    0.000    0.000 
#
# Total GULP energy -173514.337096 kJ/mol
# GULP energy per Si atom -12393.881221 kJ/mol
# Density = 2.184673 g / cm^3
# Si number density = 21.896571 Si / 1000 Ang^3
#
#
#
# Elastic Constant Matrix: (Units=GPa)
#
#
# Indices 1 2 3 4 5 6 
#
# 1 74.8963 19.3379 26.2193 -7.1653 -5.8988 -16.5070
# 2 19.3379 163.7894 35.7525 -12.1481 -11.9849 -2.9896
# 3 26.2193 35.7525 93.0388 -7.0874 -17.1431 -13.7741
# 4 -7.1653 -12.1481 -7.0874 38.7102 -4.5161 -0.9296
# 5 -5.8988 -11.9849 -17.1431 -4.5161 39.7310 -3.4089
# 6 -16.5070 -2.9896 -13.7741 -0.9296 -3.4089 46.3982
#
#
#
# Elastic Compliance Matrix: (Units=1/GPa)
#
#
# Indices 1 2 3 4 5 6 
#
# 1 0.016065 -0.000858 -0.002998 0.002453 0.001535 0.004932
# 2 -0.000858 0.006876 -0.002098 0.001747 0.001209 -0.000361
# 3 -0.002998 -0.002098 0.014086 0.002093 0.005532 0.003428
# 4 0.002453 0.001747 0.002093 0.027884 0.005183 0.002546
# 5 0.001535 0.001209 0.005532 0.005183 0.029125 0.004510
# 6 0.004932 -0.000361 0.003428 0.002546 0.004510 0.024684
#
#
# Mechanical properties :
#
#
# Convention : Reuss Voigt Hill
#
# Bulk Modulus (GPa) = 39.81028 54.92709 47.36869
# Shear Modulus (GPa) = 35.97087 41.66220 38.81653
#
# Velocity S-wave (km/s) = 4.05750 4.36671 4.21494
# Velocity P-wave (km/s) = 6.33811 7.11080 6.73554
#
# Compressibility (1/GPa) = 0.02511914
#
# Stress axis : x y z
#
# Youngs Moduli (GPa) = 62.24547 145.42970 70.99498
#
# Poissons Ratio (x) = 0.12480 0.21283
# Poissons Ratio (y) = 0.05341 0.14895
# Poissons Ratio (z) = 0.18660 0.30513
#
# Static dielectric constant tensor:
#      x y z
#    x 4.057750 0.145640 0.101080 
#    y 0.145640 4.334530 0.000220 
#    z 0.101080 0.000220 3.967130 
# 
# 
# High freq. dielectric constant tensor:
#      x y z
#    x 1.862950 -0.000380 -0.004010 
#    y -0.000380 1.886530 -0.004890 
#    z -0.004010 -0.004890 1.853250 
# 
# From -- ./inp_files/155269.got.cif
#   From: 2010.06.25/outbox.cif.g09.slc.cpg/sg2_78_cif.got.tgz:155269.got - 2010.06.27 13:26:56.
