data_PCOD8030025
_publ_section_title
;
Structure prediction by ZEFSAII (Michael W. Deem and Ramdas Pophale) SiO2 
 PCOD8030025
Probable space group: P -1
;
_chemical_formula_sum "Si O2"
_cell_formula_units_Z 14
_cell_length_a 9.876685
_cell_length_b 13.657200
_cell_length_c 11.960330
_cell_angle_alpha 136.587180
_cell_angle_beta 32.786829
_cell_angle_gamma 137.179689
_cell_volume 566.777202
_symmetry_space_group_name_H-M "P -1"
_symmetry_group_IT_number 2
_symmetry_cell_setting 'triclinic'
loop_
_space_group_symop_operation_xyz
x,y,z
-x,-y,-z
loop_
_atom_site_type_symbol
_atom_site_label
_atom_site_fract_x
_atom_site_fract_y
_atom_site_fract_z
Si Si1 0.745867 0.615881 0.217414
Si Si2 0.588440 0.194996 0.833967
Si Si3 0.321055 0.410940 0.176611
Si Si4 0.021254 0.562828 0.368587
Si Si5 0.289834 0.597659 0.741101
Si Si6 0.841022 0.957958 0.458155
Si Si7 0.619263 0.873887 0.844167
O O1 0.579555 0.518256 0.149977
O O2 0.653108 0.537389 0.339348
O O3 0.718783 0.781689 0.372923
O O4 0.049712 0.633944 0.999441
O O5 0.594694 0.024680 0.672662
O O6 0.873596 0.306304 0.688409
O O7 0.367144 0.253490 0.974199
O O8 0.532738 0.220605 0.022656
O O9 0.070914 0.371792 0.402304
O O10 0.252126 0.492839 0.183277
O O11 0.775051 0.438638 0.375799
O O12 0.548745 0.748926 0.690629
O O13 0.066987 0.046825 0.285352
O O14 0.000000 0.000000 0.500000
O O15 0.500000 0.000000 0.000000
#
# Coordination Sequence:
#
# PCOD8030025 Si02
#       7
#     2   2   2   2   2   2   2
#     4  11  23  42  69 107 133 175 233 284 332 414
#     4  12  23  44  68  98 141 184 221 282 345 401
#     4  11  25  46  72 101 136 177 240 282 332 415
#     4  11  25  44  74 101 131 185 232 283 344 399
#     4  11  21  41  71 102 135 176 231 285 340 392
#     4  12  25  40  65 104 146 180 215 278 359 398
#     4  12  23  41  65 104 146 175 222 282 339 411
#
# _framework density 24.701065
#
# number of rings (size 3 to 8) (size 9 to 14) (size 15 to 20)
#    0.000    0.571    5.714    3.000    2.000    0.571 
#    0.000    0.714    0.000    5.143    0.000    0.000 
#    0.000    0.000    0.000    0.000    0.000    0.000 
#
# Total GULP energy -173541.335195 kJ/mol
# GULP energy per Si atom -12395.809657 kJ/mol
# Density = 2.464484 g / cm^3
# Si number density = 24.701065 Si / 1000 Ang^3
#
#
#
# Elastic Constant Matrix: (Units=GPa)
#
#
# Indices 1 2 3 4 5 6 
#
# 1 94.1002 42.7264 24.1466 13.5885 -11.0476 -14.5308
# 2 42.7264 119.8974 42.5313 27.1012 -8.7446 -15.3734
# 3 24.1466 42.5313 103.8727 42.8202 -31.0753 -12.3267
# 4 13.5885 27.1012 42.8202 54.1739 -16.8261 -4.1338
# 5 -11.0476 -8.7446 -31.0753 -16.8261 46.0053 -2.6776
# 6 -14.5308 -15.3734 -12.3267 -4.1338 -2.6776 30.5507
#
#
#
# Elastic Compliance Matrix: (Units=1/GPa)
#
#
# Indices 1 2 3 4 5 6 
#
# 1 0.013490 -0.003949 -0.000136 -0.000139 0.002613 0.004584
# 2 -0.003949 0.011582 -0.002844 -0.002875 -0.001587 0.002274
# 3 -0.000136 -0.002844 0.017928 -0.009753 0.008269 0.005143
# 4 -0.000139 -0.002875 -0.009753 0.028533 0.003192 -0.001308
# 5 0.002613 -0.001587 0.008269 0.003192 0.029209 0.006772
# 6 0.004584 0.002274 0.005143 -0.001308 0.006772 0.038549
#
#
# Mechanical properties :
#
#
# Convention : Reuss Voigt Hill
#
# Bulk Modulus (GPa) = 34.31469 59.63098 46.97283
# Shear Modulus (GPa) = 30.70060 40.04371 35.37215
#
# Velocity S-wave (km/s) = 3.52928 4.03070 3.78830
# Velocity P-wave (km/s) = 5.52539 6.77167 6.18003
#
# Compressibility (1/GPa) = 0.02914204
#
# Stress axis : x y z
#
# Youngs Moduli (GPa) = 74.13072 86.33781 55.77892
#
# Poissons Ratio (x) = 0.34096 0.00757
# Poissons Ratio (y) = 0.29275 0.15865
# Poissons Ratio (z) = 0.01006 0.24556
#
# Static dielectric constant tensor:
#      x y z
#    x 4.838900 -0.941090 0.126110 
#    y -0.941090 4.960800 -0.414510 
#    z 0.126110 -0.414510 5.230490 
# 
# 
# High freq. dielectric constant tensor:
#      x y z
#    x 1.942460 -0.034410 -0.009030 
#    y -0.034410 1.977590 -0.009230 
#    z -0.009030 -0.009230 2.030820 
# 
# From -- ./inp_files/520983.got.cif
#   From: 2010.06.25/outbox.cif.g09.slc.cpg/sg2_261_cif.got.tgz:520983.got - 2010.06.27 13:26:56.
