data_PCOD8030104
_publ_section_title
;
Structure prediction by ZEFSAII (Michael W. Deem and Ramdas Pophale) SiO2 
 PCOD8030104
Probable space group: P -1
;
_chemical_formula_sum "Si O2"
_cell_formula_units_Z 14
_cell_length_a 14.504887
_cell_length_b 9.798715
_cell_length_c 6.653441
_cell_angle_alpha 129.805038
_cell_angle_beta 77.371922
_cell_angle_gamma 115.695235
_cell_volume 652.256530
_symmetry_space_group_name_H-M "P -1"
_symmetry_group_IT_number 2
_symmetry_cell_setting 'triclinic'
loop_
_space_group_symop_operation_xyz
x,y,z
-x,-y,-z
loop_
_atom_site_type_symbol
_atom_site_label
_atom_site_fract_x
_atom_site_fract_y
_atom_site_fract_z
Si Si1 0.519931 0.208750 0.766417
Si Si2 0.002682 0.093815 0.871094
Si Si3 0.312633 0.231291 0.770405
Si Si4 0.912249 0.473504 0.681990
Si Si5 0.290954 0.521440 0.325178
Si Si6 0.874891 0.105945 0.606572
Si Si7 0.594414 0.463647 0.324727
O O1 0.415131 0.237541 0.828782
O O2 0.606588 0.353712 0.723093
O O3 0.500000 0.000000 0.500000
O O4 0.554629 0.258115 0.029588
O O5 0.893144 0.084785 0.818937
O O6 0.048243 0.976139 0.602438
O O7 0.072449 0.320286 0.041225
O O8 0.000000 0.000000 0.000000
O O9 0.341362 0.364726 0.689304
O O10 0.241041 0.017006 0.526133
O O11 0.254831 0.306777 0.040421
O O12 0.798714 0.396717 0.564021
O O13 0.909338 0.327397 0.725265
O O14 0.000000 0.500000 0.500000
O O15 0.320928 0.532866 0.553111
O O16 0.500000 0.500000 0.500000
#
# Coordination Sequence:
#
# PCOD8030104 Si02
#       7
#     2   2   2   2   2   2   2
#     4  11  23  42  64  98 139 174 227 287 349 418
#     4  11  24  46  69  96 135 179 234 289 345 409
#     4  11  22  41  69  95 135 181 225 280 355 422
#     4  12  25  46  70 100 141 182 235 294 343 412
#     4  11  23  43  68  95 137 181 228 282 349 418
#     4  11  25  43  70  98 133 185 226 285 354 406
#     4  11  21  42  69  95 132 186 228 281 348 417
#
# _framework density 21.463946
#
# number of rings (size 3 to 8) (size 9 to 14) (size 15 to 20)
#    0.000    0.857    5.714    2.143    2.000    0.571 
#    7.714    0.000    0.000    0.000    0.000    0.000 
#    0.000    0.000    0.000    0.000    0.000    0.000 
#
# Total GULP energy -173468.470774 kJ/mol
# GULP energy per Si atom -12390.605055 kJ/mol
# Density = 2.141509 g / cm^3
# Si number density = 21.463946 Si / 1000 Ang^3
#
#
#
# Elastic Constant Matrix: (Units=GPa)
#
#
# Indices 1 2 3 4 5 6 
#
# 1 117.4654 42.3275 28.3493 -9.7903 13.5474 -16.2433
# 2 42.3275 118.8215 65.4625 5.0050 16.7545 -21.8134
# 3 28.3493 65.4625 115.3481 -1.9569 18.1878 -20.4530
# 4 -9.7903 5.0050 -1.9569 42.6890 -6.6441 4.5804
# 5 13.5474 16.7545 18.1878 -6.6441 40.0487 -1.3168
# 6 -16.2433 -21.8134 -20.4530 4.5804 -1.3168 33.8864
#
#
#
# Elastic Compliance Matrix: (Units=1/GPa)
#
#
# Indices 1 2 3 4 5 6 
#
# 1 0.010363 -0.003024 -0.000048 0.002171 -0.001772 0.002630
# 2 -0.003024 0.014219 -0.006218 -0.003505 -0.002541 0.004325
# 3 -0.000048 -0.006218 0.013426 0.000404 -0.003284 0.003895
# 4 0.002171 -0.003505 0.000404 0.025531 0.004644 -0.004242
# 5 -0.001772 -0.002541 -0.003284 0.004644 0.028763 -0.003977
# 6 0.002630 0.004325 0.003895 -0.004242 -0.003977 0.036325
#
#
# Mechanical properties :
#
#
# Convention : Reuss Voigt Hill
#
# Bulk Modulus (GPa) = 51.47492 69.32373 60.39933
# Shear Modulus (GPa) = 32.53432 37.69120 35.11276
#
# Velocity S-wave (km/s) = 3.89751 4.19504 4.04901
# Velocity P-wave (km/s) = 6.65494 7.47210 7.07533
#
# Compressibility (1/GPa) = 0.01942694
#
# Stress axis : x y z
#
# Youngs Moduli (GPa) = 96.49346 70.32829 74.48419
#
# Poissons Ratio (x) = 0.21267 0.00361
# Poissons Ratio (y) = 0.29179 0.46316
# Poissons Ratio (z) = 0.00467 0.43732
#
# Static dielectric constant tensor:
#      x y z
#    x 4.063540 -0.119880 0.139490 
#    y -0.119880 3.669480 0.304240 
#    z 0.139490 0.304240 4.374030 
# 
# 
# High freq. dielectric constant tensor:
#      x y z
#    x 1.854590 -0.005710 0.014090 
#    y -0.005710 1.832490 0.003640 
#    z 0.014090 0.003640 1.852340 
# 
# From -- ./inp_files/37086.got.cif
#   From: 2010.06.25/outbox.cif.g09.slc.cpg/sg2_19_cif.got.tgz:37086.got - 2010.06.27 13:26:56.
