data_PCOD8030150
_publ_section_title
;
Structure prediction by ZEFSAII (Michael W. Deem and Ramdas Pophale) SiO2 
 PCOD8030150
Probable space group: P -1
;
_chemical_formula_sum "Si O2"
_cell_formula_units_Z 16
_cell_length_a 8.881811
_cell_length_b 15.604202
_cell_length_c 13.339295
_cell_angle_alpha 152.679149
_cell_angle_beta 70.631846
_cell_angle_gamma 99.756978
_cell_volume 766.322895
_symmetry_space_group_name_H-M "P -1"
_symmetry_group_IT_number 2
_symmetry_cell_setting 'triclinic'
loop_
_space_group_symop_operation_xyz
x,y,z
-x,-y,-z
loop_
_atom_site_type_symbol
_atom_site_label
_atom_site_fract_x
_atom_site_fract_y
_atom_site_fract_z
Si Si1 0.584721 0.984321 0.611629
Si Si2 0.574219 0.673181 0.135363
Si Si3 0.847496 0.355960 0.653887
Si Si4 0.913529 0.179490 0.006479
Si Si5 0.727478 0.055577 0.256469
Si Si6 0.064663 0.037354 0.415783
Si Si7 0.315933 0.012502 0.022346
Si Si8 0.912188 0.572633 0.491456
O O1 0.562911 0.168654 0.734520
O O2 0.619061 0.781354 0.333881
O O3 0.417367 0.032419 0.764342
O O4 0.744908 0.958819 0.618962
O O5 0.500000 0.500000 0.000000
O O6 0.746261 0.574676 0.935682
O O7 0.720004 0.243282 0.521839
O O8 0.950305 0.240312 0.605661
O O9 0.966132 0.363258 0.543965
O O10 0.942145 0.140510 0.840732
O O11 0.782802 0.066990 0.953496
O O12 0.842654 0.408466 0.283282
O O13 0.091118 0.100879 0.940830
O O14 0.690612 0.110254 0.204815
O O15 0.000000 0.000000 0.500000
O O16 0.239367 0.241284 0.256816
O O17 0.500000 0.000000 0.000000
O O18 0.000000 0.500000 0.500000
#
# Coordination Sequence:
#
# PCOD8030150 Si02
#       8
#     2   2   2   2   2   2   2   2
#     4  11  25  42  69  97 135 178 227 284 337 389
#     4  11  23  43  66  98 133 176 231 277 330 407
#     4  11  24  44  70 101 134 181 231 273 344 413
#     4  11  24  46  69  98 140 180 231 275 337 415
#     4  11  21  42  72  95 133 180 220 281 335 405
#     4  11  25  45  67  99 142 182 224 286 342 391
#     4  12  25  45  70 102 141 172 224 289 344 400
#     4  12  24  44  74 100 131 183 229 275 344 411
#
# _framework density 20.878926
#
# number of rings (size 3 to 8) (size 9 to 14) (size 15 to 20)
#    0.000    0.750    5.000    3.375    7.000    1.000 
#    4.500    0.000    0.000    0.000    0.000    0.000 
#    0.000    0.000    0.000    0.000    0.000    0.000 
#
# Total GULP energy -198440.257706 kJ/mol
# GULP energy per Si atom -12402.516107 kJ/mol
# Density = 2.083140 g / cm^3
# Si number density = 20.878926 Si / 1000 Ang^3
#
#
#
# Elastic Constant Matrix: (Units=GPa)
#
#
# Indices 1 2 3 4 5 6 
#
# 1 142.7626 46.2131 34.2148 -2.4544 -2.9707 -4.7454
# 2 46.2131 122.3147 34.2636 -9.7808 4.5804 -3.5164
# 3 34.2148 34.2636 108.0514 9.7133 3.2773 -9.9207
# 4 -2.4544 -9.7808 9.7133 36.6519 2.0325 3.6128
# 5 -2.9707 4.5804 3.2773 2.0325 31.3303 -4.7755
# 6 -4.7454 -3.5164 -9.9207 3.6128 -4.7755 35.6066
#
#
#
# Elastic Compliance Matrix: (Units=1/GPa)
#
#
# Indices 1 2 3 4 5 6 
#
# 1 0.008354 -0.002672 -0.001812 0.000196 0.001439 0.000518
# 2 -0.002672 0.010274 -0.002732 0.003455 -0.001800 -0.000694
# 3 -0.001812 -0.002732 0.011354 -0.004146 -0.000227 0.003042
# 4 0.000196 0.003455 -0.004146 0.029875 -0.002627 -0.004171
# 5 0.001439 -0.001800 -0.000227 -0.002627 0.033224 0.004673
# 6 0.000518 -0.000694 0.003042 -0.004171 0.004673 0.029983
#
#
# Mechanical properties :
#
#
# Convention : Reuss Voigt Hill
#
# Bulk Modulus (GPa) = 64.30409 66.94574 65.62492
# Shear Modulus (GPa) = 35.04387 37.94692 36.49539
#
# Velocity S-wave (km/s) = 4.10131 4.26781 4.18539
# Velocity P-wave (km/s) = 7.30021 7.51126 7.40649
#
# Compressibility (1/GPa) = 0.01555111
#
# Stress axis : x y z
#
# Youngs Moduli (GPa) = 119.69760 97.33157 88.07698
#
# Poissons Ratio (x) = 0.26010 0.15957
# Poissons Ratio (y) = 0.31987 0.24059
# Poissons Ratio (z) = 0.21686 0.26587
#
# Static dielectric constant tensor:
#      x y z
#    x 3.759490 -0.039460 -0.089220 
#    y -0.039460 3.789460 0.058470 
#    z -0.089220 0.058470 4.292270 
# 
# 
# High freq. dielectric constant tensor:
#      x y z
#    x 1.816940 0.005930 0.000560 
#    y 0.005930 1.819180 -0.012680 
#    z 0.000560 -0.012680 1.829060 
# 
# From -- ./inp_files/273181.got.cif
#   From: 2010.06.25/outbox.cif.g09.slc.cpg/sg2_137_cif.got.tgz:273181.got - 2010.06.27 13:26:56.
