data_PCOD8030171
_publ_section_title
;
Structure prediction by ZEFSAII (Michael W. Deem and Ramdas Pophale) SiO2 
 PCOD8030171
Probable space group: P -1
;
_chemical_formula_sum "Si O2"
_cell_formula_units_Z 16
_cell_length_a 14.634259
_cell_length_b 8.745923
_cell_length_c 10.084798
_cell_angle_alpha 72.848874
_cell_angle_beta 62.753067
_cell_angle_gamma 40.445692
_cell_volume 741.224050
_symmetry_space_group_name_H-M "P -1"
_symmetry_group_IT_number 2
_symmetry_cell_setting 'triclinic'
loop_
_space_group_symop_operation_xyz
x,y,z
-x,-y,-z
loop_
_atom_site_type_symbol
_atom_site_label
_atom_site_fract_x
_atom_site_fract_y
_atom_site_fract_z
Si Si1 0.880262 0.456273 0.878468
Si Si2 0.117512 0.912875 0.122526
Si Si3 0.582361 0.384243 0.338036
Si Si4 0.603122 0.336837 0.846582
Si Si5 0.204626 0.582026 0.793171
Si Si6 0.210895 0.071295 0.804898
Si Si7 0.577292 0.889769 0.335272
Si Si8 0.392310 0.032141 0.161833
O O1 0.883736 0.266260 0.882753
O O2 0.774608 0.692556 0.800032
O O3 0.052199 0.329542 0.793546
O O4 0.824138 0.522215 0.050939
O O5 0.225955 0.799907 0.206199
O O6 0.948858 0.155454 0.219523
O O7 0.178428 0.966309 0.957678
O O8 0.500000 0.500000 0.500000
O O9 0.459274 0.488436 0.279207
O O10 0.677421 0.429371 0.217851
O O11 0.701259 0.101033 0.338020
O O12 0.611407 0.143368 0.844998
O O13 0.500000 0.500000 0.000000
O O14 0.293749 0.396296 0.659557
O O15 0.327866 0.064894 0.790689
O O16 0.500000 0.000000 0.500000
O O17 0.453870 0.976833 0.285310
O O18 0.500000 0.000000 0.000000
#
# Coordination Sequence:
#
# PCOD8030171 Si02
#       8
#     2   2   2   2   2   2   2   2
#     4  11  22  41  69 100 134 162 223 281 324 381
#     4  11  22  40  69 100 130 165 223 282 320 382
#     4  12  23  42  67  93 131 178 221 263 321 393
#     4  12  24  41  66 100 130 170 223 272 324 387
#     4  11  21  43  65  93 133 173 218 273 325 380
#     4  11  23  40  69  96 127 177 219 266 332 383
#     4  12  27  45  65  96 138 177 218 265 329 401
#     4  12  24  42  65  98 133 171 218 275 327 382
#
# _framework density 21.585917999999999
#
# number of rings (size 3 to 8) (size 9 to 14) (size 15 to 20)
#    0.000    0.500    6.250    3.000    3.500    1.000 
#    0.000    2.500    0.000    0.000    0.000    0.000 
#    0.000    0.000    0.000    0.000    0.000    0.000 
#
# Total GULP energy -198292.148758 kJ/mol
# GULP energy per Si atom -12393.259297 kJ/mol
# Density = 2.153679 g / cm^3
# Si number density = 21.585918 Si / 1000 Ang^3
#
#
#
# Elastic Constant Matrix: (Units=GPa)
#
#
# Indices 1 2 3 4 5 6 
#
# 1 112.2732 49.3934 37.2624 9.2184 9.4454 -15.2262
# 2 49.3934 163.7062 57.0311 31.5603 9.8361 -17.6042
# 3 37.2624 57.0311 92.5971 17.0219 26.3342 -20.1623
# 4 9.2184 31.5603 17.0219 30.2294 6.5408 1.6680
# 5 9.4454 9.8361 26.3342 6.5408 27.4619 -0.0641
# 6 -15.2262 -17.6042 -20.1623 1.6680 -0.0641 46.4814
#
#
#
# Elastic Compliance Matrix: (Units=1/GPa)
#
#
# Indices 1 2 3 4 5 6 
#
# 1 0.011006 -0.002323 -0.002586 0.000569 -0.000605 0.001583
# 2 -0.002323 0.009762 -0.004261 -0.007866 0.003265 0.001375
# 3 -0.002586 -0.004261 0.021602 -0.003540 -0.017440 0.007012
# 4 0.000569 -0.007866 -0.003540 0.044431 -0.004579 -0.005929
# 5 -0.000605 0.003265 -0.017440 -0.004579 0.053252 -0.006289
# 6 0.001583 0.001375 0.007012 -0.005929 -0.006289 0.025799
#
#
# Mechanical properties :
#
#
# Convention : Reuss Voigt Hill
#
# Bulk Modulus (GPa) = 41.61446 72.88336 57.24891
# Shear Modulus (GPa) = 26.01432 35.82719 30.92075
#
# Velocity S-wave (km/s) = 3.47530 4.07842 3.78888
# Velocity P-wave (km/s) = 5.95180 7.48436 6.76164
#
# Compressibility (1/GPa) = 0.02403011
#
# Stress axis : x y z
#
# Youngs Moduli (GPa) = 90.86027 102.43867 46.29231
#
# Poissons Ratio (x) = 0.23795 0.11972
# Poissons Ratio (y) = 0.21106 0.19724
# Poissons Ratio (z) = 0.23497 0.43647
#
# Static dielectric constant tensor:
#      x y z
#    x 4.440140 -0.228800 0.120400 
#    y -0.228800 4.468570 0.231080 
#    z 0.120400 0.231080 3.529340 
# 
# 
# High freq. dielectric constant tensor:
#      x y z
#    x 1.860900 -0.000160 0.005380 
#    y -0.000160 1.870000 0.026280 
#    z 0.005380 0.026280 1.805160 
# 
# From -- ./inp_files/243699.got.cif
#   From: 2010.06.25/outbox.cif.g09.slc.cpg/sg2_122_cif.got.tgz:243699.got - 2010.06.27 13:26:56.
