data_PCOD8030245
_publ_section_title
;
Structure prediction by ZEFSAII (Michael W. Deem and Ramdas Pophale) SiO2 
 PCOD8030245
Probable space group: P -1
;
_chemical_formula_sum "Si O2"
_cell_formula_units_Z 16
_cell_length_a 15.990312
_cell_length_b 9.296353
_cell_length_c 11.687354
_cell_angle_alpha 111.038904
_cell_angle_beta 37.249429
_cell_angle_gamma 132.616233
_cell_volume 707.898991
_symmetry_space_group_name_H-M "P -1"
_symmetry_group_IT_number 2
_symmetry_cell_setting 'triclinic'
loop_
_space_group_symop_operation_xyz
x,y,z
-x,-y,-z
loop_
_atom_site_type_symbol
_atom_site_label
_atom_site_fract_x
_atom_site_fract_y
_atom_site_fract_z
Si Si1 0.463766 0.232271 0.396293
Si Si2 0.586416 0.998228 0.171082
Si Si3 0.010250 0.741249 0.242569
Si Si4 0.049041 0.964709 0.686656
Si Si5 0.018833 0.352496 0.500583
Si Si6 0.586456 0.329809 0.549323
Si Si7 0.435357 0.621433 0.080485
Si Si8 0.654607 0.572163 0.107124
O O1 0.248514 0.129647 0.584472
O O2 0.499486 0.250346 0.496216
O O3 0.616844 0.470488 0.243838
O O4 0.498218 0.094211 0.258460
O O5 0.470516 0.864831 0.373189
O O6 0.574079 0.864546 0.041719
O O7 0.813443 0.182677 0.006162
O O8 0.992796 0.912582 0.303172
O O9 0.815310 0.515727 0.344890
O O10 0.071960 0.728271 0.297874
O O11 0.073936 0.848911 0.535010
O O12 0.875105 0.795875 0.916281
O O13 0.000000 0.500000 0.500000
O O14 0.240569 0.493728 0.325738
O O15 0.489759 0.396049 0.743278
O O16 0.500000 0.500000 0.000000
O O17 0.398240 0.600377 0.978312
#
# Coordination Sequence:
#
# PCOD8030245 Si02
#       8
#     2   2   2   2   2   2   2   2
#     4  12  29  44  72 103 142 185 232 289 342 409
#     4  12  26  45  70 106 136 186 232 285 353 405
#     4  12  25  43  73  98 137 191 228 277 351 415
#     4  11  25  44  70 103 136 184 232 280 345 419
#     4  11  24  42  68 103 143 174 224 293 348 404
#     4  12  25  50  69 100 145 183 238 282 338 418
#     4  11  21  43  71  97 143 174 222 290 339 413
#     4  11  24  44  71 105 137 181 231 290 340 405
#
# _framework density 22.602094999999998
#
# number of rings (size 3 to 8) (size 9 to 14) (size 15 to 20)
#    0.000    0.500    5.000    2.625    5.250    2.500 
#    0.000    0.000    0.000    0.000    0.000    0.000 
#    0.000    0.000    0.000    0.000    0.000    0.000 
#
# Total GULP energy -198413.592789 kJ/mol
# GULP energy per Si atom -12400.849549 kJ/mol
# Density = 2.255065 g / cm^3
# Si number density = 22.602095 Si / 1000 Ang^3
#
#
#
# Elastic Constant Matrix: (Units=GPa)
#
#
# Indices 1 2 3 4 5 6 
#
# 1 97.1229 47.0510 32.9261 -14.1568 -3.8626 -14.0640
# 2 47.0510 80.8633 49.5090 -18.2146 -3.3789 -14.3760
# 3 32.9261 49.5090 102.4833 -23.8335 -14.4890 0.1069
# 4 -14.1568 -18.2146 -23.8335 37.6505 -2.3784 -2.7971
# 5 -3.8626 -3.3789 -14.4890 -2.3784 29.6762 3.3882
# 6 -14.0640 -14.3760 0.1069 -2.7971 3.3882 44.7534
#
#
#
# Elastic Compliance Matrix: (Units=1/GPa)
#
#
# Indices 1 2 3 4 5 6 
#
# 1 0.014678 -0.007264 -0.000712 0.001767 0.000610 0.002345
# 2 -0.007264 0.023575 -0.008670 0.003431 -0.002875 0.005743
# 3 -0.000712 -0.008670 0.016810 0.006444 0.008015 -0.003253
# 4 0.001767 0.003431 0.006444 0.033591 0.006084 0.003281
# 5 0.000610 -0.002875 0.008015 0.006084 0.038223 -0.003264
# 6 0.002345 0.005743 -0.003253 0.003281 -0.003264 0.025386
#
#
# Mechanical properties :
#
#
# Convention : Reuss Voigt Hill
#
# Bulk Modulus (GPa) = 45.93209 59.93797 52.93503
# Shear Modulus (GPa) = 25.93201 32.48158 29.20679
#
# Velocity S-wave (km/s) = 3.39090 3.79503 3.59864
# Velocity P-wave (km/s) = 5.97470 6.76604 6.38265
#
# Compressibility (1/GPa) = 0.02177127
#
# Stress axis : x y z
#
# Youngs Moduli (GPa) = 68.12849 42.41779 59.48935
#
# Poissons Ratio (x) = 0.30814 0.04234
# Poissons Ratio (y) = 0.49491 0.51575
# Poissons Ratio (z) = 0.04849 0.36774
#
# Static dielectric constant tensor:
#      x y z
#    x 3.978500 -0.102930 -0.046980 
#    y -0.102930 4.074290 -0.073680 
#    z -0.046980 -0.073680 4.219650 
# 
# 
# High freq. dielectric constant tensor:
#      x y z
#    x 1.891380 -0.009770 -0.002970 
#    y -0.009770 1.889180 -0.009070 
#    z -0.002970 -0.009070 1.900080 
# 
# From -- ./inp_files/381701.got.cif
#   From: 2010.06.25/outbox.cif.g09.slc.cpg/sg2_191_cif.got.tgz:381701.got - 2010.06.27 13:26:56.
