data_PCOD8030174
_publ_section_title
;
Structure prediction by ZEFSAII (Michael W. Deem and Ramdas Pophale) SiO2 
 PCOD8030174
Probable space group: P -1
;
_chemical_formula_sum "Si O2"
_cell_formula_units_Z 16
_cell_length_a 15.757789
_cell_length_b 12.445076
_cell_length_c 11.375358
_cell_angle_alpha 55.946078
_cell_angle_beta 74.499322
_cell_angle_gamma 28.336575
_cell_volume 718.512516
_symmetry_space_group_name_H-M "P -1"
_symmetry_group_IT_number 2
_symmetry_cell_setting 'triclinic'
loop_
_space_group_symop_operation_xyz
x,y,z
-x,-y,-z
loop_
_atom_site_type_symbol
_atom_site_label
_atom_site_fract_x
_atom_site_fract_y
_atom_site_fract_z
Si Si1 0.895543 0.803901 0.639127
Si Si2 0.883964 0.081241 0.597203
Si Si3 0.338780 0.096217 0.002050
Si Si4 0.819894 0.577053 0.452714
Si Si5 0.614411 0.108207 0.124625
Si Si6 0.122308 0.766684 0.938045
Si Si7 0.959789 0.849494 0.164427
Si Si8 0.499768 0.788985 0.370466
O O1 0.091240 0.473971 0.841116
O O2 0.976942 0.728186 0.523456
O O3 0.810246 0.044433 0.593224
O O4 0.679789 0.003909 0.590054
O O5 0.678571 0.435105 0.508188
O O6 0.000000 0.000000 0.500000
O O7 0.058892 0.819627 0.795937
O O8 0.409413 0.900232 0.996312
O O9 0.500000 0.000000 0.000000
O O10 0.359988 0.991311 0.179668
O O11 0.610728 0.775899 0.368052
O O12 0.878852 0.465196 0.633528
O O13 0.761493 0.807170 0.326425
O O14 0.720623 0.107652 0.094069
O O15 0.378426 0.432496 0.070640
O O16 0.020854 0.041425 0.841317
O O17 0.034177 0.769561 0.051583
#
# Coordination Sequence:
#
# PCOD8030174 Si02
#       8
#     2   2   2   2   2   2   2   2
#     4  11  24  39  68 100 129 172 215 266 333 399
#     4  12  22  44  67  95 139 172 214 274 333 388
#     4  11  21  43  65  98 138 165 209 273 336 387
#     4  11  24  46  65  99 136 171 215 279 327 387
#     4  11  24  41  72  95 128 178 220 266 332 393
#     4  11  25  44  67  96 132 175 220 275 325 383
#     4  11  25  47  65  94 134 173 229 268 319 392
#     4  12  23  40  65  97 135 169 215 268 329 391
#
# _framework density 22.268225999999999
#
# number of rings (size 3 to 8) (size 9 to 14) (size 15 to 20)
#    0.000    0.750    5.000    3.000    1.750    3.500 
#    4.500    0.000    0.000    0.000    0.000    0.000 
#    0.000    0.000    0.000    0.000    0.000    0.000 
#
# Total GULP energy -198460.587190 kJ/mol
# GULP energy per Si atom -12403.786699 kJ/mol
# Density = 2.221754 g / cm^3
# Si number density = 22.268226 Si / 1000 Ang^3
#
#
#
# Elastic Constant Matrix: (Units=GPa)
#
#
# Indices 1 2 3 4 5 6 
#
# 1 75.5675 32.9602 13.2817 9.7712 -6.3764 -27.3277
# 2 32.9602 99.1796 43.9597 1.0118 -0.3244 -39.1556
# 3 13.2817 43.9597 112.0475 20.0889 -4.5173 -14.2521
# 4 9.7712 1.0118 20.0889 41.6165 -2.2434 4.0215
# 5 -6.3764 -0.3244 -4.5173 -2.2434 18.1670 -0.2455
# 6 -27.3277 -39.1556 -14.2521 4.0215 -0.2455 39.1757
#
#
#
# Elastic Compliance Matrix: (Units=1/GPa)
#
#
# Indices 1 2 3 4 5 6 
#
# 1 0.019991 -0.002031 0.001496 -0.006273 0.006755 0.013146
# 2 -0.002031 0.019537 -0.005655 0.001116 -0.001417 0.015930
# 3 0.001496 -0.005655 0.012213 -0.006007 0.002725 0.000468
# 4 -0.006273 0.001116 -0.006007 0.029180 -0.000186 -0.008442
# 5 0.006755 -0.001417 0.002725 -0.000186 0.058108 0.004671
# 6 0.013146 0.015930 0.000468 -0.008442 0.004671 0.051684
#
#
# Mechanical properties :
#
#
# Convention : Reuss Voigt Hill
#
# Bulk Modulus (GPa) = 25.40566 51.91085 38.65825
# Shear Modulus (GPa) = 23.12527 32.89806 28.01166
#
# Velocity S-wave (km/s) = 3.22605 3.84781 3.55057
# Velocity P-wave (km/s) = 5.03093 6.56529 5.84865
#
# Compressibility (1/GPa) = 0.03936131
#
# Stress axis : x y z
#
# Youngs Moduli (GPa) = 50.02217 51.18448 81.88246
#
# Poissons Ratio (x) = 0.10394 -0.12251
# Poissons Ratio (y) = 0.10158 0.46307
# Poissons Ratio (z) = -0.07484 0.28946
#
# Static dielectric constant tensor:
#      x y z
#    x 4.066690 -0.063360 -0.081400 
#    y -0.063360 3.981400 0.028390 
#    z -0.081400 0.028390 4.154080 
# 
# 
# High freq. dielectric constant tensor:
#      x y z
#    x 1.883850 -0.009520 -0.002110 
#    y -0.009520 1.871430 0.002530 
#    z -0.002110 0.002530 1.879980 
# 
# From -- ./inp_files/433964.got.cif
#   From: 2010.06.25/outbox.cif.g09.slc.cpg/sg2_217_cif.got.tgz:433964.got - 2010.06.27 13:26:56.
