data_PCOD8030291
_publ_section_title
;
Structure prediction by ZEFSAII (Michael W. Deem and Ramdas Pophale) SiO2 
 PCOD8030291
Probable space group: P -1
;
_chemical_formula_sum "Si O2"
_cell_formula_units_Z 14
_cell_length_a 9.128111
_cell_length_b 11.598237
_cell_length_c 18.413560
_cell_angle_alpha 37.854290
_cell_angle_beta 139.881265
_cell_angle_gamma 111.662029
_cell_volume 620.438326
_symmetry_space_group_name_H-M "P -1"
_symmetry_group_IT_number 2
_symmetry_cell_setting 'triclinic'
loop_
_space_group_symop_operation_xyz
x,y,z
-x,-y,-z
loop_
_atom_site_type_symbol
_atom_site_label
_atom_site_fract_x
_atom_site_fract_y
_atom_site_fract_z
Si Si1 0.208441 0.772793 0.144273
Si Si2 0.829727 0.632088 0.441492
Si Si3 0.860503 0.771868 0.892974
Si Si4 0.657862 0.110211 0.192649
Si Si5 0.975401 0.563223 0.238066
Si Si6 0.970746 0.283606 0.178603
Si Si7 0.767737 0.926794 0.474152
O O1 0.511272 0.714135 0.276294
O O2 0.222696 0.567747 0.293827
O O3 0.086024 0.794025 0.006754
O O4 0.000000 0.000000 0.000000
O O5 0.998084 0.439274 0.663947
O O6 0.000000 0.500000 0.500000
O O7 0.826496 0.857097 0.343884
O O8 0.881901 0.791284 0.805634
O O9 0.553093 0.990143 0.692298
O O10 0.903139 0.531188 0.051536
O O11 0.690495 0.289208 0.070774
O O12 0.775909 0.084149 0.334797
O O13 0.328582 0.215173 0.014993
O O14 0.014352 0.334000 0.340464
O O15 0.165597 0.070338 0.416742
#
# Coordination Sequence:
#
# PCOD8030291 Si02
#       7
#     2   2   2   2   2   2   2
#     4  12  22  47  71  96 138 182 229 279 332 419
#     4  11  27  43  69 105 135 177 231 285 346 401
#     4  11  25  44  67 103 132 183 230 272 355 399
#     4  11  24  44  67 102 135 179 227 279 348 403
#     4  11  23  44  69  97 134 180 229 278 342 409
#     4  11  25  43  68  96 144 176 221 292 337 408
#     4  11  21  44  67 100 130 175 234 272 338 413
#
# _framework density 22.564691
#
# number of rings (size 3 to 8) (size 9 to 14) (size 15 to 20)
#    0.000    0.857    4.286    2.143    2.000    7.429 
#    2.571    0.000    0.000    0.000    0.000    0.000 
#    0.000    0.000    0.000    0.000    0.000    0.000 
#
# Total GULP energy -173508.046922 kJ/mol
# GULP energy per Si atom -12393.431923 kJ/mol
# Density = 2.251333 g / cm^3
# Si number density = 22.564691 Si / 1000 Ang^3
#
#
#
# Elastic Constant Matrix: (Units=GPa)
#
#
# Indices 1 2 3 4 5 6 
#
# 1 130.5595 35.9666 45.3722 0.5975 -15.7417 -6.5122
# 2 35.9666 94.4231 24.9366 1.3604 -9.9875 -9.1693
# 3 45.3722 24.9366 92.6952 2.2223 -13.6891 -17.7220
# 4 0.5975 1.3604 2.2223 24.0444 -11.1734 -3.7253
# 5 -15.7417 -9.9875 -13.6891 -11.1734 33.5749 1.1478
# 6 -6.5122 -9.1693 -17.7220 -3.7253 1.1478 45.2171
#
#
#
# Elastic Compliance Matrix: (Units=1/GPa)
#
#
# Indices 1 2 3 4 5 6 
#
# 1 0.010047 -0.002558 -0.003953 0.001500 0.002857 -0.000570
# 2 -0.002558 0.012312 -0.001479 0.000691 0.002037 0.001554
# 3 -0.003953 -0.001479 0.014604 0.001432 0.003971 0.004872
# 4 0.001500 0.000691 0.001432 0.050531 0.018151 0.004620
# 5 0.002857 0.002037 0.003971 0.018151 0.039291 0.002879
# 6 -0.000570 0.001554 0.004872 0.004620 0.002879 0.024566
#
#
# Mechanical properties :
#
#
# Convention : Reuss Voigt Hill
#
# Bulk Modulus (GPa) = 47.65443 58.91430 53.28437
# Shear Modulus (GPa) = 28.68227 34.66076 31.67151
#
# Velocity S-wave (km/s) = 3.56913 3.92351 3.75051
# Velocity P-wave (km/s) = 6.17656 6.83308 6.51310
#
# Compressibility (1/GPa) = 0.02098441
#
# Stress axis : x y z
#
# Youngs Moduli (GPa) = 99.53499 81.22235 68.47362
#
# Poissons Ratio (x) = 0.20775 0.27065
# Poissons Ratio (y) = 0.25459 0.10126
# Poissons Ratio (z) = 0.39342 0.12011
#
# Static dielectric constant tensor:
#      x y z
#    x 4.369170 0.135160 -0.220720 
#    y 0.135160 4.102530 0.177780 
#    z -0.220720 0.177780 4.188320 
# 
# 
# High freq. dielectric constant tensor:
#      x y z
#    x 1.901610 0.000910 -0.010980 
#    y 0.000910 1.888720 0.012150 
#    z -0.010980 0.012150 1.891170 
# 
# From -- ./inp_files/27666.got.cif
#   From: 2010.06.25/outbox.cif.g09.slc.cpg/sg2_14_cif.got.tgz:27666.got - 2010.06.27 13:26:56.
