data_PCOD8030386
_publ_section_title
;
Structure prediction by ZEFSAII (Michael W. Deem and Ramdas Pophale) SiO2 
 PCOD8030386
Probable space group: P -1
;
_chemical_formula_sum "Si O2"
_cell_formula_units_Z 16
_cell_length_a 13.838262
_cell_length_b 9.111527
_cell_length_c 9.026664
_cell_angle_alpha 74.821566
_cell_angle_beta 69.593766
_cell_angle_gamma 39.069901
_cell_volume 672.247095
_symmetry_space_group_name_H-M "P -1"
_symmetry_group_IT_number 2
_symmetry_cell_setting 'triclinic'
loop_
_space_group_symop_operation_xyz
x,y,z
-x,-y,-z
loop_
_atom_site_type_symbol
_atom_site_label
_atom_site_fract_x
_atom_site_fract_y
_atom_site_fract_z
Si Si1 0.386121 0.881920 0.732854
Si Si2 0.833953 0.594260 0.888488
Si Si3 0.640995 0.053206 0.703794
Si Si4 0.784718 0.112597 0.405339
Si Si5 0.358833 0.753588 0.067713
Si Si6 0.644863 0.577744 0.455751
Si Si7 0.833304 0.616862 0.230536
Si Si8 0.917768 0.163970 0.858656
O O1 0.307480 0.823299 0.713234
O O2 0.569856 0.684175 0.633209
O O3 0.294033 0.138847 0.677852
O O4 0.347715 0.907053 0.920506
O O5 0.845427 0.408735 0.873965
O O6 0.993605 0.511123 0.799615
O O7 0.696035 0.832187 0.805605
O O8 0.795821 0.634838 0.072167
O O9 0.780981 0.968238 0.551054
O O10 0.599666 0.223412 0.803849
O O11 0.484540 0.209636 0.646724
O O12 0.685735 0.356533 0.471469
O O13 0.963446 0.953645 0.311906
O O14 0.206587 0.817382 0.141263
O O15 0.500000 0.500000 0.000000
O O16 0.808912 0.484065 0.364408
O O17 0.000000 0.000000 0.000000
#
# Coordination Sequence:
#
# PCOD8030386 Si02
#       8
#     2   2   2   2   2   2   2   2
#     4  11  21  45  66 100 133 182 228 273 337 419
#     4  11  25  45  68 104 138 177 230 293 332 403
#     4  11  26  45  66 104 143 176 224 294 341 393
#     4  11  23  46  70  99 138 181 233 274 342 411
#     4  12  25  43  69 103 138 175 230 286 339 404
#     4  11  25  43  74  98 140 182 224 280 347 404
#     4  11  23  43  71  97 135 181 231 271 344 415
#     4  12  25  45  75  97 134 189 229 275 343 411
#
# _framework density 23.800773
#
# number of rings (size 3 to 8) (size 9 to 14) (size 15 to 20)
#    0.000    0.750    3.750    4.125    5.250    2.500 
#    2.250    0.000    0.000    0.000    0.000    0.000 
#    0.000    0.000    0.000    0.000    0.000    0.000 
#
# Total GULP energy -198349.211227 kJ/mol
# GULP energy per Si atom -12396.825702 kJ/mol
# Density = 2.374660 g / cm^3
# Si number density = 23.800773 Si / 1000 Ang^3
#
#
#
# Elastic Constant Matrix: (Units=GPa)
#
#
# Indices 1 2 3 4 5 6 
#
# 1 59.9340 2.0937 26.4584 2.2898 -20.1773 11.4329
# 2 2.0937 100.2398 2.1858 8.9471 0.5608 18.2903
# 3 26.4584 2.1858 97.1330 17.5650 -22.6425 1.3929
# 4 2.2898 8.9471 17.5650 44.4593 -1.8462 -2.2744
# 5 -20.1773 0.5608 -22.6425 -1.8462 38.7893 3.0716
# 6 11.4329 18.2903 1.3929 -2.2744 3.0716 24.9973
#
#
#
# Elastic Compliance Matrix: (Units=1/GPa)
#
#
# Indices 1 2 3 4 5 6 
#
# 1 0.025040 0.002145 -0.003812 -0.000454 0.011881 -0.014311
# 2 0.002145 0.012078 0.000264 -0.003101 0.001766 -0.010332
# 3 -0.003812 0.000264 0.013572 -0.005000 0.005726 -0.000365
# 4 -0.000454 -0.003101 -0.005000 0.025292 -0.002329 0.005342
# 5 0.011881 0.001766 0.005726 -0.002329 0.036092 -0.011692
# 6 -0.014311 -0.010332 -0.000365 0.005342 -0.011692 0.056053
#
#
# Mechanical properties :
#
#
# Convention : Reuss Voigt Hill
#
# Bulk Modulus (GPa) = 20.88343 35.42028 28.15186
# Shear Modulus (GPa) = 26.75331 36.75376 31.75354
#
# Velocity S-wave (km/s) = 3.35633 3.93393 3.65655
# Velocity P-wave (km/s) = 4.87988 5.96227 5.44802
#
# Compressibility (1/GPa) = 0.04788485
#
# Stress axis : x y z
#
# Youngs Moduli (GPa) = 39.93613 82.79744 73.68193
#
# Poissons Ratio (x) = -0.17764 0.28089
# Poissons Ratio (y) = -0.08568 -0.01949
# Poissons Ratio (z) = 0.15225 -0.02190
#
# Static dielectric constant tensor:
#      x y z
#    x 3.676430 1.167030 -0.568070 
#    y 1.167030 1.865730 1.222860 
#    z -0.568070 1.222860 3.829780 
# 
# 
# High freq. dielectric constant tensor:
#      x y z
#    x 1.937750 0.016610 -0.013340 
#    y 0.016610 1.942720 0.010540 
#    z -0.013340 0.010540 1.959540 
# 
# From -- ./inp_files/263626.got.cif
#   From: 2010.06.25/outbox.cif.g09.slc.cpg/sg2_132_cif.got.tgz:263626.got - 2010.06.27 13:26:56.
