data_PCOD8030596
_publ_section_title
;
Structure prediction by ZEFSAII (Michael W. Deem and Ramdas Pophale) SiO2 
 PCOD8030596
Probable space group: P -1
;
_chemical_formula_sum "Si O2"
_cell_formula_units_Z 14
_cell_length_a 9.068599
_cell_length_b 9.720030
_cell_length_c 8.229371
_cell_angle_alpha 66.111205
_cell_angle_beta 70.678172
_cell_angle_gamma 80.593779
_cell_volume 625.530346
_symmetry_space_group_name_H-M "P -1"
_symmetry_group_IT_number 2
_symmetry_cell_setting 'triclinic'
loop_
_space_group_symop_operation_xyz
x,y,z
-x,-y,-z
loop_
_atom_site_type_symbol
_atom_site_label
_atom_site_fract_x
_atom_site_fract_y
_atom_site_fract_z
Si Si1 0.284889 0.278849 0.747126
Si Si2 0.008951 0.672861 0.969741
Si Si3 0.259073 0.529872 0.129579
Si Si4 0.541440 0.475899 0.259432
Si Si5 0.887959 0.142576 0.460894
Si Si6 0.925412 0.655039 0.507619
Si Si7 0.463061 0.865746 0.455565
O O1 0.381252 0.433349 0.662402
O O2 0.191281 0.277907 0.614503
O O3 0.413599 0.141504 0.738438
O O4 0.161003 0.256275 0.948638
O O5 0.087820 0.773401 0.758135
O O6 0.000000 0.500000 0.000000
O O7 0.128341 0.666486 0.085823
O O8 0.375860 0.556621 0.226638
O O9 0.171202 0.374625 0.276380
O O10 0.345463 0.502440 0.943175
O O11 0.524764 0.299486 0.385877
O O12 0.709341 0.098689 0.566369
O O13 0.931449 0.241030 0.553365
O O14 0.000000 0.000000 0.500000
O O15 0.000000 0.500000 0.500000
O O16 0.500000 0.000000 0.500000
#
# Coordination Sequence:
#
# PCOD8030596 Si02
#       7
#     2   2   2   2   2   2   2
#     4  12  24  41  72 106 135 172 234 286 334 402
#     4  12  21  44  72 103 133 178 230 286 334 408
#     4  11  22  38  69 104 138 168 228 285 345 390
#     4  11  23  41  69 103 133 178 224 286 339 397
#     4  12  27  47  69  95 139 186 225 281 351 405
#     4  12  22  38  69 104 131 171 228 281 333 402
#     4  12  26  44  65  97 143 182 221 279 344 409
#
# _framework density 22.381008000000001
#
# number of rings (size 3 to 8) (size 9 to 14) (size 15 to 20)
#    0.000    0.286    7.143    2.143    2.000    0.000 
#    0.000    5.000    0.000    0.000    0.000    0.000 
#    0.000    0.000    0.000    0.000    0.000    0.000 
#
# Total GULP energy -173475.903266 kJ/mol
# GULP energy per Si atom -12391.135948 kJ/mol
# Density = 2.233007 g / cm^3
# Si number density = 22.381008 Si / 1000 Ang^3
#
#
#
# Elastic Constant Matrix: (Units=GPa)
#
#
# Indices 1 2 3 4 5 6 
#
# 1 197.0820 67.8588 24.6482 11.1767 0.7115 -1.2327
# 2 67.8588 126.7143 19.6396 17.8571 -4.2266 4.1518
# 3 24.6482 19.6396 50.4217 8.9105 -1.8003 -5.5593
# 4 11.1767 17.8571 8.9105 26.5180 -13.0077 -3.0380
# 5 0.7115 -4.2266 -1.8003 -13.0077 42.7853 8.9318
# 6 -1.2327 4.1518 -5.5593 -3.0380 8.9318 47.7289
#
#
#
# Elastic Compliance Matrix: (Units=1/GPa)
#
#
# Indices 1 2 3 4 5 6 
#
# 1 0.006405 -0.003142 -0.001852 -0.000235 -0.000635 0.000327
# 2 -0.003142 0.010683 -0.001814 -0.005610 -0.000359 -0.001512
# 3 -0.001852 -0.001814 0.022766 -0.006133 -0.001613 0.002673
# 4 -0.000235 -0.005610 -0.006133 0.050836 0.014590 0.000273
# 5 -0.000635 -0.000359 -0.001613 0.014590 0.028678 -0.004611
# 6 0.000327 -0.001512 0.002673 0.000273 -0.004611 0.022283
#
#
# Mechanical properties :
#
#
# Convention : Reuss Voigt Hill
#
# Bulk Modulus (GPa) = 38.11170 66.50124 52.30647
# Shear Modulus (GPa) = 30.48547 40.87786 35.68167
#
# Velocity S-wave (km/s) = 3.69469 4.27834 3.99718
# Velocity P-wave (km/s) = 5.93856 7.36093 6.68767
#
# Compressibility (1/GPa) = 0.02623866
#
# Stress axis : x y z
#
# Youngs Moduli (GPa) = 156.12473 93.60282 43.92604
#
# Poissons Ratio (x) = 0.29407 0.08137
# Poissons Ratio (y) = 0.49050 0.07966
# Poissons Ratio (z) = 0.28921 0.16976
#
# Static dielectric constant tensor:
#      x y z
#    x 4.879620 -0.159890 -0.170550 
#    y -0.159890 3.845010 0.069870 
#    z -0.170550 0.069870 4.428600 
# 
# 
# High freq. dielectric constant tensor:
#      x y z
#    x 1.920450 -0.003440 -0.010940 
#    y -0.003440 1.844440 0.022350 
#    z -0.010940 0.022350 1.877960 
# 
# From -- ./inp_files/157207.got.cif
#   From: 2010.06.25/outbox.cif.g09.slc.cpg/sg2_79_cif.got.tgz:157207.got - 2010.06.27 13:26:56.
