data_PCOD8030928
_publ_section_title
;
Structure prediction by ZEFSAII (Michael W. Deem and Ramdas Pophale) SiO2 
 PCOD8030928
Probable space group: P -1
;
_chemical_formula_sum "Si O2"
_cell_formula_units_Z 14
_cell_length_a 10.438339
_cell_length_b 20.788745
_cell_length_c 8.638932
_cell_angle_alpha 129.153523
_cell_angle_beta 137.380496
_cell_angle_gamma 35.802680
_cell_volume 739.742200
_symmetry_space_group_name_H-M "P -1"
_symmetry_group_IT_number 2
_symmetry_cell_setting 'triclinic'
loop_
_space_group_symop_operation_xyz
x,y,z
-x,-y,-z
loop_
_atom_site_type_symbol
_atom_site_label
_atom_site_fract_x
_atom_site_fract_y
_atom_site_fract_z
Si Si1 0.878201 0.546248 0.296413
Si Si2 0.003184 0.794478 0.723743
Si Si3 0.378763 0.416014 0.372380
Si Si4 0.030510 0.954027 0.128385
Si Si5 0.505164 0.446236 0.194953
Si Si6 0.425062 0.208585 0.687699
Si Si7 0.308994 0.811894 0.798293
O O1 0.729013 0.675334 0.357782
O O2 0.000000 0.500000 0.500000
O O3 0.088484 0.484686 0.256469
O O4 0.686632 0.525321 0.066791
O O5 0.214313 0.666741 0.768220
O O6 0.094026 0.812941 0.675854
O O7 0.738694 0.827254 0.504717
O O8 0.963949 0.875113 0.946715
O O9 0.403570 0.434831 0.244931
O O10 0.492334 0.454923 0.642381
O O11 0.533556 0.285212 0.337413
O O12 0.322493 0.881607 0.326475
O O13 0.831407 0.067429 0.223127
O O14 0.000000 0.000000 0.000000
O O15 0.499567 0.215981 0.937608
#
# Coordination Sequence:
#
# PCOD8030928 Si02
#       7
#     2   2   2   2   2   2   2
#     4  12  23  34  51  78 108 140 173 212 257 309
#     4   9  15  28  49  74 101 131 167 206 260 293
#     4  10  20  34  54  76 106 134 171 211 268 302
#     4   8  16  29  46  74 105 128 168 210 253 302
#     4  10  19  34  54  77 102 137 173 213 259 309
#     4  10  17  31  49  74 103 136 168 211 254 302
#     4   9  19  30  50  77 104 131 168 211 256 304
#
# _framework density 18.925514
#
# number of rings (size 3 to 8) (size 9 to 14) (size 15 to 20)
#    0.000    2.571    5.714    0.429    0.000    5.714 
#    0.000    0.000    0.000    0.857    0.000    2.000 
#    0.000    0.000    0.000    0.000    0.000    0.000 
#
# Total GULP energy -173482.862555 kJ/mol
# GULP energy per Si atom -12391.633040 kJ/mol
# Density = 1.888244 g / cm^3
# Si number density = 18.925514 Si / 1000 Ang^3
#
#
#
# Elastic Constant Matrix: (Units=GPa)
#
#
# Indices 1 2 3 4 5 6 
#
# 1 27.6794 28.4861 33.9972 -5.1759 20.1866 -2.2446
# 2 28.4861 187.1607 56.8906 9.1450 10.8662 -7.4164
# 3 33.9972 56.8906 113.8989 2.8763 35.6300 5.4864
# 4 -5.1759 9.1450 2.8763 26.3799 1.8862 5.1112
# 5 20.1866 10.8662 35.6300 1.8862 32.3951 -0.4665
# 6 -2.2446 -7.4164 5.4864 5.1112 -0.4665 10.0585
#
#
#
# Elastic Compliance Matrix: (Units=1/GPa)
#
#
# Indices 1 2 3 4 5 6 
#
# 1 0.101641 -0.010619 -0.010289 0.027514 -0.050001 0.004164
# 2 -0.010619 0.008459 -0.004153 -0.007175 0.008912 0.010191
# 3 -0.010289 -0.004153 0.018862 0.001625 -0.013282 -0.017088
# 4 0.027514 -0.007175 0.001625 0.052389 -0.019973 -0.027584
# 5 -0.050001 0.008912 -0.013282 -0.019973 0.075042 0.016287
# 6 0.004164 0.010191 -0.017088 -0.027584 0.016287 0.131954
#
#
# Mechanical properties :
#
#
# Convention : Reuss Voigt Hill
#
# Bulk Modulus (GPa) = 12.68377 63.05410 37.86893
# Shear Modulus (GPa) = 10.75850 27.72438 19.24144
#
# Velocity S-wave (km/s) = 2.38684 3.83158 3.19202
# Velocity P-wave (km/s) = 3.78318 7.27764 5.79985
#
# Compressibility (1/GPa) = 0.07884093
#
# Stress axis : x y z
#
# Youngs Moduli (GPa) = 9.83850 118.22343 53.01672
#
# Poissons Ratio (x) = 1.25541 0.54547
# Poissons Ratio (y) = 0.10447 0.22017
# Poissons Ratio (z) = 0.10123 0.49097
#
# Static dielectric constant tensor:
#      x y z
#    x 3.009290 -0.144310 0.371830 
#    y -0.144310 4.533170 0.261930 
#    z 0.371830 0.261930 3.355310 
# 
# 
# High freq. dielectric constant tensor:
#      x y z
#    x 1.679230 -0.008000 0.042760 
#    y -0.008000 1.759480 0.008900 
#    z 0.042760 0.008900 1.717620 
# 
# From -- ./inp_files/284436.got.cif
#   From: 2010.06.25/outbox.cif.g09.slc.cpg/sg2_143_cif.got.tgz:284436.got - 2010.06.27 13:26:56.
