data_PCOD8030924
_publ_section_title
;
Structure prediction by ZEFSAII (Michael W. Deem and Ramdas Pophale) SiO2 
 PCOD8030924
Probable space group: P -1
;
_chemical_formula_sum "Si O2"
_cell_formula_units_Z 16
_cell_length_a 12.023021
_cell_length_b 18.433480
_cell_length_c 13.245814
_cell_angle_alpha 146.228420
_cell_angle_beta 41.001753
_cell_angle_gamma 153.741143
_cell_volume 721.473461
_symmetry_space_group_name_H-M "P -1"
_symmetry_group_IT_number 2
_symmetry_cell_setting 'triclinic'
loop_
_space_group_symop_operation_xyz
x,y,z
-x,-y,-z
loop_
_atom_site_type_symbol
_atom_site_label
_atom_site_fract_x
_atom_site_fract_y
_atom_site_fract_z
Si Si1 0.341335 0.598764 0.946175
Si Si2 0.144540 0.763737 0.243579
Si Si3 0.135851 0.536285 0.553239
Si Si4 0.144408 0.240605 0.219924
Si Si5 0.989867 0.827416 0.989633
Si Si6 0.476569 0.953971 0.846946
Si Si7 0.274496 0.555818 0.167445
Si Si8 0.189090 0.015985 0.666220
O O1 0.615949 0.707841 0.846859
O O2 0.145359 0.438196 0.809946
O O3 0.312967 0.738937 0.139293
O O4 0.287262 0.509357 0.990821
O O5 0.254736 0.869971 0.183381
O O6 0.160930 0.890776 0.456823
O O7 0.215694 0.432512 0.381166
O O8 0.395676 0.760738 0.653236
O O9 0.000000 0.500000 0.500000
O O10 0.950793 0.467866 0.693379
O O11 0.066961 0.147059 0.053688
O O12 0.911788 0.099161 0.292334
O O13 0.969745 0.944343 0.209625
O O14 0.784600 0.602146 0.902831
O O15 0.269025 0.931937 0.917044
O O16 0.500000 0.000000 0.000000
O O17 0.524338 0.774255 0.279868
#
# Coordination Sequence:
#
# PCOD8030924 Si02
#       8
#     2   2   2   2   2   2   2   2
#     4  11  26  46  68  93 140 182 221 273 349 396
#     4  11  26  46  67 100 137 177 227 281 328 405
#     4  11  22  41  67  98 134 175 217 275 335 391
#     4  12  25  44  69 101 134 182 223 281 336 399
#     4  11  24  44  68 100 143 171 223 284 340 387
#     4  11  24  44  71  98 136 181 222 271 341 407
#     4  11  23  42  69  99 135 179 218 278 337 401
#     4  12  26  40  72 105 130 175 232 279 331 398
#
# _framework density 22.176836999999999
#
# number of rings (size 3 to 8) (size 9 to 14) (size 15 to 20)
#    0.000    0.750    3.750    4.500    1.750    3.500 
#    0.000    1.875    0.000    0.000    0.000    0.000 
#    0.000    0.000    0.000    0.000    0.000    0.000 
#
# Total GULP energy -198404.177250 kJ/mol
# GULP energy per Si atom -12400.261078 kJ/mol
# Density = 2.212636 g / cm^3
# Si number density = 22.176837 Si / 1000 Ang^3
#
#
#
# Elastic Constant Matrix: (Units=GPa)
#
#
# Indices 1 2 3 4 5 6 
#
# 1 66.9334 23.5066 49.6631 1.1732 -0.9399 4.6984
# 2 23.5066 95.6524 35.6951 -7.8362 5.3069 -2.1280
# 3 49.6631 35.6951 153.1751 11.3937 -13.3040 -6.1595
# 4 1.1732 -7.8362 11.3937 34.6783 -0.7644 6.0485
# 5 -0.9399 5.3069 -13.3040 -0.7644 40.8468 -8.2184
# 6 4.6984 -2.1280 -6.1595 6.0485 -8.2184 32.0717
#
#
#
# Elastic Compliance Matrix: (Units=1/GPa)
#
#
# Indices 1 2 3 4 5 6 
#
# 1 0.021256 -0.002476 -0.006903 0.001913 -0.002531 -0.005613
# 2 -0.002476 0.012497 -0.002651 0.003845 -0.002616 -0.000713
# 3 -0.006903 -0.002651 0.010294 -0.004486 0.004419 0.004791
# 4 0.001913 0.003845 -0.004486 0.032400 -0.002866 -0.007731
# 5 -0.002531 -0.002616 0.004419 -0.002866 0.027907 0.008737
# 6 -0.005613 -0.000713 0.004791 -0.007731 0.008737 0.036572
#
#
# Mechanical properties :
#
#
# Convention : Reuss Voigt Hill
#
# Bulk Modulus (GPa) = 50.03002 59.27671 54.65336
# Shear Modulus (GPa) = 29.12931 35.31242 32.22086
#
# Velocity S-wave (km/s) = 3.62816 3.99471 3.81584
# Velocity P-wave (km/s) = 6.33719 6.93282 6.64169
#
# Compressibility (1/GPa) = 0.01998800
#
# Stress axis : x y z
#
# Youngs Moduli (GPa) = 47.04501 80.02171 97.13941
#
# Poissons Ratio (x) = 0.19810 0.67053
# Poissons Ratio (y) = 0.11646 0.25755
# Poissons Ratio (z) = 0.32474 0.21217
#
# Static dielectric constant tensor:
#      x y z
#    x 3.932360 -0.019710 -0.156770 
#    y -0.019710 4.057900 0.138250 
#    z -0.156770 0.138250 4.095520 
# 
# 
# High freq. dielectric constant tensor:
#      x y z
#    x 1.857830 -0.008430 -0.013120 
#    y -0.008430 1.887140 -0.000340 
#    z -0.013120 -0.000340 1.884850 
# 
# From -- ./inp_files/436948.got.cif
#   From: 2010.06.25/outbox.cif.g09.slc.cpg/sg2_219_cif.got.tgz:436948.got - 2010.06.27 13:26:56.
