data_PCOD8030387
_publ_section_title
;
Structure prediction by ZEFSAII (Michael W. Deem and Ramdas Pophale) SiO2 
 PCOD8030387
Probable space group: P -1
;
_chemical_formula_sum "Si O2"
_cell_formula_units_Z 16
_cell_length_a 9.214597
_cell_length_b 15.620833
_cell_length_c 15.144017
_cell_angle_alpha 152.824109
_cell_angle_beta 89.203975
_cell_angle_gamma 73.143838
_cell_volume 746.103095
_symmetry_space_group_name_H-M "P -1"
_symmetry_group_IT_number 2
_symmetry_cell_setting 'triclinic'
loop_
_space_group_symop_operation_xyz
x,y,z
-x,-y,-z
loop_
_atom_site_type_symbol
_atom_site_label
_atom_site_fract_x
_atom_site_fract_y
_atom_site_fract_z
Si Si1 0.548943 0.124239 0.958511
Si Si2 0.316652 0.506373 0.794605
Si Si3 0.577421 0.673416 0.570189
Si Si4 0.555967 0.634800 0.987573
Si Si5 0.970490 0.210786 0.637960
Si Si6 0.301911 0.593661 0.508410
Si Si7 0.058489 0.055734 0.293058
Si Si8 0.670468 0.886559 0.462014
O O1 0.757226 0.996535 0.797831
O O2 0.545965 0.920009 0.809761
O O3 0.398358 0.277570 0.018873
O O4 0.482208 0.322782 0.217260
O O5 0.363507 0.428521 0.621937
O O6 0.483752 0.489098 0.824476
O O7 0.297868 0.324231 0.674199
O O8 0.110941 0.790434 0.059133
O O9 0.373867 0.745334 0.659436
O O10 0.738700 0.463662 0.447357
O O11 0.748142 0.461808 0.887453
O O12 0.384104 0.881585 0.268976
O O13 0.122779 0.236041 0.696403
O O14 0.995513 0.176523 0.500927
O O15 0.000000 0.000000 0.500000
O O16 0.112618 0.755023 0.599162
O O17 0.500000 0.000000 0.500000
#
# Coordination Sequence:
#
# PCOD8030387 Si02
#       8
#     2   2   2   2   2   2   2   2
#     4  11  21  45  66  92 130 173 212 263 321 375
#     4  11  22  45  68  92 133 173 211 264 324 377
#     4  11  22  41  67  97 131 169 216 266 315 381
#     4  11  23  45  70  89 133 170 208 267 324 374
#     4  12  25  43  68  97 128 170 216 264 324 383
#     4  11  24  42  64  99 132 168 216 266 319 375
#     4  11  23  44  67  91 133 173 210 265 324 378
#     4  12  27  45  68  98 127 168 217 267 321 387
#
# _framework density 21.444759000000001
#
# number of rings (size 3 to 8) (size 9 to 14) (size 15 to 20)
#    0.000    0.750    7.500    1.125    1.750    3.500 
#    4.500    0.000    0.000    0.000    0.000    0.000 
#    0.000    0.000    0.000    0.000    0.000    0.000 
#
# Total GULP energy -198312.855357 kJ/mol
# GULP energy per Si atom -12394.553460 kJ/mol
# Density = 2.139595 g / cm^3
# Si number density = 21.444759 Si / 1000 Ang^3
#
#
#
# Elastic Constant Matrix: (Units=GPa)
#
#
# Indices 1 2 3 4 5 6 
#
# 1 111.6383 61.8088 43.8233 18.9324 -1.5491 0.6655
# 2 61.8088 112.5521 17.6975 23.6882 4.4394 3.7109
# 3 43.8233 17.6975 76.3529 19.9149 4.8686 6.6978
# 4 18.9324 23.6882 19.9149 34.1065 -4.4443 1.4723
# 5 -1.5491 4.4394 4.8686 -4.4443 23.0550 7.2225
# 6 0.6655 3.7109 6.6978 1.4723 7.2225 40.8608
#
#
#
# Elastic Compliance Matrix: (Units=1/GPa)
#
#
# Indices 1 2 3 4 5 6 
#
# 1 0.016733 -0.008522 -0.008594 0.002217 0.004694 0.001001
# 2 -0.008522 0.015030 0.004144 -0.008871 -0.005881 -0.000546
# 3 -0.008594 0.004144 0.020561 -0.010972 -0.007227 -0.001934
# 4 0.002217 -0.008871 -0.010972 0.042366 0.012719 -0.001207
# 5 0.004694 -0.005881 -0.007227 0.012719 0.051268 -0.007878
# 6 0.001001 -0.000546 -0.001934 -0.001207 -0.007878 0.026260
#
#
# Mechanical properties :
#
#
# Convention : Reuss Voigt Hill
#
# Bulk Modulus (GPa) = 37.90695 60.80029 49.35362
# Shear Modulus (GPa) = 24.15978 31.41871 27.78925
#
# Velocity S-wave (km/s) = 3.36014 3.83181 3.60370
# Velocity P-wave (km/s) = 5.72442 6.92753 6.35451
#
# Compressibility (1/GPa) = 0.02638038
#
# Stress axis : x y z
#
# Youngs Moduli (GPa) = 59.76379 66.53261 48.63527
#
# Poissons Ratio (x) = 0.56701 0.41796
# Poissons Ratio (y) = 0.50933 -0.20156
# Poissons Ratio (z) = 0.51360 -0.27574
#
# Static dielectric constant tensor:
#      x y z
#    x 4.265140 0.098820 0.179810 
#    y 0.098820 4.338290 0.103610 
#    z 0.179810 0.103610 4.022120 
# 
# 
# High freq. dielectric constant tensor:
#      x y z
#    x 1.832600 -0.001270 0.007690 
#    y -0.001270 1.863390 0.004430 
#    z 0.007690 0.004430 1.837560 
# 
# From -- ./inp_files/505804.got.cif
#   From: 2010.06.25/outbox.cif.g09.slc.cpg/sg2_253_cif.got.tgz:505804.got - 2010.06.27 13:26:56.
