data_PCOD8030432
_publ_section_title
;
Structure prediction by ZEFSAII (Michael W. Deem and Ramdas Pophale) SiO2 
 PCOD8030432
Probable space group: P -1
;
_chemical_formula_sum "Si O2"
_cell_formula_units_Z 16
_cell_length_a 8.036431
_cell_length_b 8.858768
_cell_length_c 15.432785
_cell_angle_alpha 45.344323
_cell_angle_beta 96.389677
_cell_angle_gamma 74.483114
_cell_volume 677.469390
_symmetry_space_group_name_H-M "P -1"
_symmetry_group_IT_number 2
_symmetry_cell_setting 'triclinic'
loop_
_space_group_symop_operation_xyz
x,y,z
-x,-y,-z
loop_
_atom_site_type_symbol
_atom_site_label
_atom_site_fract_x
_atom_site_fract_y
_atom_site_fract_z
Si Si1 0.910193 0.713430 0.160309
Si Si2 0.504317 0.368628 0.252886
Si Si3 0.170750 0.117480 0.100595
Si Si4 0.754752 0.180647 0.062362
Si Si5 0.206810 0.474205 0.534465
Si Si6 0.864850 0.285567 0.391177
Si Si7 0.520586 0.079723 0.220741
Si Si8 0.288597 0.605264 0.299900
O O1 0.960189 0.453336 0.309019
O O2 0.101809 0.726189 0.179792
O O3 0.755668 0.948161 0.109829
O O4 0.860195 0.730345 0.049890
O O5 0.701699 0.373189 0.273167
O O6 0.534344 0.123830 0.306534
O O7 0.442355 0.373489 0.347993
O O8 0.349616 0.593674 0.098384
O O9 0.291333 0.201930 0.136113
O O10 0.966673 0.148668 0.112772
O O11 0.328699 0.832204 0.212904
O O12 0.622665 0.219340 0.123426
O O13 0.204837 0.657317 0.535224
O O14 0.272596 0.536814 0.423912
O O15 0.000000 0.500000 0.500000
O O16 0.359807 0.203582 0.679177
O O17 0.000000 0.000000 0.500000
#
# Coordination Sequence:
#
# PCOD8030432 Si02
#       8
#     2   2   2   2   2   2   2   2
#     4  11  21  45  78 103 139 192 239 300 369 430
#     4  12  26  45  68 108 149 186 246 301 358 430
#     4  11  23  45  76 108 141 192 246 299 372 430
#     4  11  22  46  75 108 148 189 243 305 363 435
#     4  12  24  48  72 101 145 197 245 293 363 436
#     4  12  27  46  74 106 141 195 243 299 366 435
#     4  12  27  44  71 111 150 194 244 301 363 434
#     4  11  23  45  74 103 143 192 242 298 357 435
#
# _framework density 23.617304000000001
#
# number of rings (size 3 to 8) (size 9 to 14) (size 15 to 20)
#    0.000    0.500    5.000    4.125    0.000    4.000 
#    4.500    0.000    0.000    0.000    0.000    0.000 
#    0.000    0.000    0.000    0.000    0.000    0.000 
#
# Total GULP energy -198239.302191 kJ/mol
# GULP energy per Si atom -12389.956387 kJ/mol
# Density = 2.356355 g / cm^3
# Si number density = 23.617304 Si / 1000 Ang^3
#
#
#
# Elastic Constant Matrix: (Units=GPa)
#
#
# Indices 1 2 3 4 5 6 
#
# 1 111.5915 46.3446 41.6925 15.1552 15.2560 3.0570
# 2 46.3446 150.3193 42.7318 6.7377 -5.2194 2.8430
# 3 41.6925 42.7318 93.1272 8.2680 -4.9643 -5.1973
# 4 15.1552 6.7377 8.2680 40.6297 2.9661 5.0651
# 5 15.2560 -5.2194 -4.9643 2.9661 43.0019 14.6754
# 6 3.0570 2.8430 -5.1973 5.0651 14.6754 26.7570
#
#
#
# Elastic Compliance Matrix: (Units=1/GPa)
#
#
# Indices 1 2 3 4 5 6 
#
# 1 0.012991 -0.002834 -0.004438 -0.003268 -0.005847 0.001781
# 2 -0.002834 0.008393 -0.002617 0.000328 0.002569 -0.002547
# 3 -0.004438 -0.002617 0.014301 -0.001306 0.002088 0.002665
# 4 -0.003268 0.000328 -0.001306 0.026656 0.001111 -0.005570
# 5 -0.005847 0.002569 0.002088 0.001111 0.031500 -0.016686
# 6 0.001781 -0.002547 0.002665 -0.005570 -0.016686 0.048165
#
#
# Mechanical properties :
#
#
# Convention : Reuss Voigt Hill
#
# Bulk Modulus (GPa) = 62.86041 68.50844 65.68443
# Shear Modulus (GPa) = 29.92498 37.02899 33.47699
#
# Velocity S-wave (km/s) = 3.56347 3.96394 3.76902
# Velocity P-wave (km/s) = 6.60342 7.07256 6.84201
#
# Compressibility (1/GPa) = 0.01590826
#
# Stress axis : x y z
#
# Youngs Moduli (GPa) = 76.97897 119.15104 69.92333
#
# Poissons Ratio (x) = 0.33765 0.31030
# Poissons Ratio (y) = 0.21814 0.18297
# Poissons Ratio (z) = 0.34161 0.31178
#
# Static dielectric constant tensor:
#      x y z
#    x 4.336460 -0.012600 0.153540 
#    y -0.012600 4.636320 0.036170 
#    z 0.153540 0.036170 4.122500 
# 
# 
# High freq. dielectric constant tensor:
#      x y z
#    x 1.934460 0.004680 0.011610 
#    y 0.004680 1.938640 0.006540 
#    z 0.011610 0.006540 1.932940 
# 
# From -- ./inp_files/494400.got.cif
#   From: 2010.06.25/outbox.cif.g09.slc.cpg/sg2_248_cif.got.tgz:494400.got - 2010.06.27 13:26:56.
