data_PCOD8030744
_publ_section_title
;
Structure prediction by ZEFSAII (Michael W. Deem and Ramdas Pophale) SiO2 
 PCOD8030744
Probable space group: P -1
;
_chemical_formula_sum "Si O2"
_cell_formula_units_Z 16
_cell_length_a 11.628584
_cell_length_b 9.282811
_cell_length_c 10.032517
_cell_angle_alpha 134.923162
_cell_angle_beta 74.734184
_cell_angle_gamma 92.999075
_cell_volume 725.455216
_symmetry_space_group_name_H-M "P -1"
_symmetry_group_IT_number 2
_symmetry_cell_setting 'triclinic'
loop_
_space_group_symop_operation_xyz
x,y,z
-x,-y,-z
loop_
_atom_site_type_symbol
_atom_site_label
_atom_site_fract_x
_atom_site_fract_y
_atom_site_fract_z
Si Si1 0.455957 0.286692 0.393232
Si Si2 0.187398 0.722045 0.559955
Si Si3 0.702138 0.106987 0.108905
Si Si4 0.620848 0.743212 0.304035
Si Si5 0.963519 0.972674 0.644608
Si Si6 0.642799 0.181052 0.638255
Si Si7 0.251729 0.700972 0.045756
Si Si8 0.203824 0.276138 0.329271
O O1 0.500000 0.500000 0.500000
O O2 0.566761 0.098515 0.196577
O O3 0.426106 0.259241 0.535259
O O4 0.338805 0.280865 0.338448
O O5 0.224768 0.789168 0.736711
O O6 0.299445 0.679053 0.392744
O O7 0.140241 0.505734 0.450295
O O8 0.081499 0.900652 0.651720
O O9 0.680904 0.250636 0.076998
O O10 0.781232 0.880573 0.903608
O O11 0.502102 0.743357 0.248724
O O12 0.674741 0.951538 0.410531
O O13 0.724790 0.547038 0.103196
O O14 0.874754 0.806011 0.583504
O O15 0.891727 0.200659 0.862286
O O16 0.000000 0.000000 0.500000
O O17 0.700860 0.184352 0.768226
#
# Coordination Sequence:
#
# PCOD8030744 Si02
#       8
#     2   2   2   2   2   2   2   2
#     4  12  20  42  70 103 143 175 218 291 351 414
#     4  12  24  48  70  97 143 181 236 284 341 401
#     4  11  24  42  70 108 136 176 233 283 347 421
#     4  11  22  40  65  99 138 177 224 273 358 401
#     4  11  25  48  71 100 140 186 236 287 335 407
#     4  11  24  41  65  98 141 179 218 289 337 416
#     4  11  23  43  68  97 132 182 229 279 340 410
#     4  11  25  42  75 100 137 189 228 282 351 405
#
# _framework density 22.055116999999999
#
# number of rings (size 3 to 8) (size 9 to 14) (size 15 to 20)
#    0.000    0.750    5.000    2.625    0.000    3.000 
#    0.000    3.125    0.000    0.000    0.000    0.000 
#    0.000    0.000    0.000    0.000    0.000    0.000 
#
# Total GULP energy -198381.053963 kJ/mol
# GULP energy per Si atom -12398.815873 kJ/mol
# Density = 2.200492 g / cm^3
# Si number density = 22.055117 Si / 1000 Ang^3
#
#
#
# Elastic Constant Matrix: (Units=GPa)
#
#
# Indices 1 2 3 4 5 6 
#
# 1 78.2256 36.3742 46.3946 6.9158 -9.4795 -5.7679
# 2 36.3742 111.7515 52.2274 8.0904 -5.9406 -0.5736
# 3 46.3946 52.2274 101.0779 -0.8350 -3.8722 -6.5511
# 4 6.9158 8.0904 -0.8350 36.1276 -8.4377 -4.8816
# 5 -9.4795 -5.9406 -3.8722 -8.4377 35.8383 -1.7674
# 6 -5.7679 -0.5736 -6.5511 -4.8816 -1.7674 39.2080
#
#
#
# Elastic Compliance Matrix: (Units=1/GPa)
#
#
# Indices 1 2 3 4 5 6 
#
# 1 0.018907 -0.002429 -0.007222 -0.002269 0.003353 0.001408
# 2 -0.002429 0.012468 -0.005434 -0.002606 0.000155 -0.001400
# 3 -0.007222 -0.005434 0.016160 0.003184 -0.000219 0.001945
# 4 -0.002269 -0.002606 0.003184 0.030946 0.006811 0.004320
# 5 0.003353 0.000155 -0.000219 0.006811 0.030528 0.002683
# 6 0.001408 -0.001400 0.001945 0.004320 0.002683 0.026675
#
#
# Mechanical properties :
#
#
# Convention : Reuss Voigt Hill
#
# Bulk Modulus (GPa) = 57.58671 62.33861 59.96266
# Shear Modulus (GPa) = 29.13019 32.63869 30.88444
#
# Velocity S-wave (km/s) = 3.63821 3.85108 3.74616
# Velocity P-wave (km/s) = 6.61935 6.93547 6.77925
#
# Compressibility (1/GPa) = 0.01736512
#
# Stress axis : x y z
#
# Youngs Moduli (GPa) = 52.88975 80.20358 61.88098
#
# Poissons Ratio (x) = 0.19482 0.44693
# Poissons Ratio (y) = 0.12847 0.33625
# Poissons Ratio (z) = 0.38199 0.43582
#
# Static dielectric constant tensor:
#      x y z
#    x 4.073130 -0.174830 -0.184930 
#    y -0.174830 4.187540 0.109700 
#    z -0.184930 0.109700 4.079590 
# 
# 
# High freq. dielectric constant tensor:
#      x y z
#    x 1.862640 -0.009430 -0.007080 
#    y -0.009430 1.877870 -0.002950 
#    z -0.007080 -0.002950 1.862130 
# 
# From -- ./inp_files/245861.got.cif
#   From: 2010.06.25/outbox.cif.g09.slc.cpg/sg2_123_cif.got.tgz:245861.got - 2010.06.27 13:26:56.
