data_PCOD8030276
_publ_section_title
;
Structure prediction by ZEFSAII (Michael W. Deem and Ramdas Pophale) SiO2 
 PCOD8030276
Probable space group: P -1
;
_chemical_formula_sum "Si O2"
_cell_formula_units_Z 16
_cell_length_a 9.829295
_cell_length_b 7.878636
_cell_length_c 12.592463
_cell_angle_alpha 78.763291
_cell_angle_beta 133.463982
_cell_angle_gamma 100.026415
_cell_volume 693.123456
_symmetry_space_group_name_H-M "P -1"
_symmetry_group_IT_number 2
_symmetry_cell_setting 'triclinic'
loop_
_space_group_symop_operation_xyz
x,y,z
-x,-y,-z
loop_
_atom_site_type_symbol
_atom_site_label
_atom_site_fract_x
_atom_site_fract_y
_atom_site_fract_z
Si Si1 0.986646 0.514863 0.616645
Si Si2 0.665640 0.896008 0.933673
Si Si3 0.047754 0.870051 0.267455
Si Si4 0.228257 0.662857 0.061869
Si Si5 0.631058 0.343816 0.088252
Si Si6 0.826507 0.706404 0.858185
Si Si7 0.222876 0.204358 0.409998
Si Si8 0.623215 0.157805 0.712474
O O1 0.926889 0.320255 0.647633
O O2 0.836524 0.655519 0.551583
O O3 0.000000 0.500000 0.500000
O O4 0.179573 0.591480 0.759716
O O5 0.471777 0.817954 0.887375
O O6 0.694012 0.826108 0.837899
O O7 0.629398 0.088795 0.850981
O O8 0.839843 0.871632 0.107503
O O9 0.212385 0.909571 0.264866
O O10 0.078734 0.031702 0.347173
O O11 0.165940 0.461276 0.041098
O O12 0.330346 0.651443 0.236640
O O13 0.338063 0.719594 0.006750
O O14 0.043605 0.778641 0.955984
O O15 0.500000 0.500000 0.000000
O O16 0.749428 0.692698 0.698316
O O17 0.422544 0.129888 0.555630
#
# Coordination Sequence:
#
# PCOD8030276 Si02
#       8
#     2   2   2   2   2   2   2   2
#     4  12  30  51  74 105 153 197 238 300 376 440
#     4  12  25  45  76 105 147 188 246 309 356 424
#     4  12  25  50  77 109 145 192 248 307 361 431
#     4  11  23  42  73 105 142 187 251 296 361 428
#     4  12  25  47  72 109 142 192 250 301 359 440
#     4  11  21  43  74 103 142 192 238 307 356 427
#     4  12  28  47  72 109 150 193 243 299 369 443
#     4  12  27  44  72 113 143 191 246 302 369 433
#
# _framework density 23.083912000000002
#
# number of rings (size 3 to 8) (size 9 to 14) (size 15 to 20)
#    0.000    0.250    6.250    2.250    3.500    3.000 
#    0.000    0.000    0.000    0.000    0.000    0.000 
#    0.000    0.000    0.000    0.000    0.000    0.000 
#
# Total GULP energy -198218.044257 kJ/mol
# GULP energy per Si atom -12388.627766 kJ/mol
# Density = 2.303137 g / cm^3
# Si number density = 23.083912 Si / 1000 Ang^3
#
#
#
# Elastic Constant Matrix: (Units=GPa)
#
#
# Indices 1 2 3 4 5 6 
#
# 1 122.3482 35.7216 28.9612 4.9187 -13.4153 2.9288
# 2 35.7216 96.0049 14.9707 -4.8123 -12.7653 8.7535
# 3 28.9612 14.9707 108.0793 8.3318 -3.0905 1.0623
# 4 4.9187 -4.8123 8.3318 32.5070 -5.2401 -9.4253
# 5 -13.4153 -12.7653 -3.0905 -5.2401 42.1663 6.0983
# 6 2.9288 8.7535 1.0623 -9.4253 6.0983 43.3955
#
#
#
# Elastic Compliance Matrix: (Units=1/GPa)
#
#
# Indices 1 2 3 4 5 6 
#
# 1 0.009841 -0.003095 -0.002050 -0.001262 0.001965 -0.000540
# 2 -0.003095 0.012491 -0.000973 0.002463 0.003353 -0.002223
# 3 -0.002050 -0.000973 0.010130 -0.002627 -0.000470 -0.000418
# 4 -0.001262 0.002463 -0.002627 0.034481 0.003474 0.006653
# 5 0.001965 0.003353 -0.000470 0.003474 0.026294 -0.003738
# 6 -0.000540 -0.002223 -0.000418 0.006653 -0.003738 0.025509
#
#
# Mechanical properties :
#
#
# Convention : Reuss Voigt Hill
#
# Bulk Modulus (GPa) = 49.43827 53.97105 51.70466
# Shear Modulus (GPa) = 36.30450 40.06569 38.18509
#
# Velocity S-wave (km/s) = 3.97005 4.17064 4.07158
# Velocity P-wave (km/s) = 6.51754 6.82814 6.67465
#
# Compressibility (1/GPa) = 0.02022724
#
# Stress axis : x y z
#
# Youngs Moduli (GPa) = 101.61268 80.05475 98.71992
#
# Poissons Ratio (x) = 0.24776 0.20234
# Poissons Ratio (y) = 0.31448 0.09606
# Poissons Ratio (z) = 0.20827 0.07790
#
# Static dielectric constant tensor:
#      x y z
#    x 4.518160 0.022370 0.140850 
#    y 0.022370 4.488860 0.063420 
#    z 0.140850 0.063420 4.240150 
# 
# 
# High freq. dielectric constant tensor:
#      x y z
#    x 1.911590 -0.002930 -0.007630 
#    y -0.002930 1.941170 0.005020 
#    z -0.007630 0.005020 1.909450 
# 
# From -- ./inp_files/382125.got.cif
#   From: 2010.06.25/outbox.cif.g09.slc.cpg/sg2_192_cif.got.tgz:382125.got - 2010.06.27 13:26:56.
