data_PCOD8030096
_publ_section_title
;
Structure prediction by ZEFSAII (Michael W. Deem and Ramdas Pophale) SiO2 
 PCOD8030096
Probable space group: P -1
;
_chemical_formula_sum "Si O2"
_cell_formula_units_Z 16
_cell_length_a 9.460196
_cell_length_b 15.275634
_cell_length_c 9.729670
_cell_angle_alpha 64.811525
_cell_angle_beta 118.271282
_cell_angle_gamma 142.070986
_cell_volume 757.656996
_symmetry_space_group_name_H-M "P -1"
_symmetry_group_IT_number 2
_symmetry_cell_setting 'triclinic'
loop_
_space_group_symop_operation_xyz
x,y,z
-x,-y,-z
loop_
_atom_site_type_symbol
_atom_site_label
_atom_site_fract_x
_atom_site_fract_y
_atom_site_fract_z
Si Si1 0.293051 0.169639 0.324079
Si Si2 0.110286 0.629836 0.868124
Si Si3 0.642991 0.845282 0.061009
Si Si4 0.946713 0.194102 0.159779
Si Si5 0.158951 0.552697 0.669238
Si Si6 0.116809 0.748073 0.202495
Si Si7 0.383620 0.107398 0.678860
Si Si8 0.934298 0.080183 0.830379
O O1 0.163626 0.215951 0.226636
O O2 0.564751 0.309388 0.321262
O O3 0.253955 0.110699 0.498423
O O4 0.186915 0.040844 0.259925
O O5 0.063015 0.584533 0.718322
O O6 0.991004 0.681112 0.808653
O O7 0.392284 0.751258 0.939326
O O8 0.000000 0.500000 0.000000
O O9 0.630324 0.838730 0.223382
O O10 0.778173 0.805801 0.107738
O O11 0.824933 0.007471 0.979284
O O12 0.735667 0.049663 0.244591
O O13 0.854284 0.190474 0.973540
O O14 0.000000 0.500000 0.500000
O O15 0.115511 0.423144 0.786339
O O16 0.345991 0.785241 0.315056
O O17 0.104672 0.822463 0.269864
#
# Coordination Sequence:
#
# PCOD8030096 Si02
#       8
#     2   2   2   2   2   2   2   2
#     4  12  27  45  70 104 149 182 224 292 356 408
#     4  12  25  44  73 101 136 188 237 283 344 417
#     4  11  21  42  69 100 138 174 227 291 335 408
#     4  12  24  42  72 109 129 183 241 284 339 417
#     4  12  27  50  66  99 145 184 225 289 352 414
#     4  12  24  43  74  99 138 185 237 284 343 412
#     4  12  23  43  69 102 148 176 225 291 352 405
#     4  11  23  41  69 109 132 177 234 289 344 400
#
# _framework density 21.117733000000001
#
# number of rings (size 3 to 8) (size 9 to 14) (size 15 to 20)
#    0.000    0.250    7.500    2.250    0.000    3.000 
#    0.000    0.625    0.000    0.000    0.000    0.000 
#    0.000    0.000    0.000    0.000    0.000    0.000 
#
# Total GULP energy -198324.606012 kJ/mol
# GULP energy per Si atom -12395.287876 kJ/mol
# Density = 2.106967 g / cm^3
# Si number density = 21.117733 Si / 1000 Ang^3
#
#
#
# Elastic Constant Matrix: (Units=GPa)
#
#
# Indices 1 2 3 4 5 6 
#
# 1 142.4224 62.4806 30.2218 6.1438 -6.2380 -14.0294
# 2 62.4806 92.5999 22.5260 -4.1209 -4.4287 -18.2610
# 3 30.2218 22.5260 82.1455 2.0842 -9.6534 -4.8586
# 4 6.1438 -4.1209 2.0842 31.0770 -4.0920 -1.1643
# 5 -6.2380 -4.4287 -9.6534 -4.0920 26.8900 8.2995
# 6 -14.0294 -18.2610 -4.8586 -1.1643 8.2995 28.3321
#
#
#
# Elastic Compliance Matrix: (Units=1/GPa)
#
#
# Indices 1 2 3 4 5 6 
#
# 1 0.010524 -0.006663 -0.001937 -0.002806 0.000084 0.000445
# 2 -0.006663 0.017540 -0.002132 0.003914 -0.001357 0.008198
# 3 -0.001937 -0.002132 0.013938 -0.000283 0.004558 -0.001290
# 4 -0.002806 0.003914 -0.000283 0.033933 0.004717 0.001098
# 5 0.000084 -0.001357 0.004558 0.004717 0.043201 -0.012513
# 6 0.000445 0.008198 -0.001290 0.001098 -0.012513 0.044289
#
#
# Mechanical properties :
#
#
# Convention : Reuss Voigt Hill
#
# Bulk Modulus (GPa) = 48.69488 60.84718 54.77103
# Shear Modulus (GPa) = 26.07774 30.72246 28.40010
#
# Velocity S-wave (km/s) = 3.51789 3.81835 3.67119
# Velocity P-wave (km/s) = 6.29361 6.95094 6.63043
#
# Compressibility (1/GPa) = 0.02053604
#
# Stress axis : x y z
#
# Youngs Moduli (GPa) = 95.02101 57.01402 71.74880
#
# Poissons Ratio (x) = 0.37987 0.13900
# Poissons Ratio (y) = 0.63311 0.15299
# Poissons Ratio (z) = 0.18409 0.12157
#
# Static dielectric constant tensor:
#      x y z
#    x 4.209380 -0.311950 -0.085640 
#    y -0.311950 5.252210 0.016760 
#    z -0.085640 0.016760 3.848200 
# 
# 
# High freq. dielectric constant tensor:
#      x y z
#    x 1.841240 0.002410 -0.010680 
#    y 0.002410 1.824830 -0.002170 
#    z -0.010680 -0.002170 1.826700 
# 
# From -- ./inp_files/206508.got.cif
#   From: 2010.06.25/outbox.cif.g09.slc.cpg/sg2_104_cif.got.tgz:206508.got - 2010.06.27 13:26:56.
