data_PCOD8030330
_publ_section_title
;
Structure prediction by ZEFSAII (Michael W. Deem and Ramdas Pophale) SiO2 
 PCOD8030330
Probable space group: P -1
;
_chemical_formula_sum "Si O2"
_cell_formula_units_Z 16
_cell_length_a 10.872681
_cell_length_b 14.418533
_cell_length_c 10.426107
_cell_angle_alpha 55.487813
_cell_angle_beta 105.331804
_cell_angle_gamma 147.333408
_cell_volume 638.555481
_symmetry_space_group_name_H-M "P -1"
_symmetry_group_IT_number 2
_symmetry_cell_setting 'triclinic'
loop_
_space_group_symop_operation_xyz
x,y,z
-x,-y,-z
loop_
_atom_site_type_symbol
_atom_site_label
_atom_site_fract_x
_atom_site_fract_y
_atom_site_fract_z
Si Si1 0.786224 0.785742 0.517013
Si Si2 0.614906 0.888016 0.320657
Si Si3 0.705532 0.653096 0.131993
Si Si4 0.936743 0.638821 0.056113
Si Si5 0.610281 0.253104 0.083911
Si Si6 0.184979 0.603670 0.237755
Si Si7 0.728349 0.138433 0.365622
Si Si8 0.102304 0.976450 0.216491
O O1 0.626781 0.762751 0.421502
O O2 0.581034 0.552417 0.722890
O O3 0.000000 0.000000 0.500000
O O4 0.934487 0.829873 0.413521
O O5 0.328191 0.702657 0.336576
O O6 0.672996 0.974609 0.414636
O O7 0.824719 0.096456 0.115854
O O8 0.725784 0.547670 0.150575
O O9 0.753272 0.791001 0.935898
O O10 0.922228 0.822103 0.166843
O O11 0.799573 0.496534 0.997437
O O12 0.027884 0.600574 0.193787
O O13 0.735996 0.230979 0.175934
O O14 0.321604 0.047896 0.221420
O O15 0.598305 0.239382 0.937364
O O16 0.990355 0.349303 0.356542
O O17 0.500000 0.000000 0.500000
#
# Coordination Sequence:
#
# PCOD8030330 Si02
#       8
#     2   2   2   2   2   2   2   2
#     4  12  29  48  70 105 143 188 244 299 357 430
#     4  12  25  45  73 102 141 191 234 290 368 418
#     4  11  26  46  73 103 140 186 247 295 357 429
#     4  11  21  44  70 105 139 182 237 292 354 431
#     4  11  23  43  73 102 137 186 238 289 358 422
#     4  11  24  44  71 103 140 185 236 292 351 429
#     4  11  26  44  66 107 148 181 233 291 355 432
#     4  11  26  47  72 102 138 193 240 301 359 414
#
# _framework density 25.056553000000001
#
# number of rings (size 3 to 8) (size 9 to 14) (size 15 to 20)
#    0.000    0.750    3.750    3.000   10.500    2.500 
#    0.000    0.000    0.000    0.000    0.000    0.000 
#    0.000    0.000    0.000    0.000    0.000    0.000 
#
# Total GULP energy -198460.414268 kJ/mol
# GULP energy per Si atom -12403.775892 kJ/mol
# Density = 2.499952 g / cm^3
# Si number density = 25.056553 Si / 1000 Ang^3
#
#
#
# Elastic Constant Matrix: (Units=GPa)
#
#
# Indices 1 2 3 4 5 6 
#
# 1 91.9173 3.1968 18.8277 -4.3996 -22.2866 -7.1848
# 2 3.1968 75.9162 14.4193 -10.5735 0.8615 3.4722
# 3 18.8277 14.4193 82.6306 -12.9636 -21.6439 -1.9794
# 4 -4.3996 -10.5735 -12.9636 28.5887 2.5804 -7.0728
# 5 -22.2866 0.8615 -21.6439 2.5804 39.3144 1.0636
# 6 -7.1848 3.4722 -1.9794 -7.0728 1.0636 36.3244
#
#
#
# Elastic Compliance Matrix: (Units=1/GPa)
#
#
# Indices 1 2 3 4 5 6 
#
# 1 0.012976 -0.000375 -0.000821 0.001535 0.006739 0.002659
# 2 -0.000375 0.014263 -0.002299 0.004190 -0.002047 -0.000687
# 3 -0.000821 -0.002299 0.015700 0.005892 0.007792 0.001832
# 4 0.001535 0.004190 0.005892 0.041380 0.001083 0.008250
# 5 0.006739 -0.002047 0.007792 0.001083 0.033487 0.001184
# 6 0.002659 -0.000687 0.001832 0.008250 0.001184 0.029793
#
#
# Mechanical properties :
#
#
# Convention : Reuss Voigt Hill
#
# Bulk Modulus (GPa) = 27.81744 35.92797 31.87270
# Shear Modulus (GPa) = 30.01717 35.11354 32.56536
#
# Velocity S-wave (km/s) = 3.46494 3.74755 3.60901
# Velocity P-wave (km/s) = 5.20900 5.75286 5.48767
#
# Compressibility (1/GPa) = 0.03594868
#
# Stress axis : x y z
#
# Youngs Moduli (GPa) = 77.06557 70.11131 63.69604
#
# Poissons Ratio (x) = 0.02627 0.05232
# Poissons Ratio (y) = 0.02887 0.14643
# Poissons Ratio (z) = 0.06331 0.16118
#
# Static dielectric constant tensor:
#      x y z
#    x 7.592410 0.023730 2.357790 
#    y 0.023730 4.456040 0.031450 
#    z 2.357790 0.031450 6.677500 
# 
# 
# High freq. dielectric constant tensor:
#      x y z
#    x 2.002050 0.001050 -0.010180 
#    y 0.001050 2.000710 -0.005610 
#    z -0.010180 -0.005610 1.990480 
# 
# From -- ./inp_files/225312.got.cif
#   From: 2010.06.25/outbox.cif.g09.slc.cpg/sg2_113_cif.got.tgz:225312.got - 2010.06.27 13:26:56.
