data_PCOD8030888
_publ_section_title
;
Structure prediction by ZEFSAII (Michael W. Deem and Ramdas Pophale) SiO2 
 PCOD8030888
Probable space group: P -1
;
_chemical_formula_sum "Si O2"
_cell_formula_units_Z 16
_cell_length_a 9.836179
_cell_length_b 14.564731
_cell_length_c 13.754493
_cell_angle_alpha 51.923379
_cell_angle_beta 81.012853
_cell_angle_gamma 37.432942
_cell_volume 676.079061
_symmetry_space_group_name_H-M "P -1"
_symmetry_group_IT_number 2
_symmetry_cell_setting 'triclinic'
loop_
_space_group_symop_operation_xyz
x,y,z
-x,-y,-z
loop_
_atom_site_type_symbol
_atom_site_label
_atom_site_fract_x
_atom_site_fract_y
_atom_site_fract_z
Si Si1 0.228173 0.523782 0.050526
Si Si2 0.246892 0.686384 0.111648
Si Si3 0.924203 0.890395 0.674280
Si Si4 0.782980 0.720584 0.096558
Si Si5 0.321929 0.890398 0.977882
Si Si6 0.786617 0.252433 0.465541
Si Si7 0.650475 0.816694 0.513165
Si Si8 0.814445 0.919095 0.328976
O O1 0.340310 0.530866 0.115008
O O2 0.510178 0.218985 0.206717
O O3 0.912726 0.697373 0.006717
O O4 0.157768 0.640378 0.880384
O O5 0.423911 0.521599 0.300616
O O6 0.346362 0.740531 0.032985
O O7 0.880317 0.953494 0.002063
O O8 0.045279 0.815017 0.601005
O O9 0.896375 0.040802 0.623506
O O10 0.596025 0.074976 0.586225
O O11 0.073177 0.479943 0.292417
O O12 0.662355 0.686075 0.094833
O O13 0.500000 0.000000 0.000000
O O14 0.156449 0.093832 0.781379
O O15 0.865638 0.274922 0.533033
O O16 0.500000 0.000000 0.500000
O O17 0.787366 0.803906 0.429833
#
# Coordination Sequence:
#
# PCOD8030888 Si02
#       8
#     2   2   2   2   2   2   2   2
#     4  12  24  44  72 102 135 179 233 277 342 413
#     4  11  24  45  67  96 144 180 226 277 342 411
#     4  11  24  39  66 103 133 175 225 285 334 398
#     4  12  25  48  73  96 139 186 225 281 353 408
#     4  11  26  43  68 101 134 184 227 281 338 409
#     4  11  22  41  65  95 138 179 216 281 341 398
#     4  12  24  44  70 103 137 176 228 290 344 399
#     4  12  25  43  71 104 136 176 231 287 336 406
#
# _framework density 23.665870999999999
#
# number of rings (size 3 to 8) (size 9 to 14) (size 15 to 20)
#    0.000    0.500    3.750    5.250    1.750    3.000 
#    2.250    1.250    0.000    0.000    0.000    0.000 
#    0.000    0.000    0.000    0.000    0.000    0.000 
#
# Total GULP energy -198429.419615 kJ/mol
# GULP energy per Si atom -12401.838726 kJ/mol
# Density = 2.361201 g / cm^3
# Si number density = 23.665871 Si / 1000 Ang^3
#
#
#
# Elastic Constant Matrix: (Units=GPa)
#
#
# Indices 1 2 3 4 5 6 
#
# 1 125.6475 20.5546 20.8338 7.7433 10.2832 -18.7696
# 2 20.5546 51.3159 9.6029 -2.9262 -2.2632 -2.6696
# 3 20.8338 9.6029 113.2877 3.1588 2.8510 -4.3567
# 4 7.7433 -2.9262 3.1588 34.3868 -3.7297 -0.8210
# 5 10.2832 -2.2632 2.8510 -3.7297 48.5252 2.4978
# 6 -18.7696 -2.6696 -4.3567 -0.8210 2.4978 23.5673
#
#
#
# Elastic Compliance Matrix: (Units=1/GPa)
#
#
# Indices 1 2 3 4 5 6 
#
# 1 0.010338 -0.003804 -0.001131 -0.002677 -0.002909 0.007809
# 2 -0.003804 0.021471 -0.001296 0.003015 0.002165 -0.000962
# 3 -0.001131 -0.001296 0.009203 -0.000734 -0.000453 0.000676
# 4 -0.002677 0.003015 -0.000734 0.030320 0.003143 -0.001203
# 5 -0.002909 0.002165 -0.000453 0.003143 0.021818 -0.004359
# 6 0.007809 -0.000962 0.000676 -0.001203 -0.004359 0.049087
#
#
# Mechanical properties :
#
#
# Convention : Reuss Voigt Hill
#
# Bulk Modulus (GPa) = 35.02578 43.58151 39.30365
# Shear Modulus (GPa) = 30.44801 37.24652 33.84727
#
# Velocity S-wave (km/s) = 3.59078 3.97148 3.78592
# Velocity P-wave (km/s) = 5.65896 6.28375 5.97952
#
# Compressibility (1/GPa) = 0.02855040
#
# Stress axis : x y z
#
# Youngs Moduli (GPa) = 96.72929 46.57503 108.66353
#
# Poissons Ratio (x) = 0.17718 0.12285
# Poissons Ratio (y) = 0.36797 0.14082
# Poissons Ratio (z) = 0.10936 0.06036
#
# Static dielectric constant tensor:
#      x y z
#    x 4.601850 -0.245810 -0.008360 
#    y -0.245810 3.907550 0.026200 
#    z -0.008360 0.026200 4.354830 
# 
# 
# High freq. dielectric constant tensor:
#      x y z
#    x 1.960250 -0.017970 -0.000600 
#    y -0.017970 1.915560 0.002540 
#    z -0.000600 0.002540 1.941770 
# 
# From -- ./inp_files/505361.got.cif
#   From: 2010.06.25/outbox.cif.g09.slc.cpg/sg2_253_cif.got.tgz:505361.got - 2010.06.27 13:26:56.
