data_PCOD8030246
_publ_section_title
;
Structure prediction by ZEFSAII (Michael W. Deem and Ramdas Pophale) SiO2 
 PCOD8030246
Probable space group: P -1
;
_chemical_formula_sum "Si O2"
_cell_formula_units_Z 16
_cell_length_a 8.799564
_cell_length_b 8.437459
_cell_length_c 15.001883
_cell_angle_alpha 82.240715
_cell_angle_beta 40.604205
_cell_angle_gamma 92.636189
_cell_volume 698.972819
_symmetry_space_group_name_H-M "P -1"
_symmetry_group_IT_number 2
_symmetry_cell_setting 'triclinic'
loop_
_space_group_symop_operation_xyz
x,y,z
-x,-y,-z
loop_
_atom_site_type_symbol
_atom_site_label
_atom_site_fract_x
_atom_site_fract_y
_atom_site_fract_z
Si Si1 0.119485 0.666334 0.986340
Si Si2 0.741577 0.445028 0.881150
Si Si3 0.421116 0.322253 0.592191
Si Si4 0.433571 0.859304 0.704694
Si Si5 0.284487 0.157974 0.832941
Si Si6 0.597958 0.124571 0.864014
Si Si7 0.899338 0.906992 0.379553
Si Si8 0.149232 0.753583 0.672790
O O1 0.152158 0.629217 0.076273
O O2 0.982694 0.819235 0.026185
O O3 0.387309 0.748306 0.823273
O O4 0.000000 0.500000 0.000000
O O5 0.684593 0.310361 0.841491
O O6 0.942729 0.599681 0.747702
O O7 0.500000 0.500000 0.000000
O O8 0.500000 0.500000 0.500000
O O9 0.377660 0.326176 0.718683
O O10 0.185996 0.229174 0.648796
O O11 0.632191 0.226082 0.495054
O O12 0.711325 0.889593 0.547292
O O13 0.257948 0.740240 0.723036
O O14 0.331734 0.023040 0.751422
O O15 0.398845 0.127986 0.878263
O O16 0.829947 0.092013 0.710693
O O17 0.500000 0.000000 0.000000
O O18 0.944742 0.082987 0.300264
#
# Coordination Sequence:
#
# PCOD8030246 Si02
#       8
#     2   2   2   2   2   2   2   2
#     4  12  25  43  72 104 136 181 240 294 346 419
#     4  12  26  48  69 103 143 186 233 293 363 422
#     4  11  22  42  72 104 135 182 235 296 352 414
#     4  11  23  43  72 106 135 182 238 292 345 420
#     4  12  25  45  70 103 141 183 243 282 352 430
#     4  12  28  47  70 104 146 194 232 292 363 423
#     4  11  23  45  73 103 140 183 237 291 363 418
#     4  11  21  43  72 100 138 178 231 295 350 421
#
# _framework density 22.890733000000001
#
# number of rings (size 3 to 8) (size 9 to 14) (size 15 to 20)
#    0.000    0.500    3.750    5.625    3.500    0.500 
#    2.250    1.250    0.000    0.000    0.000    0.000 
#    0.000    0.000    0.000    0.000    0.000    0.000 
#
# Total GULP energy -198225.062570 kJ/mol
# GULP energy per Si atom -12389.066411 kJ/mol
# Density = 2.283863 g / cm^3
# Si number density = 22.890733 Si / 1000 Ang^3
#
#
#
# Elastic Constant Matrix: (Units=GPa)
#
#
# Indices 1 2 3 4 5 6 
#
# 1 104.8212 18.8131 42.2877 1.8698 -3.8826 -11.6753
# 2 18.8131 86.4028 28.6783 -0.5467 -4.0533 3.8159
# 3 42.2877 28.6783 137.3606 -4.6978 -1.7186 -5.9805
# 4 1.8698 -0.5467 -4.6978 45.2325 -9.3456 -3.4432
# 5 -3.8826 -4.0533 -1.7186 -9.3456 42.7209 1.3621
# 6 -11.6753 3.8159 -5.9805 -3.4432 1.3621 37.1818
#
#
#
# Elastic Compliance Matrix: (Units=1/GPa)
#
#
# Indices 1 2 3 4 5 6 
#
# 1 0.011446 -0.001595 -0.003060 -0.000450 0.000565 0.003203
# 2 -0.001595 0.012821 -0.002268 0.000035 0.001059 -0.002217
# 3 -0.003060 -0.002268 0.008768 0.001084 0.000072 0.000780
# 4 -0.000450 0.000035 0.001084 0.023440 0.005070 0.002014
# 5 0.000565 0.001059 0.000072 0.005070 0.024683 -0.000354
# 6 0.003203 -0.002217 0.000780 0.002014 -0.000354 0.028453
#
#
# Mechanical properties :
#
#
# Convention : Reuss Voigt Hill
#
# Bulk Modulus (GPa) = 52.10862 56.46029 54.28445
# Shear Modulus (GPa) = 38.50493 40.94741 39.72617
#
# Velocity S-wave (km/s) = 4.10581 4.23403 4.17042
# Velocity P-wave (km/s) = 6.72982 6.97290 6.85244
#
# Compressibility (1/GPa) = 0.01919068
#
# Stress axis : x y z
#
# Youngs Moduli (GPa) = 87.36362 77.99418 114.05702
#
# Poissons Ratio (x) = 0.12436 0.34899
# Poissons Ratio (y) = 0.13930 0.25869
# Poissons Ratio (z) = 0.26732 0.17690
#
# Static dielectric constant tensor:
#      x y z
#    x 3.892050 0.038960 -0.040590 
#    y 0.038960 4.441310 0.104750 
#    z -0.040590 0.104750 4.563110 
# 
# 
# High freq. dielectric constant tensor:
#      x y z
#    x 1.877270 -0.006730 -0.002010 
#    y -0.006730 1.920910 0.000230 
#    z -0.002010 0.000230 1.927010 
# 
# From -- ./inp_files/417871.got.cif
#   From: 2010.06.25/outbox.cif.g09.slc.cpg/sg2_209_cif.got.tgz:417871.got - 2010.06.27 13:26:56.
