data_PCOD8030204
_publ_section_title
;
Structure prediction by ZEFSAII (Michael W. Deem and Ramdas Pophale) SiO2 
 PCOD8030204
Probable space group: P -1
;
_chemical_formula_sum "Si O2"
_cell_formula_units_Z 16
_cell_length_a 9.011453
_cell_length_b 8.467464
_cell_length_c 16.029196
_cell_angle_alpha 94.539274
_cell_angle_beta 104.189828
_cell_angle_gamma 134.451552
_cell_volume 788.913897
_symmetry_space_group_name_H-M "P -1"
_symmetry_group_IT_number 2
_symmetry_cell_setting 'triclinic'
loop_
_space_group_symop_operation_xyz
x,y,z
-x,-y,-z
loop_
_atom_site_type_symbol
_atom_site_label
_atom_site_fract_x
_atom_site_fract_y
_atom_site_fract_z
Si Si1 0.567966 0.879002 0.485201
Si Si2 0.963270 0.664382 0.497779
Si Si3 0.807685 0.613851 0.653738
Si Si4 0.389341 0.068378 0.160529
Si Si5 0.458461 0.286649 0.011097
Si Si6 0.210394 0.853899 0.840269
Si Si7 0.508079 0.677435 0.646550
Si Si8 0.043502 0.468301 0.915592
O O1 0.380205 0.671988 0.383874
O O2 0.578574 0.800750 0.571950
O O3 0.500000 0.000000 0.500000
O O4 0.814908 0.066728 0.485384
O O5 0.880530 0.684602 0.571309
O O6 0.765966 0.559931 0.400364
O O7 0.000000 0.500000 0.500000
O O8 0.669775 0.651002 0.678252
O O9 0.050549 0.782215 0.739518
O O10 0.365875 0.184594 0.089060
O O11 0.562888 0.063320 0.155918
O O12 0.466659 0.195464 0.264082
O O13 0.142048 0.808509 0.139747
O O14 0.704948 0.403268 0.047432
O O15 0.500000 0.500000 0.000000
O O16 0.288924 0.067012 0.913991
O O17 0.035145 0.607685 0.856560
O O18 0.000000 0.500000 0.000000
#
# Coordination Sequence:
#
# PCOD8030204 Si02
#       8
#     2   2   2   2   2   2   2   2
#     4  11  23  42  69  94 125 176 221 257 323 390
#     4  11  21  43  69  91 129 169 213 267 315 385
#     4  11  26  42  62 101 134 164 217 273 327 383
#     4  11  24  44  68  95 129 176 224 265 325 393
#     4  11  25  44  66  98 136 168 214 276 333 383
#     4  11  24  43  67  95 131 172 226 267 321 397
#     4  11  26  42  64  99 135 165 215 275 327 382
#     4  11  21  43  69  90 125 177 221 269 319 386
#
# _framework density 20.281047000000001
#
# number of rings (size 3 to 8) (size 9 to 14) (size 15 to 20)
#    0.000    1.000    5.000    3.000    3.500    4.500 
#    2.250    0.000    0.000    0.000    0.000    0.000 
#    0.000    0.000    0.000    0.000    0.000    0.000 
#
# Total GULP energy -198217.299564 kJ/mol
# GULP energy per Si atom -12388.581223 kJ/mol
# Density = 2.023489 g / cm^3
# Si number density = 20.281047 Si / 1000 Ang^3
#
#
#
# Elastic Constant Matrix: (Units=GPa)
#
#
# Indices 1 2 3 4 5 6 
#
# 1 51.5846 18.3896 15.5170 5.3325 -5.1195 0.2396
# 2 18.3896 137.7556 44.0751 19.1021 3.4252 15.5395
# 3 15.5170 44.0751 126.4130 29.0076 2.0701 3.7617
# 4 5.3325 19.1021 29.0076 25.0562 4.3078 5.1014
# 5 -5.1195 3.4252 2.0701 4.3078 29.7580 -2.1842
# 6 0.2396 15.5395 3.7617 5.1014 -2.1842 40.7842
#
#
#
# Elastic Compliance Matrix: (Units=1/GPa)
#
#
# Indices 1 2 3 4 5 6 
#
# 1 0.021311 -0.002365 -0.001413 -0.002150 0.004452 0.001414
# 2 -0.002365 0.009022 -0.001996 -0.003299 -0.001041 -0.002883
# 3 -0.001413 -0.001996 0.011447 -0.011856 0.000998 0.001249
# 4 -0.002150 -0.003299 -0.011856 0.059118 -0.008125 -0.005467
# 5 0.004452 -0.001041 0.000998 -0.008125 0.035833 0.003214
# 6 0.001414 -0.002883 0.001249 -0.005467 0.003214 0.026350
#
#
# Mechanical properties :
#
#
# Convention : Reuss Voigt Hill
#
# Bulk Modulus (GPa) = 33.07637 52.41295 42.74466
# Shear Modulus (GPa) = 27.07021 34.97112 31.02067
#
# Velocity S-wave (km/s) = 3.65739 4.15700 3.91518
# Velocity P-wave (km/s) = 5.84635 6.99574 6.44671
#
# Compressibility (1/GPa) = 0.03023306
#
# Stress axis : x y z
#
# Youngs Moduli (GPa) = 46.92365 110.84179 87.36074
#
# Poissons Ratio (x) = 0.26212 0.12344
# Poissons Ratio (y) = 0.11097 0.17433
# Poissons Ratio (z) = 0.06631 0.22119
#
# Static dielectric constant tensor:
#      x y z
#    x -1.099420 14.111680 -5.972030 
#    y 14.111680 -38.894930 17.845060 
#    z -5.972030 17.845060 -3.694050 
# 
# 
# High freq. dielectric constant tensor:
#      x y z
#    x 1.798040 0.014410 -0.002330 
#    y 0.014410 1.800420 0.010280 
#    z -0.002330 0.010280 1.800750 
# 
# From -- ./inp_files/495234.got.cif
#   From: 2010.06.25/outbox.cif.g09.slc.cpg/sg2_248_cif.got.tgz:495234.got - 2010.06.27 13:26:56.
