data_PCOD8030906
_publ_section_title
;
Structure prediction by ZEFSAII (Michael W. Deem and Ramdas Pophale) SiO2 
 PCOD8030906
Probable space group: P -1
;
_chemical_formula_sum "Si O2"
_cell_formula_units_Z 16
_cell_length_a 18.416486
_cell_length_b 11.698928
_cell_length_c 8.029809
_cell_angle_alpha 55.473533
_cell_angle_beta 117.195402
_cell_angle_gamma 150.261000
_cell_volume 704.417852
_symmetry_space_group_name_H-M "P -1"
_symmetry_group_IT_number 2
_symmetry_cell_setting 'triclinic'
loop_
_space_group_symop_operation_xyz
x,y,z
-x,-y,-z
loop_
_atom_site_type_symbol
_atom_site_label
_atom_site_fract_x
_atom_site_fract_y
_atom_site_fract_z
Si Si1 0.070438 0.711757 0.139715
Si Si2 0.990306 0.881721 0.361955
Si Si3 0.777418 0.226600 0.360518
Si Si4 0.607154 0.037850 0.012588
Si Si5 0.463045 0.383575 0.734508
Si Si6 0.769317 0.325639 0.621190
Si Si7 0.859567 0.965287 0.267609
Si Si8 0.761786 0.908366 0.733574
O O1 0.115093 0.618709 0.223767
O O2 0.941581 0.521452 0.298043
O O3 0.209606 0.989133 0.138396
O O4 0.045228 0.761045 0.901857
O O5 0.849493 0.583906 0.470173
O O6 0.914406 0.925010 0.227779
O O7 0.098191 0.026375 0.513626
O O8 0.104608 0.011075 0.226802
O O9 0.729283 0.209985 0.142620
O O10 0.702847 0.181262 0.489975
O O11 0.769052 0.047398 0.494935
O O12 0.545362 0.795174 0.130112
O O13 0.646152 0.156739 0.774206
O O14 0.500000 0.000000 0.000000
O O15 0.500000 0.500000 0.500000
O O16 0.314199 0.247597 0.752732
O O17 0.600819 0.612532 0.810217
#
# Coordination Sequence:
#
# PCOD8030906 Si02
#       8
#     2   2   2   2   2   2   2   2
#     4  11  22  43  69 103 125 173 238 276 336 403
#     4  11  22  41  66  99 134 171 223 290 332 389
#     4  11  22  44  73 102 133 177 225 288 339 394
#     4  12  28  45  70 102 135 180 233 276 333 417
#     4  12  24  45  66  92 140 187 214 273 351 409
#     4  11  23  43  71  99 133 175 229 282 341 391
#     4  11  25  39  66 101 132 178 226 274 344 409
#     4  11  22  41  71  93 136 176 222 276 337 403
#
# _framework density 22.713791000000001
#
# number of rings (size 3 to 8) (size 9 to 14) (size 15 to 20)
#    0.000    0.750    6.250    1.500    1.750    3.500 
#    2.250    0.000    0.000    0.000    0.000    0.000 
#    0.000    0.000    0.000    0.000    0.000    0.000 
#
# Total GULP energy -198231.899669 kJ/mol
# GULP energy per Si atom -12389.493729 kJ/mol
# Density = 2.266209 g / cm^3
# Si number density = 22.713791 Si / 1000 Ang^3
#
#
#
# Elastic Constant Matrix: (Units=GPa)
#
#
# Indices 1 2 3 4 5 6 
#
# 1 112.5778 38.1264 12.5717 -4.6483 -3.5420 15.3754
# 2 38.1264 107.6209 18.0782 -19.4361 0.2616 -4.3772
# 3 12.5717 18.0782 60.2643 -11.8950 -10.1373 7.7610
# 4 -4.6483 -19.4361 -11.8950 23.8274 -1.1103 -3.1439
# 5 -3.5420 0.2616 -10.1373 -1.1103 41.2862 -3.2087
# 6 15.3754 -4.3772 7.7610 -3.1439 -3.2087 27.6226
#
#
#
# Elastic Compliance Matrix: (Units=1/GPa)
#
#
# Indices 1 2 3 4 5 6 
#
# 1 0.011445 -0.004781 -0.000547 -0.002889 0.000235 -0.007276
# 2 -0.004781 0.013345 -0.001926 0.009828 -0.000205 0.006412
# 3 -0.000547 -0.001926 0.020236 0.008094 0.004825 -0.004205
# 4 -0.002889 0.009828 0.008094 0.054631 0.003733 0.007543
# 5 0.000235 -0.000205 0.004825 0.003733 0.025674 0.001888
# 6 -0.007276 0.006412 -0.004205 0.007543 0.001888 0.043527
#
#
# Mechanical properties :
#
#
# Convention : Reuss Voigt Hill
#
# Bulk Modulus (GPa) = 32.76795 46.44618 39.60706
# Shear Modulus (GPa) = 25.83428 32.65969 29.24699
#
# Velocity S-wave (km/s) = 3.37617 3.79605 3.59225
# Velocity P-wave (km/s) = 5.44571 6.30128 5.88906
#
# Compressibility (1/GPa) = 0.03051763
#
# Stress axis : x y z
#
# Youngs Moduli (GPa) = 87.37621 74.93228 49.41596
#
# Poissons Ratio (x) = 0.35824 0.02704
# Poissons Ratio (y) = 0.41774 0.09520
# Poissons Ratio (z) = 0.04781 0.14435
#
# Static dielectric constant tensor:
#      x y z
#    x 4.213270 -0.106970 0.023600 
#    y -0.106970 3.915990 0.038880 
#    z 0.023600 0.038880 4.671260 
# 
# 
# High freq. dielectric constant tensor:
#      x y z
#    x 1.899530 -0.010390 -0.003900 
#    y -0.010390 1.883790 -0.003460 
#    z -0.003900 -0.003460 1.904040 
# 
# From -- ./inp_files/262193.got.cif
#   From: 2010.06.25/outbox.cif.g09.slc.cpg/sg2_132_cif.got.tgz:262193.got - 2010.06.27 13:26:56.
