data_PCOD8030054
_publ_section_title
;
Structure prediction by ZEFSAII (Michael W. Deem and Ramdas Pophale) SiO2 
 PCOD8030054
Probable space group: P -1
;
_chemical_formula_sum "Si O2"
_cell_formula_units_Z 14
_cell_length_a 22.836845
_cell_length_b 16.006558
_cell_length_c 9.421422
_cell_angle_alpha 34.829983
_cell_angle_beta 27.614470
_cell_angle_gamma 25.934480
_cell_volume 693.228693
_symmetry_space_group_name_H-M "P -1"
_symmetry_group_IT_number 2
_symmetry_cell_setting 'triclinic'
loop_
_space_group_symop_operation_xyz
x,y,z
-x,-y,-z
loop_
_atom_site_type_symbol
_atom_site_label
_atom_site_fract_x
_atom_site_fract_y
_atom_site_fract_z
Si Si1 0.537019 0.153433 0.863794
Si Si2 0.166381 0.848805 0.767386
Si Si3 0.336205 0.477455 0.065898
Si Si4 0.976505 0.077997 0.595563
Si Si5 0.399647 0.665915 0.870418
Si Si6 0.874232 0.467147 0.292616
Si Si7 0.613104 0.765335 0.220219
O O1 0.690502 0.142795 0.504223
O O2 0.393953 0.248030 0.917374
O O3 0.457027 0.272594 0.015076
O O4 0.604554 0.939422 0.045716
O O5 0.215551 0.642326 0.977635
O O6 0.124361 0.899721 0.621108
O O7 0.000000 0.000000 0.000000
O O8 0.243607 0.464240 0.412095
O O9 0.435194 0.545297 0.818968
O O10 0.992761 0.239925 0.331174
O O11 0.796028 0.176639 0.905914
O O12 0.000000 0.000000 0.500000
O O13 0.454909 0.792256 0.576039
O O14 0.500000 0.500000 0.000000
O O15 0.773752 0.571370 0.217381
O O16 0.000000 0.500000 0.000000
#
# Coordination Sequence:
#
# PCOD8030054 Si02
#       7
#     2   2   2   2   2   2   2
#     4  11  26  40  66  99 123 171 215 262 319 376
#     4  12  22  42  65  95 132 162 211 264 315 380
#     4  11  24  41  69  95 123 170 220 259 316 375
#     4  11  25  38  65  97 122 167 212 259 318 373
#     4  11  21  42  65  91 128 167 213 260 313 376
#     4  11  24  44  62  92 132 168 206 268 325 374
#     4  11  23  42  65  88 134 164 211 262 320 377
#
# _framework density 20.195354999999999
#
# number of rings (size 3 to 8) (size 9 to 14) (size 15 to 20)
#    0.000    0.857    7.143    1.286    4.000    1.714 
#    0.000    0.714    0.000    0.000    0.000    0.000 
#    0.000    0.000    0.000    0.000    0.000    0.000 
#
# Total GULP energy -173504.816642 kJ/mol
# GULP energy per Si atom -12393.201189 kJ/mol
# Density = 2.014939 g / cm^3
# Si number density = 20.195355 Si / 1000 Ang^3
#
#
#
# Elastic Constant Matrix: (Units=GPa)
#
#
# Indices 1 2 3 4 5 6 
#
# 1 126.3577 42.1902 30.2377 0.4418 6.7436 -5.8766
# 2 42.1902 65.1782 24.2606 -3.5505 10.0763 4.7931
# 3 30.2377 24.2606 97.5721 -15.9511 -15.3759 12.8514
# 4 0.4418 -3.5505 -15.9511 27.1555 -4.9166 6.2724
# 5 6.7436 10.0763 -15.3759 -4.9166 33.8220 -3.3265
# 6 -5.8766 4.7931 12.8514 6.2724 -3.3265 52.8114
#
#
#
# Elastic Compliance Matrix: (Units=1/GPa)
#
#
# Indices 1 2 3 4 5 6 
#
# 1 0.010955 -0.005956 -0.003286 -0.003952 -0.002194 0.002891
# 2 -0.005956 0.022332 -0.004848 -0.000834 -0.007979 -0.001913
# 3 -0.003286 -0.004848 0.016899 0.012473 0.011121 -0.004819
# 4 -0.003952 -0.000834 0.012473 0.048370 0.012919 -0.008330
# 5 -0.002194 -0.007979 0.011121 0.012919 0.039188 -0.001292
# 6 0.002891 -0.001913 -0.004819 -0.008330 -0.001292 0.021511
#
#
# Mechanical properties :
#
#
# Convention : Reuss Voigt Hill
#
# Bulk Modulus (GPa) = 45.44846 53.60944 49.52895
# Shear Modulus (GPa) = 25.67114 35.58576 30.62845
#
# Velocity S-wave (km/s) = 3.56917 4.20226 3.89859
# Velocity P-wave (km/s) = 6.28797 7.08155 6.69653
#
# Compressibility (1/GPa) = 0.02200295
#
# Stress axis : x y z
#
# Youngs Moduli (GPa) = 91.28547 44.77950 59.17465
#
# Poissons Ratio (x) = 0.26673 0.19447
# Poissons Ratio (y) = 0.54373 0.28690
# Poissons Ratio (z) = 0.30000 0.21711
#
# Static dielectric constant tensor:
#      x y z
#    x 2.511540 -3.215670 -2.438140 
#    y -3.215670 -1.014540 -4.689830 
#    z -2.438140 -4.689830 -0.184320 
# 
# 
# High freq. dielectric constant tensor:
#      x y z
#    x 1.804110 -0.017430 0.000800 
#    y -0.017430 1.783930 -0.020340 
#    z 0.000800 -0.020340 1.786120 
# 
# From -- ./inp_files/212899.got.cif
#   From: 2010.06.25/outbox.cif.g09.slc.cpg/sg2_107_cif.got.tgz:212899.got - 2010.06.27 13:26:56.
