data_PCOD8030328
_publ_section_title
;
Structure prediction by ZEFSAII (Michael W. Deem and Ramdas Pophale) SiO2 
 PCOD8030328
Probable space group: P -1
;
_chemical_formula_sum "Si O2"
_cell_formula_units_Z 16
_cell_length_a 12.198974
_cell_length_b 8.183091
_cell_length_c 23.896000
_cell_angle_alpha 64.958585
_cell_angle_beta 161.717921
_cell_angle_gamma 113.078269
_cell_volume 677.545790
_symmetry_space_group_name_H-M "P -1"
_symmetry_group_IT_number 2
_symmetry_cell_setting 'triclinic'
loop_
_space_group_symop_operation_xyz
x,y,z
-x,-y,-z
loop_
_atom_site_type_symbol
_atom_site_label
_atom_site_fract_x
_atom_site_fract_y
_atom_site_fract_z
Si Si1 0.117623 0.679206 0.182584
Si Si2 0.240641 0.052729 0.417718
Si Si3 0.765578 0.951626 0.782640
Si Si4 0.906994 0.441756 0.210978
Si Si5 0.124511 0.419757 0.445191
Si Si6 0.865968 0.414324 0.005064
Si Si7 0.891359 0.738772 0.344278
Si Si8 0.810889 0.171038 0.407769
O O1 0.521761 0.700228 0.358639
O O2 0.118404 0.580959 0.256800
O O3 0.914764 0.561309 0.056331
O O4 0.978896 0.889766 0.094087
O O5 0.028099 0.241849 0.277554
O O6 0.500000 0.000000 0.500000
O O7 0.476407 0.050236 0.588356
O O8 0.924032 0.917139 0.295782
O O9 0.585675 0.864319 0.762384
O O10 0.952777 0.783294 0.866003
O O11 0.015752 0.468407 0.323124
O O12 0.500000 0.500000 0.000000
O O13 0.193734 0.604872 0.484789
O O14 0.805160 0.319701 0.334602
O O15 0.465195 0.364791 0.818080
O O16 0.000000 0.500000 0.000000
O O17 0.960892 0.766212 0.438685
O O18 0.000000 0.000000 0.500000
#
# Coordination Sequence:
#
# PCOD8030328 Si02
#       8
#     2   2   2   2   2   2   2   2
#     4  12  25  47  71 106 145 195 246 289 363 445
#     4  11  24  48  74 104 143 192 250 299 364 444
#     4  11  25  45  75 103 143 196 240 295 362 439
#     4  12  27  45  70 109 144 186 244 310 365 427
#     4  12  22  44  74 100 142 187 242 300 360 438
#     4  12  27  48  69 110 156 187 236 303 370 434
#     4  11  25  42  71 108 140 188 235 308 368 422
#     4  11  21  44  70 104 137 182 246 291 357 438
#
# _framework density 23.614640000000001
#
# number of rings (size 3 to 8) (size 9 to 14) (size 15 to 20)
#    0.000    0.500    2.500    6.750    3.500    0.500 
#    2.250    1.875    0.000    0.000    0.000    0.000 
#    0.000    0.000    0.000    0.000    0.000    0.000 
#
# Total GULP energy -198276.562828 kJ/mol
# GULP energy per Si atom -12392.285177 kJ/mol
# Density = 2.356089 g / cm^3
# Si number density = 23.614640 Si / 1000 Ang^3
#
#
#
# Elastic Constant Matrix: (Units=GPa)
#
#
# Indices 1 2 3 4 5 6 
#
# 1 150.3173 62.5559 27.2003 16.8067 -8.0033 1.6803
# 2 62.5559 173.6295 44.9300 11.7605 0.4910 -9.8194
# 3 27.2003 44.9300 73.0994 0.9171 2.4552 -12.6951
# 4 16.8067 11.7605 0.9171 43.2298 -6.6723 6.5798
# 5 -8.0033 0.4910 2.4552 -6.6723 33.8654 3.5119
# 6 1.6803 -9.8194 -12.6951 6.5798 3.5119 58.4878
#
#
#
# Elastic Compliance Matrix: (Units=1/GPa)
#
#
# Indices 1 2 3 4 5 6 
#
# 1 0.008342 -0.002456 -0.001787 -0.002118 0.001814 -0.000910
# 2 -0.002456 0.007725 -0.003659 -0.001303 -0.000763 0.000766
# 3 -0.001787 -0.003659 0.017208 0.000550 -0.001842 0.003221
# 4 -0.002118 -0.001303 0.000550 0.025533 0.004841 -0.003202
# 5 0.001814 -0.000763 -0.001842 0.004841 0.031368 -0.003008
# 6 -0.000910 0.000766 0.003221 -0.003202 -0.003008 0.018492
#
#
# Mechanical properties :
#
#
# Convention : Reuss Voigt Hill
#
# Bulk Modulus (GPa) = 57.23846 74.04651 65.64249
# Shear Modulus (GPa) = 38.37429 44.60725 41.49077
#
# Velocity S-wave (km/s) = 4.03553 4.35094 4.19620
# Velocity P-wave (km/s) = 6.78271 7.52763 7.16486
#
# Compressibility (1/GPa) = 0.01747077
#
# Stress axis : x y z
#
# Youngs Moduli (GPa) = 119.88045 129.45120 58.11164
#
# Poissons Ratio (x) = 0.31795 0.10383
# Poissons Ratio (y) = 0.29444 0.21264
# Poissons Ratio (z) = 0.21419 0.47368
#
# Static dielectric constant tensor:
#      x y z
#    x 4.591550 -0.331480 0.059570 
#    y -0.331480 4.277750 -0.366740 
#    z 0.059570 -0.366740 3.692140 
# 
# 
# High freq. dielectric constant tensor:
#      x y z
#    x 1.953400 -0.004440 0.012950 
#    y -0.004440 1.965110 -0.002000 
#    z 0.012950 -0.002000 1.911850 
# 
# From -- ./inp_files/610004.got.cif
#   From: 2010.06.25/outbox.cif.g09.slc.cpg/sg2_306_cif.got.tgz:610004.got - 2010.06.27 13:26:56.
