data_PCOD8030304
_publ_section_title
;
Structure prediction by ZEFSAII (Michael W. Deem and Ramdas Pophale) SiO2 
 PCOD8030304
Probable space group: P -1
;
_chemical_formula_sum "Si O2"
_cell_formula_units_Z 16
_cell_length_a 9.642672
_cell_length_b 9.525300
_cell_length_c 11.734489
_cell_angle_alpha 81.584560
_cell_angle_beta 127.396364
_cell_angle_gamma 115.440489
_cell_volume 763.316520
_symmetry_space_group_name_H-M "P -1"
_symmetry_group_IT_number 2
_symmetry_cell_setting 'triclinic'
loop_
_space_group_symop_operation_xyz
x,y,z
-x,-y,-z
loop_
_atom_site_type_symbol
_atom_site_label
_atom_site_fract_x
_atom_site_fract_y
_atom_site_fract_z
Si Si1 0.338475 0.469543 0.518376
Si Si2 0.389114 0.820997 0.154837
Si Si3 0.858823 0.363697 0.740708
Si Si4 0.488711 0.597626 0.822877
Si Si5 0.283964 0.970967 0.381595
Si Si6 0.227965 0.064049 0.109623
Si Si7 0.788023 0.888242 0.448010
Si Si8 0.709743 0.418980 0.050821
O O1 0.500000 0.500000 0.500000
O O2 0.184444 0.522225 0.379634
O O3 0.419150 0.572978 0.660551
O O4 0.233822 0.287556 0.523536
O O5 0.290602 0.691255 0.221149
O O6 0.621138 0.892251 0.281152
O O7 0.308369 0.951731 0.101825
O O8 0.331082 0.746891 0.008885
O O9 0.851511 0.212633 0.687271
O O10 0.073689 0.456802 0.885596
O O11 0.671658 0.764384 0.915685
O O12 0.320503 0.593341 0.825823
O O13 0.553152 0.464097 0.906278
O O14 0.500000 0.000000 0.500000
O O15 0.284400 0.082609 0.266894
O O16 0.212376 0.030734 0.444637
O O17 0.000000 0.000000 0.000000
O O18 0.000000 0.000000 0.500000
#
# Coordination Sequence:
#
# PCOD8030304 Si02
#       8
#     2   2   2   2   2   2   2   2
#     4  12  23  44  69  99 131 174 234 280 328 407
#     4  11  23  45  67  98 139 182 225 285 343 409
#     4  11  23  40  73  96 128 180 230 273 339 406
#     4  11  24  42  65  95 137 181 226 278 341 402
#     4  11  21  44  68  94 136 180 224 281 341 402
#     4  11  24  41  70 100 130 179 235 277 341 418
#     4  12  26  41  69 104 137 178 225 290 350 397
#     4  11  25  43  65  94 142 179 221 280 346 409
#
# _framework density 20.961161000000001
#
# number of rings (size 3 to 8) (size 9 to 14) (size 15 to 20)
#    0.000    0.750    5.000    3.375    1.750    5.000 
#    0.000    0.000    0.000    0.000    0.000    0.000 
#    0.000    0.000    0.000    0.000    0.000    0.000 
#
# Total GULP energy -198405.792130 kJ/mol
# GULP energy per Si atom -12400.362008 kJ/mol
# Density = 2.091345 g / cm^3
# Si number density = 20.961161 Si / 1000 Ang^3
#
#
#
# Elastic Constant Matrix: (Units=GPa)
#
#
# Indices 1 2 3 4 5 6 
#
# 1 111.5296 43.3722 44.4063 19.2045 -8.6500 0.8982
# 2 43.3722 107.1323 14.0863 14.7897 -1.0719 -1.7319
# 3 44.4063 14.0863 89.0387 15.8800 -9.3396 -4.2785
# 4 19.2045 14.7897 15.8800 38.7413 -2.9529 2.0879
# 5 -8.6500 -1.0719 -9.3396 -2.9529 42.2189 11.5555
# 6 0.8982 -1.7319 -4.2785 2.0879 11.5555 37.3999
#
#
#
# Elastic Compliance Matrix: (Units=1/GPa)
#
#
# Indices 1 2 3 4 5 6 
#
# 1 0.013412 -0.004372 -0.005442 -0.002540 0.001672 -0.001522
# 2 -0.004372 0.011371 0.000810 -0.002639 -0.000930 0.001159
# 3 -0.005442 0.000810 0.014691 -0.003608 0.001466 0.001597
# 4 -0.002540 -0.002639 -0.003608 0.029803 0.001403 -0.002571
# 5 0.001672 -0.000930 0.001466 0.001403 0.026682 -0.008238
# 6 -0.001522 0.001159 0.001597 -0.002571 -0.008238 0.029700
#
#
# Mechanical properties :
#
#
# Convention : Reuss Voigt Hill
#
# Bulk Modulus (GPa) = 46.58275 56.82557 51.70416
# Shear Modulus (GPa) = 33.15135 37.39442 35.27288
#
# Velocity S-wave (km/s) = 3.98120 4.22831 4.10661
# Velocity P-wave (km/s) = 6.58824 7.14191 6.87065
#
# Compressibility (1/GPa) = 0.02146718
#
# Stress axis : x y z
#
# Youngs Moduli (GPa) = 74.55756 87.94002 68.06827
#
# Poissons Ratio (x) = 0.38445 0.37046
# Poissons Ratio (y) = 0.32594 -0.05515
# Poissons Ratio (z) = 0.40577 -0.07125
#
# Static dielectric constant tensor:
#      x y z
#    x 3.763420 -0.172260 -0.165080 
#    y -0.172260 3.494690 -0.287370 
#    z -0.165080 -0.287370 3.634180 
# 
# 
# High freq. dielectric constant tensor:
#      x y z
#    x 1.826160 -0.009440 -0.002460 
#    y -0.009440 1.826210 0.008310 
#    z -0.002460 0.008310 1.825150 
# 
# From -- ./inp_files/189065.got.cif
#   From: 2010.06.25/outbox.cif.g09.slc.cpg/sg2_95_cif.got.tgz:189065.got - 2010.06.27 13:26:56.
