data_PCOD8030763
_publ_section_title
;
Structure prediction by ZEFSAII (Michael W. Deem and Ramdas Pophale) SiO2 
 PCOD8030763
Probable space group: P -1
;
_chemical_formula_sum "Si O2"
_cell_formula_units_Z 16
_cell_length_a 9.059282
_cell_length_b 12.615847
_cell_length_c 18.839394
_cell_angle_alpha 28.105916
_cell_angle_beta 44.458497
_cell_angle_gamma 43.173348
_cell_volume 677.245139
_symmetry_space_group_name_H-M "P -1"
_symmetry_group_IT_number 2
_symmetry_cell_setting 'triclinic'
loop_
_space_group_symop_operation_xyz
x,y,z
-x,-y,-z
loop_
_atom_site_type_symbol
_atom_site_label
_atom_site_fract_x
_atom_site_fract_y
_atom_site_fract_z
Si Si1 0.140516 0.924068 0.796161
Si Si2 0.332321 0.174557 0.685971
Si Si3 0.884875 0.546095 0.118882
Si Si4 0.173261 0.122778 0.337780
Si Si5 0.577958 0.585832 0.847794
Si Si6 0.435760 0.683982 0.123336
Si Si7 0.231645 0.649401 0.360990
Si Si8 0.627800 0.784582 0.193763
O O1 0.376328 0.788840 0.759811
O O2 0.207958 0.985717 0.816641
O O3 0.013301 0.164903 0.656973
O O4 0.992960 0.751732 0.949793
O O5 0.232793 0.397691 0.537895
O O6 0.268998 0.250809 0.742803
O O7 0.598886 0.068905 0.650281
O O8 0.700915 0.561075 0.112838
O O9 0.774700 0.578072 0.215603
O O10 0.063581 0.284841 0.211298
O O11 0.222890 0.304091 0.271442
O O12 0.000000 0.000000 0.500000
O O13 0.647891 0.378612 0.887466
O O14 0.500000 0.500000 0.000000
O O15 0.304990 0.612252 0.275269
O O16 0.381416 0.963689 0.983762
O O17 0.384760 0.756275 0.294311
#
# Coordination Sequence:
#
# PCOD8030763 Si02
#       8
#     2   2   2   2   2   2   2   2
#     4  11  22  42  65  98 134 173 225 279 326 395
#     4  11  26  42  67  95 139 176 221 279 333 390
#     4  11  22  41  68 101 133 173 230 270 331 401
#     4  11  24  45  67  95 139 176 216 275 342 401
#     4  11  24  43  67 102 136 167 226 282 326 394
#     4  11  22  41  70  96 131 176 221 277 330 394
#     4  11  22  45  63  96 135 177 222 271 333 399
#     4  11  22  40  67 100 131 175 226 276 326 393
#
# _framework density 23.625122999999999
#
# number of rings (size 3 to 8) (size 9 to 14) (size 15 to 20)
#    0.000    1.000    3.750    4.500    0.000    3.000 
#    0.000    8.125    0.000    0.000    0.000    0.000 
#    0.000    0.000    0.000    0.000    0.000    0.000 
#
# Total GULP energy -198353.747748 kJ/mol
# GULP energy per Si atom -12397.109234 kJ/mol
# Density = 2.357135 g / cm^3
# Si number density = 23.625123 Si / 1000 Ang^3
#
#
#
# Elastic Constant Matrix: (Units=GPa)
#
#
# Indices 1 2 3 4 5 6 
#
# 1 63.8327 5.0706 32.1415 -5.8715 -8.2770 -3.1652
# 2 5.0706 35.1588 10.8121 -19.7531 10.1675 -4.3523
# 3 32.1415 10.8121 99.1224 -13.7631 4.8844 -3.5959
# 4 -5.8715 -19.7531 -13.7631 25.9028 -5.2333 10.4149
# 5 -8.2770 10.1675 4.8844 -5.2333 46.5268 -8.8753
# 6 -3.1652 -4.3523 -3.5959 10.4149 -8.8753 59.1159
#
#
#
# Elastic Compliance Matrix: (Units=1/GPa)
#
#
# Indices 1 2 3 4 5 6 
#
# 1 0.019735 -0.002210 -0.006369 -0.000116 0.004890 0.001261
# 2 -0.002210 0.053217 0.000804 0.040650 -0.008408 -0.004575
# 3 -0.006369 0.000804 0.012971 0.005974 -0.002165 -0.000870
# 4 -0.000116 0.040650 0.005974 0.076400 -0.002951 -0.010553
# 5 0.004890 -0.008408 -0.002165 -0.002951 0.024812 0.003756
# 6 0.001261 -0.004575 -0.000870 -0.010553 0.003756 0.019017
#
#
# Mechanical properties :
#
#
# Convention : Reuss Voigt Hill
#
# Bulk Modulus (GPa) = 14.21024 32.68468 23.44746
# Shear Modulus (GPa) = 20.39496 36.31509 28.35502
#
# Velocity S-wave (km/s) = 2.94134 3.92489 3.46816
# Velocity P-wave (km/s) = 4.19085 5.86553 5.09743
#
# Compressibility (1/GPa) = 0.07037178
#
# Stress axis : x y z
#
# Youngs Moduli (GPa) = 50.67244 18.79102 77.09687
#
# Poissons Ratio (x) = 0.04153 0.49105
# Poissons Ratio (y) = 0.11200 -0.06202
# Poissons Ratio (z) = 0.32275 -0.01512
#
# Static dielectric constant tensor:
#      x y z
#    x 4.631580 -0.284060 -0.043720 
#    y -0.284060 4.181330 -0.326460 
#    z -0.043720 -0.326460 4.063570 
# 
# 
# High freq. dielectric constant tensor:
#      x y z
#    x 1.957110 -0.011550 -0.006730 
#    y -0.011550 1.921930 -0.025590 
#    z -0.006730 -0.025590 1.921680 
# 
# From -- ./inp_files/559500.got.cif
#   From: 2010.06.25/outbox.cif.g09.slc.cpg/sg2_280_cif.got.tgz:559500.got - 2010.06.27 13:26:56.
