data_PCOD8030940
_publ_section_title
;
Structure prediction by ZEFSAII (Michael W. Deem and Ramdas Pophale) SiO2 
 PCOD8030940
Probable space group: P -1
;
_chemical_formula_sum "Si O2"
_cell_formula_units_Z 16
_cell_length_a 8.624330
_cell_length_b 14.454627
_cell_length_c 12.080269
_cell_angle_alpha 128.482518
_cell_angle_beta 128.556791
_cell_angle_gamma 36.444380
_cell_volume 675.464522
_symmetry_space_group_name_H-M "P -1"
_symmetry_group_IT_number 2
_symmetry_cell_setting 'triclinic'
loop_
_space_group_symop_operation_xyz
x,y,z
-x,-y,-z
loop_
_atom_site_type_symbol
_atom_site_label
_atom_site_fract_x
_atom_site_fract_y
_atom_site_fract_z
Si Si1 0.828677 0.777289 0.998004
Si Si2 0.420311 0.786381 0.064534
Si Si3 0.980120 0.455719 0.801797
Si Si4 0.307303 0.738528 0.215876
Si Si5 0.598148 0.971004 0.838641
Si Si6 0.810438 0.524178 0.530006
Si Si7 0.682892 0.116716 0.471408
Si Si8 0.526238 0.446239 0.235963
O O1 0.961015 0.596734 0.946116
O O2 0.796601 0.801712 0.866856
O O3 0.550429 0.899006 0.030616
O O4 0.003230 0.814869 0.150388
O O5 0.359929 0.740542 0.113749
O O6 0.252074 0.978405 0.118273
O O7 0.731282 0.707032 0.148426
O O8 0.363534 0.720801 0.888976
O O9 0.972022 0.462288 0.670204
O O10 0.752640 0.461519 0.753277
O O11 0.348048 0.842548 0.381250
O O12 0.498072 0.555639 0.208003
O O13 0.416346 0.974323 0.671257
O O14 0.517534 0.709014 0.549961
O O15 0.748697 0.410809 0.392005
O O16 0.000000 0.500000 0.500000
O O17 0.000000 0.000000 0.500000
#
# Coordination Sequence:
#
# PCOD8030940 Si02
#       8
#     2   2   2   2   2   2   2   2
#     4  11  22  41  68  93 131 175 228 275 336 404
#     4  12  25  40  68 102 135 172 229 286 343 392
#     4  12  22  42  69 102 131 182 231 275 327 415
#     4  11  24  41  65  97 132 179 223 283 338 393
#     4  11  24  43  65  96 134 174 222 284 336 409
#     4  11  26  45  69 105 138 177 225 288 342 392
#     4  11  23  43  71  94 137 185 222 268 345 416
#     4  11  23  41  68  99 132 176 231 278 333 404
#
# _framework density 23.687401999999999
#
# number of rings (size 3 to 8) (size 9 to 14) (size 15 to 20)
#    0.000    0.750    5.000    3.375    3.500    1.000 
#    0.000    0.000    0.000    0.000    0.000    0.000 
#    0.000    0.000    0.000    0.000    0.000    0.000 
#
# Total GULP energy -198329.043857 kJ/mol
# GULP energy per Si atom -12395.565241 kJ/mol
# Density = 2.363349 g / cm^3
# Si number density = 23.687402 Si / 1000 Ang^3
#
#
#
# Elastic Constant Matrix: (Units=GPa)
#
#
# Indices 1 2 3 4 5 6 
#
# 1 78.4145 -0.3284 19.6383 16.3870 7.1792 17.5492
# 2 -0.3284 56.9125 -0.1982 8.4169 4.9545 9.3266
# 3 19.6383 -0.1982 136.5148 14.9576 15.2489 9.2074
# 4 16.3870 8.4169 14.9576 27.8380 6.8296 3.5155
# 5 7.1792 4.9545 15.2489 6.8296 35.9042 1.7212
# 6 17.5492 9.3266 9.2074 3.5155 1.7212 31.9394
#
#
#
# Elastic Compliance Matrix: (Units=1/GPa)
#
#
# Indices 1 2 3 4 5 6 
#
# 1 0.016954 0.003017 -0.000687 -0.009061 -0.001363 -0.008927
# 2 0.003017 0.019943 0.001065 -0.006979 -0.002149 -0.006904
# 3 -0.000687 0.001065 0.008231 -0.003437 -0.002766 -0.001779
# 4 -0.009061 -0.006979 -0.003437 0.045952 -0.004660 0.003201
# 5 -0.001363 -0.002149 -0.002766 -0.004660 0.030432 0.001047
# 6 -0.008927 -0.006904 -0.001779 0.003201 0.001047 0.038335
#
#
# Mechanical properties :
#
#
# Convention : Reuss Voigt Hill
#
# Bulk Modulus (GPa) = 19.26115 34.45169 26.85642
# Shear Modulus (GPa) = 29.34925 35.98500 32.66712
#
# Velocity S-wave (km/s) = 3.52380 3.90187 3.71764
# Velocity P-wave (km/s) = 4.97043 5.90554 5.45805
#
# Compressibility (1/GPa) = 0.05191798
#
# Stress axis : x y z
#
# Youngs Moduli (GPa) = 58.98358 50.14381 121.48898
#
# Poissons Ratio (x) = -0.15129 0.08351
# Poissons Ratio (y) = -0.17796 -0.12943
# Poissons Ratio (z) = 0.04054 -0.05342
#
# Static dielectric constant tensor:
#      x y z
#    x 4.222740 0.113100 0.099010 
#    y 0.113100 4.224790 -0.110960 
#    z 0.099010 -0.110960 4.584590 
# 
# 
# High freq. dielectric constant tensor:
#      x y z
#    x 1.931690 0.007440 0.007460 
#    y 0.007440 1.920350 -0.005910 
#    z 0.007460 -0.005910 1.958050 
# 
# From -- ./inp_files/259396.got.cif
#   From: 2010.06.25/outbox.cif.g09.slc.cpg/sg2_130_cif.got.tgz:259396.got - 2010.06.27 13:26:56.
