data_PCOD8030028
_publ_section_title
;
Structure prediction by ZEFSAII (Michael W. Deem and Ramdas Pophale) SiO2 
 PCOD8030028
Probable space group: P -1
;
_chemical_formula_sum "Si O2"
_cell_formula_units_Z 16
_cell_length_a 7.938051
_cell_length_b 11.184445
_cell_length_c 13.678696
_cell_angle_alpha 42.574324
_cell_angle_beta 57.331694
_cell_angle_gamma 60.636480
_cell_volume 682.391181
_symmetry_space_group_name_H-M "P -1"
_symmetry_group_IT_number 2
_symmetry_cell_setting 'triclinic'
loop_
_space_group_symop_operation_xyz
x,y,z
-x,-y,-z
loop_
_atom_site_type_symbol
_atom_site_label
_atom_site_fract_x
_atom_site_fract_y
_atom_site_fract_z
Si Si1 0.187000 0.866239 0.563291
Si Si2 0.708698 0.592675 0.952156
Si Si3 0.399535 0.489523 0.249049
Si Si4 0.003761 0.746983 0.881217
Si Si5 0.561496 0.836818 0.681749
Si Si6 0.985901 0.700673 0.203552
Si Si7 0.852882 0.038703 0.151125
Si Si8 0.358029 0.514124 0.629893
O O1 0.131250 0.749151 0.741058
O O2 0.266964 0.724553 0.539083
O O3 0.351440 0.984311 0.478683
O O4 0.000000 0.000000 0.500000
O O5 0.487727 0.561340 0.076527
O O6 0.869057 0.409855 0.996980
O O7 0.712226 0.702176 0.785328
O O8 0.783045 0.706309 0.949843
O O9 0.449951 0.272465 0.350905
O O10 0.507257 0.546849 0.278772
O O11 0.157293 0.556285 0.289273
O O12 0.977948 0.934310 0.835731
O O13 0.357593 0.886589 0.776309
O O14 0.821619 0.606572 0.252430
O O15 0.862412 0.830698 0.246056
O O16 0.107372 0.834738 0.026944
O O17 0.500000 0.500000 0.500000
#
# Coordination Sequence:
#
# PCOD8030028 Si02
#       8
#     2   2   2   2   2   2   2   2
#     4  12  25  42  66 106 137 178 227 291 344 404
#     4  11  21  41  71 107 132 177 227 290 344 407
#     4  12  24  45  75 102 132 185 239 279 345 412
#     4  11  23  40  71 101 141 176 231 287 345 406
#     4  12  23  41  73 102 138 172 230 292 344 401
#     4  11  26  45  69 100 141 184 231 286 340 418
#     4  11  23  43  66 103 139 173 231 292 342 399
#     4  12  28  49  68  96 145 190 229 275 352 422
#
# _framework density 23.446961999999999
#
# number of rings (size 3 to 8) (size 9 to 14) (size 15 to 20)
#    0.000    0.500    5.000    3.375    1.750    4.500 
#    2.250    1.875    0.000    0.000    0.000    0.000 
#    0.000    0.000    0.000    0.000    0.000    0.000 
#
# Total GULP energy -198335.317926 kJ/mol
# GULP energy per Si atom -12395.957370 kJ/mol
# Density = 2.339360 g / cm^3
# Si number density = 23.446962 Si / 1000 Ang^3
#
#
#
# Elastic Constant Matrix: (Units=GPa)
#
#
# Indices 1 2 3 4 5 6 
#
# 1 106.9611 44.8582 -0.5687 -24.8388 -14.2094 9.9076
# 2 44.8582 155.8296 22.9130 -15.5902 -9.4443 15.7134
# 3 -0.5687 22.9130 64.9383 -15.4266 -4.7140 -7.9051
# 4 -24.8388 -15.5902 -15.4266 31.1372 10.8238 -7.1827
# 5 -14.2094 -9.4443 -4.7140 10.8238 38.3266 -8.7902
# 6 9.9076 15.7134 -7.9051 -7.1827 -8.7902 39.8511
#
#
#
# Elastic Compliance Matrix: (Units=1/GPa)
#
#
# Indices 1 2 3 4 5 6 
#
# 1 0.013418 -0.003406 0.004130 0.010652 0.001902 0.001166
# 2 -0.003406 0.008136 -0.003582 -0.001134 -0.000137 -0.003306
# 3 0.004130 -0.003582 0.020739 0.013013 0.001152 0.007099
# 4 0.010652 -0.001134 0.013013 0.050852 -0.007269 0.007942
# 5 0.001902 -0.000137 0.001152 -0.007269 0.030138 0.005147
# 6 0.001166 -0.003306 0.007099 0.007942 0.005147 0.030082
#
#
# Mechanical properties :
#
#
# Convention : Reuss Voigt Hill
#
# Bulk Modulus (GPa) = 27.34081 51.34820 39.34451
# Shear Modulus (GPa) = 29.19284 39.23142 34.21213
#
# Velocity S-wave (km/s) = 3.53237 4.09491 3.82400
# Velocity P-wave (km/s) = 5.32192 6.65620 6.02610
#
# Compressibility (1/GPa) = 0.03657536
#
# Stress axis : x y z
#
# Youngs Moduli (GPa) = 74.52562 122.90548 48.21937
#
# Poissons Ratio (x) = 0.41868 -0.19915
# Poissons Ratio (y) = 0.25387 0.17274
# Poissons Ratio (z) = -0.30779 0.44030
#
# Static dielectric constant tensor:
#      x y z
#    x 4.628100 0.362690 -0.182690 
#    y 0.362690 4.418600 -0.118270 
#    z -0.182690 -0.118270 4.182830 
# 
# 
# High freq. dielectric constant tensor:
#      x y z
#    x 1.944570 0.014860 -0.009120 
#    y 0.014860 1.924750 -0.006010 
#    z -0.009120 -0.006010 1.922850 
# 
# From -- ./inp_files/499856.got.cif
#   From: 2010.06.25/outbox.cif.g09.slc.cpg/sg2_250_cif.got.tgz:499856.got - 2010.06.27 13:26:56.
