data_PCOD8030038
_publ_section_title
;
Structure prediction by ZEFSAII (Michael W. Deem and Ramdas Pophale) SiO2 
 PCOD8030038
Probable space group: P -1
;
_chemical_formula_sum "Si O2"
_cell_formula_units_Z 16
_cell_length_a 18.726818
_cell_length_b 21.579116
_cell_length_c 9.086687
_cell_angle_alpha 53.310546
_cell_angle_beta 44.583516
_cell_angle_gamma 18.269029
_cell_volume 754.352387
_symmetry_space_group_name_H-M "P -1"
_symmetry_group_IT_number 2
_symmetry_cell_setting 'triclinic'
loop_
_space_group_symop_operation_xyz
x,y,z
-x,-y,-z
loop_
_atom_site_type_symbol
_atom_site_label
_atom_site_fract_x
_atom_site_fract_y
_atom_site_fract_z
Si Si1 0.633087 0.476682 0.752604
Si Si2 0.513845 0.001605 0.206066
Si Si3 0.769291 0.965638 0.008201
Si Si4 0.793044 0.929219 0.357781
Si Si5 0.556125 0.234571 0.461787
Si Si6 0.268215 0.859866 0.354735
Si Si7 0.675926 0.440425 0.402311
Si Si8 0.060649 0.366809 0.113910
O O1 0.418936 0.701422 0.753496
O O2 0.684934 0.415318 0.596563
O O3 0.924095 0.292867 0.661062
O O4 0.500000 0.500000 0.000000
O O5 0.395660 0.013502 0.455303
O O6 0.285556 0.193409 0.155684
O O7 0.561353 0.040460 0.189992
O O8 0.803691 0.767830 0.039147
O O9 0.017333 0.775792 0.802007
O O10 0.646896 0.134239 0.895140
O O11 0.861388 0.909617 0.121139
O O12 0.623062 0.116072 0.426470
O O13 0.767397 0.081508 0.509023
O O14 0.233482 0.465274 0.660494
O O15 0.543136 0.615070 0.306984
O O16 0.000000 0.000000 0.500000
O O17 0.500000 0.500000 0.500000
O O18 0.000000 0.500000 0.000000
#
# Coordination Sequence:
#
# PCOD8030038 Si02
#       8
#     2   2   2   2   2   2   2   2
#     4  11  25  44  69 100 132 176 226 280 339 396
#     4  11  24  42  70 100 133 174 227 278 334 403
#     4  12  26  44  66  99 137 182 221 272 340 399
#     4  12  26  44  67  99 140 177 222 278 336 404
#     4  11  24  45  69 101 133 175 225 278 337 399
#     4  11  24  43  69  98 130 173 228 276 330 399
#     4  11  23  44  70  94 133 177 225 277 330 401
#     4  11  21  41  74 100 130 173 224 278 335 398
#
# _framework density 21.210246000000001
#
# number of rings (size 3 to 8) (size 9 to 14) (size 15 to 20)
#    0.000    0.750    3.750    4.125    5.250    2.500 
#    0.000    0.625    0.000    0.000    0.000    0.000 
#    0.000    0.000    0.000    0.000    0.000    0.000 
#
# Total GULP energy -198378.167169 kJ/mol
# GULP energy per Si atom -12398.635448 kJ/mol
# Density = 2.116197 g / cm^3
# Si number density = 21.210246 Si / 1000 Ang^3
#
#
#
# Elastic Constant Matrix: (Units=GPa)
#
#
# Indices 1 2 3 4 5 6 
#
# 1 135.6557 40.4199 52.7667 -19.3498 -3.8996 -8.9486
# 2 40.4199 101.2636 46.6336 -23.6106 10.5168 -0.9141
# 3 52.7667 46.6336 108.9353 -23.9905 2.6887 0.7036
# 4 -19.3498 -23.6106 -23.9905 42.9318 -0.9133 -5.3965
# 5 -3.8996 10.5168 2.6887 -0.9133 38.4067 -6.3465
# 6 -8.9486 -0.9141 0.7036 -5.3965 -6.3465 34.8457
#
#
#
# Elastic Compliance Matrix: (Units=1/GPa)
#
#
# Indices 1 2 3 4 5 6 
#
# 1 0.009943 -0.002121 -0.003600 0.001768 0.002427 0.003286
# 2 -0.002121 0.013917 -0.003858 0.004454 -0.003663 -0.000079
# 3 -0.003600 -0.003858 0.013387 0.003631 -0.000290 -0.000786
# 4 0.001768 0.004454 0.003631 0.029210 0.000237 0.005064
# 5 0.002427 -0.003663 -0.000290 0.000237 0.028257 0.005716
# 6 0.003286 -0.000079 -0.000786 0.005064 0.005716 0.031381
#
#
# Mechanical properties :
#
#
# Convention : Reuss Voigt Hill
#
# Bulk Modulus (GPa) = 55.28567 69.49945 62.39256
# Shear Modulus (GPa) = 33.05070 36.97246 35.01158
#
# Velocity S-wave (km/s) = 3.95174 4.17962 4.06728
# Velocity P-wave (km/s) = 6.85155 7.49202 7.17893
#
# Compressibility (1/GPa) = 0.01808787
#
# Stress axis : x y z
#
# Youngs Moduli (GPa) = 100.57762 71.85506 74.69843
#
# Poissons Ratio (x) = 0.15241 0.26890
# Poissons Ratio (y) = 0.21333 0.28822
# Poissons Ratio (z) = 0.36206 0.27725
#
# Static dielectric constant tensor:
#      x y z
#    x 4.030210 0.097490 -0.125070 
#    y 0.097490 4.066700 -0.138230 
#    z -0.125070 -0.138230 3.721380 
# 
# 
# High freq. dielectric constant tensor:
#      x y z
#    x 1.846530 0.002010 -0.013420 
#    y 0.002010 1.846390 -0.014090 
#    z -0.013420 -0.014090 1.824130 
# 
# From -- ./inp_files/337669.got.cif
#   From: 2010.06.25/outbox.cif.g09.slc.cpg/sg2_169_cif.got.tgz:337669.got - 2010.06.27 13:26:56.
