data_PCOD8030636
_publ_section_title
;
Structure prediction by ZEFSAII (Michael W. Deem and Ramdas Pophale) SiO2 
 PCOD8030636
Probable space group: P -1
;
_chemical_formula_sum "Si O2"
_cell_formula_units_Z 16
_cell_length_a 9.092252
_cell_length_b 13.281549
_cell_length_c 14.969257
_cell_angle_alpha 41.005954
_cell_angle_beta 39.296321
_cell_angle_gamma 49.744110
_cell_volume 742.721198
_symmetry_space_group_name_H-M "P -1"
_symmetry_group_IT_number 2
_symmetry_cell_setting 'triclinic'
loop_
_space_group_symop_operation_xyz
x,y,z
-x,-y,-z
loop_
_atom_site_type_symbol
_atom_site_label
_atom_site_fract_x
_atom_site_fract_y
_atom_site_fract_z
Si Si1 0.843019 0.218835 0.484028
Si Si2 0.984412 0.797017 0.066447
Si Si3 0.880977 0.317506 0.592613
Si Si4 0.336733 0.195679 0.523101
Si Si5 0.290226 0.862993 0.042525
Si Si6 0.181671 0.118211 0.245535
Si Si7 0.180866 0.876639 0.746977
Si Si8 0.642952 0.637074 0.426820
O O1 0.940809 0.228084 0.531044
O O2 0.620898 0.356947 0.490014
O O3 0.037319 0.237715 0.304351
O O4 0.764610 0.050180 0.620255
O O5 0.828471 0.658813 0.246786
O O6 0.166672 0.789412 0.067552
O O7 0.127798 0.766544 0.927327
O O8 0.803178 0.954868 0.034277
O O9 0.765509 0.211247 0.787552
O O10 0.711982 0.478830 0.553899
O O11 0.141699 0.340575 0.487590
O O12 0.583948 0.206744 0.354343
O O13 0.364155 0.213034 0.604760
O O14 0.228319 0.039866 0.656899
O O15 0.571184 0.825622 0.926874
O O16 0.033992 0.107757 0.231423
#
# Coordination Sequence:
#
# PCOD8030636 Si02
#       8
#     2   2   2   2   2   2   2   2
#     4  11  24  41  64  96 124 172 212 253 314 375
#     4  11  22  39  64  98 122 162 214 264 310 363
#     4  12  25  43  65  93 129 172 209 252 318 379
#     4  11  22  41  66  93 124 167 212 257 312 372
#     4  11  23  40  64  96 127 161 214 262 309 372
#     4  11  23  40  66  95 130 162 210 266 313 364
#     4  11  23  39  67  97 127 160 211 268 313 363
#     4  12  24  44  65  90 133 168 209 259 311 380
#
# _framework density 21.542403
#
# number of rings (size 3 to 8) (size 9 to 14) (size 15 to 20)
#    0.000    0.750    6.250    1.500    3.500    1.000 
#    0.000    2.500    0.000    0.000    0.000    0.000 
#    0.000    0.000    0.000    0.000    0.000    0.000 
#
# Total GULP energy -198382.648218 kJ/mol
# GULP energy per Si atom -12398.915514 kJ/mol
# Density = 2.149337 g / cm^3
# Si number density = 21.542403 Si / 1000 Ang^3
#
#
#
# Elastic Constant Matrix: (Units=GPa)
#
#
# Indices 1 2 3 4 5 6 
#
# 1 86.5671 4.9025 44.7314 13.1672 4.2761 -7.2848
# 2 4.9025 38.8473 29.8403 13.2435 -1.0452 -13.9921
# 3 44.7314 29.8403 116.5334 26.1222 5.2862 -5.9185
# 4 13.1672 13.2435 26.1222 33.0621 -6.6105 2.6144
# 5 4.2761 -1.0452 5.2862 -6.6105 36.6204 12.6678
# 6 -7.2848 -13.9921 -5.9185 2.6144 12.6678 37.4881
#
#
#
# Elastic Compliance Matrix: (Units=1/GPa)
#
#
# Indices 1 2 3 4 5 6 
#
# 1 0.015885 0.006737 -0.006080 -0.005522 -0.003986 0.006374
# 2 0.006737 0.044600 -0.008786 -0.016919 -0.008424 0.020595
# 3 -0.006080 -0.008786 0.014565 -0.005973 -0.002398 -0.000934
# 4 -0.005522 -0.016919 -0.005973 0.048413 0.015641 -0.016993
# 5 -0.003986 -0.008424 -0.002398 0.015641 0.036877 -0.017850
# 6 0.006374 0.020595 -0.000934 -0.016993 -0.017850 0.042670
#
#
# Mechanical properties :
#
#
# Convention : Reuss Voigt Hill
#
# Bulk Modulus (GPa) = 17.00920 44.54400 30.77660
# Shear Modulus (GPa) = 20.93238 32.26569 26.59903
#
# Velocity S-wave (km/s) = 3.12056 3.87431 3.51768
# Velocity P-wave (km/s) = 4.57129 6.38247 5.55125
#
# Compressibility (1/GPa) = 0.05879170
#
# Stress axis : x y z
#
# Youngs Moduli (GPa) = 62.95158 22.42169 68.65778
#
# Poissons Ratio (x) = -0.15105 0.41746
# Poissons Ratio (y) = -0.42409 0.60320
# Poissons Ratio (z) = 0.38276 0.19699
#
# Static dielectric constant tensor:
#      x y z
#    x 4.019530 -0.081810 0.069730 
#    y -0.081810 3.793940 0.306470 
#    z 0.069730 0.306470 3.818680 
# 
# 
# High freq. dielectric constant tensor:
#      x y z
#    x 1.863530 -0.010210 0.009640 
#    y -0.010210 1.829290 0.025590 
#    z 0.009640 0.025590 1.836610 
# 
# From -- ./inp_files/261748.got.cif
#   From: 2010.06.25/outbox.cif.g09.slc.cpg/sg2_131_cif.got.tgz:261748.got - 2010.06.27 13:26:56.
