data_PCOD8030152
_publ_section_title
;
Structure prediction by ZEFSAII (Michael W. Deem and Ramdas Pophale) SiO2 
 PCOD8030152
Probable space group: P -1
;
_chemical_formula_sum "Si O2"
_cell_formula_units_Z 16
_cell_length_a 12.139697
_cell_length_b 12.135720
_cell_length_c 11.825448
_cell_angle_alpha 112.308913
_cell_angle_beta 42.537146
_cell_angle_gamma 79.548294
_cell_volume 736.225799
_symmetry_space_group_name_H-M "P -1"
_symmetry_group_IT_number 2
_symmetry_cell_setting 'triclinic'
loop_
_space_group_symop_operation_xyz
x,y,z
-x,-y,-z
loop_
_atom_site_type_symbol
_atom_site_label
_atom_site_fract_x
_atom_site_fract_y
_atom_site_fract_z
Si Si1 0.393556 0.815615 0.119926
Si Si2 0.451947 0.520874 0.677369
Si Si3 0.700380 0.028070 0.232730
Si Si4 0.925375 0.092234 0.923411
Si Si5 0.953630 0.142651 0.453078
Si Si6 0.741156 0.747393 0.995004
Si Si7 0.743419 0.632048 0.187640
Si Si8 0.801492 0.445184 0.551496
O O1 0.235267 0.794524 0.284019
O O2 0.226639 0.988483 0.234046
O O3 0.500294 0.840722 0.147425
O O4 0.606396 0.643830 0.819439
O O5 0.500000 0.500000 0.500000
O O6 0.372576 0.434741 0.743993
O O7 0.695658 0.422183 0.520532
O O8 0.242405 0.727001 0.949748
O O9 0.430132 0.180826 0.545045
O O10 0.752144 0.110981 0.144211
O O11 0.886291 0.929795 0.157793
O O12 0.725815 0.894372 0.091790
O O13 0.071796 0.929411 0.664322
O O14 0.892074 0.310893 0.531701
O O15 0.974024 0.600161 0.682858
O O16 0.772094 0.649105 0.042292
O O17 0.000000 0.500000 0.000000
#
# Coordination Sequence:
#
# PCOD8030152 Si02
#       8
#     2   2   2   2   2   2   2   2
#     4  11  26  47  68 101 138 180 237 287 339 410
#     4  12  23  41  71 102 138 179 230 282 339 415
#     4  11  23  42  69 100 137 181 224 281 347 414
#     4  11  21  42  73 100 131 180 232 284 339 409
#     4  11  24  46  73  99 133 184 237 284 341 405
#     4  12  26  45  68 100 143 178 226 286 347 410
#     4  12  26  42  65 107 143 179 222 284 353 409
#     4  12  24  46  71 101 136 185 233 283 344 409
#
# _framework density 21.732464
#
# number of rings (size 3 to 8) (size 9 to 14) (size 15 to 20)
#    0.000    0.500    3.750    5.625    0.000    1.500 
#    2.250    0.000    0.000    0.000    0.000    0.000 
#    0.000    0.000    0.000    0.000    0.000    0.000 
#
# Total GULP energy -198541.511361 kJ/mol
# GULP energy per Si atom -12408.844460 kJ/mol
# Density = 2.168300 g / cm^3
# Si number density = 21.732464 Si / 1000 Ang^3
#
#
#
# Elastic Constant Matrix: (Units=GPa)
#
#
# Indices 1 2 3 4 5 6 
#
# 1 116.2020 32.4950 25.1405 6.2602 -20.0945 -13.4725
# 2 32.4950 96.4225 41.6135 5.9393 -14.8195 -15.2034
# 3 25.1405 41.6135 127.9506 1.9368 -7.8638 -9.0534
# 4 6.2602 5.9393 1.9368 33.7168 -4.0826 -1.2441
# 5 -20.0945 -14.8195 -7.8638 -4.0826 33.6937 1.8073
# 6 -13.4725 -15.2034 -9.0534 -1.2441 1.8073 32.0731
#
#
#
# Elastic Compliance Matrix: (Units=1/GPa)
#
#
# Indices 1 2 3 4 5 6 
#
# 1 0.010591 -0.001870 -0.000941 -0.000866 0.005009 0.002981
# 2 -0.001870 0.013924 -0.003589 -0.001275 0.003774 0.004540
# 3 -0.000941 -0.003589 0.009200 0.000299 0.000017 0.000511
# 4 -0.000866 -0.001275 0.000299 0.030355 0.002663 0.000143
# 5 0.005009 0.003774 0.000017 0.002663 0.034543 0.002054
# 6 0.002981 0.004540 0.000511 0.000143 0.002054 0.034617
#
#
# Mechanical properties :
#
#
# Convention : Reuss Voigt Hill
#
# Bulk Modulus (GPa) = 47.80963 59.89700 53.85332
# Shear Modulus (GPa) = 32.67960 35.98513 34.33236
#
# Velocity S-wave (km/s) = 3.88199 4.07360 3.97895
# Velocity P-wave (km/s) = 6.49154 7.05312 6.77815
#
# Compressibility (1/GPa) = 0.02091629
#
# Stress axis : x y z
#
# Youngs Moduli (GPa) = 94.42285 71.81674 108.69287
#
# Poissons Ratio (x) = 0.13428 0.10227
# Poissons Ratio (y) = 0.17655 0.39007
# Poissons Ratio (z) = 0.08884 0.25773
#
# Static dielectric constant tensor:
#      x y z
#    x 3.969760 -0.141070 -0.102600 
#    y -0.141070 3.937650 0.016710 
#    z -0.102600 0.016710 4.121780 
# 
# 
# High freq. dielectric constant tensor:
#      x y z
#    x 1.856710 -0.008450 -0.002750 
#    y -0.008450 1.856970 0.002580 
#    z -0.002750 0.002580 1.868190 
# 
# From -- ./inp_files/285768.got.cif
#   From: 2010.06.25/outbox.cif.g09.slc.cpg/sg2_143_cif.got.tgz:285768.got - 2010.06.27 13:26:56.
