data_PCOD8030108
_publ_section_title
;
Structure prediction by ZEFSAII (Michael W. Deem and Ramdas Pophale) SiO2 
 PCOD8030108
Probable space group: P -1
;
_chemical_formula_sum "Si O2"
_cell_formula_units_Z 16
_cell_length_a 9.442706
_cell_length_b 18.346031
_cell_length_c 21.781762
_cell_angle_alpha 161.738093
_cell_angle_beta 38.436662
_cell_angle_gamma 142.550757
_cell_volume 710.385117
_symmetry_space_group_name_H-M "P -1"
_symmetry_group_IT_number 2
_symmetry_cell_setting 'triclinic'
loop_
_space_group_symop_operation_xyz
x,y,z
-x,-y,-z
loop_
_atom_site_type_symbol
_atom_site_label
_atom_site_fract_x
_atom_site_fract_y
_atom_site_fract_z
Si Si1 0.061016 0.167009 0.776111
Si Si2 0.983496 0.620450 0.227350
Si Si3 0.637762 0.995216 0.010933
Si Si4 0.193476 0.434669 0.422796
Si Si5 0.599376 0.792942 0.633442
Si Si6 0.075129 0.523418 0.728766
Si Si7 0.327127 0.119640 0.528842
Si Si8 0.842787 0.184652 0.443379
O O1 0.262268 0.185071 0.671707
O O2 0.827985 0.982256 0.677310
O O3 0.137611 0.066757 0.734440
O O4 0.024741 0.429688 0.010850
O O5 0.942206 0.495007 0.207036
O O6 0.752878 0.707056 0.354711
O O7 0.212724 0.843272 0.328839
O O8 0.478945 0.043903 0.158763
O O9 0.883195 0.202332 0.088418
O O10 0.500000 0.000000 0.000000
O O11 0.687123 0.735826 0.795084
O O12 0.384595 0.684298 0.573539
O O13 0.000000 0.500000 0.500000
O O14 0.073263 0.290495 0.408302
O O15 0.696879 0.569236 0.445789
O O16 0.845576 0.366592 0.645749
O O17 0.608510 0.158611 0.462003
#
# Coordination Sequence:
#
# PCOD8030108 Si02
#       8
#     2   2   2   2   2   2   2   2
#     4  11  24  43  70  99 127 172 227 269 323 394
#     4  11  24  43  70  97 128 176 223 265 334 393
#     4  12  22  40  72  95 126 181 223 265 330 395
#     4  12  28  44  64 100 141 174 217 277 338 393
#     4  11  23  41  68  97 133 168 224 275 320 390
#     4  11  21  42  69  96 134 172 225 274 318 399
#     4  11  25  45  67  96 136 171 214 281 329 380
#     4  11  24  45  67  95 138 172 216 278 327 384
#
# _framework density 22.522994000000001
#
# number of rings (size 3 to 8) (size 9 to 14) (size 15 to 20)
#    0.000    0.750    5.000    4.125    1.750    1.000 
#    4.500    0.000    0.000    0.000    0.000    0.000 
#    0.000    0.000    0.000    0.000    0.000    0.000 
#
# Total GULP energy -198395.444228 kJ/mol
# GULP energy per Si atom -12399.715264 kJ/mol
# Density = 2.247173 g / cm^3
# Si number density = 22.522994 Si / 1000 Ang^3
#
#
#
# Elastic Constant Matrix: (Units=GPa)
#
#
# Indices 1 2 3 4 5 6 
#
# 1 100.8179 3.5832 22.0885 4.3182 4.7575 30.1104
# 2 3.5832 57.1194 9.5691 -3.8936 8.0833 13.3992
# 3 22.0885 9.5691 127.1470 0.1054 13.3874 16.9803
# 4 4.3182 -3.8936 0.1054 21.0357 -1.7162 4.5812
# 5 4.7575 8.0833 13.3874 -1.7162 24.2567 0.1526
# 6 30.1104 13.3992 16.9803 4.5812 0.1526 43.1748
#
#
#
# Elastic Compliance Matrix: (Units=1/GPa)
#
#
# Indices 1 2 3 4 5 6 
#
# 1 0.012934 0.001826 -0.000881 -0.000530 -0.002639 -0.009175
# 2 0.001826 0.020584 -0.000072 0.004645 -0.006798 -0.008102
# 3 -0.000881 -0.000072 0.008900 0.000370 -0.004671 -0.002886
# 4 -0.000530 0.004645 0.000370 0.050087 0.001936 -0.006539
# 5 -0.002639 -0.006798 -0.004671 0.001936 0.046690 0.005417
# 6 -0.009175 -0.008102 -0.002886 -0.006539 0.005417 0.033885
#
#
# Mechanical properties :
#
#
# Convention : Reuss Voigt Hill
#
# Bulk Modulus (GPa) = 22.64276 39.50731 31.07504
# Shear Modulus (GPa) = 26.87352 34.34966 30.61159
#
# Velocity S-wave (km/s) = 3.45796 3.90948 3.69063
# Velocity P-wave (km/s) = 5.10082 6.16098 5.65579
#
# Compressibility (1/GPa) = 0.04416422
#
# Stress axis : x y z
#
# Youngs Moduli (GPa) = 77.31268 48.58122 112.35495
#
# Poissons Ratio (x) = -0.08870 0.09896
# Poissons Ratio (y) = -0.14116 0.00814
# Poissons Ratio (z) = 0.06810 0.00352
#
# Static dielectric constant tensor:
#      x y z
#    x 3.927740 0.027830 0.186830 
#    y 0.027830 4.070190 0.194430 
#    z 0.186830 0.194430 4.009890 
# 
# 
# High freq. dielectric constant tensor:
#      x y z
#    x 1.877200 0.001350 0.017180 
#    y 0.001350 1.885040 0.006440 
#    z 0.017180 0.006440 1.892630 
# 
# From -- ./inp_files/447874.got.cif
#   From: 2010.06.25/outbox.cif.g09.slc.cpg/sg2_224_cif.got.tgz:447874.got - 2010.06.27 13:26:56.
