data_PCOD8030758
_publ_section_title
;
Structure prediction by ZEFSAII (Michael W. Deem and Ramdas Pophale) SiO2 
 PCOD8030758
Probable space group: P -1
;
_chemical_formula_sum "Si O2"
_cell_formula_units_Z 16
_cell_length_a 14.725913
_cell_length_b 6.381071
_cell_length_c 8.974818
_cell_angle_alpha 81.100062
_cell_angle_beta 68.189564
_cell_angle_gamma 109.390498
_cell_volume 700.341367
_symmetry_space_group_name_H-M "P -1"
_symmetry_group_IT_number 2
_symmetry_cell_setting 'triclinic'
loop_
_space_group_symop_operation_xyz
x,y,z
-x,-y,-z
loop_
_atom_site_type_symbol
_atom_site_label
_atom_site_fract_x
_atom_site_fract_y
_atom_site_fract_z
Si Si1 0.512461 0.344948 0.639669
Si Si2 0.893437 0.864986 0.670025
Si Si3 0.158974 0.641589 0.751794
Si Si4 0.401908 0.450168 0.961605
Si Si5 0.987530 0.794012 0.919153
Si Si6 0.746251 0.435803 0.597093
Si Si7 0.747060 0.047471 0.839482
Si Si8 0.653846 0.150271 0.167743
O O1 0.500000 0.500000 0.500000
O O2 0.429230 0.366890 0.801499
O O3 0.637368 0.445438 0.600305
O O4 0.456932 0.062154 0.681617
O O5 0.810180 0.656991 0.639258
O O6 0.865291 0.084687 0.709423
O O7 0.911515 0.758830 0.826004
O O8 0.000000 0.000000 0.500000
O O9 0.105143 0.827082 0.778185
O O10 0.174354 0.572788 0.581491
O O11 0.278335 0.737229 0.738619
O O12 0.072782 0.427171 0.916585
O O13 0.376573 0.672401 0.929639
O O14 0.500000 0.500000 0.000000
O O15 0.306779 0.234270 0.124433
O O16 0.000000 0.000000 0.000000
O O17 0.703945 0.195858 0.744905
O O18 0.732459 0.088560 0.017626
#
# Coordination Sequence:
#
# PCOD8030758 Si02
#       8
#     2   2   2   2   2   2   2   2
#     4  11  26  43  66  98 136 178 221 273 332 397
#     4  12  26  43  68  99 134 175 223 280 340 399
#     4  11  25  42  67  97 132 176 221 273 334 395
#     4  11  22  40  66  95 129 174 222 270 330 394
#     4  11  24  45  69  97 132 174 224 275 331 398
#     4  12  26  44  66 100 138 174 223 279 336 398
#     4  11  23  41  67  94 129 174 219 272 333 393
#     4  11  24  44  68  98 134 176 226 275 330 397
#
# _framework density 22.846005000000002
#
# number of rings (size 3 to 8) (size 9 to 14) (size 15 to 20)
#    0.000    0.750    0.000    7.500    0.000   14.000 
#    0.000    0.000    0.000    0.000    0.000    0.000 
#    0.000    0.000    0.000    0.000    0.000    0.000 
#
# Total GULP energy -198225.403777 kJ/mol
# GULP energy per Si atom -12389.087736 kJ/mol
# Density = 2.279401 g / cm^3
# Si number density = 22.846005 Si / 1000 Ang^3
#
#
#
# Elastic Constant Matrix: (Units=GPa)
#
#
# Indices 1 2 3 4 5 6 
#
# 1 127.9551 52.9233 32.1212 3.9212 10.9861 -2.1472
# 2 52.9233 114.7339 35.3212 -3.8033 4.3122 -0.0888
# 3 32.1212 35.3212 114.4317 9.0066 4.5873 -0.0501
# 4 3.9212 -3.8033 9.0066 50.8920 -6.4254 -0.5638
# 5 10.9861 4.3122 4.5873 -6.4254 42.6078 1.8747
# 6 -2.1472 -0.0888 -0.0501 -0.5638 1.8747 40.1686
#
#
#
# Elastic Compliance Matrix: (Units=1/GPa)
#
#
# Indices 1 2 3 4 5 6 
#
# 1 0.010136 -0.004207 -0.001368 -0.001129 -0.002238 0.000619
# 2 -0.004207 0.011467 -0.002509 0.001681 0.000457 -0.000200
# 3 -0.001368 -0.002509 0.010083 -0.001965 -0.000773 -0.000058
# 4 -0.001129 0.001681 -0.001965 0.020645 0.003443 0.000070
# 5 -0.002238 0.000457 -0.000773 0.003443 0.024657 -0.001222
# 6 0.000619 -0.000200 -0.000058 0.000070 -0.001222 0.024986
#
#
# Mechanical properties :
#
#
# Convention : Reuss Voigt Hill
#
# Bulk Modulus (GPa) = 64.44223 66.42800 65.43512
# Shear Modulus (GPa) = 40.54668 42.51735 41.53201
#
# Velocity S-wave (km/s) = 4.21739 4.31866 4.26832
# Velocity P-wave (km/s) = 7.20996 7.34897 7.27980
#
# Compressibility (1/GPa) = 0.01551777
#
# Stress axis : x y z
#
# Youngs Moduli (GPa) = 98.65994 87.20417 99.17801
#
# Poissons Ratio (x) = 0.36688 0.13565
# Poissons Ratio (y) = 0.41508 0.24887
# Poissons Ratio (z) = 0.13494 0.21882
#
# Static dielectric constant tensor:
#      x y z
#    x 4.287600 -0.011720 -0.045440 
#    y -0.011720 5.945040 -0.228170 
#    z -0.045440 -0.228170 4.344640 
# 
# 
# High freq. dielectric constant tensor:
#      x y z
#    x 1.904950 -0.010690 -0.007940 
#    y -0.010690 1.908550 0.007760 
#    z -0.007940 0.007760 1.925420 
# 
# From -- ./inp_files/288609.got.cif
#   From: 2010.06.25/outbox.cif.g09.slc.cpg/sg2_145_cif.got.tgz:288609.got - 2010.06.27 13:26:56.
