data_PCOD8030964
_publ_section_title
;
Structure prediction by ZEFSAII (Michael W. Deem and Ramdas Pophale) SiO2 
 PCOD8030964
Probable space group: P -1
;
_chemical_formula_sum "Si O2"
_cell_formula_units_Z 16
_cell_length_a 7.008915
_cell_length_b 10.777929
_cell_length_c 12.022802
_cell_angle_alpha 93.636763
_cell_angle_beta 130.453595
_cell_angle_gamma 85.044518
_cell_volume 688.478700
_symmetry_space_group_name_H-M "P -1"
_symmetry_group_IT_number 2
_symmetry_cell_setting 'triclinic'
loop_
_space_group_symop_operation_xyz
x,y,z
-x,-y,-z
loop_
_atom_site_type_symbol
_atom_site_label
_atom_site_fract_x
_atom_site_fract_y
_atom_site_fract_z
Si Si1 0.281434 0.571613 0.787524
Si Si2 0.949229 0.076213 0.376584
Si Si3 0.371858 0.721198 0.630291
Si Si4 0.856713 0.268858 0.810729
Si Si5 0.553977 0.852096 0.501994
Si Si6 0.796291 0.451694 0.611001
Si Si7 0.710038 0.900069 0.117422
Si Si8 0.419993 0.683031 0.069779
O O1 0.442153 0.613768 0.742433
O O2 0.389569 0.434318 0.847389
O O3 0.980688 0.559664 0.652366
O O4 0.299377 0.669281 0.901186
O O5 0.708635 0.166556 0.312095
O O6 0.166652 0.168740 0.439440
O O7 0.914460 0.977049 0.261821
O O8 0.000000 0.000000 0.500000
O O9 0.567850 0.777422 0.621329
O O10 0.164103 0.662212 0.468734
O O11 0.637477 0.199785 0.661672
O O12 0.883662 0.398759 0.762169
O O13 0.793074 0.302998 0.915795
O O14 0.120442 0.183898 0.910917
O O15 0.500000 0.000000 0.500000
O O16 0.500000 0.500000 0.500000
O O17 0.571938 0.807482 0.140811
O O18 0.500000 0.000000 0.000000
#
# Coordination Sequence:
#
# PCOD8030964 Si02
#       8
#     2   2   2   2   2   2   2   2
#     4  11  25  48  70 103 144 191 241 295 363 425
#     4  12  23  42  74 105 145 188 233 302 367 427
#     4  11  25  41  69 108 142 179 232 295 356 433
#     4  11  24  45  73 101 142 190 237 299 363 427
#     4  11  22  41  69 109 139 180 233 293 365 418
#     4  11  24  45  72 110 142 182 238 301 366 430
#     4  12  26  48  69 105 145 189 247 293 359 441
#     4  11  26  49  73  96 145 196 240 295 354 434
#
# _framework density 23.239644999999999
#
# number of rings (size 3 to 8) (size 9 to 14) (size 15 to 20)
#    0.000    0.750    3.750    3.375    5.250    1.000 
#    4.500    0.000    0.000    0.000    0.000    0.000 
#    0.000    0.000    0.000    0.000    0.000    0.000 
#
# Total GULP energy -198222.393910 kJ/mol
# GULP energy per Si atom -12388.899619 kJ/mol
# Density = 2.318675 g / cm^3
# Si number density = 23.239645 Si / 1000 Ang^3
#
#
#
# Elastic Constant Matrix: (Units=GPa)
#
#
# Indices 1 2 3 4 5 6 
#
# 1 150.6451 44.8322 52.2759 -10.0251 -14.7597 11.6520
# 2 44.8322 102.8891 28.1432 -8.8259 -5.0950 15.3398
# 3 52.2759 28.1432 76.8501 -9.8416 -11.9644 11.0627
# 4 -10.0251 -8.8259 -9.8416 32.8383 0.5457 -3.8421
# 5 -14.7597 -5.0950 -11.9644 0.5457 42.9101 -3.8094
# 6 11.6520 15.3398 11.0627 -3.8421 -3.8094 50.8527
#
#
#
# Elastic Compliance Matrix: (Units=1/GPa)
#
#
# Indices 1 2 3 4 5 6 
#
# 1 0.009362 -0.002539 -0.005116 0.000605 0.001475 -0.000110
# 2 -0.002539 0.011887 -0.002127 0.001501 -0.000291 -0.002450
# 3 -0.005116 -0.002127 0.018374 0.003123 0.002918 -0.001729
# 4 0.000605 0.001501 0.003123 0.032104 0.000958 0.001227
# 5 0.001475 -0.000291 0.002918 0.000958 0.024671 0.001036
# 6 -0.000110 -0.002450 -0.001729 0.001227 0.001036 0.020975
#
#
# Mechanical properties :
#
#
# Convention : Reuss Voigt Hill
#
# Bulk Modulus (GPa) = 49.84875 64.54299 57.19587
# Shear Modulus (GPa) = 34.81372 38.99576 36.90474
#
# Velocity S-wave (km/s) = 3.87464 4.10076 3.98930
# Velocity P-wave (km/s) = 6.44310 7.08906 6.77379
#
# Compressibility (1/GPa) = 0.02006068
#
# Stress axis : x y z
#
# Youngs Moduli (GPa) = 106.81256 84.12813 54.42458
#
# Poissons Ratio (x) = 0.21358 0.27842
# Poissons Ratio (y) = 0.27117 0.11574
# Poissons Ratio (z) = 0.54643 0.17891
#
# Static dielectric constant tensor:
#      x y z
#    x 4.452540 0.134590 -0.034310 
#    y 0.134590 4.401690 0.103600 
#    z -0.034310 0.103600 3.985240 
# 
# 
# High freq. dielectric constant tensor:
#      x y z
#    x 1.921910 0.006920 -0.009520 
#    y 0.006920 1.941950 0.004190 
#    z -0.009520 0.004190 1.897540 
# 
# From -- ./inp_files/364649.got.cif
#   From: 2010.06.25/outbox.cif.g09.slc.cpg/sg2_183_cif.got.tgz:364649.got - 2010.06.27 13:26:56.
