data_PCOD8030067
_publ_section_title
;
Structure prediction by ZEFSAII (Michael W. Deem and Ramdas Pophale) SiO2 
 PCOD8030067
Probable space group: P -1
;
_chemical_formula_sum "Si O2"
_cell_formula_units_Z 16
_cell_length_a 12.495920
_cell_length_b 8.228856
_cell_length_c 18.038239
_cell_angle_alpha 124.107384
_cell_angle_beta 36.634022
_cell_angle_gamma 98.090296
_cell_volume 714.683551
_symmetry_space_group_name_H-M "P -1"
_symmetry_group_IT_number 2
_symmetry_cell_setting 'triclinic'
loop_
_space_group_symop_operation_xyz
x,y,z
-x,-y,-z
loop_
_atom_site_type_symbol
_atom_site_label
_atom_site_fract_x
_atom_site_fract_y
_atom_site_fract_z
Si Si1 0.713399 0.854373 0.695419
Si Si2 0.615302 0.333828 0.821175
Si Si3 0.296593 0.329176 0.884075
Si Si4 0.886456 0.372026 0.182960
Si Si5 0.234944 0.075721 0.031487
Si Si6 0.923017 0.199506 0.962552
Si Si7 0.555810 0.077262 0.414377
Si Si8 0.815905 0.600052 0.726229
O O1 0.690152 0.811663 0.785243
O O2 0.910898 0.580127 0.484074
O O3 0.768580 0.045450 0.694267
O O4 0.465195 0.963009 0.825623
O O5 0.439107 0.369272 0.869209
O O6 0.747646 0.417811 0.726048
O O7 0.500000 0.500000 0.000000
O O8 0.188030 0.517997 0.923925
O O9 0.452995 0.053432 0.688118
O O10 0.074404 0.412202 0.074012
O O11 0.879185 0.221056 0.081467
O O12 0.636365 0.622728 0.409382
O O13 0.997437 0.199261 0.149980
O O14 0.229506 0.259352 0.136731
O O15 0.233794 0.855897 0.009296
O O16 0.191134 0.002073 0.740813
O O17 0.500000 0.000000 0.500000
#
# Coordination Sequence:
#
# PCOD8030067 Si02
#       8
#     2   2   2   2   2   2   2   2
#     4  11  25  47  68  96 141 172 226 288 330 402
#     4  12  24  45  74 101 136 184 225 282 343 402
#     4  11  22  41  67  97 128 170 223 267 334 399
#     4  11  22  42  64  95 130 170 214 273 331 394
#     4  12  25  43  67  93 133 175 220 274 339 400
#     4  11  24  39  66  97 130 173 220 269 335 402
#     4  11  21  42  66  96 134 168 219 280 324 400
#     4  11  26  47  68 101 136 178 228 281 339 404
#
# _framework density 22.387530999999999
#
# number of rings (size 3 to 8) (size 9 to 14) (size 15 to 20)
#    0.000    0.750    5.000    2.625    3.500    1.500 
#    6.750    0.000    0.000    0.000    0.000    0.000 
#    0.000    0.000    0.000    0.000    0.000    0.000 
#
# Total GULP energy -198228.586924 kJ/mol
# GULP energy per Si atom -12389.286683 kJ/mol
# Density = 2.233658 g / cm^3
# Si number density = 22.387531 Si / 1000 Ang^3
#
#
#
# Elastic Constant Matrix: (Units=GPa)
#
#
# Indices 1 2 3 4 5 6 
#
# 1 92.1725 37.0426 35.5864 -2.4915 2.1307 20.0710
# 2 37.0426 109.3001 27.5477 -1.4896 -3.1430 10.8842
# 3 35.5864 27.5477 124.6927 4.3338 -3.6187 8.7007
# 4 -2.4915 -1.4896 4.3338 26.7427 -7.1851 -4.4614
# 5 2.1307 -3.1430 -3.6187 -7.1851 22.8812 3.1079
# 6 20.0710 10.8842 8.7007 -4.4614 3.1079 44.6663
#
#
#
# Elastic Compliance Matrix: (Units=1/GPa)
#
#
# Indices 1 2 3 4 5 6 
#
# 1 0.014660 -0.003743 -0.003073 0.000413 -0.001567 -0.004927
# 2 -0.003743 0.010881 -0.001253 0.000875 0.002026 -0.000779
# 3 -0.003073 -0.001253 0.009288 -0.001620 0.001124 -0.000363
# 4 0.000413 0.000875 -0.001620 0.041626 0.012461 0.003208
# 5 -0.001567 0.002026 0.001124 0.012461 0.048509 -0.002139
# 6 -0.004927 -0.000779 -0.000363 0.003208 -0.002139 0.025332
#
#
# Mechanical properties :
#
#
# Convention : Reuss Voigt Hill
#
# Bulk Modulus (GPa) = 53.50048 58.50207 56.00128
# Shear Modulus (GPa) = 28.95795 33.92395 31.44095
#
# Velocity S-wave (km/s) = 3.60041 3.89692 3.75159
# Velocity P-wave (km/s) = 6.42131 6.81441 6.62078
#
# Compressibility (1/GPa) = 0.01869142
#
# Stress axis : x y z
#
# Youngs Moduli (GPa) = 68.21298 91.90242 107.66816
#
# Poissons Ratio (x) = 0.34396 0.33087
# Poissons Ratio (y) = 0.25530 0.13491
# Poissons Ratio (z) = 0.20962 0.11516
#
# Static dielectric constant tensor:
#      x y z
#    x 4.364640 -0.451000 -0.346670 
#    y -0.451000 4.649920 0.201650 
#    z -0.346670 0.201650 4.106390 
# 
# 
# High freq. dielectric constant tensor:
#      x y z
#    x 1.874720 -0.004820 -0.005720 
#    y -0.004820 1.904480 0.005090 
#    z -0.005720 0.005090 1.884170 
# 
# From -- ./inp_files/306188.got.cif
#   From: 2010.06.25/outbox.cif.g09.slc.cpg/sg2_154_cif.got.tgz:306188.got - 2010.06.27 13:26:56.
