data_PCOD8030361
_publ_section_title
;
Structure prediction by ZEFSAII (Michael W. Deem and Ramdas Pophale) SiO2 
 PCOD8030361
Probable space group: P -1
;
_chemical_formula_sum "Si O2"
_cell_formula_units_Z 16
_cell_length_a 8.043453
_cell_length_b 9.139476
_cell_length_c 15.577521
_cell_angle_alpha 141.496295
_cell_angle_beta 96.842341
_cell_angle_gamma 73.600654
_cell_volume 673.916720
_symmetry_space_group_name_H-M "P -1"
_symmetry_group_IT_number 2
_symmetry_cell_setting 'triclinic'
loop_
_space_group_symop_operation_xyz
x,y,z
-x,-y,-z
loop_
_atom_site_type_symbol
_atom_site_label
_atom_site_fract_x
_atom_site_fract_y
_atom_site_fract_z
Si Si1 0.336327 0.451467 0.709357
Si Si2 0.938925 0.642194 0.761379
Si Si3 0.612408 0.725093 0.903267
Si Si4 0.298263 0.114842 0.691284
Si Si5 0.124867 0.030405 0.244882
Si Si6 0.624257 0.698245 0.551039
Si Si7 0.687360 0.529196 0.001761
Si Si8 0.147475 0.727100 0.532378
O O1 0.485965 0.560764 0.802443
O O2 0.368910 0.192148 0.642362
O O3 0.365286 0.417393 0.595192
O O4 0.135010 0.616749 0.797399
O O5 0.796346 0.639849 0.823785
O O6 0.866706 0.898493 0.821969
O O7 0.965856 0.404576 0.591913
O O8 0.668973 0.696838 0.993133
O O9 0.500000 0.000000 0.000000
O O10 0.437961 0.894361 0.649467
O O11 0.155108 0.973722 0.595460
O O12 0.236931 0.344179 0.858126
O O13 0.246829 0.135777 0.360620
O O14 0.931897 0.175154 0.334515
O O15 0.171618 0.738055 0.125333
O O16 0.667768 0.486338 0.530724
O O17 0.500000 0.500000 0.000000
#
# Coordination Sequence:
#
# PCOD8030361 Si02
#       8
#     2   2   2   2   2   2   2   2
#     4  12  25  47  71 112 141 184 241 299 366 412
#     4  11  25  48  75 106 147 185 239 303 355 421
#     4  12  29  47  74 106 143 193 240 294 357 430
#     4  12  27  42  73 103 143 191 238 293 357 431
#     4  11  22  46  74  99 147 185 230 296 355 420
#     4  11  21  44  73 100 140 182 238 297 354 419
#     4  12  25  49  69  98 145 192 234 289 360 425
#     4  11  24  44  72 109 137 189 236 293 363 418
#
# _framework density 23.741804999999999
#
# number of rings (size 3 to 8) (size 9 to 14) (size 15 to 20)
#    0.000    0.500    5.000    3.000    5.250    2.500 
#    0.000    0.000    0.000    0.000    0.000    0.000 
#    0.000    0.000    0.000    0.000    0.000    0.000 
#
# Total GULP energy -198335.966011 kJ/mol
# GULP energy per Si atom -12395.997876 kJ/mol
# Density = 2.368777 g / cm^3
# Si number density = 23.741805 Si / 1000 Ang^3
#
#
#
# Elastic Constant Matrix: (Units=GPa)
#
#
# Indices 1 2 3 4 5 6 
#
# 1 71.2760 13.0239 1.2933 1.2033 -13.5903 5.6781
# 2 13.0239 111.1629 27.0191 9.0995 -4.3115 21.9291
# 3 1.2933 27.0191 71.5578 15.8603 -11.1678 5.1197
# 4 1.2033 9.0995 15.8603 40.0950 4.9390 0.4240
# 5 -13.5903 -4.3115 -11.1678 4.9390 37.8237 3.4136
# 6 5.6781 21.9291 5.1197 0.4240 3.4136 40.5287
#
#
#
# Elastic Compliance Matrix: (Units=1/GPa)
#
#
# Indices 1 2 3 4 5 6 
#
# 1 0.015684 -0.001466 0.001778 -0.001607 0.006397 -0.002151
# 2 -0.001466 0.011195 -0.003517 -0.001090 0.000343 -0.005425
# 3 0.001778 -0.003517 0.017962 -0.007158 0.006575 -0.001094
# 4 -0.001607 -0.001090 -0.007158 0.028880 -0.006766 0.001987
# 5 0.006397 0.000343 0.006575 -0.006766 0.032010 -0.004538
# 6 -0.002151 -0.005425 -0.001094 0.001987 -0.004538 0.028410
#
#
# Mechanical properties :
#
#
# Convention : Reuss Voigt Hill
#
# Bulk Modulus (GPa) = 26.02048 37.40769 31.71408
# Shear Modulus (GPa) = 32.60265 37.86684 35.23475
#
# Velocity S-wave (km/s) = 3.70971 3.99801 3.85656
# Velocity P-wave (km/s) = 5.41598 6.09117 5.76347
#
# Compressibility (1/GPa) = 0.03843127
#
# Stress axis : x y z
#
# Youngs Moduli (GPa) = 63.76011 89.32351 55.67411
#
# Poissons Ratio (x) = 0.13093 -0.09901
# Poissons Ratio (y) = 0.09346 0.19582
# Poissons Ratio (z) = -0.11339 0.31418
#
# Static dielectric constant tensor:
#      x y z
#    x 5.041030 0.475440 0.194840 
#    y 0.475440 4.617010 0.206440 
#    z 0.194840 0.206440 4.226710 
# 
# 
# High freq. dielectric constant tensor:
#      x y z
#    x 1.946400 0.006850 0.003880 
#    y 0.006850 1.948500 0.009250 
#    z 0.003880 0.009250 1.934750 
# 
# From -- ./inp_files/209259.got.cif
#   From: 2010.06.25/outbox.cif.g09.slc.cpg/sg2_105_cif.got.tgz:209259.got - 2010.06.27 13:26:56.
