data_PCOD8030663
_publ_section_title
;
Structure prediction by ZEFSAII (Michael W. Deem and Ramdas Pophale) SiO2 
 PCOD8030663
Probable space group: P -1
;
_chemical_formula_sum "Si O2"
_cell_formula_units_Z 16
_cell_length_a 17.789678
_cell_length_b 8.043654
_cell_length_c 12.548496
_cell_angle_alpha 102.425343
_cell_angle_beta 33.105787
_cell_angle_gamma 78.513156
_cell_volume 673.244705
_symmetry_space_group_name_H-M "P -1"
_symmetry_group_IT_number 2
_symmetry_cell_setting 'triclinic'
loop_
_space_group_symop_operation_xyz
x,y,z
-x,-y,-z
loop_
_atom_site_type_symbol
_atom_site_label
_atom_site_fract_x
_atom_site_fract_y
_atom_site_fract_z
Si Si1 0.858847 0.437872 0.206648
Si Si2 0.723577 0.984882 0.777510
Si Si3 0.269378 0.373920 0.384394
Si Si4 0.238417 0.919181 0.035449
Si Si5 0.276216 0.985267 0.580779
Si Si6 0.169148 0.835607 0.499103
Si Si7 0.497001 0.075156 0.396317
Si Si8 0.412352 0.594927 0.500612
O O1 0.843246 0.530468 0.355941
O O2 0.689493 0.635940 0.349936
O O3 0.805132 0.285324 0.253139
O O4 0.077622 0.270072 0.877319
O O5 0.748749 0.127540 0.691660
O O6 0.806559 0.733169 0.597793
O O7 0.499170 0.156650 0.100020
O O8 0.837666 0.927604 0.743761
O O9 0.230072 0.582063 0.391943
O O10 0.301569 0.009738 0.887863
O O11 0.424769 0.634660 0.801961
O O12 0.067013 0.955517 0.192599
O O13 0.442091 0.980162 0.356960
O O14 0.252535 0.858479 0.506186
O O15 0.370968 0.827433 0.555663
O O16 0.500000 0.000000 0.500000
O O17 0.500000 0.500000 0.500000
#
# Coordination Sequence:
#
# PCOD8030663 Si02
#       8
#     2   2   2   2   2   2   2   2
#     4  11  22  43  66 102 143 185 234 300 355 433
#     4  11  24  49  73 101 145 192 245 305 362 427
#     4  11  24  44  77 103 143 188 248 306 359 427
#     4  11  25  49  67 102 154 182 240 304 366 431
#     4  12  24  41  71 107 140 187 244 286 366 443
#     4  12  26  44  77 110 138 196 246 296 365 439
#     4  11  25  43  67 103 147 192 231 296 369 435
#     4  11  22  39  67 100 139 189 225 291 366 429
#
# _framework density 23.765502999999999
#
# number of rings (size 3 to 8) (size 9 to 14) (size 15 to 20)
#    0.000    0.750    3.750    4.500    5.250    0.500 
#    2.250    0.000    0.000    0.000    0.000    0.000 
#    0.000    0.000    0.000    0.000    0.000    0.000 
#
# Total GULP energy -198224.968870 kJ/mol
# GULP energy per Si atom -12389.060554 kJ/mol
# Density = 2.371141 g / cm^3
# Si number density = 23.765503 Si / 1000 Ang^3
#
#
#
# Elastic Constant Matrix: (Units=GPa)
#
#
# Indices 1 2 3 4 5 6 
#
# 1 112.6636 35.3749 29.8668 -6.0611 9.2241 13.4023
# 2 35.3749 116.5815 19.5786 -3.5228 17.1608 -9.5333
# 3 29.8668 19.5786 62.1326 -11.8580 3.7504 -3.1406
# 4 -6.0611 -3.5228 -11.8580 37.8176 5.0621 -0.0542
# 5 9.2241 17.1608 3.7504 5.0621 38.6492 -4.6437
# 6 13.4023 -9.5333 -3.1406 -0.0542 -4.6437 41.3008
#
#
#
# Elastic Compliance Matrix: (Units=1/GPa)
#
#
# Indices 1 2 3 4 5 6 
#
# 1 0.011848 -0.002933 -0.004864 0.000322 -0.001706 -0.005083
# 2 -0.002933 0.010480 -0.001432 0.000535 -0.003540 0.002865
# 3 -0.004864 -0.001432 0.020097 0.005465 -0.000542 0.002722
# 4 0.000322 0.000535 0.005465 0.028878 -0.004633 -0.000048
# 5 -0.001706 -0.003540 -0.000542 -0.004633 0.028865 0.002935
# 6 -0.005083 0.002865 0.002722 -0.000048 0.002935 0.027060
#
#
# Mechanical properties :
#
#
# Convention : Reuss Voigt Hill
#
# Bulk Modulus (GPa) = 41.72237 51.22427 46.47332
# Shear Modulus (GPa) = 32.53655 37.32402 34.93029
#
# Velocity S-wave (km/s) = 3.70410 3.96727 3.83794
# Velocity P-wave (km/s) = 5.99064 6.52583 6.26396
#
# Compressibility (1/GPa) = 0.02396796
#
# Stress axis : x y z
#
# Youngs Moduli (GPa) = 84.40317 95.42304 49.75866
#
# Poissons Ratio (x) = 0.27988 0.24200
# Poissons Ratio (y) = 0.24756 0.07124
# Poissons Ratio (z) = 0.41050 0.13662
#
# Static dielectric constant tensor:
#      x y z
#    x 4.557990 0.546280 0.045410 
#    y 0.546280 4.930080 0.038720 
#    z 0.045410 0.038720 4.119530 
# 
# 
# High freq. dielectric constant tensor:
#      x y z
#    x 1.960290 0.017040 -0.007560 
#    y 0.017040 1.961880 -0.004700 
#    z -0.007560 -0.004700 1.911930 
# 
# From -- ./inp_files/461349.got.cif
#   From: 2010.06.25/outbox.cif.g09.slc.cpg/sg2_231_cif.got.tgz:461349.got - 2010.06.27 13:26:56.
