data_PCOD8030862
_publ_section_title
;
Structure prediction by ZEFSAII (Michael W. Deem and Ramdas Pophale) SiO2 
 PCOD8030862
Probable space group: P -1
;
_chemical_formula_sum "Si O2"
_cell_formula_units_Z 16
_cell_length_a 9.220968
_cell_length_b 11.876011
_cell_length_c 16.802641
_cell_angle_alpha 153.512383
_cell_angle_beta 90.012395
_cell_angle_gamma 77.666334
_cell_volume 720.614454
_symmetry_space_group_name_H-M "P -1"
_symmetry_group_IT_number 2
_symmetry_cell_setting 'triclinic'
loop_
_space_group_symop_operation_xyz
x,y,z
-x,-y,-z
loop_
_atom_site_type_symbol
_atom_site_label
_atom_site_fract_x
_atom_site_fract_y
_atom_site_fract_z
Si Si1 0.504303 0.735791 0.790756
Si Si2 0.879487 0.832590 0.529391
Si Si3 0.017855 0.772963 0.922813
Si Si4 0.806520 0.684877 0.600661
Si Si5 0.384488 0.853296 0.404513
Si Si6 0.662600 0.259449 0.057523
Si Si7 0.791950 0.154139 0.443623
Si Si8 0.728059 0.166365 0.278500
O O1 0.692936 0.496421 0.648753
O O2 0.448374 0.766649 0.717791
O O3 0.374797 0.682661 0.810867
O O4 0.500000 0.000000 0.000000
O O5 0.974749 0.507475 0.293085
O O6 0.784248 0.848532 0.620888
O O7 0.014059 0.943766 0.610959
O O8 0.741436 0.043169 0.602485
O O9 0.178862 0.694960 0.927846
O O10 0.000000 0.000000 0.000000
O O11 0.863294 0.903116 0.062563
O O12 0.738635 0.459515 0.456953
O O13 0.000000 0.500000 0.500000
O O14 0.704215 0.937502 0.825390
O O15 0.275882 0.941728 0.541422
O O16 0.500000 0.000000 0.500000
O O17 0.499825 0.510194 0.173694
O O18 0.749562 0.043205 0.290649
#
# Coordination Sequence:
#
# PCOD8030862 Si02
#       8
#     2   2   2   2   2   2   2   2
#     4  11  23  39  63  97 144 176 215 277 350 414
#     4  12  23  44  72  95 139 184 231 280 337 410
#     4  12  20  36  69 101 134 175 224 272 348 410
#     4  12  22  38  72 108 138 170 219 288 350 407
#     4  11  26  48  70  91 132 194 237 282 336 407
#     4  11  22  41  63 101 132 177 232 271 334 414
#     4  11  25  42  65 100 134 178 232 285 337 401
#     4  12  23  39  66 106 142 174 219 281 351 412
#
# _framework density 22.203274
#
# number of rings (size 3 to 8) (size 9 to 14) (size 15 to 20)
#    0.000    0.500    6.250    2.250    1.750    0.500 
#    0.000    0.625    2.750    0.000    0.000    0.000 
#    0.000    0.000    0.000    0.000    0.000    0.000 
#
# Total GULP energy -198343.026236 kJ/mol
# GULP energy per Si atom -12396.439140 kJ/mol
# Density = 2.215274 g / cm^3
# Si number density = 22.203274 Si / 1000 Ang^3
#
#
#
# Elastic Constant Matrix: (Units=GPa)
#
#
# Indices 1 2 3 4 5 6 
#
# 1 84.5009 38.1863 1.4988 -5.8754 3.4598 -24.6561
# 2 38.1863 149.3122 22.2507 -19.0647 -9.2092 -27.2257
# 3 1.4988 22.2507 95.2735 -7.5623 -8.1522 -10.4996
# 4 -5.8754 -19.0647 -7.5623 33.3477 -3.1704 -1.7256
# 5 3.4598 -9.2092 -8.1522 -3.1704 38.8760 -4.9643
# 6 -24.6561 -27.2257 -10.4996 -1.7256 -4.9643 36.4138
#
#
#
# Elastic Compliance Matrix: (Units=1/GPa)
#
#
# Indices 1 2 3 4 5 6 
#
# 1 0.015763 -0.002238 0.001487 0.002306 -0.000219 0.009508
# 2 -0.002238 0.009390 -0.000765 0.005442 0.003475 0.006016
# 3 0.001487 -0.000765 0.011612 0.002958 0.002914 0.004320
# 4 0.002306 0.005442 0.002958 0.035181 0.005713 0.008929
# 5 -0.000219 0.003475 0.002914 0.005713 0.028595 0.007459
# 6 0.009508 0.006016 0.004320 0.008929 0.007459 0.041084
#
#
# Mechanical properties :
#
#
# Convention : Reuss Voigt Hill
#
# Bulk Modulus (GPa) = 29.64654 50.32867 39.98761
# Shear Modulus (GPa) = 32.07155 39.53754 35.80455
#
# Velocity S-wave (km/s) = 3.80472 4.22442 4.02005
# Velocity P-wave (km/s) = 5.71686 6.81988 6.29258
#
# Compressibility (1/GPa) = 0.03373074
#
# Stress axis : x y z
#
# Youngs Moduli (GPa) = 63.44024 106.49577 86.11976
#
# Poissons Ratio (x) = 0.23837 -0.12805
# Poissons Ratio (y) = 0.14200 0.06592
# Poissons Ratio (z) = -0.09433 0.08152
#
# Static dielectric constant tensor:
#      x y z
#    x 3.242540 -0.698630 -0.011720 
#    y -0.698630 3.711630 -0.069360 
#    z -0.011720 -0.069360 4.119070 
# 
# 
# High freq. dielectric constant tensor:
#      x y z
#    x 1.887690 -0.008760 -0.018240 
#    y -0.008760 1.866240 -0.015150 
#    z -0.018240 -0.015150 1.872220 
# 
# From -- ./inp_files/501224.got.cif
#   From: 2010.06.25/outbox.cif.g09.slc.cpg/sg2_251_cif.got.tgz:501224.got - 2010.06.27 13:26:56.
