data_PCOD8030046
_publ_section_title
;
Structure prediction by ZEFSAII (Michael W. Deem and Ramdas Pophale) SiO2 
 PCOD8030046
Probable space group: P -1
;
_chemical_formula_sum "Si O2"
_cell_formula_units_Z 16
_cell_length_a 11.855055
_cell_length_b 9.723070
_cell_length_c 8.506266
_cell_angle_alpha 88.537863
_cell_angle_beta 101.300796
_cell_angle_gamma 131.011332
_cell_volume 718.444674
_symmetry_space_group_name_H-M "P -1"
_symmetry_group_IT_number 2
_symmetry_cell_setting 'triclinic'
loop_
_space_group_symop_operation_xyz
x,y,z
-x,-y,-z
loop_
_atom_site_type_symbol
_atom_site_label
_atom_site_fract_x
_atom_site_fract_y
_atom_site_fract_z
Si Si1 0.724960 0.978480 0.387401
Si Si2 0.440705 0.884953 0.144004
Si Si3 0.474559 0.422048 0.173068
Si Si4 0.224724 0.287736 0.605085
Si Si5 0.745101 0.530930 0.883996
Si Si6 0.021770 0.197430 0.274043
Si Si7 0.041845 0.143508 0.845840
Si Si8 0.717457 0.985282 0.759971
O O1 0.585746 0.957949 0.285892
O O2 0.708545 0.809484 0.333249
O O3 0.718947 0.977466 0.572894
O O4 0.884952 0.155369 0.340900
O O5 0.332411 0.670786 0.073738
O O6 0.338404 0.907966 0.214692
O O7 0.500000 0.000000 0.000000
O O8 0.630233 0.504557 0.309224
O O9 0.381460 0.470734 0.235169
O O10 0.381692 0.205498 0.165754
O O11 0.500000 0.500000 0.000000
O O12 0.164179 0.251232 0.413700
O O13 0.070171 0.191877 0.666550
O O14 0.891819 0.615094 0.808282
O O15 0.804579 0.673509 0.039352
O O16 0.976956 0.039543 0.139882
O O17 0.891912 0.105844 0.863213
#
# Coordination Sequence:
#
# PCOD8030046 Si02
#       8
#     2   2   2   2   2   2   2   2
#     4  11  23  47  70  98 139 186 225 287 348 416
#     4  12  30  49  67  98 143 191 233 281 348 416
#     4  12  24  40  71 108 139 179 234 292 343 406
#     4  11  21  41  75 106 143 168 232 290 348 407
#     4  12  25  43  69 104 136 185 235 283 351 406
#     4  11  23  43  74 112 135 175 229 299 347 407
#     4  11  22  41  70 105 141 174 228 288 348 402
#     4  12  26  46  71  98 142 187 229 286 349 408
#
# _framework density 22.270330000000001
#
# number of rings (size 3 to 8) (size 9 to 14) (size 15 to 20)
#    0.000    0.500    6.250    2.250    3.500    1.500 
#    0.000    0.625    0.000    0.000    0.000    0.000 
#    0.000    0.000    0.000    0.000    0.000    0.000 
#
# Total GULP energy -198256.185087 kJ/mol
# GULP energy per Si atom -12391.011568 kJ/mol
# Density = 2.221964 g / cm^3
# Si number density = 22.270330 Si / 1000 Ang^3
#
#
#
# Elastic Constant Matrix: (Units=GPa)
#
#
# Indices 1 2 3 4 5 6 
#
# 1 130.6977 45.4856 37.3109 5.0721 -2.0715 9.8532
# 2 45.4856 147.8735 48.7750 -0.9699 1.3488 11.8894
# 3 37.3109 48.7750 81.7851 -3.0475 6.7569 10.6083
# 4 5.0721 -0.9699 -3.0475 31.9793 8.6607 0.3919
# 5 -2.0715 1.3488 6.7569 8.6607 32.4976 -1.7284
# 6 9.8532 11.8894 10.6083 0.3919 -1.7284 31.9282
#
#
#
# Elastic Compliance Matrix: (Units=1/GPa)
#
#
# Indices 1 2 3 4 5 6 
#
# 1 0.009420 -0.001734 -0.003384 -0.002387 0.001959 -0.001002
# 2 -0.001734 0.008826 -0.004330 0.000054 0.000340 -0.001295
# 3 -0.003384 -0.004330 0.017308 0.003373 -0.004714 -0.003391
# 4 -0.002387 0.000054 0.003373 0.034749 -0.010190 -0.001382
# 5 0.001959 0.000340 -0.004714 -0.010190 0.034729 0.002840
# 6 -0.001002 -0.001295 -0.003391 -0.001382 0.002840 0.033409
#
#
# Mechanical properties :
#
#
# Convention : Reuss Voigt Hill
#
# Bulk Modulus (GPa) = 60.03634 69.27771 64.65703
# Shear Modulus (GPa) = 30.69543 34.53334 32.61439
#
# Velocity S-wave (km/s) = 3.71659 3.94209 3.83100
# Velocity P-wave (km/s) = 6.74047 7.20384 6.97600
#
# Compressibility (1/GPa) = 0.01665658
#
# Stress axis : x y z
#
# Youngs Moduli (GPa) = 106.15573 113.30495 57.77509
#
# Poissons Ratio (x) = 0.19652 0.19551
# Poissons Ratio (y) = 0.18412 0.25019
# Poissons Ratio (z) = 0.35924 0.49066
#
# Static dielectric constant tensor:
#      x y z
#    x 4.464660 0.243400 -0.063350 
#    y 0.243400 4.070200 -0.091140 
#    z -0.063350 -0.091140 3.931280 
# 
# 
# High freq. dielectric constant tensor:
#      x y z
#    x 1.875790 0.039250 -0.005250 
#    y 0.039250 1.868310 -0.005890 
#    z -0.005250 -0.005890 1.886880 
# 
# From -- ./inp_files/243877.got.cif
#   From: 2010.06.25/outbox.cif.g09.slc.cpg/sg2_122_cif.got.tgz:243877.got - 2010.06.27 13:26:56.
