data_PCOD8030058
_publ_section_title
;
Structure prediction by ZEFSAII (Michael W. Deem and Ramdas Pophale) SiO2 
 PCOD8030058
Probable space group: P -1
;
_chemical_formula_sum "Si O2"
_cell_formula_units_Z 12
_cell_length_a 5.445519
_cell_length_b 11.720232
_cell_length_c 15.037157
_cell_angle_alpha 141.958799
_cell_angle_beta 67.196933
_cell_angle_gamma 126.220037
_cell_volume 471.237118
_symmetry_space_group_name_H-M "P -1"
_symmetry_group_IT_number 2
_symmetry_cell_setting 'triclinic'
loop_
_space_group_symop_operation_xyz
x,y,z
-x,-y,-z
loop_
_atom_site_type_symbol
_atom_site_label
_atom_site_fract_x
_atom_site_fract_y
_atom_site_fract_z
Si Si1 0.664158 0.926050 0.534942
Si Si2 0.824197 0.346560 0.179425
Si Si3 0.742772 0.669198 0.504006
Si Si4 0.442387 0.046808 0.907441
Si Si5 0.904147 0.926262 0.198111
Si Si6 0.588665 0.302435 0.748186
O O1 0.580508 0.785794 0.549942
O O2 0.440766 0.777704 0.397812
O O3 0.659927 0.140233 0.694370
O O4 0.000000 0.000000 0.500000
O O5 0.837466 0.554320 0.346540
O O6 0.140807 0.446872 0.136768
O O7 0.809291 0.183496 0.157318
O O8 0.530326 0.228272 0.082333
O O9 0.500000 0.500000 0.500000
O O10 0.042780 0.851961 0.626731
O O11 0.284054 0.102317 0.883754
O O12 0.760688 0.046733 0.845774
O O13 0.712040 0.729125 0.174536
#
# Coordination Sequence:
#
# PCOD8030058 Si02
#       6
#     2   2   2   2   2   2
#     4  11  21  42  66 109 153 181 240 308 376 431
#     4  11  26  48  72 108 144 205 237 299 377 438
#     4  12  24  43  78 110 140 194 249 308 361 433
#     4  11  29  50  72 106 158 192 246 300 368 447
#     4  12  26  49  74 112 146 191 249 311 356 437
#     4  11  24  41  73 106 146 197 238 306 369 437
#
# _framework density 25.464887999999998
#
# number of rings (size 3 to 8) (size 9 to 14) (size 15 to 20)
#    0.000    0.667    5.000    2.000    2.333    6.000 
#    0.000    0.000    0.000    0.000    0.000    0.000 
#    0.000    0.000    0.000    0.000    0.000    0.000 
#
# Total GULP energy -148745.577058 kJ/mol
# GULP energy per Si atom -12395.464755 kJ/mol
# Density = 2.540693 g / cm^3
# Si number density = 25.464888 Si / 1000 Ang^3
#
#
#
# Elastic Constant Matrix: (Units=GPa)
#
#
# Indices 1 2 3 4 5 6 
#
# 1 97.9603 52.1037 23.5024 1.9466 11.8235 -8.0160
# 2 52.1037 214.7593 16.7971 20.8320 9.5953 7.3879
# 3 23.5024 16.7971 71.0927 -0.8324 17.1112 1.7829
# 4 1.9466 20.8320 -0.8324 42.6758 1.3650 9.7776
# 5 11.8235 9.5953 17.1112 1.3650 26.7055 -7.3757
# 6 -8.0160 7.3879 1.7829 9.7776 -7.3757 41.1642
#
#
#
# Elastic Compliance Matrix: (Units=1/GPa)
#
#
# Indices 1 2 3 4 5 6 
#
# 1 0.012993 -0.002932 -0.003222 0.000190 -0.001867 0.002816
# 2 -0.002932 0.005687 -0.000170 -0.002349 -0.000841 -0.001177
# 3 -0.003222 -0.000170 0.017978 0.001810 -0.011176 -0.003808
# 4 0.000190 -0.002349 0.001810 0.026202 -0.003528 -0.006476
# 5 -0.001867 -0.000841 -0.011176 -0.003528 0.048628 0.009823
# 6 0.002816 -0.001177 -0.003808 -0.006476 0.009823 0.028516
#
#
# Mechanical properties :
#
#
# Convention : Reuss Voigt Hill
#
# Bulk Modulus (GPa) = 41.64847 63.17986 52.41417
# Shear Modulus (GPa) = 31.12267 41.53637 36.32952
#
# Velocity S-wave (km/s) = 3.49976 4.04310 3.78120
# Velocity P-wave (km/s) = 5.72030 6.83081 6.30007
#
# Compressibility (1/GPa) = 0.02401049
#
# Stress axis : x y z
#
# Youngs Moduli (GPa) = 76.96657 175.83990 55.62377
#
# Poissons Ratio (x) = 0.51559 0.17920
# Poissons Ratio (y) = 0.22568 0.00944
# Poissons Ratio (z) = 0.24795 0.02986
#
# Static dielectric constant tensor:
#      x y z
#    x 1.419680 1.189370 -0.429740 
#    y 1.189370 4.660840 -0.022320 
#    z -0.429740 -0.022320 5.087780 
# 
# 
# High freq. dielectric constant tensor:
#      x y z
#    x 1.998770 0.011050 0.008580 
#    y 0.011050 2.040800 -0.003310 
#    z 0.008580 -0.003310 2.021680 
# 
# From -- ./inp_files/28068.got.cif
#   From: 2010.06.25/outbox.cif.g09.slc.cpg/sg2_15_cif.got.tgz:28068.got - 2010.06.27 13:26:56.
