data_PCOD8030413
_publ_section_title
;
Structure prediction by ZEFSAII (Michael W. Deem and Ramdas Pophale) SiO2 
 PCOD8030413
Probable space group: P -1
;
_chemical_formula_sum "Si O2"
_cell_formula_units_Z 16
_cell_length_a 12.782498
_cell_length_b 10.827724
_cell_length_c 19.868194
_cell_angle_alpha 30.216793
_cell_angle_beta 148.011184
_cell_angle_gamma 144.642160
_cell_volume 697.032374
_symmetry_space_group_name_H-M "P -1"
_symmetry_group_IT_number 2
_symmetry_cell_setting 'triclinic'
loop_
_space_group_symop_operation_xyz
x,y,z
-x,-y,-z
loop_
_atom_site_type_symbol
_atom_site_label
_atom_site_fract_x
_atom_site_fract_y
_atom_site_fract_z
Si Si1 0.996654 0.630584 0.712962
Si Si2 0.846954 0.212208 0.062651
Si Si3 0.373416 0.858379 0.272486
Si Si4 0.265812 0.107817 0.969126
Si Si5 0.171707 0.944424 0.539340
Si Si6 0.205744 0.989143 0.254995
Si Si7 0.327810 0.565895 0.022472
Si Si8 0.097868 0.805266 0.416688
O O1 0.768783 0.426113 0.689473
O O2 0.067916 0.686930 0.647760
O O3 0.164633 0.530140 0.889530
O O4 0.985924 0.887128 0.624444
O O5 0.688705 0.220678 0.032378
O O6 0.945200 0.982231 0.241739
O O7 0.000000 0.500000 0.000000
O O8 0.732947 0.131883 0.966253
O O9 0.327805 0.060337 0.100910
O O10 0.615988 0.886164 0.388489
O O11 0.334991 0.924791 0.296204
O O12 0.440175 0.360642 0.915954
O O13 0.040030 0.145906 0.830511
O O14 0.209537 0.865512 0.521433
O O15 0.260461 0.883069 0.406477
O O16 0.267594 0.294690 0.154980
O O17 0.000000 0.500000 0.500000
#
# Coordination Sequence:
#
# PCOD8030413 Si02
#       8
#     2   2   2   2   2   2   2   2
#     4  11  23  43  68  98 141 174 232 285 342 410
#     4  11  21  45  72 100 137 181 229 289 343 401
#     4  12  24  43  66 100 135 185 226 282 349 408
#     4  11  24  40  68 105 133 174 235 288 344 406
#     4  11  25  44  67  98 137 186 228 276 347 423
#     4  11  26  44  69  97 143 178 228 289 345 399
#     4  12  22  43  72 104 131 180 232 288 344 404
#     4  11  24  45  72  98 142 185 224 284 346 410
#
# _framework density 22.954457999999999
#
# number of rings (size 3 to 8) (size 9 to 14) (size 15 to 20)
#    0.000    0.750    6.250    1.875    0.000    4.000 
#    0.000    2.500    0.000    0.000    0.000    0.000 
#    0.000    0.000    0.000    0.000    0.000    0.000 
#
# Total GULP energy -198346.967700 kJ/mol
# GULP energy per Si atom -12396.685481 kJ/mol
# Density = 2.290221 g / cm^3
# Si number density = 22.954458 Si / 1000 Ang^3
#
#
#
# Elastic Constant Matrix: (Units=GPa)
#
#
# Indices 1 2 3 4 5 6 
#
# 1 92.6624 11.9472 22.5363 -3.7369 -26.7264 3.4791
# 2 11.9472 106.1619 36.4547 -6.7277 -8.6469 19.4822
# 3 22.5363 36.4547 64.5533 -17.0763 -22.2615 7.3970
# 4 -3.7369 -6.7277 -17.0763 38.6752 -0.0847 -0.5133
# 5 -26.7264 -8.6469 -22.2615 -0.0847 43.7177 4.6401
# 6 3.4791 19.4822 7.3970 -0.5133 4.6401 47.5070
#
#
#
# Elastic Compliance Matrix: (Units=1/GPa)
#
#
# Indices 1 2 3 4 5 6 
#
# 1 0.013459 0.000020 -0.001853 0.000483 0.007441 -0.001427
# 2 0.000020 0.012459 -0.007114 -0.001026 -0.000730 -0.003943
# 3 -0.001853 -0.007114 0.027195 0.010587 0.011562 -0.002196
# 4 0.000483 -0.001026 0.010587 0.030392 0.005701 -0.001492
# 5 0.007441 -0.000730 0.011562 0.005701 0.033738 -0.005280
# 6 -0.001427 -0.003943 -0.002196 -0.001492 -0.005280 0.023613
#
#
# Mechanical properties :
#
#
# Convention : Reuss Voigt Hill
#
# Bulk Modulus (GPa) = 28.39309 45.02819 36.71064
# Shear Modulus (GPa) = 29.32746 38.80927 34.06837
#
# Velocity S-wave (km/s) = 3.57828 4.11628 3.85667
# Velocity P-wave (km/s) = 5.42847 6.50005 5.98828
#
# Compressibility (1/GPa) = 0.03521984
#
# Stress axis : x y z
#
# Youngs Moduli (GPa) = 74.29898 80.26036 36.77181
#
# Poissons Ratio (x) = -0.00161 0.06812
# Poissons Ratio (y) = -0.00149 0.26160
# Poissons Ratio (z) = 0.13765 0.57099
#
# Static dielectric constant tensor:
#      x y z
#    x 4.401280 -0.013130 -0.351340 
#    y -0.013130 4.094500 -0.010710 
#    z -0.351340 -0.010710 3.999610 
# 
# 
# High freq. dielectric constant tensor:
#      x y z
#    x 1.921980 0.000520 -0.020440 
#    y 0.000520 1.906500 -0.005870 
#    z -0.020440 -0.005870 1.891730 
# 
# From -- ./inp_files/597962.got.cif
#   From: 2010.06.25/outbox.cif.g09.slc.cpg/sg2_299_cif.got.tgz:597962.got - 2010.06.27 13:26:56.
