data_PCOD8030377
_publ_section_title
;
Structure prediction by ZEFSAII (Michael W. Deem and Ramdas Pophale) SiO2 
 PCOD8030377
Probable space group: P -1
;
_chemical_formula_sum "Si O2"
_cell_formula_units_Z 14
_cell_length_a 10.761898
_cell_length_b 16.006616
_cell_length_c 5.428086
_cell_angle_alpha 50.963971
_cell_angle_beta 63.816782
_cell_angle_gamma 47.399642
_cell_volume 534.442223
_symmetry_space_group_name_H-M "P -1"
_symmetry_group_IT_number 2
_symmetry_cell_setting 'triclinic'
loop_
_space_group_symop_operation_xyz
x,y,z
-x,-y,-z
loop_
_atom_site_type_symbol
_atom_site_label
_atom_site_fract_x
_atom_site_fract_y
_atom_site_fract_z
Si Si1 0.146064 0.359732 0.033333
Si Si2 0.645050 0.189222 0.427746
Si Si3 0.308243 0.680261 0.247632
Si Si4 0.412517 0.115802 0.558902
Si Si5 0.999387 0.800208 0.606854
Si Si6 0.166310 0.058305 0.026554
Si Si7 0.615677 0.577711 0.485476
O O1 0.278986 0.261329 0.302034
O O2 0.057491 0.296213 0.107353
O O3 0.250346 0.384598 0.700831
O O4 0.000000 0.500000 0.000000
O O5 0.561858 0.114515 0.556473
O O6 0.508938 0.341434 0.330689
O O7 0.757798 0.097821 0.732554
O O8 0.756510 0.192795 0.104943
O O9 0.502425 0.620461 0.256441
O O10 0.290348 0.578803 0.287658
O O11 0.198793 0.716327 0.527071
O O12 0.500000 0.000000 0.500000
O O13 0.311781 0.083848 0.896535
O O14 0.963541 0.879114 0.744549
O O15 0.910233 0.889564 0.274504
#
# Coordination Sequence:
#
# PCOD8030377 Si02
#       7
#     2   2   2   2   2   2   2
#     4  11  21  44  74 106 141 192 248 308 371 430
#     4  12  24  43  75 104 140 200 244 305 369 452
#     4  11  26  45  69 103 150 195 243 301 370 449
#     4  11  23  46  76 111 151 191 251 311 375 445
#     4  11  26  48  71 111 150 191 242 313 372 442
#     4  11  26  45  75 107 148 189 248 308 372 437
#     4  11  24  46  71 104 144 193 254 297 369 446
#
# _framework density 26.195533999999999
#
# number of rings (size 3 to 8) (size 9 to 14) (size 15 to 20)
#    0.000    0.857    2.857    4.286    4.000    1.143 
#    2.571    2.143    0.000    0.000    0.000    0.000 
#    0.000    0.000    0.000    0.000    0.000    0.000 
#
# Total GULP energy -173534.298000 kJ/mol
# GULP energy per Si atom -12395.307000 kJ/mol
# Density = 2.613591 g / cm^3
# Si number density = 26.195534 Si / 1000 Ang^3
#
#
#
# Elastic Constant Matrix: (Units=GPa)
#
#
# Indices 1 2 3 4 5 6 
#
# 1 69.0180 10.8431 24.0909 -2.0573 -10.3063 -5.7852
# 2 10.8431 136.9185 27.9938 8.4654 5.1901 -10.4861
# 3 24.0909 27.9938 90.7149 -3.9236 1.3093 -12.8222
# 4 -2.0573 8.4654 -3.9236 43.7093 -3.8231 1.3140
# 5 -10.3063 5.1901 1.3093 -3.8231 31.9969 7.5153
# 6 -5.7852 -10.4861 -12.8222 1.3140 7.5153 33.0601
#
#
#
# Elastic Compliance Matrix: (Units=1/GPa)
#
#
# Indices 1 2 3 4 5 6 
#
# 1 0.017038 -0.000779 -0.004377 0.001097 0.006012 -0.000373
# 2 -0.000779 0.008172 -0.002053 -0.002070 -0.002270 0.002258
# 3 -0.004377 -0.002053 0.013517 0.001053 -0.002528 0.004358
# 4 0.001097 -0.002070 0.001053 0.023827 0.003939 -0.001899
# 5 0.006012 -0.002270 -0.002528 0.003939 0.036257 -0.009047
# 6 -0.000373 0.002258 0.004358 -0.001899 -0.009047 0.034721
#
#
# Mechanical properties :
#
#
# Convention : Reuss Voigt Hill
#
# Bulk Modulus (GPa) = 41.13272 46.94523 44.03898
# Shear Modulus (GPa) = 32.04054 37.33483 34.68768
#
# Velocity S-wave (km/s) = 3.50112 3.77933 3.64288
# Velocity P-wave (km/s) = 5.66393 6.08312 5.87726
#
# Compressibility (1/GPa) = 0.02431155
#
# Stress axis : x y z
#
# Youngs Moduli (GPa) = 58.69168 122.37022 73.97929
#
# Poissons Ratio (x) = 0.09531 0.32377
# Poissons Ratio (y) = 0.04571 0.15185
# Poissons Ratio (z) = 0.25687 0.25117
#
# Static dielectric constant tensor:
#      x y z
#    x 4.748540 -0.250960 -0.459600 
#    y -0.250960 4.632050 -0.149010 
#    z -0.459600 -0.149010 4.818330 
# 
# 
# High freq. dielectric constant tensor:
#      x y z
#    x 2.048800 -0.005410 -0.023820 
#    y -0.005410 2.051450 -0.010330 
#    z -0.023820 -0.010330 2.057770 
# 
# From -- ./inp_files/76946.got.cif
#   From: 2010.06.25/outbox.cif.g09.slc.cpg/sg2_39_cif.got.tgz:76946.got - 2010.06.27 13:26:56.
