data_PCOD8030064
_publ_section_title
;
Structure prediction by ZEFSAII (Michael W. Deem and Ramdas Pophale) SiO2 
 PCOD8030064
Probable space group: P -1
;
_chemical_formula_sum "Si O2"
_cell_formula_units_Z 16
_cell_length_a 18.088388
_cell_length_b 12.216847
_cell_length_c 24.404232
_cell_angle_alpha 28.890204
_cell_angle_beta 17.964447
_cell_angle_gamma 28.657343
_cell_volume 766.696143
_symmetry_space_group_name_H-M "P -1"
_symmetry_group_IT_number 2
_symmetry_cell_setting 'triclinic'
loop_
_space_group_symop_operation_xyz
x,y,z
-x,-y,-z
loop_
_atom_site_type_symbol
_atom_site_label
_atom_site_fract_x
_atom_site_fract_y
_atom_site_fract_z
Si Si1 0.015943 0.243880 0.123479
Si Si2 0.469996 0.817413 0.965957
Si Si3 0.331883 0.991510 0.761634
Si Si4 0.632211 0.936731 0.681321
Si Si5 0.086360 0.528298 0.365778
Si Si6 0.116201 0.578824 0.094012
Si Si7 0.305040 0.031375 0.576117
Si Si8 0.211902 0.649596 0.643887
O O1 0.869157 0.268073 0.273463
O O2 0.874812 0.137099 0.222746
O O3 0.000000 0.500000 0.000000
O O4 0.301506 0.059913 0.009313
O O5 0.518999 0.899863 0.835228
O O6 0.736350 0.667581 0.871147
O O7 0.324717 0.623693 0.154009
O O8 0.097173 0.219759 0.809765
O O9 0.398906 0.999733 0.775147
O O10 0.569942 0.012782 0.552068
O O11 0.294960 0.737951 0.880137
O O12 0.850075 0.710695 0.607520
O O13 0.788828 0.126053 0.491626
O O14 0.000000 0.500000 0.500000
O O15 0.858731 0.699584 0.418125
O O16 0.977295 0.492792 0.179792
O O17 0.500000 0.000000 0.500000
O O18 0.500000 0.500000 0.500000
#
# Coordination Sequence:
#
# PCOD8030064 Si02
#       8
#     2   2   2   2   2   2   2   2
#     4  11  25  45  67  96 136 176 217 270 336 399
#     4  11  25  41  67 101 130 170 225 272 324 391
#     4  11  23  42  68  97 131 177 218 268 330 393
#     4  12  22  42  68  95 133 176 215 265 340 396
#     4  11  21  42  66  94 133 171 215 270 329 389
#     4  11  25  40  68  97 130 167 225 272 319 393
#     4  11  24  41  67  97 131 167 225 273 322 383
#     4  12  24  45  68  92 132 179 214 266 340 397
#
# _framework density 20.868762
#
# number of rings (size 3 to 8) (size 9 to 14) (size 15 to 20)
#    0.000    0.750    5.000    1.875    3.500    3.000 
#    2.250    0.000    0.000    0.000    0.000    0.000 
#    0.000    0.000    0.000    0.000    0.000    0.000 
#
# Total GULP energy -198217.988901 kJ/mol
# GULP energy per Si atom -12388.624306 kJ/mol
# Density = 2.082126 g / cm^3
# Si number density = 20.868762 Si / 1000 Ang^3
#
#
#
# Elastic Constant Matrix: (Units=GPa)
#
#
# Indices 1 2 3 4 5 6 
#
# 1 102.5691 47.9615 42.5500 3.8201 -4.4070 -8.4998
# 2 47.9615 184.8692 46.6751 6.1075 0.6512 -14.0198
# 3 42.5500 46.6751 98.5712 -10.8150 11.8260 -0.4225
# 4 3.8201 6.1075 -10.8150 45.2549 6.0045 -4.1166
# 5 -4.4070 0.6512 11.8260 6.0045 38.6735 8.3957
# 6 -8.4998 -14.0198 -0.4225 -4.1166 8.3957 34.3085
#
#
#
# Elastic Compliance Matrix: (Units=1/GPa)
#
#
# Indices 1 2 3 4 5 6 
#
# 1 0.013256 -0.001878 -0.005500 -0.002499 0.003322 0.001336
# 2 -0.001878 0.006727 -0.002517 -0.001187 0.000178 0.002067
# 3 -0.005500 -0.002517 0.014990 0.005162 -0.005940 -0.000134
# 4 -0.002499 -0.001187 0.005162 0.024882 -0.006473 0.003529
# 5 0.003322 0.000178 -0.005940 -0.006473 0.030674 -0.007460
# 6 0.001336 0.002067 -0.000134 0.003529 -0.007460 0.032570
#
#
# Mechanical properties :
#
#
# Convention : Reuss Voigt Hill
#
# Bulk Modulus (GPa) = 65.86772 73.37585 69.62178
# Shear Modulus (GPa) = 33.79509 40.23557 37.01533
#
# Velocity S-wave (km/s) = 4.02856 4.39570 4.21612
# Velocity P-wave (km/s) = 7.29865 7.81024 7.55878
#
# Compressibility (1/GPa) = 0.01518194
#
# Stress axis : x y z
#
# Youngs Moduli (GPa) = 75.43831 148.64510 66.71298
#
# Poissons Ratio (x) = 0.27920 0.36690
# Poissons Ratio (y) = 0.14170 0.16795
# Poissons Ratio (z) = 0.41489 0.37421
#
# Static dielectric constant tensor:
#      x y z
#    x 3.289060 -0.240980 -0.112580 
#    y -0.240980 3.829140 -0.343510 
#    z -0.112580 -0.343510 3.700700 
# 
# 
# High freq. dielectric constant tensor:
#      x y z
#    x 1.789280 -0.004790 -0.001500 
#    y -0.004790 1.845850 0.001160 
#    z -0.001500 0.001160 1.826960 
# 
# From -- ./inp_files/613165.got.cif
#   From: 2010.06.25/outbox.cif.g09.slc.cpg/sg2_307_cif.got.tgz:613165.got - 2010.06.27 13:26:56.
