data_PCOD8030708
_publ_section_title
;
Structure prediction by ZEFSAII (Michael W. Deem and Ramdas Pophale) SiO2 
 PCOD8030708
Probable space group: P -1
;
_chemical_formula_sum "Si O2"
_cell_formula_units_Z 16
_cell_length_a 12.958442
_cell_length_b 8.056093
_cell_length_c 9.339690
_cell_angle_alpha 66.964011
_cell_angle_beta 126.392135
_cell_angle_gamma 99.318668
_cell_volume 719.020464
_symmetry_space_group_name_H-M "P -1"
_symmetry_group_IT_number 2
_symmetry_cell_setting 'triclinic'
loop_
_space_group_symop_operation_xyz
x,y,z
-x,-y,-z
loop_
_atom_site_type_symbol
_atom_site_label
_atom_site_fract_x
_atom_site_fract_y
_atom_site_fract_z
Si Si1 0.791471 0.250020 0.604761
Si Si2 0.847560 0.518017 0.343334
Si Si3 0.115152 0.620827 0.080708
Si Si4 0.157342 0.132308 0.627222
Si Si5 0.033993 0.048153 0.280667
Si Si6 0.682882 0.489276 0.946745
Si Si7 0.524013 0.172108 0.367640
Si Si8 0.596100 0.125924 0.113364
O O1 0.791234 0.340777 0.417875
O O2 0.856247 0.376825 0.727969
O O3 0.643743 0.242000 0.527769
O O4 0.868286 0.050974 0.720836
O O5 0.783063 0.692682 0.318370
O O6 0.000000 0.500000 0.500000
O O7 0.799040 0.528909 0.136679
O O8 0.246909 0.557938 0.128942
O O9 0.000000 0.500000 0.000000
O O10 0.073116 0.826730 0.933377
O O11 0.109612 0.169526 0.412270
O O12 0.259731 0.958537 0.770639
O O13 0.035387 0.100272 0.636975
O O14 0.594501 0.674711 0.784977
O O15 0.594209 0.332494 0.980989
O O16 0.563305 0.118992 0.255944
O O17 0.500000 0.000000 0.500000
O O18 0.500000 0.000000 0.000000
#
# Coordination Sequence:
#
# PCOD8030708 Si02
#       8
#     2   2   2   2   2   2   2   2
#     4  12  26  46  71 104 152 188 241 300 366 436
#     4  12  23  43  76 110 142 188 237 303 370 433
#     4  12  28  45  71 108 147 190 234 304 379 432
#     4  11  22  39  75 106 137 181 246 302 357 430
#     4  11  22  44  69 105 144 185 237 303 365 430
#     4  12  27  51  74 108 150 190 256 298 357 452
#     4  12  30  50  74 104 148 201 244 305 367 428
#     4  12  26  49  75 107 140 197 252 299 359 435
#
# _framework density 22.252496000000001
#
# number of rings (size 3 to 8) (size 9 to 14) (size 15 to 20)
#    0.000    0.250    5.000    3.750    5.250    2.500 
#    0.000    0.000    0.000    0.000    0.000    0.000 
#    0.000    0.000    0.000    0.000    0.000    0.000 
#
# Total GULP energy -198417.901740 kJ/mol
# GULP energy per Si atom -12401.118859 kJ/mol
# Density = 2.220185 g / cm^3
# Si number density = 22.252496 Si / 1000 Ang^3
#
#
#
# Elastic Constant Matrix: (Units=GPa)
#
#
# Indices 1 2 3 4 5 6 
#
# 1 108.7407 38.9535 49.8101 -5.9524 5.5867 -3.0167
# 2 38.9535 111.3117 44.9123 1.0401 3.3703 -3.6646
# 3 49.8101 44.9123 104.5240 -4.6311 11.9014 -8.0631
# 4 -5.9524 1.0401 -4.6311 47.2781 -2.1025 1.2496
# 5 5.5867 3.3703 11.9014 -2.1025 40.2221 -0.9675
# 6 -3.0167 -3.6646 -8.0631 1.2496 -0.9675 45.1577
#
#
#
# Elastic Compliance Matrix: (Units=1/GPa)
#
#
# Indices 1 2 3 4 5 6 
#
# 1 0.012310 -0.002387 -0.004806 0.001137 -0.000034 -0.000262
# 2 -0.002387 0.011362 -0.003830 -0.000908 0.000468 0.000114
# 3 -0.004806 -0.003830 0.014022 0.000668 -0.003082 0.001787
# 4 0.001137 -0.000908 0.000668 0.021429 0.000830 -0.000454
# 5 -0.000034 0.000468 -0.003082 0.000830 0.025783 0.000015
# 6 -0.000262 0.000114 0.001787 -0.000454 0.000015 0.022468
#
#
# Mechanical properties :
#
#
# Convention : Reuss Voigt Hill
#
# Bulk Modulus (GPa) = 63.90517 65.76980 64.83748
# Shear Modulus (GPa) = 37.13744 39.25829 38.19786
#
# Velocity S-wave (km/s) = 4.08966 4.20482 4.14764
# Velocity P-wave (km/s) = 7.14710 7.29344 7.22064
#
# Compressibility (1/GPa) = 0.01564819
#
# Stress axis : x y z
#
# Youngs Moduli (GPa) = 81.23804 88.01116 71.31864
#
# Poissons Ratio (x) = 0.21005 0.34279
# Poissons Ratio (y) = 0.19388 0.27312
# Poissons Ratio (z) = 0.39046 0.33704
#
# Static dielectric constant tensor:
#      x y z
#    x 4.076490 -0.060030 0.119470 
#    y -0.060030 4.100470 0.042020 
#    z 0.119470 0.042020 4.127820 
# 
# 
# High freq. dielectric constant tensor:
#      x y z
#    x 1.876820 -0.007880 0.005260 
#    y -0.007880 1.888080 0.001820 
#    z 0.005260 0.001820 1.878670 
# 
# From -- ./inp_files/242695.got.cif
#   From: 2010.06.25/outbox.cif.g09.slc.cpg/sg2_122_cif.got.tgz:242695.got - 2010.06.27 13:26:56.
