data_PCOD8030250
_publ_section_title
;
Structure prediction by ZEFSAII (Michael W. Deem and Ramdas Pophale) SiO2 
 PCOD8030250
Probable space group: P -1
;
_chemical_formula_sum "Si O2"
_cell_formula_units_Z 14
_cell_length_a 12.478557
_cell_length_b 8.598830
_cell_length_c 9.229348
_cell_angle_alpha 62.191911
_cell_angle_beta 49.212355
_cell_angle_gamma 56.642860
_cell_volume 617.199224
_symmetry_space_group_name_H-M "P -1"
_symmetry_group_IT_number 2
_symmetry_cell_setting 'triclinic'
loop_
_space_group_symop_operation_xyz
x,y,z
-x,-y,-z
loop_
_atom_site_type_symbol
_atom_site_label
_atom_site_fract_x
_atom_site_fract_y
_atom_site_fract_z
Si Si1 0.957872 0.199005 0.373205
Si Si2 0.454972 0.142044 0.786093
Si Si3 0.193253 0.401010 0.093192
Si Si4 0.546622 0.247163 0.376575
Si Si5 0.891972 0.177996 0.107698
Si Si6 0.468108 0.274571 0.105633
Si Si7 0.626133 0.355254 0.681738
O O1 0.954332 0.165462 0.220126
O O2 0.797924 0.337975 0.518139
O O3 0.072050 0.302883 0.267342
O O4 0.000000 0.000000 0.500000
O O5 0.472728 0.136438 0.597258
O O6 0.600614 0.177676 0.707833
O O7 0.462865 0.939878 0.922667
O O8 0.297999 0.303786 0.904813
O O9 0.295591 0.372878 0.159261
O O10 0.110762 0.624992 0.042694
O O11 0.727959 0.159437 0.255682
O O12 0.471416 0.263467 0.278748
O O13 0.487829 0.465317 0.383908
O O14 0.000000 0.000000 0.000000
O O15 0.577037 0.372673 0.889979
#
# Coordination Sequence:
#
# PCOD8030250 Si02
#       7
#     2   2   2   2   2   2   2
#     4  12  26  47  73 104 142 185 233 285 349 419
#     4  11  21  43  72 102 132 178 234 282 336 416
#     4  11  25  48  71 103 141 184 236 281 345 420
#     4  12  24  44  71 103 138 178 235 285 347 406
#     4  12  28  47  70 100 147 186 227 295 355 402
#     4  11  24  42  73 105 136 176 228 293 344 407
#     4  11  22  44  74  95 135 187 232 276 341 417
#
# _framework density 22.683115000000001
#
# number of rings (size 3 to 8) (size 9 to 14) (size 15 to 20)
#    0.000    0.571    4.286    6.000    4.000    0.000 
#    2.571    1.429    0.000    0.000    0.000    0.000 
#    0.000    0.000    0.000    0.000    0.000    0.000 
#
# Total GULP energy -173598.112974 kJ/mol
# GULP energy per Si atom -12399.865212 kJ/mol
# Density = 2.263149 g / cm^3
# Si number density = 22.683115 Si / 1000 Ang^3
#
#
#
# Elastic Constant Matrix: (Units=GPa)
#
#
# Indices 1 2 3 4 5 6 
#
# 1 130.0661 20.0090 56.5105 4.8001 -0.6872 -6.4436
# 2 20.0090 99.3150 19.2093 -16.6348 -18.6493 -23.8333
# 3 56.5105 19.2093 108.4028 -2.2547 -20.6434 -6.2254
# 4 4.8001 -16.6348 -2.2547 42.3635 -4.0707 0.6579
# 5 -0.6872 -18.6493 -20.6434 -4.0707 51.0575 3.1496
# 6 -6.4436 -23.8333 -6.2254 0.6579 3.1496 22.8658
#
#
#
# Elastic Compliance Matrix: (Units=1/GPa)
#
#
# Indices 1 2 3 4 5 6 
#
# 1 0.010617 -0.002123 -0.005837 -0.002649 -0.003186 -0.000295
# 2 -0.002123 0.016429 0.000324 0.007014 0.005698 0.015627
# 3 -0.005837 0.000324 0.013391 0.002008 0.005520 0.001520
# 4 -0.002649 0.007014 0.002008 0.027175 0.005158 0.005618
# 5 -0.003186 0.005698 0.005520 0.005158 0.024077 0.003080
# 6 -0.000295 0.015627 0.001520 0.005618 0.003080 0.059767
#
#
# Mechanical properties :
#
#
# Convention : Reuss Voigt Hill
#
# Bulk Modulus (GPa) = 39.73809 58.80461 49.27135
# Shear Modulus (GPa) = 28.55230 39.39437 33.97334
#
# Velocity S-wave (km/s) = 3.55173 4.17193 3.87426
# Velocity P-wave (km/s) = 5.86315 7.01337 6.46389
#
# Compressibility (1/GPa) = 0.02516477
#
# Stress axis : x y z
#
# Youngs Moduli (GPa) = 94.18454 60.86790 74.67807
#
# Poissons Ratio (x) = 0.12920 0.43593
# Poissons Ratio (y) = 0.19991 -0.02417
# Poissons Ratio (z) = 0.54979 -0.01970
#
# Static dielectric constant tensor:
#      x y z
#    x 4.106920 0.035070 -0.056070 
#    y 0.035070 4.383340 -0.229460 
#    z -0.056070 -0.229460 4.483690 
# 
# 
# High freq. dielectric constant tensor:
#      x y z
#    x 1.891110 0.002780 0.010810 
#    y 0.002780 1.909430 -0.013840 
#    z 0.010810 -0.013840 1.905270 
# 
# From -- ./inp_files/158492.got.cif
#   From: 2010.06.25/outbox.cif.g09.slc.cpg/sg2_80_cif.got.tgz:158492.got - 2010.06.27 13:26:56.
