data_PCOD8030040
_publ_section_title
;
Structure prediction by ZEFSAII (Michael W. Deem and Ramdas Pophale) SiO2 
 PCOD8030040
Probable space group: P -1
;
_chemical_formula_sum "Si O2"
_cell_formula_units_Z 16
_cell_length_a 14.312877
_cell_length_b 16.170371
_cell_length_c 9.463431
_cell_angle_alpha 146.336617
_cell_angle_beta 124.289571
_cell_angle_gamma 38.401692
_cell_volume 728.596002
_symmetry_space_group_name_H-M "P -1"
_symmetry_group_IT_number 2
_symmetry_cell_setting 'triclinic'
loop_
_space_group_symop_operation_xyz
x,y,z
-x,-y,-z
loop_
_atom_site_type_symbol
_atom_site_label
_atom_site_fract_x
_atom_site_fract_y
_atom_site_fract_z
Si Si1 0.186473 0.730360 0.997673
Si Si2 0.081824 0.512446 0.713217
Si Si3 0.604447 0.774688 0.322192
Si Si4 0.377965 0.475173 0.250686
Si Si5 0.068191 0.880877 0.537164
Si Si6 0.586139 0.532931 0.420753
Si Si7 0.931406 0.697459 0.132933
Si Si8 0.374359 0.837458 0.432874
O O1 0.301515 0.742807 0.193211
O O2 0.159257 0.603494 0.879768
O O3 0.250748 0.631701 0.758030
O O4 0.014698 0.960670 0.176235
O O5 0.239742 0.283884 0.568909
O O6 0.000000 0.500000 0.500000
O O7 0.949394 0.643602 0.906065
O O8 0.511821 0.754901 0.325221
O O9 0.500000 0.000000 0.500000
O O10 0.661418 0.627223 0.027542
O O11 0.253732 0.725607 0.485111
O O12 0.538115 0.407254 0.241973
O O13 0.384514 0.407855 0.321995
O O14 0.042622 0.729409 0.318408
O O15 0.000000 0.000000 0.500000
O O16 0.457674 0.739963 0.516212
O O17 0.752566 0.913313 0.314391
O O18 0.000000 0.500000 0.000000
#
# Coordination Sequence:
#
# PCOD8030040 Si02
#       8
#     2   2   2   2   2   2   2   2
#     4  11  22  43  73  99 131 183 236 281 344 420
#     4  12  26  46  68 100 142 184 230 288 348 424
#     4  12  24  47  71  99 140 189 231 287 353 422
#     4  11  24  42  68 102 139 170 226 297 346 406
#     4  11  21  41  74  96 130 184 230 277 347 419
#     4  11  23  41  68 107 134 166 230 299 343 406
#     4  11  24  43  68 101 136 178 232 287 351 417
#     4  11  23  42  78 100 131 187 238 284 351 422
#
# _framework density 21.960044
#
# number of rings (size 3 to 8) (size 9 to 14) (size 15 to 20)
#    0.000    0.750    5.000    3.375    0.000    2.500 
#    2.250    1.250    0.000    0.000    0.000    0.000 
#    0.000    0.000    0.000    0.000    0.000    0.000 
#
# Total GULP energy -198288.126065 kJ/mol
# GULP energy per Si atom -12393.007879 kJ/mol
# Density = 2.191006 g / cm^3
# Si number density = 21.960044 Si / 1000 Ang^3
#
#
#
# Elastic Constant Matrix: (Units=GPa)
#
#
# Indices 1 2 3 4 5 6 
#
# 1 94.4491 44.3347 51.5305 -2.8768 -20.9573 6.5291
# 2 44.3347 140.2979 74.7574 -3.6097 -9.4309 3.7465
# 3 51.5305 74.7574 112.5930 3.2080 -23.4201 -0.5014
# 4 -2.8768 -3.6097 3.2080 36.7640 2.6395 -1.8823
# 5 -20.9573 -9.4309 -23.4201 2.6395 41.9206 1.2334
# 6 6.5291 3.7465 -0.5014 -1.8823 1.2334 39.0776
#
#
#
# Elastic Compliance Matrix: (Units=1/GPa)
#
#
# Indices 1 2 3 4 5 6 
#
# 1 0.015332 -0.001840 -0.004892 0.000991 0.004530 -0.002543
# 2 -0.001840 0.011553 -0.007414 0.001783 -0.002554 -0.000729
# 3 -0.004892 -0.007414 0.017321 -0.002959 0.005707 0.001428
# 4 0.000991 0.001783 -0.002959 0.027948 -0.002547 0.001052
# 5 0.004530 -0.002554 0.005707 -0.002547 0.028937 -0.001475
# 6 -0.002543 -0.000729 0.001428 0.001052 -0.001475 0.026200
#
#
# Mechanical properties :
#
#
# Convention : Reuss Voigt Hill
#
# Bulk Modulus (GPa) = 62.84093 76.50946 69.67519
# Shear Modulus (GPa) = 31.07709 35.33359 33.20534
#
# Velocity S-wave (km/s) = 3.76595 4.01558 3.89277
# Velocity P-wave (km/s) = 6.89840 7.51104 7.21123
#
# Compressibility (1/GPa) = 0.01591320
#
# Stress axis : x y z
#
# Youngs Moduli (GPa) = 65.22352 86.55423 57.73259
#
# Poissons Ratio (x) = 0.15927 0.28246
# Poissons Ratio (y) = 0.12002 0.42804
# Poissons Ratio (z) = 0.31910 0.64172
#
# Static dielectric constant tensor:
#      x y z
#    x 4.689010 -0.471260 -0.366650 
#    y -0.471260 4.587830 0.135020 
#    z -0.366650 0.135020 4.072720 
# 
# 
# High freq. dielectric constant tensor:
#      x y z
#    x 1.877180 -0.002910 -0.022650 
#    y -0.002910 1.859660 0.014230 
#    z -0.022650 0.014230 1.854550 
# 
# From -- ./inp_files/314271.got.cif
#   From: 2010.06.25/outbox.cif.g09.slc.cpg/sg2_158_cif.got.tgz:314271.got - 2010.06.27 13:26:56.
