data_PCOD8030070
_publ_section_title
;
Structure prediction by ZEFSAII (Michael W. Deem and Ramdas Pophale) SiO2 
 PCOD8030070
Probable space group: P -1
;
_chemical_formula_sum "Si O2"
_cell_formula_units_Z 16
_cell_length_a 18.482468
_cell_length_b 6.838855
_cell_length_c 15.896576
_cell_angle_alpha 73.200501
_cell_angle_beta 23.395036
_cell_angle_gamma 69.167135
_cell_volume 741.879907
_symmetry_space_group_name_H-M "P -1"
_symmetry_group_IT_number 2
_symmetry_cell_setting 'triclinic'
loop_
_space_group_symop_operation_xyz
x,y,z
-x,-y,-z
loop_
_atom_site_type_symbol
_atom_site_label
_atom_site_fract_x
_atom_site_fract_y
_atom_site_fract_z
Si Si1 0.835989 0.855971 0.990525
Si Si2 0.316363 0.103685 0.031374
Si Si3 0.960591 0.158870 0.945179
Si Si4 0.295195 0.473923 0.731690
Si Si5 0.822552 0.514591 0.332333
Si Si6 0.945350 0.236804 0.497125
Si Si7 0.347854 0.638952 0.086785
Si Si8 0.408638 0.623252 0.268225
O O1 0.722220 0.943574 0.018188
O O2 0.009507 0.676385 0.794758
O O3 0.902086 0.048017 0.939476
O O4 0.707954 0.759325 0.203880
O O5 0.138693 0.270191 0.245118
O O6 0.359869 0.878897 0.058042
O O7 0.507695 0.180141 0.821083
O O8 0.139544 0.254368 0.718983
O O9 0.798937 0.358801 0.118832
O O10 0.000000 0.000000 0.000000
O O11 0.500000 0.500000 0.500000
O O12 0.190988 0.516785 0.748986
O O13 0.641383 0.492136 0.580347
O O14 0.860901 0.374377 0.654176
O O15 0.774144 0.292575 0.605229
O O16 0.000000 0.000000 0.500000
O O17 0.500000 0.500000 0.000000
O O18 0.410590 0.549102 0.939156
#
# Coordination Sequence:
#
# PCOD8030070 Si02
#       8
#     2   2   2   2   2   2   2   2
#     4  11  22  41  64  94 126 174 224 259 325 388
#     4  11  23  41  68  95 133 175 213 268 329 389
#     4  11  21  42  67  86 125 179 219 266 318 384
#     4  11  23  39  62  94 131 168 217 271 318 383
#     4  11  22  40  65  94 130 173 219 265 327 379
#     4   9  20  42  67  94 128 169 213 257 328 398
#     4   9  22  42  65  99 129 161 219 262 321 399
#     4  11  23  42  66  97 137 166 214 275 324 384
#
# _framework density 21.566831000000001
#
# number of rings (size 3 to 8) (size 9 to 14) (size 15 to 20)
#    0.000    1.500    3.750    1.500    0.000    9.500 
#    2.250    2.500    0.000    0.000    0.000    0.000 
#    0.000    0.000    0.000    0.000    0.000    0.000 
#
# Total GULP energy -198232.474554 kJ/mol
# GULP energy per Si atom -12389.529660 kJ/mol
# Density = 2.151774 g / cm^3
# Si number density = 21.566831 Si / 1000 Ang^3
#
#
#
# Elastic Constant Matrix: (Units=GPa)
#
#
# Indices 1 2 3 4 5 6 
#
# 1 46.4598 30.9527 49.8713 0.5952 18.5054 1.0191
# 2 30.9527 102.6615 48.3694 -10.9698 2.0856 5.7571
# 3 49.8713 48.3694 134.0027 -19.4092 11.0099 1.7265
# 4 0.5952 -10.9698 -19.4092 36.0642 2.0935 -2.9168
# 5 18.5054 2.0856 11.0099 2.0935 33.9737 -0.8054
# 6 1.0191 5.7571 1.7265 -2.9168 -0.8054 29.7482
#
#
#
# Elastic Compliance Matrix: (Units=1/GPa)
#
#
# Indices 1 2 3 4 5 6 
#
# 1 0.055673 -0.009475 -0.017048 -0.011680 -0.023519 -0.000866
# 2 -0.009475 0.013533 -0.001241 0.003199 0.004493 -0.001787
# 3 -0.017048 -0.001241 0.015049 0.007836 0.004022 0.000828
# 4 -0.011680 0.003199 0.007836 0.033229 0.001641 0.002629
# 5 -0.023519 0.004493 0.004022 0.001641 0.040588 0.000962
# 6 -0.000866 -0.001787 0.000828 0.002629 0.000962 0.034227
#
#
# Mechanical properties :
#
#
# Convention : Reuss Voigt Hill
#
# Bulk Modulus (GPa) = 34.81077 60.16786 47.48932
# Shear Modulus (GPa) = 19.42485 30.21926 24.82206
#
# Velocity S-wave (km/s) = 3.00439 3.74731 3.39623
# Velocity P-wave (km/s) = 5.31141 6.83242 6.11936
#
# Compressibility (1/GPa) = 0.02872674
#
# Stress axis : x y z
#
# Youngs Moduli (GPa) = 17.96218 73.89252 66.44912
#
# Poissons Ratio (x) = 0.70014 1.13280
# Poissons Ratio (y) = 0.17019 0.08248
# Poissons Ratio (z) = 0.30621 0.09172
#
# Static dielectric constant tensor:
#      x y z
#    x 4.454310 0.572050 1.365650 
#    y 0.572050 4.212180 0.659930 
#    z 1.365650 0.659930 5.884330 
# 
# 
# High freq. dielectric constant tensor:
#      x y z
#    x 1.842740 -0.008800 0.015850 
#    y -0.008800 1.839960 -0.002400 
#    z 0.015850 -0.002400 1.857990 
# 
# From -- ./inp_files/576770.got.cif
#   From: 2010.06.25/outbox.cif.g09.slc.cpg/sg2_289_cif.got.tgz:576770.got - 2010.06.27 13:26:56.
