data_PCOD8030166
_publ_section_title
;
Structure prediction by ZEFSAII (Michael W. Deem and Ramdas Pophale) SiO2 
 PCOD8030166
Probable space group: P -1
;
_chemical_formula_sum "Si O2"
_cell_formula_units_Z 16
_cell_length_a 16.097859
_cell_length_b 9.468120
_cell_length_c 8.636809
_cell_angle_alpha 134.426463
_cell_angle_beta 73.599778
_cell_angle_gamma 125.424745
_cell_volume 748.647587
_symmetry_space_group_name_H-M "P -1"
_symmetry_group_IT_number 2
_symmetry_cell_setting 'triclinic'
loop_
_space_group_symop_operation_xyz
x,y,z
-x,-y,-z
loop_
_atom_site_type_symbol
_atom_site_label
_atom_site_fract_x
_atom_site_fract_y
_atom_site_fract_z
Si Si1 0.043354 0.845725 0.334461
Si Si2 0.150119 0.473148 0.997860
Si Si3 0.315015 0.377612 0.872577
Si Si4 0.811076 0.145712 0.947849
Si Si5 0.477831 0.923262 0.276779
Si Si6 0.987913 0.506556 0.692265
Si Si7 0.466753 0.358305 0.567079
Si Si8 0.367404 0.204368 0.004100
O O1 0.055222 0.757735 0.426108
O O2 0.957017 0.621196 0.108375
O O3 0.149257 0.979964 0.282148
O O4 0.000000 0.000000 0.500000
O O5 0.199350 0.315431 0.846778
O O6 0.222252 0.718635 0.049702
O O7 0.109087 0.468840 0.191516
O O8 0.358178 0.315892 0.652442
O O9 0.309019 0.214299 0.891264
O O10 0.377455 0.656523 0.100777
O O11 0.897037 0.301169 0.153503
O O12 0.708877 0.932043 0.918892
O O13 0.577814 0.935843 0.166369
O O14 0.500000 0.000000 0.500000
O O15 0.460091 0.114580 0.352599
O O16 0.000000 0.500000 0.500000
O O17 0.500000 0.500000 0.500000
O O18 0.549802 0.520078 0.781546
#
# Coordination Sequence:
#
# PCOD8030166 Si02
#       8
#     2   2   2   2   2   2   2   2
#     4   9  19  39  60  82 118 155 190 238 294 352
#     4   9  21  39  58  84 121 154 190 244 295 345
#     4  11  23  40  62  89 120 157 202 244 295 355
#     4   9  21  39  58  84 121 154 190 244 295 345
#     4  11  21  43  63  82 125 161 191 252 299 339
#     4   9  19  39  60  84 116 156 193 233 297 353
#     4  11  25  41  61  91 119 157 205 241 296 360
#     4  11  23  40  62  89 120 157 202 244 295 355
#
# _framework density 21.371870999999999
#
# number of rings (size 3 to 8) (size 9 to 14) (size 15 to 20)
#    0.000    2.000    2.500    2.250    3.500    5.000 
#    4.500    2.500    0.000    0.000    0.000    0.000 
#    0.000    0.000    0.000    0.000    0.000    0.000 
#
# Total GULP energy -198212.929415 kJ/mol
# GULP energy per Si atom -12388.308088 kJ/mol
# Density = 2.132323 g / cm^3
# Si number density = 21.371871 Si / 1000 Ang^3
#
#
#
# Elastic Constant Matrix: (Units=GPa)
#
#
# Indices 1 2 3 4 5 6 
#
# 1 112.9826 37.7330 32.2170 -13.8067 -40.5999 -4.4393
# 2 37.7330 118.9265 39.6860 -29.6122 -28.0633 0.2952
# 3 32.2170 39.6860 80.0695 -14.2270 -32.3471 -6.8515
# 4 -13.8067 -29.6122 -14.2270 43.0196 -0.9553 -1.5780
# 5 -40.5999 -28.0633 -32.3471 -0.9553 44.8340 -0.1336
# 6 -4.4393 0.2952 -6.8515 -1.5780 -0.1336 31.4802
#
#
#
# Elastic Compliance Matrix: (Units=1/GPa)
#
#
# Indices 1 2 3 4 5 6 
#
# 1 0.014270 -0.000447 0.001048 0.005013 0.013513 0.002553
# 2 -0.000447 0.012741 -0.002269 0.008003 0.006103 -0.000249
# 3 0.001048 -0.002269 0.020563 0.006081 0.014509 0.005011
# 4 0.005013 0.008003 0.006081 0.032833 0.014646 0.003663
# 5 0.013513 0.006103 0.014509 0.014646 0.049160 0.005949
# 6 0.002553 -0.000249 0.005011 0.003663 0.005949 0.033428
#
#
# Mechanical properties :
#
#
# Convention : Reuss Voigt Hill
#
# Bulk Modulus (GPa) = 22.60477 59.02784 40.81631
# Shear Modulus (GPa) = 27.61267 37.35626 32.48447
#
# Velocity S-wave (km/s) = 3.59835 4.18535 3.90290
# Velocity P-wave (km/s) = 5.27864 7.14392 6.28091
#
# Compressibility (1/GPa) = 0.04423844
#
# Stress axis : x y z
#
# Youngs Moduli (GPa) = 70.07624 78.48727 48.63161
#
# Poissons Ratio (x) = 0.03507 -0.05097
# Poissons Ratio (y) = 0.03131 0.11034
# Poissons Ratio (z) = -0.07344 0.17809
#
# Static dielectric constant tensor:
#      x y z
#    x 3.874610 -0.042770 -0.345620 
#    y -0.042770 3.789930 -0.041750 
#    z -0.345620 -0.041750 3.792940 
# 
# 
# High freq. dielectric constant tensor:
#      x y z
#    x 1.842560 -0.001510 -0.012130 
#    y -0.001510 1.836350 -0.010460 
#    z -0.012130 -0.010460 1.836020 
# 
# From -- ./inp_files/329576.got.cif
#   From: 2010.06.25/outbox.cif.g09.slc.cpg/sg2_165_cif.got.tgz:329576.got - 2010.06.27 13:26:56.
