data_PCOD8030565
_publ_section_title
;
Structure prediction by ZEFSAII (Michael W. Deem and Ramdas Pophale) SiO2 
 PCOD8030565
Probable space group: P -1
;
_chemical_formula_sum "Si O2"
_cell_formula_units_Z 12
_cell_length_a 4.891058
_cell_length_b 11.809521
_cell_length_c 11.990487
_cell_angle_alpha 114.856507
_cell_angle_beta 91.697453
_cell_angle_gamma 65.535198
_cell_volume 563.184175
_symmetry_space_group_name_H-M "P -1"
_symmetry_group_IT_number 2
_symmetry_cell_setting 'triclinic'
loop_
_space_group_symop_operation_xyz
x,y,z
-x,-y,-z
loop_
_atom_site_type_symbol
_atom_site_label
_atom_site_fract_x
_atom_site_fract_y
_atom_site_fract_z
Si Si1 0.472963 0.563041 0.708751
Si Si2 0.669669 0.625500 0.522612
Si Si3 0.270019 0.290258 0.863229
Si Si4 0.987409 0.572910 0.863198
Si Si5 0.109771 0.854314 0.291232
Si Si6 0.398073 0.897086 0.522576
O O1 0.471752 0.665033 0.650997
O O2 0.500277 0.422236 0.592953
O O3 0.761812 0.527351 0.776007
O O4 0.162800 0.631389 0.805981
O O5 0.673208 0.767372 0.534741
O O6 0.000000 0.500000 0.500000
O O7 0.619564 0.174527 0.805988
O O8 0.236059 0.436712 0.873468
O O9 0.040447 0.248627 0.776073
O O10 0.194534 0.305482 0.000022
O O11 0.248375 0.829212 0.406966
O O12 0.849270 0.014076 0.349071
O O13 0.500000 0.000000 0.500000
#
# Coordination Sequence:
#
# PCOD8030565 Si02
#       6
#     2   2   2   2   2   2
#     4  11  23  40  61  96 129 164 205 267 321 378
#     4  11  24  41  67  98 131 170 211 262 322 381
#     4  11  22  38  63  94 128 167 213 265 317 372
#     4  11  22  38  63  94 128 167 213 265 317 372
#     4  11  23  40  61  96 129 164 205 267 321 378
#     4  11  24  41  67  98 131 170 211 262 322 381
#
# _framework density 21.307414999999999
#
# number of rings (size 3 to 8) (size 9 to 14) (size 15 to 20)
#    0.000    1.000    3.333    4.000    0.000    9.333 
#    0.000    0.000    0.000    6.000    0.000    0.000 
#    0.000    0.000    0.000    0.000    0.000    0.000 
#
# Total GULP energy -148724.229295 kJ/mol
# GULP energy per Si atom -12393.685775 kJ/mol
# Density = 2.125892 g / cm^3
# Si number density = 21.307415 Si / 1000 Ang^3
#
#
#
# Elastic Constant Matrix: (Units=GPa)
#
#
# Indices 1 2 3 4 5 6 
#
# 1 130.4767 56.1235 49.5897 -0.1650 -24.2635 -0.5137
# 2 56.1235 137.2642 56.9649 -1.5526 -11.0836 -0.6254
# 3 49.5897 56.9649 137.3116 1.4290 -37.2432 -0.4280
# 4 -0.1650 -1.5526 1.4290 5.6789 -0.3671 -8.5172
# 5 -24.2635 -11.0836 -37.2432 -0.3671 46.9592 0.3897
# 6 -0.5137 -0.6254 -0.4280 -8.5172 0.3897 28.7807
#
#
#
# Elastic Compliance Matrix: (Units=1/GPa)
#
#
# Indices 1 2 3 4 5 6 
#
# 1 0.010267 -0.003342 -0.001397 0.000040 0.003408 0.000055
# 2 -0.003342 0.010061 -0.003623 0.006519 -0.002192 0.002064
# 3 -0.001397 -0.003623 0.011355 -0.006226 0.007396 -0.001877
# 4 0.000040 0.006519 -0.006226 0.322646 -0.001650 0.095554
# 5 0.003408 -0.002192 0.007396 -0.001650 0.028397 -0.000749
# 6 0.000055 0.002064 -0.001877 0.095554 -0.000749 0.063051
#
#
# Mechanical properties :
#
#
# Convention : Reuss Voigt Hill
#
# Bulk Modulus (GPa) = 66.85032 81.15653 74.00343
# Shear Modulus (GPa) = 10.69544 32.44203 21.56874
#
# Velocity S-wave (km/s) = 2.24287 3.90625 3.18506
# Velocity P-wave (km/s) = 6.17654 7.64958 6.95218
#
# Compressibility (1/GPa) = 0.01495879
#
# Stress axis : x y z
#
# Youngs Moduli (GPa) = 97.40140 99.38985 88.06526
#
# Poissons Ratio (x) = 0.33217 0.12306
# Poissons Ratio (y) = 0.32552 0.31905
# Poissons Ratio (z) = 0.13610 0.36008
#
# Static dielectric constant tensor:
#      x y z
#    x 4.030250 -0.003490 -0.171390 
#    y -0.003490 3.494000 0.015120 
#    z -0.171390 0.015120 4.220220 
# 
# 
# High freq. dielectric constant tensor:
#      x y z
#    x 1.848330 -0.000110 -0.005620 
#    y -0.000110 1.786950 0.001220 
#    z -0.005620 0.001220 1.844980 
# 
# From -- ./inp_files/362289.got.cif
#   From: 2010.06.25/outbox.cif.g09.slc.cpg/sg2_182_cif.got.tgz:362289.got - 2010.06.27 13:26:56.
