data_PCOD8030662
_publ_section_title
;
Structure prediction by ZEFSAII (Michael W. Deem and Ramdas Pophale) SiO2 
 PCOD8030662
Probable space group: P -1
;
_chemical_formula_sum "Si O2"
_cell_formula_units_Z 14
_cell_length_a 7.660054
_cell_length_b 10.740633
_cell_length_c 12.465921
_cell_angle_alpha 96.303175
_cell_angle_beta 101.371429
_cell_angle_gamma 39.586270
_cell_volume 639.274257
_symmetry_space_group_name_H-M "P -1"
_symmetry_group_IT_number 2
_symmetry_cell_setting 'triclinic'
loop_
_space_group_symop_operation_xyz
x,y,z
-x,-y,-z
loop_
_atom_site_type_symbol
_atom_site_label
_atom_site_fract_x
_atom_site_fract_y
_atom_site_fract_z
Si Si1 0.657459 0.961738 0.242540
Si Si2 0.329755 0.455779 0.531299
Si Si3 0.881973 0.402014 0.873913
Si Si4 0.684649 0.398024 0.252698
Si Si5 0.776537 0.150037 0.397141
Si Si6 0.068597 0.337537 0.129534
Si Si7 0.280522 0.197875 0.556896
O O1 0.670516 0.078064 0.328357
O O2 0.378914 0.114530 0.152698
O O3 0.652876 0.846648 0.312623
O O4 0.917138 0.806515 0.179196
O O5 0.450037 0.440804 0.656996
O O6 0.535038 0.364622 0.446209
O O7 0.299398 0.324975 0.525818
O O8 0.034091 0.682059 0.490816
O O9 0.562913 0.532307 0.836993
O O10 0.927283 0.514929 0.839026
O O11 0.944530 0.368041 0.003553
O O12 0.870966 0.187661 0.312943
O O13 0.880980 0.376025 0.201144
O O14 0.000000 0.000000 0.500000
O O15 0.500000 0.000000 0.500000
#
# Coordination Sequence:
#
# PCOD8030662 Si02
#       7
#     2   2   2   2   2   2   2
#     4  12  23  43  71  97 140 182 223 284 348 400
#     4  11  24  40  65 100 140 184 222 273 341 409
#     4  11  25  50  71  99 136 178 231 299 345 404
#     4  12  24  45  71 100 139 181 229 282 345 407
#     4  12  25  41  64 101 145 183 221 276 339 419
#     4  11  26  47  74 100 131 179 239 289 350 401
#     4  11  22  39  67 100 138 178 231 274 331 417
#
# _framework density 21.899833999999998
#
# number of rings (size 3 to 8) (size 9 to 14) (size 15 to 20)
#    0.000    0.571    2.857    5.571    4.000    0.000 
#    2.571    0.714    0.000    0.000    0.000    0.000 
#    0.000    0.000    0.000    0.000    0.000    0.000 
#
# Total GULP energy -173620.113017 kJ/mol
# GULP energy per Si atom -12401.436644 kJ/mol
# Density = 2.184999 g / cm^3
# Si number density = 21.899834 Si / 1000 Ang^3
#
#
#
# Elastic Constant Matrix: (Units=GPa)
#
#
# Indices 1 2 3 4 5 6 
#
# 1 95.3729 31.3456 43.7767 -15.2359 -13.3668 -11.9965
# 2 31.3456 123.6841 47.3039 -9.9215 0.1212 -10.3578
# 3 43.7767 47.3039 92.2344 -13.8447 2.2098 2.6061
# 4 -15.2359 -9.9215 -13.8447 45.6783 -2.1898 1.1614
# 5 -13.3668 0.1212 2.2098 -2.1898 43.3079 -6.9641
# 6 -11.9965 -10.3578 2.6061 1.1614 -6.9641 19.6960
#
#
#
# Elastic Compliance Matrix: (Units=1/GPa)
#
#
# Indices 1 2 3 4 5 6 
#
# 1 0.018159 0.000362 -0.008926 0.003458 0.008695 0.015302
# 2 0.000362 0.010913 -0.005924 0.000587 0.001582 0.007268
# 3 -0.008926 -0.005924 0.018853 0.001510 -0.005741 -0.013166
# 4 0.003458 0.000587 0.001510 0.023706 0.002458 0.001686
# 5 0.008695 0.001582 -0.005741 0.002458 0.028915 0.016966
# 6 0.015302 0.007268 -0.013166 0.001686 0.016966 0.071556
#
#
# Mechanical properties :
#
#
# Convention : Reuss Voigt Hill
#
# Bulk Modulus (GPa) = 52.77320 61.79376 57.28348
# Shear Modulus (GPa) = 24.10874 34.32746 29.21810
#
# Velocity S-wave (km/s) = 3.32153 3.96343 3.65659
# Velocity P-wave (km/s) = 6.23377 7.01590 6.63637
#
# Compressibility (1/GPa) = 0.01894901
#
# Stress axis : x y z
#
# Youngs Moduli (GPa) = 55.06910 91.63186 53.04239
#
# Poissons Ratio (x) = -0.03317 0.47346
# Poissons Ratio (y) = -0.01994 0.31423
# Poissons Ratio (z) = 0.49155 0.54283
#
# Static dielectric constant tensor:
#      x y z
#    x 3.578030 1.871600 -0.296490 
#    y 1.871600 -1.424560 0.643750 
#    z -0.296490 0.643750 3.964400 
# 
# 
# High freq. dielectric constant tensor:
#      x y z
#    x 1.872950 0.009620 -0.001190 
#    y 0.009620 1.868000 -0.008060 
#    z -0.001190 -0.008060 1.867970 
# 
# From -- ./inp_files/60398.got.cif
#   From: 2010.06.25/outbox.cif.g09.slc.cpg/sg2_31_cif.got.tgz:60398.got - 2010.06.27 13:26:56.
