data_PCOD8030841
_publ_section_title
;
Structure prediction by ZEFSAII (Michael W. Deem and Ramdas Pophale) SiO2 
 PCOD8030841
Probable space group: P -1
;
_chemical_formula_sum "Si O2"
_cell_formula_units_Z 16
_cell_length_a 9.760018
_cell_length_b 9.028256
_cell_length_c 12.152795
_cell_angle_alpha 102.022681
_cell_angle_beta 45.649272
_cell_angle_gamma 94.710717
_cell_volume 745.852315
_symmetry_space_group_name_H-M "P -1"
_symmetry_group_IT_number 2
_symmetry_cell_setting 'triclinic'
loop_
_space_group_symop_operation_xyz
x,y,z
-x,-y,-z
loop_
_atom_site_type_symbol
_atom_site_label
_atom_site_fract_x
_atom_site_fract_y
_atom_site_fract_z
Si Si1 0.975877 0.246271 0.762882
Si Si2 0.631317 0.307460 0.102407
Si Si3 0.961450 0.490122 0.391680
Si Si4 0.602599 0.973918 0.149022
Si Si5 0.464802 0.556509 0.406199
Si Si6 0.644881 0.870659 0.345156
Si Si7 0.815021 0.002526 0.678289
Si Si8 0.284242 0.247009 0.147188
O O1 0.830159 0.128854 0.782458
O O2 0.048492 0.347733 0.638814
O O3 0.161495 0.153530 0.696536
O O4 0.842782 0.340713 0.942865
O O5 0.567520 0.436685 0.245527
O O6 0.480833 0.312831 0.086240
O O7 0.647187 0.145415 0.128712
O O8 0.761846 0.417509 0.481301
O O9 0.000000 0.500000 0.500000
O O10 0.130158 0.384452 0.220881
O O11 0.702075 0.921871 0.199235
O O12 0.374054 0.958851 0.283628
O O13 0.686005 0.866238 0.988311
O O14 0.500000 0.500000 0.500000
O O15 0.547330 0.715694 0.366234
O O16 0.500000 0.000000 0.500000
O O17 0.801973 0.838828 0.714792
O O18 0.000000 0.000000 0.500000
#
# Coordination Sequence:
#
# PCOD8030841 Si02
#       8
#     2   2   2   2   2   2   2   2
#     4  12  26  46  69 104 141 190 232 288 350 414
#     4  11  24  47  74 102 151 179 231 297 347 414
#     4  12  27  44  73 105 141 185 238 286 352 418
#     4  11  24  45  72 105 139 188 230 292 353 411
#     4  12  27  49  69 101 145 189 225 293 353 410
#     4  12  29  47  72 105 140 184 241 286 352 421
#     4  11  22  40  72 101 138 179 239 291 345 406
#     4  11  23  45  69 111 140 182 235 295 351 407
#
# _framework density 21.451968000000001
#
# number of rings (size 3 to 8) (size 9 to 14) (size 15 to 20)
#    0.000    0.500    5.000    3.000    8.750    2.500 
#    0.000    0.000    0.000    0.000    0.000    0.000 
#    0.000    0.000    0.000    0.000    0.000    0.000 
#
# Total GULP energy -198472.472669 kJ/mol
# GULP energy per Si atom -12404.529542 kJ/mol
# Density = 2.140314 g / cm^3
# Si number density = 21.451968 Si / 1000 Ang^3
#
#
#
# Elastic Constant Matrix: (Units=GPa)
#
#
# Indices 1 2 3 4 5 6 
#
# 1 93.9919 39.2291 42.2248 1.9902 6.5120 -15.9172
# 2 39.2291 94.5008 41.7868 15.4082 11.0507 -2.1406
# 3 42.2248 41.7868 140.3488 13.3239 -1.5840 -9.5775
# 4 1.9902 15.4082 13.3239 41.4739 0.2428 2.4053
# 5 6.5120 11.0507 -1.5840 0.2428 38.9302 -0.3060
# 6 -15.9172 -2.1406 -9.5775 2.4053 -0.3060 39.5332
#
#
#
# Elastic Compliance Matrix: (Units=1/GPa)
#
#
# Indices 1 2 3 4 5 6 
#
# 1 0.014857 -0.004950 -0.002841 0.001761 -0.001168 0.004909
# 2 -0.004950 0.014902 -0.002686 -0.004323 -0.003497 -0.001601
# 3 -0.002841 -0.002686 0.009043 -0.001840 0.001625 0.001026
# 4 0.001761 -0.004323 -0.001840 0.026311 0.000681 -0.001566
# 5 -0.001168 -0.003497 0.001625 0.000681 0.026936 -0.000099
# 6 0.004909 -0.001601 0.001026 -0.001566 -0.000099 0.027528
#
#
# Mechanical properties :
#
#
# Convention : Reuss Voigt Hill
#
# Bulk Modulus (GPa) = 56.03351 63.92476 59.97913
# Shear Modulus (GPa) = 34.13437 37.69419 35.91428
#
# Velocity S-wave (km/s) = 3.99331 4.19638 4.09610
# Velocity P-wave (km/s) = 6.88761 7.30364 7.09867
#
# Compressibility (1/GPa) = 0.01784646
#
# Stress axis : x y z
#
# Youngs Moduli (GPa) = 67.30988 67.10513 110.58777
#
# Poissons Ratio (x) = 0.33219 0.31420
# Poissons Ratio (y) = 0.33320 0.29703
# Poissons Ratio (z) = 0.19124 0.18024
#
# Static dielectric constant tensor:
#      x y z
#    x 4.013640 -0.046810 -0.016970 
#    y -0.046810 4.557570 0.211590 
#    z -0.016970 0.211590 4.028920 
# 
# 
# High freq. dielectric constant tensor:
#      x y z
#    x 1.844800 -0.002170 -0.001560 
#    y -0.002170 1.846520 0.003080 
#    z -0.001560 0.003080 1.859090 
# 
# From -- ./inp_files/184406.got.cif
#   From: 2010.06.25/outbox.cif.g09.slc.cpg/sg2_93_cif.got.tgz:184406.got - 2010.06.27 13:26:56.
