data_PCOD8030810
_publ_section_title
;
Structure prediction by ZEFSAII (Michael W. Deem and Ramdas Pophale) SiO2 
 PCOD8030810
Probable space group: P -1
;
_chemical_formula_sum "Si O2"
_cell_formula_units_Z 16
_cell_length_a 9.011303
_cell_length_b 14.099680
_cell_length_c 8.364390
_cell_angle_alpha 135.507721
_cell_angle_beta 70.094817
_cell_angle_gamma 101.489249
_cell_volume 698.752899
_symmetry_space_group_name_H-M "P -1"
_symmetry_group_IT_number 2
_symmetry_cell_setting 'triclinic'
loop_
_space_group_symop_operation_xyz
x,y,z
-x,-y,-z
loop_
_atom_site_type_symbol
_atom_site_label
_atom_site_fract_x
_atom_site_fract_y
_atom_site_fract_z
Si Si1 0.494121 0.848530 0.890438
Si Si2 0.677846 0.544495 0.975540
Si Si3 0.594368 0.815105 0.177808
Si Si4 0.039854 0.607568 0.482793
Si Si5 0.026309 0.080605 0.429518
Si Si6 0.177087 0.859695 0.883407
Si Si7 0.772248 0.685134 0.421678
Si Si8 0.292158 0.908430 0.565663
O O1 0.313863 0.802444 0.886863
O O2 0.608013 0.739192 0.624957
O O3 0.534808 0.837843 0.047950
O O4 0.500000 0.000000 0.000000
O O5 0.690484 0.673056 0.006060
O O6 0.739002 0.574473 0.167180
O O7 0.500000 0.500000 0.000000
O O8 0.796325 0.428779 0.715457
O O9 0.446375 0.813895 0.351807
O O10 0.698794 0.941006 0.333055
O O11 0.059766 0.748144 0.736763
O O12 0.000000 0.500000 0.500000
O O13 0.892102 0.620835 0.432485
O O14 0.154873 0.188430 0.541474
O O15 0.860496 0.158681 0.533032
O O16 0.000000 0.000000 0.500000
O O17 0.071359 0.981988 0.146690
O O18 0.276512 0.920047 0.775213
#
# Coordination Sequence:
#
# PCOD8030810 Si02
#       8
#     2   2   2   2   2   2   2   2
#     4  12  23  42  69 109 141 178 226 294 371 429
#     4  12  28  51  73 100 146 202 246 289 349 432
#     4  11  24  41  73 103 145 184 238 291 356 435
#     4  12  29  49  72 103 144 199 247 293 347 426
#     4  12  25  39  72 109 143 179 229 302 375 420
#     4  12  25  45  70 104 148 183 232 296 363 429
#     4  12  26  47  75 103 143 184 243 302 354 424
#     4  11  22  40  69 105 142 181 227 299 372 414
#
# _framework density 22.897936999999999
#
# number of rings (size 3 to 8) (size 9 to 14) (size 15 to 20)
#    0.000    0.250    3.750    5.250    7.000    1.000 
#    0.000    2.500    0.000    0.000    0.000    0.000 
#    0.000    0.000    0.000    0.000    0.000    0.000 
#
# Total GULP energy -198454.491556 kJ/mol
# GULP energy per Si atom -12403.405722 kJ/mol
# Density = 2.284582 g / cm^3
# Si number density = 22.897937 Si / 1000 Ang^3
#
#
#
# Elastic Constant Matrix: (Units=GPa)
#
#
# Indices 1 2 3 4 5 6 
#
# 1 115.0732 12.9738 17.0643 1.4702 14.7405 -2.4809
# 2 12.9738 90.6651 17.9643 -9.7218 5.4754 -11.1126
# 3 17.0643 17.9643 92.7897 -8.6463 3.3484 7.7128
# 4 1.4702 -9.7218 -8.6463 38.5297 0.3238 -0.7446
# 5 14.7405 5.4754 3.3484 0.3238 43.2272 -1.4181
# 6 -2.4809 -11.1126 7.7128 -0.7446 -1.4181 42.9226
#
#
#
# Elastic Compliance Matrix: (Units=1/GPa)
#
#
# Indices 1 2 3 4 5 6 
#
# 1 0.009426 -0.000896 -0.001578 -0.000906 -0.002956 0.000483
# 2 -0.000896 0.012393 -0.002241 0.002736 -0.000994 0.003574
# 3 -0.001578 -0.002241 0.011938 0.002122 -0.000210 -0.002787
# 4 -0.000906 0.002736 0.002122 0.027172 -0.000382 0.000733
# 5 -0.002956 -0.000994 -0.000210 -0.000382 0.024300 0.000406
# 6 0.000483 0.003574 -0.002787 0.000733 0.000406 0.024778
#
#
# Mechanical properties :
#
#
# Convention : Reuss Voigt Hill
#
# Bulk Modulus (GPa) = 41.10460 43.83697 42.47079
# Shear Modulus (GPa) = 39.20179 41.63761 40.41970
#
# Velocity S-wave (km/s) = 4.14215 4.26890 4.20600
# Velocity P-wave (km/s) = 6.39271 6.59424 6.49426
#
# Compressibility (1/GPa) = 0.02432817
#
# Stress axis : x y z
#
# Youngs Moduli (GPa) = 106.09295 80.68920 83.76612
#
# Poissons Ratio (x) = 0.07226 0.13218
# Poissons Ratio (y) = 0.09501 0.18772
# Poissons Ratio (z) = 0.16740 0.18082
#
# Static dielectric constant tensor:
#      x y z
#    x 1.345470 0.725180 0.650930 
#    y 0.725180 3.967060 -0.305290 
#    z 0.650930 -0.305290 3.979650 
# 
# 
# High freq. dielectric constant tensor:
#      x y z
#    x 1.924900 -0.002280 -0.002730 
#    y -0.002280 1.904200 -0.011670 
#    z -0.002730 -0.011670 1.904020 
# 
# From -- ./inp_files/209189.got.cif
#   From: 2010.06.25/outbox.cif.g09.slc.cpg/sg2_105_cif.got.tgz:209189.got - 2010.06.27 13:26:56.
