data_PCOD8030972
_publ_section_title
;
Structure prediction by ZEFSAII (Michael W. Deem and Ramdas Pophale) SiO2 
 PCOD8030972
Probable space group: P -1
;
_chemical_formula_sum "Si O2"
_cell_formula_units_Z 14
_cell_length_a 12.860744
_cell_length_b 6.180238
_cell_length_c 12.190449
_cell_angle_alpha 67.021146
_cell_angle_beta 114.453154
_cell_angle_gamma 134.883542
_cell_volume 617.646798
_symmetry_space_group_name_H-M "P -1"
_symmetry_group_IT_number 2
_symmetry_cell_setting 'triclinic'
loop_
_space_group_symop_operation_xyz
x,y,z
-x,-y,-z
loop_
_atom_site_type_symbol
_atom_site_label
_atom_site_fract_x
_atom_site_fract_y
_atom_site_fract_z
Si Si1 0.279796 0.951721 0.199486
Si Si2 0.323552 0.143003 0.414309
Si Si3 0.492898 0.153226 0.668934
Si Si4 0.851487 0.866176 0.031615
Si Si5 0.184789 0.617630 0.736023
Si Si6 0.991573 0.307584 0.192364
Si Si7 0.970018 0.083286 0.585964
O O1 0.426166 0.986196 0.242586
O O2 0.130421 0.642848 0.142417
O O3 0.247721 0.921237 0.320951
O O4 0.283955 0.214098 0.089987
O O5 0.444290 0.127887 0.525245
O O6 0.402984 0.483201 0.332406
O O7 0.191443 0.003481 0.474411
O O8 0.346051 0.948730 0.720380
O O9 0.792947 0.562006 0.131364
O O10 0.880376 0.115640 0.081054
O O11 0.000000 0.000000 0.000000
O O12 0.086720 0.687225 0.736129
O O13 0.105258 0.430075 0.622968
O O14 0.059004 0.147522 0.287880
O O15 0.000000 0.000000 0.500000
#
# Coordination Sequence:
#
# PCOD8030972 Si02
#       7
#     2   2   2   2   2   2   2
#     4  12  23  42  72  93 131 181 220 264 338 392
#     4  11  24  45  65  99 134 179 221 267 329 407
#     4  11  27  42  66  98 140 174 214 275 338 392
#     4  11  24  42  72 102 129 168 232 277 320 397
#     4  11  25  44  66 102 134 172 222 282 324 385
#     4  11  22  41  70 100 127 174 224 272 328 388
#     4  11  23  39  69 100 132 172 231 269 320 397
#
# _framework density 22.666675999999999
#
# number of rings (size 3 to 8) (size 9 to 14) (size 15 to 20)
#    0.000    0.857    4.286    2.571    2.000    6.286 
#    0.000    1.429    0.000    0.000    0.000    0.000 
#    0.000    0.000    0.000    0.000    0.000    0.000 
#
# Total GULP energy -173505.383254 kJ/mol
# GULP energy per Si atom -12393.241661 kJ/mol
# Density = 2.261509 g / cm^3
# Si number density = 22.666676 Si / 1000 Ang^3
#
#
#
# Elastic Constant Matrix: (Units=GPa)
#
#
# Indices 1 2 3 4 5 6 
#
# 1 111.8747 28.6373 28.8395 3.8435 13.2950 7.0006
# 2 28.6373 67.1374 5.0411 -10.1323 -6.2981 12.1359
# 3 28.8395 5.0411 90.0113 0.0479 20.7393 -0.6418
# 4 3.8435 -10.1323 0.0479 31.2694 -7.5886 -9.4432
# 5 13.2950 -6.2981 20.7393 -7.5886 48.8013 0.7597
# 6 7.0006 12.1359 -0.6418 -9.4432 0.7597 33.8277
#
#
#
# Elastic Compliance Matrix: (Units=1/GPa)
#
#
# Indices 1 2 3 4 5 6 
#
# 1 0.011705 -0.005500 -0.002656 -0.004567 -0.003453 -0.001697
# 2 -0.005500 0.019608 -0.000629 0.007138 0.005469 -0.004039
# 3 -0.002656 -0.000629 0.013180 -0.000866 -0.005107 0.000898
# 4 -0.004567 0.007138 -0.000866 0.039734 0.008568 0.009267
# 5 -0.003453 0.005469 -0.005107 0.008568 0.025633 0.000472
# 6 -0.001697 -0.004039 0.000898 0.009267 0.000472 0.033955
#
#
# Mechanical properties :
#
#
# Convention : Reuss Voigt Hill
#
# Bulk Modulus (GPa) = 37.14242 43.78435 40.46339
# Shear Modulus (GPa) = 29.35003 36.54672 32.94838
#
# Velocity S-wave (km/s) = 3.60231 4.01977 3.81675
# Velocity P-wave (km/s) = 5.80725 6.39557 6.10849
#
# Compressibility (1/GPa) = 0.02692339
#
# Stress axis : x y z
#
# Youngs Moduli (GPa) = 85.43699 50.99910 75.87530
#
# Poissons Ratio (x) = 0.28047 0.20153
# Poissons Ratio (y) = 0.46987 0.04771
# Poissons Ratio (z) = 0.22693 0.03207
#
# Static dielectric constant tensor:
#      x y z
#    x 3.967160 -0.178260 0.266930 
#    y -0.178260 4.025900 -0.011030 
#    z 0.266930 -0.011030 4.301590 
# 
# 
# High freq. dielectric constant tensor:
#      x y z
#    x 1.884410 -0.010990 0.014890 
#    y -0.010990 1.884290 -0.007010 
#    z 0.014890 -0.007010 1.913690 
# 
# From -- ./inp_files/53782.got.cif
#   From: 2010.06.25/outbox.cif.g09.slc.cpg/sg2_27_cif.got.tgz:53782.got - 2010.06.27 13:26:56.
