data_PCOD8030575
_publ_section_title
;
Structure prediction by ZEFSAII (Michael W. Deem and Ramdas Pophale) SiO2 
 PCOD8030575
Probable space group: P -1
;
_chemical_formula_sum "Si O2"
_cell_formula_units_Z 14
_cell_length_a 11.458448
_cell_length_b 13.835510
_cell_length_c 11.471135
_cell_angle_alpha 148.668486
_cell_angle_beta 81.788440
_cell_angle_gamma 120.133357
_cell_volume 631.178808
_symmetry_space_group_name_H-M "P -1"
_symmetry_group_IT_number 2
_symmetry_cell_setting 'triclinic'
loop_
_space_group_symop_operation_xyz
x,y,z
-x,-y,-z
loop_
_atom_site_type_symbol
_atom_site_label
_atom_site_fract_x
_atom_site_fract_y
_atom_site_fract_z
Si Si1 0.615074 0.404859 0.605096
Si Si2 0.677081 0.230964 0.012484
Si Si3 0.776074 0.117177 0.526292
Si Si4 0.882008 0.569540 0.116979
Si Si5 0.582814 0.398268 0.867420
Si Si6 0.622376 0.843101 0.024701
Si Si7 0.195960 0.663238 0.643957
O O1 0.660448 0.461287 0.793175
O O2 0.767150 0.465457 0.581752
O O3 0.603379 0.600353 0.757096
O O4 0.430760 0.086181 0.288961
O O5 0.824064 0.387773 0.054082
O O6 0.762541 0.364116 0.262598
O O7 0.562091 0.277848 0.042932
O O8 0.915119 0.130521 0.579209
O O9 0.585404 0.927075 0.417131
O O10 0.756659 0.043596 0.317798
O O11 0.871197 0.424531 0.854318
O O12 0.744708 0.574193 0.115794
O O13 0.500000 0.500000 0.000000
O O14 0.689395 0.022158 0.082396
O O15 0.000000 0.500000 0.500000
#
# Coordination Sequence:
#
# PCOD8030575 Si02
#       7
#     2   2   2   2   2   2   2
#     4  11  23  41  69  92 125 174 212 265 329 375
#     4  11  22  41  66  91 125 172 217 266 319 381
#     4  11  22  38  65  94 129 172 210 263 322 380
#     4  11  22  38  65  93 130 173 215 261 321 381
#     4  12  22  41  63  96 135 169 209 265 321 387
#     4  11  22  43  66  94 126 166 219 267 321 387
#     4  11  26  44  64  93 128 167 221 271 319 382
#
# _framework density 22.180719
#
# number of rings (size 3 to 8) (size 9 to 14) (size 15 to 20)
#    0.000    0.857    4.286    4.714    0.000    4.571 
#    0.000    1.429    0.000    0.000    0.000    0.000 
#    0.000    0.000    0.000    0.000    0.000    0.000 
#
# Total GULP energy -173471.888443 kJ/mol
# GULP energy per Si atom -12390.849175 kJ/mol
# Density = 2.213023 g / cm^3
# Si number density = 22.180719 Si / 1000 Ang^3
#
#
#
# Elastic Constant Matrix: (Units=GPa)
#
#
# Indices 1 2 3 4 5 6 
#
# 1 165.4685 40.5383 59.8057 -5.4548 13.8946 -0.6573
# 2 40.5383 85.8515 25.7473 -16.8154 -6.5013 3.7543
# 3 59.8057 25.7473 64.1860 -17.3507 -6.3243 -5.7676
# 4 -5.4548 -16.8154 -17.3507 34.8350 -6.5111 1.7992
# 5 13.8946 -6.5013 -6.3243 -6.5111 47.7264 -4.9556
# 6 -0.6573 3.7543 -5.7676 1.7992 -4.9556 30.7673
#
#
#
# Elastic Compliance Matrix: (Units=1/GPa)
#
#
# Indices 1 2 3 4 5 6 
#
# 1 0.011674 -0.003664 -0.012209 -0.007163 -0.006727 -0.002257
# 2 -0.003664 0.015364 -0.000529 0.007406 0.003907 -0.001856
# 3 -0.012209 -0.000529 0.033171 0.016016 0.010771 0.006820
# 4 -0.007163 0.007406 0.016016 0.041119 0.010962 0.001307
# 5 -0.006727 0.003907 0.010771 0.010962 0.026895 0.005089
# 6 -0.002257 -0.001856 0.006820 0.001307 0.005089 0.034702
#
#
# Mechanical properties :
#
#
# Convention : Reuss Voigt Hill
#
# Bulk Modulus (GPa) = 36.48965 63.07653 49.78309
# Shear Modulus (GPa) = 24.40638 35.29337 29.84988
#
# Velocity S-wave (km/s) = 3.32074 3.99328 3.67244
# Velocity P-wave (km/s) = 5.58479 7.05415 6.36203
#
# Compressibility (1/GPa) = 0.02740503
#
# Stress axis : x y z
#
# Youngs Moduli (GPa) = 85.66248 65.08519 30.14655
#
# Poissons Ratio (x) = 0.23850 0.36806
# Poissons Ratio (y) = 0.31390 0.01594
# Poissons Ratio (z) = 1.04586 0.03442
#
# Static dielectric constant tensor:
#      x y z
#    x 4.352120 -0.037540 0.299010 
#    y -0.037540 4.092850 -0.139930 
#    z 0.299010 -0.139930 4.333940 
# 
# 
# High freq. dielectric constant tensor:
#      x y z
#    x 1.887850 0.003400 0.009990 
#    y 0.003400 1.872560 -0.011040 
#    z 0.009990 -0.011040 1.854170 
# 
# From -- ./inp_files/303264.got.cif
#   From: 2010.06.25/outbox.cif.g09.slc.cpg/sg2_152_cif.got.tgz:303264.got - 2010.06.27 13:26:56.
