data_PCOD8030602
_publ_section_title
;
Structure prediction by ZEFSAII (Michael W. Deem and Ramdas Pophale) SiO2 
 PCOD8030602
Probable space group: P -1
;
_chemical_formula_sum "Si O2"
_cell_formula_units_Z 16
_cell_length_a 20.877465
_cell_length_b 21.056737
_cell_length_c 5.457961
_cell_angle_alpha 75.272481
_cell_angle_beta 66.306355
_cell_angle_gamma 20.444677
_cell_volume 709.136932
_symmetry_space_group_name_H-M "P -1"
_symmetry_group_IT_number 2
_symmetry_cell_setting 'triclinic'
loop_
_space_group_symop_operation_xyz
x,y,z
-x,-y,-z
loop_
_atom_site_type_symbol
_atom_site_label
_atom_site_fract_x
_atom_site_fract_y
_atom_site_fract_z
Si Si1 0.717465 0.852777 0.560894
Si Si2 0.420014 0.857929 0.841865
Si Si3 0.012684 0.272521 0.822341
Si Si4 0.279992 0.857973 0.348438
Si Si5 0.378649 0.405423 0.580293
Si Si6 0.509997 0.532127 0.203684
Si Si7 0.518421 0.901655 0.819929
Si Si8 0.877753 0.281593 0.691171
O O1 0.599735 0.976906 0.371055
O O2 0.939269 0.695134 0.372323
O O3 0.726978 0.764158 0.640640
O O4 0.605827 0.975391 0.860052
O O5 0.560636 0.715995 0.529807
O O6 0.557194 0.788910 0.857452
O O7 0.393421 0.812743 0.059093
O O8 0.190305 0.091525 0.916163
O O9 0.020425 0.214079 0.644266
O O10 0.778338 0.479523 0.080349
O O11 0.406777 0.749153 0.514935
O O12 0.314152 0.756109 0.277430
O O13 0.033218 0.088646 0.533458
O O14 0.267200 0.561401 0.449517
O O15 0.500000 0.500000 0.500000
O O16 0.500000 0.500000 0.000000
O O17 0.729082 0.378915 0.027041
#
# Coordination Sequence:
#
# PCOD8030602 Si02
#       8
#     2   2   2   2   2   2   2   2
#     4   9  19  36  61  97 141 185 231 286 348 410
#     4  11  22  38  71 102 137 186 238 288 346 406
#     4  11  22  38  71 102 137 186 238 288 346 406
#     4  12  25  45  74 102 140 182 234 283 346 411
#     4  12  23  42  67 106 141 178 228 301 340 402
#     4  12  29  50  74 106 144 180 225 283 352 426
#     4   9  19  36  61  97 141 185 231 286 348 410
#     4  12  25  45  74 102 140 182 234 283 346 411
#
# _framework density 22.562639000000001
#
# number of rings (size 3 to 8) (size 9 to 14) (size 15 to 20)
#    0.000    1.000    5.000    1.500    3.500    1.000 
#    0.000    0.625    0.000    3.000    0.000    0.000 
#    0.000    0.000    0.000    0.000    0.000    0.000 
#
# Total GULP energy -198244.404726 kJ/mol
# GULP energy per Si atom -12390.275295 kJ/mol
# Density = 2.251129 g / cm^3
# Si number density = 22.562639 Si / 1000 Ang^3
#
#
#
# Elastic Constant Matrix: (Units=GPa)
#
#
# Indices 1 2 3 4 5 6 
#
# 1 92.7384 4.6594 12.6504 -5.7091 9.0140 -7.4304
# 2 4.6594 62.8195 10.7570 4.7956 5.6332 -5.6958
# 3 12.6504 10.7570 93.6619 -6.6936 3.7239 -5.3502
# 4 -5.7091 4.7956 -6.6936 40.5698 2.4890 4.8830
# 5 9.0140 5.6332 3.7239 2.4890 49.4584 2.1823
# 6 -7.4304 -5.6958 -5.3502 4.8830 2.1823 23.0661
#
#
#
# Elastic Compliance Matrix: (Units=1/GPa)
#
#
# Indices 1 2 3 4 5 6 
#
# 1 0.011507 -0.000247 -0.001164 0.001190 -0.002188 0.003331
# 2 -0.000247 0.017023 -0.001792 -0.002769 -0.001817 0.004466
# 3 -0.001164 -0.001792 0.011274 0.001766 -0.000587 0.001479
# 4 0.001190 -0.002769 0.001766 0.026144 -0.001115 -0.005320
# 5 -0.002188 -0.001817 -0.000587 -0.001115 0.021059 -0.003046
# 6 0.003331 0.004466 0.001479 -0.005320 -0.003046 0.047287
#
#
# Mechanical properties :
#
#
# Convention : Reuss Voigt Hill
#
# Bulk Modulus (GPa) = 29.94136 33.92813 31.93475
# Shear Modulus (GPa) = 32.93113 37.36241 35.14677
#
# Velocity S-wave (km/s) = 3.82454 4.07374 3.95111
# Velocity P-wave (km/s) = 5.72730 6.09894 5.91604
#
# Compressibility (1/GPa) = 0.03339861
#
# Stress axis : x y z
#
# Youngs Moduli (GPa) = 86.90377 58.74383 88.70175
#
# Poissons Ratio (x) = 0.01450 0.10321
# Poissons Ratio (y) = 0.02145 0.15898
# Poissons Ratio (z) = 0.10111 0.10528
#
# Static dielectric constant tensor:
#      x y z
#    x 4.797370 0.104040 -0.163490 
#    y 0.104040 3.825880 -0.112340 
#    z -0.163490 -0.112340 4.224510 
# 
# 
# High freq. dielectric constant tensor:
#      x y z
#    x 1.908190 0.005190 0.001010 
#    y 0.005190 1.862650 -0.010040 
#    z 0.001010 -0.010040 1.897580 
# 
# From -- ./inp_files/120383.got.cif
#   From: 2010.06.25/outbox.cif.g09.slc.cpg/sg2_61_cif.got.tgz:120383.got - 2010.06.27 13:26:56.
