data_PCOD8030260
_publ_section_title
;
Structure prediction by ZEFSAII (Michael W. Deem and Ramdas Pophale) SiO2 
 PCOD8030260
Probable space group: P -1
;
_chemical_formula_sum "Si O2"
_cell_formula_units_Z 16
_cell_length_a 10.707740
_cell_length_b 9.844152
_cell_length_c 20.682683
_cell_angle_alpha 141.762724
_cell_angle_beta 43.196545
_cell_angle_gamma 108.205236
_cell_volume 728.916329
_symmetry_space_group_name_H-M "P -1"
_symmetry_group_IT_number 2
_symmetry_cell_setting 'triclinic'
loop_
_space_group_symop_operation_xyz
x,y,z
-x,-y,-z
loop_
_atom_site_type_symbol
_atom_site_label
_atom_site_fract_x
_atom_site_fract_y
_atom_site_fract_z
Si Si1 0.142538 0.079034 0.217287
Si Si2 0.430795 0.590057 0.263923
Si Si3 0.345038 0.559044 0.422388
Si Si4 0.784851 0.630838 0.805304
Si Si5 0.064721 0.705591 0.042578
Si Si6 0.509762 0.018330 0.843996
Si Si7 0.291138 0.070731 0.403210
Si Si8 0.581984 0.233554 0.408847
O O1 0.219313 0.130818 0.139469
O O2 0.887233 0.365968 0.430800
O O3 0.121011 0.825950 0.127922
O O4 0.286033 0.052886 0.213929
O O5 0.283930 0.686883 0.421203
O O6 0.426243 0.355576 0.142244
O O7 0.314361 0.834096 0.347103
O O8 0.684268 0.473589 0.152997
O O9 0.433661 0.698575 0.483819
O O10 0.520170 0.223634 0.233793
O O11 0.021677 0.322878 0.589357
O O12 0.727499 0.709057 0.932721
O O13 0.843884 0.975561 0.190633
O O14 0.000000 0.500000 0.000000
O O15 0.563806 0.064195 0.768586
O O16 0.404205 0.172038 0.442294
O O17 0.500000 0.500000 0.500000
#
# Coordination Sequence:
#
# PCOD8030260 Si02
#       8
#     2   2   2   2   2   2   2   2
#     4  11  21  43  73 101 140 181 246 300 344 433
#     4  12  25  46  68 107 144 182 244 296 355 435
#     4  11  23  41  76  98 136 194 233 292 367 411
#     4  12  24  44  73 110 139 183 244 298 356 426
#     4  11  23  45  70  96 144 192 228 295 356 416
#     4  12  22  42  73 102 137 190 237 292 362 416
#     4  12  26  46  67 103 155 181 231 309 357 417
#     4  11  23  47  70  98 141 193 240 291 352 428
#
# _framework density 21.950393999999999
#
# number of rings (size 3 to 8) (size 9 to 14) (size 15 to 20)
#    0.000    0.500    6.250    3.375    0.000    1.000 
#    6.750    1.250    0.000    0.000    0.000    0.000 
#    0.000    0.000    0.000    0.000    0.000    0.000 
#
# Total GULP energy -198242.605866 kJ/mol
# GULP energy per Si atom -12390.162867 kJ/mol
# Density = 2.190043 g / cm^3
# Si number density = 21.950394 Si / 1000 Ang^3
#
#
#
# Elastic Constant Matrix: (Units=GPa)
#
#
# Indices 1 2 3 4 5 6 
#
# 1 89.7690 41.3320 28.0092 0.6942 8.8807 11.6710
# 2 41.3320 131.1003 52.8025 0.8358 14.6626 -8.6171
# 3 28.0092 52.8025 104.3084 -0.6341 5.7031 -1.7636
# 4 0.6942 0.8358 -0.6341 33.3689 -5.8315 2.3930
# 5 8.8807 14.6626 5.7031 -5.8315 42.3805 -7.0205
# 6 11.6710 -8.6171 -1.7636 2.3930 -7.0205 46.3017
#
#
#
# Elastic Compliance Matrix: (Units=1/GPa)
#
#
# Indices 1 2 3 4 5 6 
#
# 1 0.014319 -0.003817 -0.001871 -0.000293 -0.002250 -0.004717
# 2 -0.003817 0.011011 -0.004395 -0.000832 -0.002107 0.002568
# 3 -0.001871 -0.004395 0.012301 0.000432 0.000342 0.000152
# 4 -0.000293 -0.000832 0.000432 0.030838 0.004370 -0.000996
# 5 -0.002250 -0.002107 0.000342 0.004370 0.025998 0.003904
# 6 -0.004717 0.002568 0.000152 -0.000996 0.003904 0.023913
#
#
# Mechanical properties :
#
#
# Convention : Reuss Voigt Hill
#
# Bulk Modulus (GPa) = 57.26221 63.27392 60.26806
# Shear Modulus (GPa) = 34.63309 37.94585 36.28947
#
# Velocity S-wave (km/s) = 3.97645 4.16229 4.07043
# Velocity P-wave (km/s) = 6.87216 7.21027 7.04324
#
# Compressibility (1/GPa) = 0.01746352
#
# Stress axis : x y z
#
# Youngs Moduli (GPa) = 69.83614 90.81525 81.29446
#
# Poissons Ratio (x) = 0.34667 0.15212
# Poissons Ratio (y) = 0.26659 0.35733
# Poissons Ratio (z) = 0.13067 0.39918
#
# Static dielectric constant tensor:
#      x y z
#    x 4.050380 0.117630 -0.054290 
#    y 0.117630 3.730260 -0.197630 
#    z -0.054290 -0.197630 4.242060 
# 
# 
# High freq. dielectric constant tensor:
#      x y z
#    x 1.865300 0.020430 0.000980 
#    y 0.020430 1.847970 0.003040 
#    z 0.000980 0.003040 1.877180 
# 
# From -- ./inp_files/522344.got.cif
#   From: 2010.06.25/outbox.cif.g09.slc.cpg/sg2_262_cif.got.tgz:522344.got - 2010.06.27 13:26:56.
