data_PCOD8030123
_publ_section_title
;
Structure prediction by ZEFSAII (Michael W. Deem and Ramdas Pophale) SiO2 
 PCOD8030123
Probable space group: P -1
;
_chemical_formula_sum "Si O2"
_cell_formula_units_Z 16
_cell_length_a 18.603645
_cell_length_b 20.193622
_cell_length_c 8.876930
_cell_angle_alpha 148.928693
_cell_angle_beta 30.402808
_cell_angle_gamma 152.889507
_cell_volume 709.793549
_symmetry_space_group_name_H-M "P -1"
_symmetry_group_IT_number 2
_symmetry_cell_setting 'triclinic'
loop_
_space_group_symop_operation_xyz
x,y,z
-x,-y,-z
loop_
_atom_site_type_symbol
_atom_site_label
_atom_site_fract_x
_atom_site_fract_y
_atom_site_fract_z
Si Si1 0.895815 0.370660 0.150994
Si Si2 0.754327 0.482164 0.853813
Si Si3 0.823713 0.285251 0.798709
Si Si4 0.561662 0.281415 0.086150
Si Si5 0.004450 0.117119 0.100987
Si Si6 0.023726 0.220202 0.812799
Si Si7 0.604369 0.606718 0.164588
Si Si8 0.216769 0.081380 0.166745
O O1 0.790166 0.368328 0.481035
O O2 0.055148 0.545549 0.166412
O O3 0.771163 0.298284 0.089335
O O4 0.965937 0.265281 0.856177
O O5 0.698741 0.430882 0.027103
O O6 0.614145 0.488755 0.025555
O O7 0.934278 0.659380 0.890769
O O8 0.928414 0.208723 0.481984
O O9 0.649423 0.199923 0.844517
O O10 0.494076 0.333367 0.448231
O O11 0.419308 0.158958 0.983014
O O12 0.202871 0.240564 0.928340
O O13 0.000000 0.000000 0.000000
O O14 0.863641 0.012884 0.024271
O O15 0.197916 0.226301 0.484944
O O16 0.876166 0.038494 0.759913
O O17 0.500000 0.500000 0.000000
#
# Coordination Sequence:
#
# PCOD8030123 Si02
#       8
#     2   2   2   2   2   2   2   2
#     4  11  23  42  73 102 138 191 235 297 355 422
#     4  12  23  43  72 106 141 185 244 291 354 415
#     4  11  25  46  69 106 144 183 241 294 358 424
#     4  12  27  43  72 111 144 184 238 303 352 412
#     4  12  27  49  74 101 144 199 234 283 367 439
#     4  11  21  42  70  97 136 191 236 284 351 423
#     4  12  26  46  72 108 150 182 239 301 352 423
#     4  11  24  44  68 100 148 186 236 289 347 430
#
# _framework density 22.541765999999999
#
# number of rings (size 3 to 8) (size 9 to 14) (size 15 to 20)
#    0.000    0.500    5.000    3.000    5.250    0.500 
#    0.000    1.250    0.000    0.000    0.000    0.000 
#    0.000    0.000    0.000    0.000    0.000    0.000 
#
# Total GULP energy -198285.271389 kJ/mol
# GULP energy per Si atom -12392.829462 kJ/mol
# Density = 2.249046 g / cm^3
# Si number density = 22.541766 Si / 1000 Ang^3
#
#
#
# Elastic Constant Matrix: (Units=GPa)
#
#
# Indices 1 2 3 4 5 6 
#
# 1 171.6041 59.8478 57.6700 2.4153 -15.5719 14.5904
# 2 59.8478 69.3431 45.8251 5.8017 -5.3656 -1.7262
# 3 57.6700 45.8251 108.6172 -6.2509 -6.8736 -16.9175
# 4 2.4153 5.8017 -6.2509 27.5353 -3.3950 -0.4039
# 5 -15.5719 -5.3656 -6.8736 -3.3950 50.2309 7.5618
# 6 14.5904 -1.7262 -16.9175 -0.4039 7.5618 26.2905
#
#
#
# Elastic Compliance Matrix: (Units=1/GPa)
#
#
# Indices 1 2 3 4 5 6 
#
# 1 0.010692 -0.006256 -0.004423 -0.000335 0.003557 -0.010219
# 2 -0.006256 0.025507 -0.007840 -0.006697 -0.000774 0.000221
# 3 -0.004423 -0.007840 0.017221 0.005964 -0.001488 0.013541
# 4 -0.000335 -0.006697 0.005964 0.039426 0.002123 0.003579
# 5 0.003557 -0.000774 -0.001488 0.002123 0.022277 -0.009357
# 6 -0.010219 0.000221 0.013541 0.003579 -0.009357 0.055182
#
#
# Mechanical properties :
#
#
# Convention : Reuss Voigt Hill
#
# Bulk Modulus (GPa) = 61.04220 75.13890 68.09055
# Shear Modulus (GPa) = 23.49589 33.22612 28.36100
#
# Velocity S-wave (km/s) = 3.23201 3.84341 3.55089
# Velocity P-wave (km/s) = 6.40830 7.28706 6.86176
#
# Compressibility (1/GPa) = 0.01638211
#
# Stress axis : x y z
#
# Youngs Moduli (GPa) = 93.52758 39.20475 58.06873
#
# Poissons Ratio (x) = 0.24526 0.25687
# Poissons Ratio (y) = 0.58509 0.45524
# Poissons Ratio (z) = 0.41372 0.30735
#
# Static dielectric constant tensor:
#      x y z
#    x 4.371790 0.014410 -0.116870 
#    y 0.014410 3.951820 0.065950 
#    z -0.116870 0.065950 4.160390 
# 
# 
# High freq. dielectric constant tensor:
#      x y z
#    x 1.917300 0.001240 -0.006260 
#    y 0.001240 1.867760 0.008770 
#    z -0.006260 0.008770 1.886110 
# 
# From -- ./inp_files/338227.got.cif
#   From: 2010.06.25/outbox.cif.g09.slc.cpg/sg2_170_cif.got.tgz:338227.got - 2010.06.27 13:26:56.
