data_PCOD8030278
_publ_section_title
;
Structure prediction by ZEFSAII (Michael W. Deem and Ramdas Pophale) SiO2 
 PCOD8030278
Probable space group: P -1
;
_chemical_formula_sum "Si O2"
_cell_formula_units_Z 16
_cell_length_a 7.973658
_cell_length_b 11.800747
_cell_length_c 11.166778
_cell_angle_alpha 125.285441
_cell_angle_beta 57.940173
_cell_angle_gamma 115.507362
_cell_volume 715.123882
_symmetry_space_group_name_H-M "P -1"
_symmetry_group_IT_number 2
_symmetry_cell_setting 'triclinic'
loop_
_space_group_symop_operation_xyz
x,y,z
-x,-y,-z
loop_
_atom_site_type_symbol
_atom_site_label
_atom_site_fract_x
_atom_site_fract_y
_atom_site_fract_z
Si Si1 0.079102 0.129414 0.297233
Si Si2 0.637586 0.303415 0.888637
Si Si3 0.983382 0.552702 0.855669
Si Si4 0.097596 0.817888 0.132644
Si Si5 0.687538 0.093518 0.544492
Si Si6 0.417923 0.460847 0.637167
Si Si7 0.274092 0.365291 0.191589
Si Si8 0.206920 0.169449 0.538585
O O1 0.177340 0.222804 0.208063
O O2 0.170151 0.189850 0.425347
O O3 0.842965 0.136291 0.402788
O O4 0.111440 0.970844 0.161381
O O5 0.812473 0.441104 0.918452
O O6 0.680056 0.205228 0.925101
O O7 0.638818 0.229987 0.713760
O O8 0.413929 0.334830 0.008811
O O9 0.906634 0.565745 0.755050
O O10 0.198961 0.505761 0.754390
O O11 0.995344 0.704619 0.005585
O O12 0.976351 0.800402 0.292923
O O13 0.500000 0.000000 0.500000
O O14 0.768900 0.991291 0.547272
O O15 0.500000 0.500000 0.500000
O O16 0.581213 0.531866 0.713238
O O17 0.397234 0.292922 0.569625
#
# Coordination Sequence:
#
# PCOD8030278 Si02
#       8
#     2   2   2   2   2   2   2   2
#     4  11  23  47  66 101 142 182 231 292 350 407
#     4  12  23  47  71 103 139 188 238 281 350 423
#     4  12  27  47  71 101 145 185 234 295 342 415
#     4  11  21  43  74  93 133 191 232 279 347 414
#     4  11  25  42  72 105 135 186 238 285 346 416
#     4  12  25  45  71 102 137 186 234 282 359 412
#     4  12  29  44  71 109 144 182 234 290 355 415
#     4  11  21  44  71  97 136 183 234 285 341 417
#
# _framework density 22.373746000000001
#
# number of rings (size 3 to 8) (size 9 to 14) (size 15 to 20)
#    0.000    0.500    6.250    2.250    5.250    2.500 
#    2.250    0.000    0.000    0.000    0.000    0.000 
#    0.000    0.000    0.000    0.000    0.000    0.000 
#
# Total GULP energy -198369.330326 kJ/mol
# GULP energy per Si atom -12398.083145 kJ/mol
# Density = 2.232282 g / cm^3
# Si number density = 22.373746 Si / 1000 Ang^3
#
#
#
# Elastic Constant Matrix: (Units=GPa)
#
#
# Indices 1 2 3 4 5 6 
#
# 1 98.6111 2.9231 21.5703 -0.0859 18.1790 16.1619
# 2 2.9231 110.1650 37.1053 -1.1017 8.3395 21.9710
# 3 21.5703 37.1053 81.5176 8.4816 9.6049 13.1154
# 4 -0.0859 -1.1017 8.4816 33.1878 8.1280 10.2527
# 5 18.1790 8.3395 9.6049 8.1280 19.2880 1.3550
# 6 16.1619 21.9710 13.1154 10.2527 1.3550 33.9774
#
#
#
# Elastic Compliance Matrix: (Units=1/GPa)
#
#
# Indices 1 2 3 4 5 6 
#
# 1 0.015892 0.004326 -0.003166 0.008886 -0.018238 -0.011089
# 2 0.004326 0.013705 -0.005281 0.007540 -0.009794 -0.010766
# 3 -0.003166 -0.005281 0.016052 -0.004028 -0.001027 -0.000019
# 4 0.008886 0.007540 -0.004028 0.044119 -0.026831 -0.019791
# 5 -0.018238 -0.009794 -0.001027 -0.026831 0.083671 0.020164
# 6 -0.011089 -0.010766 -0.000019 -0.019791 0.020164 0.046842
#
#
# Mechanical properties :
#
#
# Convention : Reuss Voigt Hill
#
# Bulk Modulus (GPa) = 26.73323 45.94345 36.33834
# Shear Modulus (GPa) = 20.74731 32.53696 26.64214
#
# Velocity S-wave (km/s) = 3.04847 3.81760 3.45451
# Velocity P-wave (km/s) = 4.93613 6.32544 5.67347
#
# Compressibility (1/GPa) = 0.03740663
#
# Stress axis : x y z
#
# Youngs Moduli (GPa) = 62.92318 72.96438 62.29682
#
# Poissons Ratio (x) = -0.31561 0.19722
# Poissons Ratio (y) = -0.27218 0.32902
# Poissons Ratio (z) = 0.19920 0.38536
#
# Static dielectric constant tensor:
#      x y z
#    x 4.311660 -0.046800 0.071840 
#    y -0.046800 4.271820 0.082320 
#    z 0.071840 0.082320 3.859640 
# 
# 
# High freq. dielectric constant tensor:
#      x y z
#    x 1.885430 0.009570 0.005640 
#    y 0.009570 1.888010 0.015300 
#    z 0.005640 0.015300 1.877250 
# 
# From -- ./inp_files/392983.got.cif
#   From: 2010.06.25/outbox.cif.g09.slc.cpg/sg2_197_cif.got.tgz:392983.got - 2010.06.27 13:26:56.
