data_PCOD8030838
_publ_section_title
;
Structure prediction by ZEFSAII (Michael W. Deem and Ramdas Pophale) SiO2 
 PCOD8030838
Probable space group: P -1
;
_chemical_formula_sum "Si O2"
_cell_formula_units_Z 16
_cell_length_a 11.986339
_cell_length_b 18.865209
_cell_length_c 8.683459
_cell_angle_alpha 97.187060
_cell_angle_beta 54.831533
_cell_angle_gamma 142.137602
_cell_volume 742.739411
_symmetry_space_group_name_H-M "P -1"
_symmetry_group_IT_number 2
_symmetry_cell_setting 'triclinic'
loop_
_space_group_symop_operation_xyz
x,y,z
-x,-y,-z
loop_
_atom_site_type_symbol
_atom_site_label
_atom_site_fract_x
_atom_site_fract_y
_atom_site_fract_z
Si Si1 0.226015 0.358973 0.790077
Si Si2 0.817872 0.286417 0.707941
Si Si3 0.554269 0.456206 0.838054
Si Si4 0.591668 0.308049 0.419534
Si Si5 0.690513 0.036263 0.960678
Si Si6 0.507536 0.272661 0.840145
Si Si7 0.015694 0.964987 0.323196
Si Si8 0.931935 0.359406 0.975849
O O1 0.500000 0.500000 0.500000
O O2 0.328899 0.358579 0.849869
O O3 0.942088 0.189328 0.900350
O O4 0.109776 0.382989 0.939446
O O5 0.779540 0.353538 0.719927
O O6 0.784246 0.258138 0.911755
O O7 0.116566 0.389534 0.442775
O O8 0.555850 0.121039 0.785946
O O9 0.508252 0.355897 0.921991
O O10 0.500000 0.500000 0.000000
O O11 0.542034 0.283698 0.633416
O O12 0.297729 0.197364 0.542552
O O13 0.846117 0.480103 0.223622
O O14 0.688119 0.276389 0.264142
O O15 0.847558 0.047378 0.739391
O O16 0.500000 0.000000 0.000000
O O17 0.203693 0.096530 0.085260
O O18 0.000000 0.000000 0.500000
#
# Coordination Sequence:
#
# PCOD8030838 Si02
#       8
#     2   2   2   2   2   2   2   2
#     4  12  23  43  69  98 140 181 232 279 344 406
#     4  11  23  45  67 101 135 182 225 285 338 409
#     4  12  27  44  67 100 139 183 227 280 348 405
#     4  11  23  41  68 101 133 179 233 280 341 400
#     4  11  22  40  71  97 135 176 223 286 344 393
#     4  11  24  44  71  95 140 175 228 281 345 402
#     4  11  25  43  68  99 136 181 229 281 338 410
#     4  11  23  40  70 100 133 177 234 281 336 406
#
# _framework density 21.541875999999998
#
# number of rings (size 3 to 8) (size 9 to 14) (size 15 to 20)
#    0.000    0.750    3.750    3.750    1.750    5.000 
#    0.000    0.625    0.000    0.000    0.000    0.000 
#    0.000    0.000    0.000    0.000    0.000    0.000 
#
# Total GULP energy -198266.083858 kJ/mol
# GULP energy per Si atom -12391.630241 kJ/mol
# Density = 2.149285 g / cm^3
# Si number density = 21.541876 Si / 1000 Ang^3
#
#
#
# Elastic Constant Matrix: (Units=GPa)
#
#
# Indices 1 2 3 4 5 6 
#
# 1 145.9572 45.8999 48.6828 5.7238 -33.8621 -10.4017
# 2 45.8999 104.0840 52.9880 -4.7598 -13.6176 3.8234
# 3 48.6828 52.9880 112.1000 7.9419 -22.5679 -0.9171
# 4 5.7238 -4.7598 7.9419 37.4349 -1.6462 -11.0182
# 5 -33.8621 -13.6176 -22.5679 -1.6462 41.2986 0.2592
# 6 -10.4017 3.8234 -0.9171 -11.0182 0.2592 37.1605
#
#
#
# Elastic Compliance Matrix: (Units=1/GPa)
#
#
# Indices 1 2 3 4 5 6 
#
# 1 0.009990 -0.002857 -0.001666 -0.000411 0.006304 0.002883
# 2 -0.002857 0.013847 -0.005676 0.002930 -0.000752 -0.001491
# 3 -0.001666 -0.005676 0.013346 -0.003289 0.003928 -0.000556
# 4 -0.000411 0.002930 -0.003289 0.030348 -0.000012 0.008500
# 5 0.006304 -0.000752 0.003928 -0.000012 0.031270 0.001717
# 6 0.002883 -0.001491 -0.000556 0.008500 0.001717 0.030365
#
#
# Mechanical properties :
#
#
# Convention : Reuss Voigt Hill
#
# Bulk Modulus (GPa) = 59.57566 73.03143 66.30354
# Shear Modulus (GPa) = 32.22499 37.48352 34.85425
#
# Velocity S-wave (km/s) = 3.87191 4.17589 4.02677
# Velocity P-wave (km/s) = 6.90686 7.56482 7.24331
#
# Compressibility (1/GPa) = 0.01678538
#
# Stress axis : x y z
#
# Youngs Moduli (GPa) = 100.10433 72.21540 74.92743
#
# Poissons Ratio (x) = 0.20633 0.12482
# Poissons Ratio (y) = 0.28602 0.42528
# Poissons Ratio (z) = 0.16676 0.40989
#
# Static dielectric constant tensor:
#      x y z
#    x 3.884390 -0.434090 0.118520 
#    y -0.434090 4.111600 0.125460 
#    z 0.118520 0.125460 3.778380 
# 
# 
# High freq. dielectric constant tensor:
#      x y z
#    x 1.858940 -0.011350 -0.028950 
#    y -0.011350 1.853140 -0.012180 
#    z -0.028950 -0.012180 1.843140 
# 
# From -- ./inp_files/224061.got.cif
#   From: 2010.06.25/outbox.cif.g09.slc.cpg/sg2_113_cif.got.tgz:224061.got - 2010.06.27 13:26:56.
