data_PCOD8030925
_publ_section_title
;
Structure prediction by ZEFSAII (Michael W. Deem and Ramdas Pophale) SiO2 
 PCOD8030925
Probable space group: P -1
;
_chemical_formula_sum "Si O2"
_cell_formula_units_Z 16
_cell_length_a 24.501240
_cell_length_b 9.841038
_cell_length_c 8.860889
_cell_angle_alpha 45.368067
_cell_angle_beta 31.108289
_cell_angle_gamma 46.610138
_cell_volume 764.030610
_symmetry_space_group_name_H-M "P -1"
_symmetry_group_IT_number 2
_symmetry_cell_setting 'triclinic'
loop_
_space_group_symop_operation_xyz
x,y,z
-x,-y,-z
loop_
_atom_site_type_symbol
_atom_site_label
_atom_site_fract_x
_atom_site_fract_y
_atom_site_fract_z
Si Si1 0.527021 0.980203 0.275896
Si Si2 0.640250 0.257705 0.195656
Si Si3 0.501284 0.590296 0.089357
Si Si4 0.893687 0.509263 0.648630
Si Si5 0.982937 0.316809 0.280079
Si Si6 0.770022 0.925736 0.667379
Si Si7 0.154232 0.972669 0.275569
Si Si8 0.715902 0.308001 0.308486
O O1 0.500000 0.000000 0.500000
O O2 0.464766 0.831475 0.460627
O O3 0.488297 0.186861 0.120238
O O4 0.654804 0.893444 0.021576
O O5 0.604215 0.466892 0.033318
O O6 0.691772 0.295810 0.199787
O O7 0.725155 0.105154 0.012762
O O8 0.389908 0.573289 0.446520
O O9 0.500000 0.500000 0.000000
O O10 0.836529 0.734028 0.574322
O O11 0.000000 0.500000 0.500000
O O12 0.918299 0.392747 0.525595
O O13 0.812636 0.417986 0.014321
O O14 0.912192 0.196734 0.445610
O O15 0.097408 0.169288 0.165284
O O16 0.000000 0.500000 0.000000
O O17 0.838929 0.976379 0.605180
O O18 0.756361 0.091529 0.445366
#
# Coordination Sequence:
#
# PCOD8030925 Si02
#       8
#     2   2   2   2   2   2   2   2
#     4  11  22  41  67  98 135 176 220 268 326 405
#     4  12  23  42  68  97 138 174 222 279 331 400
#     4  11  23  42  69 100 134 180 221 267 336 400
#     4  12  26  46  69 102 132 177 231 282 333 403
#     4  11  27  47  70  99 133 176 231 282 343 399
#     4  11  25  43  70  99 135 181 224 269 343 400
#     4  11  24  46  68 100 137 177 223 280 340 403
#     4  11  27  44  67 100 140 175 222 282 337 395
#
# _framework density 20.941571
#
# number of rings (size 3 to 8) (size 9 to 14) (size 15 to 20)
#    0.000    0.750    5.000    1.875    3.500    4.500 
#    0.000    0.000    0.000    0.000    0.000    0.000 
#    0.000    0.000    0.000    0.000    0.000    0.000 
#
# Total GULP energy -198501.360802 kJ/mol
# GULP energy per Si atom -12406.335050 kJ/mol
# Density = 2.089391 g / cm^3
# Si number density = 20.941571 Si / 1000 Ang^3
#
#
#
# Elastic Constant Matrix: (Units=GPa)
#
#
# Indices 1 2 3 4 5 6 
#
# 1 97.9472 35.6968 42.2045 -11.8300 -10.3853 -18.4327
# 2 35.6968 130.7131 44.1063 5.6958 -4.1803 -25.7620
# 3 42.2045 44.1063 100.5960 -5.3065 -3.1274 -13.6501
# 4 -11.8300 5.6958 -5.3065 32.8962 1.3565 0.6888
# 5 -10.3853 -4.1803 -3.1274 1.3565 33.7257 -3.0719
# 6 -18.4327 -25.7620 -13.6501 0.6888 -3.0719 41.2680
#
#
#
# Elastic Compliance Matrix: (Units=1/GPa)
#
#
# Indices 1 2 3 4 5 6 
#
# 1 0.014493 -0.001722 -0.004394 0.004547 0.004039 0.004169
# 2 -0.001722 0.010328 -0.003298 -0.003080 0.000997 0.004713
# 3 -0.004394 -0.003298 0.013318 0.001155 -0.000544 0.000324
# 4 0.004547 -0.003080 0.001155 0.032763 -0.000199 -0.000071
# 5 0.004039 0.000997 -0.000544 -0.000199 0.031394 0.004587
# 6 0.004169 0.004713 0.000324 -0.000071 0.004587 0.029486
#
#
# Mechanical properties :
#
#
# Convention : Reuss Voigt Hill
#
# Bulk Modulus (GPa) = 51.78404 63.69682 57.74043
# Shear Modulus (GPa) = 31.83747 35.39456 33.61601
#
# Velocity S-wave (km/s) = 3.90333 4.11561 4.01088
# Velocity P-wave (km/s) = 6.71537 7.28470 7.00582
#
# Compressibility (1/GPa) = 0.01931097
#
# Stress axis : x y z
#
# Youngs Moduli (GPa) = 69.00000 96.81969 75.08568
#
# Poissons Ratio (x) = 0.16677 0.32992
# Poissons Ratio (y) = 0.11885 0.24762
# Poissons Ratio (z) = 0.30318 0.31929
#
# Static dielectric constant tensor:
#      x y z
#    x 3.950090 -0.241430 0.000130 
#    y -0.241430 4.186350 -0.228970 
#    z 0.000130 -0.228970 4.078780 
# 
# 
# High freq. dielectric constant tensor:
#      x y z
#    x 1.825260 -0.005100 -0.004580 
#    y -0.005100 1.839130 0.002870 
#    z -0.004580 0.002870 1.822900 
# 
# From -- ./inp_files/350157.got.cif
#   From: 2010.06.25/outbox.cif.g09.slc.cpg/sg2_176_cif.got.tgz:350157.got - 2010.06.27 13:26:56.
