data_PCOD8030516
_publ_section_title
;
Structure prediction by ZEFSAII (Michael W. Deem and Ramdas Pophale) SiO2 
 PCOD8030516
Probable space group: P -1
;
_chemical_formula_sum "Si O2"
_cell_formula_units_Z 16
_cell_length_a 9.294315
_cell_length_b 26.383977
_cell_length_c 21.534083
_cell_angle_alpha 16.768918
_cell_angle_beta 30.941532
_cell_angle_gamma 38.196876
_cell_volume 760.798382
_symmetry_space_group_name_H-M "P -1"
_symmetry_group_IT_number 2
_symmetry_cell_setting 'triclinic'
loop_
_space_group_symop_operation_xyz
x,y,z
-x,-y,-z
loop_
_atom_site_type_symbol
_atom_site_label
_atom_site_fract_x
_atom_site_fract_y
_atom_site_fract_z
Si Si1 0.739318 0.372079 0.714319
Si Si2 0.172006 0.011300 0.859496
Si Si3 0.118181 0.262872 0.101447
Si Si4 0.226585 0.735503 0.889038
Si Si5 0.792875 0.575835 0.337300
Si Si6 0.135643 0.125184 0.497359
Si Si7 0.186022 0.862497 0.517871
Si Si8 0.183406 0.028874 0.084404
O O1 0.739349 0.173541 0.967735
O O2 0.801541 0.410226 0.573873
O O3 0.000000 0.500000 0.500000
O O4 0.429443 0.404336 0.812613
O O5 0.978988 0.042862 0.835631
O O6 0.481890 0.156178 0.579506
O O7 0.000000 0.000000 0.000000
O O8 0.898389 0.324257 0.062975
O O9 0.998219 0.270551 0.206337
O O10 0.156171 0.064618 0.303747
O O11 0.559917 0.729683 0.777201
O O12 0.189867 0.935916 0.678090
O O13 0.055855 0.601640 0.161693
O O14 0.500000 0.500000 0.500000
O O15 0.805149 0.760716 0.153817
O O16 0.943981 0.198053 0.431257
O O17 0.977374 0.101979 0.648850
O O18 0.500000 0.000000 0.000000
#
# Coordination Sequence:
#
# PCOD8030516 Si02
#       8
#     2   2   2   2   2   2   2   2
#     4  11  22  37  57  86 117 149 188 230 285 335
#     4  11  23  38  59  83 115 150 188 234 281 334
#     4   9  17  30  51  78 111 143 183 232 274 327
#     4   9  17  30  51  79 110 143 184 230 277 323
#     4  11  22  37  59  86 117 151 185 232 282 336
#     4   9  18  31  52  79 108 142 188 233 274 326
#     4   9  18  31  52  79 108 144 186 231 279 321
#     4  11  23  38  59  84 114 149 190 233 280 335
#
# _framework density 21.030539000000001
#
# number of rings (size 3 to 8) (size 9 to 14) (size 15 to 20)
#    0.000    2.000    2.500    1.500    5.250    3.000 
#    0.000    0.000    0.000    3.000    0.000    0.000 
#    0.000    0.000    0.000    0.000    0.000    0.000 
#
# Total GULP energy -198323.343375 kJ/mol
# GULP energy per Si atom -12395.208961 kJ/mol
# Density = 2.098267 g / cm^3
# Si number density = 21.030539 Si / 1000 Ang^3
#
#
#
# Elastic Constant Matrix: (Units=GPa)
#
#
# Indices 1 2 3 4 5 6 
#
# 1 215.0206 39.6104 74.8631 48.1695 -4.6104 -5.1486
# 2 39.6104 45.4750 26.9426 35.0606 -1.9327 -1.8499
# 3 74.8631 26.9426 130.6457 56.8030 -4.7117 -3.9032
# 4 48.1695 35.0606 56.8030 42.6979 -1.9735 -0.4086
# 5 -4.6104 -1.9327 -4.7117 -1.9735 43.3145 11.5619
# 6 -5.1486 -1.8499 -3.9032 -0.4086 11.5619 29.3676
#
#
#
# Elastic Compliance Matrix: (Units=1/GPa)
#
#
# Indices 1 2 3 4 5 6 
#
# 1 0.006383 -0.002406 -0.002069 -0.002464 0.000066 0.000632
# 2 -0.002406 0.107442 0.039490 -0.137954 -0.000039 0.009690
# 3 -0.002069 0.039490 0.033025 -0.073960 0.000336 0.005353
# 4 -0.002464 -0.137954 -0.073960 0.237746 0.000609 -0.015883
# 5 0.000066 -0.000039 0.000336 0.000609 0.025857 -0.010118
# 6 0.000632 0.009690 0.005353 -0.015883 -0.010118 0.039246
#
#
# Mechanical properties :
#
#
# Convention : Reuss Voigt Hill
#
# Bulk Modulus (GPa) = 4.61084 74.88596 39.74840
# Shear Modulus (GPa) = 11.06288 39.72433 25.39361
#
# Velocity S-wave (km/s) = 2.29604 4.35085 3.47863
# Velocity P-wave (km/s) = 3.03748 7.80547 5.92248
#
# Compressibility (1/GPa) = 0.21688009
#
# Stress axis : x y z
#
# Youngs Moduli (GPa) = 156.67352 9.30734 30.28050
#
# Poissons Ratio (x) = 0.02239 0.06264
# Poissons Ratio (y) = 0.37689 -1.19577
# Poissons Ratio (z) = 0.32411 -0.36754
#
# Static dielectric constant tensor:
#      x y z
#    x 4.029470 -0.141700 -0.154170 
#    y -0.141700 3.273730 0.102470 
#    z -0.154170 0.102470 3.008520 
# 
# 
# High freq. dielectric constant tensor:
#      x y z
#    x 1.845630 -0.004950 -0.001160 
#    y -0.004950 1.776920 0.036340 
#    z -0.001160 0.036340 1.826890 
# 
# From -- ./inp_files/182396.got.cif
#   From: 2010.06.25/outbox.cif.g09.slc.cpg/sg2_92_cif.got.tgz:182396.got - 2010.06.27 13:26:56.
