data_PCOD8030983
_publ_section_title
;
Structure prediction by ZEFSAII (Michael W. Deem and Ramdas Pophale) SiO2 
 PCOD8030983
Probable space group: P -1
;
_chemical_formula_sum "Si O2"
_cell_formula_units_Z 16
_cell_length_a 11.178193
_cell_length_b 26.942803
_cell_length_c 9.691171
_cell_angle_alpha 27.496552
_cell_angle_beta 136.662734
_cell_angle_gamma 145.821265
_cell_volume 756.785181
_symmetry_space_group_name_H-M "P -1"
_symmetry_group_IT_number 2
_symmetry_cell_setting 'triclinic'
loop_
_space_group_symop_operation_xyz
x,y,z
-x,-y,-z
loop_
_atom_site_type_symbol
_atom_site_label
_atom_site_fract_x
_atom_site_fract_y
_atom_site_fract_z
Si Si1 0.110580 0.231070 0.485887
Si Si2 0.821482 0.530805 0.905559
Si Si3 0.869154 0.886140 0.930774
Si Si4 0.332979 0.333692 0.928408
Si Si5 0.010251 0.376316 0.473512
Si Si6 0.684913 0.041930 0.445830
Si Si7 0.273145 0.166675 0.538450
Si Si8 0.622926 0.123742 0.895814
O O1 0.200801 0.382121 0.216602
O O2 0.276605 0.219799 0.563132
O O3 0.898093 0.168620 0.373030
O O4 0.061156 0.151755 0.780635
O O5 0.588088 0.422333 0.917485
O O6 0.975610 0.621580 0.686178
O O7 0.931039 0.466665 0.230149
O O8 0.701312 0.919606 0.744289
O O9 0.755647 0.765326 0.029988
O O10 0.082753 0.014096 0.731266
O O11 0.239290 0.422423 0.617167
O O12 0.244028 0.252651 0.194244
O O13 0.846866 0.227470 0.755008
O O14 0.500000 0.000000 0.500000
O O15 0.645321 0.079948 0.171521
O O16 0.497881 0.190992 0.639786
O O17 0.500000 0.000000 0.000000
#
# Coordination Sequence:
#
# PCOD8030983 Si02
#       8
#     2   2   2   2   2   2   2   2
#     4  11  24  45  64  96 143 179 223 272 347 415
#     4  11  26  45  68  99 137 188 229 281 327 407
#     4  11  22  41  70  98 132 177 223 285 341 409
#     4  12  23  45  71 101 130 180 234 277 347 389
#     4  11  24  44  68 101 136 173 241 283 324 402
#     4  11  24  40  67 105 139 175 220 280 356 409
#     4  11  23  43  67 101 138 171 221 288 351 403
#     4  12  24  43  70 107 135 174 229 290 341 397
#
# _framework density 21.142063
#
# number of rings (size 3 to 8) (size 9 to 14) (size 15 to 20)
#    0.000    0.750    2.500    6.750    1.750    1.500 
#    2.250    1.250    0.000    0.000    0.000    0.000 
#    0.000    0.000    0.000    0.000    0.000    0.000 
#
# Total GULP energy -198445.217725 kJ/mol
# GULP energy per Si atom -12402.826108 kJ/mol
# Density = 2.109394 g / cm^3
# Si number density = 21.142063 Si / 1000 Ang^3
#
#
#
# Elastic Constant Matrix: (Units=GPa)
#
#
# Indices 1 2 3 4 5 6 
#
# 1 98.3402 51.6228 37.9767 -5.1552 3.4582 5.6243
# 2 51.6228 88.2707 48.8004 7.6710 -0.7106 -12.2018
# 3 37.9767 48.8004 136.6608 13.6238 2.7101 -2.5123
# 4 -5.1552 7.6710 13.6238 30.5935 3.0856 3.4823
# 5 3.4582 -0.7106 2.7101 3.0856 51.0684 5.4665
# 6 5.6243 -12.2018 -2.5123 3.4823 5.4665 31.1193
#
#
#
# Elastic Compliance Matrix: (Units=1/GPa)
#
#
# Indices 1 2 3 4 5 6 
#
# 1 0.017622 -0.011129 -0.001820 0.007609 -0.000812 -0.008404
# 2 -0.011129 0.022150 -0.003927 -0.006992 0.000507 0.011073
# 3 -0.001820 -0.003927 0.009585 -0.003568 -0.000225 0.000002
# 4 0.007609 -0.006992 -0.003568 0.038452 -0.001849 -0.008383
# 5 -0.000812 0.000507 -0.000225 -0.001849 0.020088 -0.002994
# 6 -0.008404 0.011073 0.000002 -0.008383 -0.002994 0.039459
#
#
# Mechanical properties :
#
#
# Convention : Reuss Voigt Hill
#
# Bulk Modulus (GPa) = 64.07396 66.67461 65.37429
# Shear Modulus (GPa) = 26.83719 34.88102 30.85910
#
# Velocity S-wave (km/s) = 3.56669 4.06623 3.82463
# Velocity P-wave (km/s) = 6.87996 7.32465 7.10579
#
# Compressibility (1/GPa) = 0.01560696
#
# Stress axis : x y z
#
# Youngs Moduli (GPa) = 56.74855 45.14600 104.32514
#
# Poissons Ratio (x) = 0.50243 0.18984
# Poissons Ratio (y) = 0.63155 0.40964
# Poissons Ratio (z) = 0.10327 0.17727
#
# Static dielectric constant tensor:
#      x y z
#    x 4.059530 -0.009990 0.126180 
#    y -0.009990 3.659830 0.125860 
#    z 0.126180 0.125860 4.089560 
# 
# 
# High freq. dielectric constant tensor:
#      x y z
#    x 1.841660 0.008070 0.003410 
#    y 0.008070 1.812750 0.006900 
#    z 0.003410 0.006900 1.847410 
# 
# From -- ./inp_files/272759.got.cif
#   From: 2010.06.25/outbox.cif.g09.slc.cpg/sg2_137_cif.got.tgz:272759.got - 2010.06.27 13:26:56.
