data_PCOD8030995
_publ_section_title
;
Structure prediction by ZEFSAII (Michael W. Deem and Ramdas Pophale) SiO2 
 PCOD8030995
Probable space group: P -1
;
_chemical_formula_sum "Si O2"
_cell_formula_units_Z 16
_cell_length_a 7.885873
_cell_length_b 11.248199
_cell_length_c 14.085707
_cell_angle_alpha 34.425064
_cell_angle_beta 97.079313
_cell_angle_gamma 86.790597
_cell_volume 672.709702
_symmetry_space_group_name_H-M "P -1"
_symmetry_group_IT_number 2
_symmetry_cell_setting 'triclinic'
loop_
_space_group_symop_operation_xyz
x,y,z
-x,-y,-z
loop_
_atom_site_type_symbol
_atom_site_label
_atom_site_fract_x
_atom_site_fract_y
_atom_site_fract_z
Si Si1 0.759662 0.965859 0.823073
Si Si2 0.135243 0.645340 0.496983
Si Si3 0.772369 0.788261 0.289152
Si Si4 0.939947 0.491416 0.205763
Si Si5 0.579040 0.978657 0.335718
Si Si6 0.674144 0.561479 0.723670
Si Si7 0.603927 0.380590 0.174741
Si Si8 0.209207 0.888758 0.075286
O O1 0.807185 0.129482 0.640591
O O2 0.603231 0.883556 0.818405
O O3 0.690377 0.108492 0.819205
O O4 0.910810 0.750483 0.010198
O O5 0.283465 0.429170 0.606777
O O6 0.079296 0.570389 0.644971
O O7 0.985678 0.707597 0.363767
O O8 0.720793 0.886886 0.324199
O O9 0.708053 0.978202 0.082220
O O10 0.798756 0.410078 0.187176
O O11 0.146406 0.383828 0.258923
O O12 0.550073 0.768179 0.524264
O O13 0.641738 0.122604 0.324772
O O14 0.537689 0.518014 0.819523
O O15 0.747470 0.360927 0.789617
O O16 0.500000 0.500000 0.000000
O O17 0.000000 0.000000 0.000000
#
# Coordination Sequence:
#
# PCOD8030995 Si02
#       8
#     2   2   2   2   2   2   2   2
#     4  12  25  43  74 108 151 189 240 305 372 443
#     4  11  22  42  73 110 141 186 245 292 363 455
#     4  11  22  41  71 102 148 188 227 302 370 428
#     4  12  25  50  78 107 148 199 246 301 374 441
#     4  12  27  48  68 106 148 189 249 311 360 428
#     4  12  26  48  79 107 145 199 245 305 374 440
#     4  12  28  51  73 106 148 191 257 313 357 434
#     4  12  22  42  73 111 149 189 241 300 371 453
#
# _framework density 23.784406000000001
#
# number of rings (size 3 to 8) (size 9 to 14) (size 15 to 20)
#    0.000    0.250    6.250    2.625    0.000    4.500 
#    2.250    0.000    0.000    0.000    0.000    0.000 
#    0.000    0.000    0.000    0.000    0.000    0.000 
#
# Total GULP energy -198242.586827 kJ/mol
# GULP energy per Si atom -12390.161677 kJ/mol
# Density = 2.373027 g / cm^3
# Si number density = 23.784406 Si / 1000 Ang^3
#
#
#
# Elastic Constant Matrix: (Units=GPa)
#
#
# Indices 1 2 3 4 5 6 
#
# 1 70.6087 9.6178 3.4975 7.4513 -0.7480 11.4678
# 2 9.6178 66.8906 8.5162 -10.4843 -4.8421 4.7437
# 3 3.4975 8.5162 126.7947 -1.0762 -7.1864 4.5423
# 4 7.4513 -10.4843 -1.0762 35.2158 4.7831 2.4001
# 5 -0.7480 -4.8421 -7.1864 4.7831 32.3530 2.4493
# 6 11.4678 4.7437 4.5423 2.4001 2.4493 37.9924
#
#
#
# Elastic Compliance Matrix: (Units=1/GPa)
#
#
# Indices 1 2 3 4 5 6 
#
# 1 0.015605 -0.002478 -0.000098 -0.003873 0.000859 -0.004200
# 2 -0.002478 0.016475 -0.000846 0.005303 0.001561 -0.001643
# 3 -0.000098 -0.000846 0.008078 -0.000160 0.001760 -0.000934
# 4 -0.003873 0.005303 -0.000160 0.031399 -0.003882 -0.001207
# 5 0.000859 0.001561 0.001760 -0.003882 0.032317 -0.002503
# 6 -0.004200 -0.001643 -0.000934 -0.001207 -0.002503 0.028143
#
#
# Mechanical properties :
#
#
# Convention : Reuss Voigt Hill
#
# Bulk Modulus (GPa) = 30.01756 34.17300 32.09528
# Shear Modulus (GPa) = 33.34101 37.28973 35.31537
#
# Velocity S-wave (km/s) = 3.74813 3.96387 3.85751
# Velocity P-wave (km/s) = 5.60173 5.94548 5.77616
#
# Compressibility (1/GPa) = 0.03331384
#
# Stress axis : x y z
#
# Youngs Moduli (GPa) = 64.08241 60.69958 123.79121
#
# Poissons Ratio (x) = 0.15043 0.01210
# Poissons Ratio (y) = 0.15882 0.10470
# Poissons Ratio (z) = 0.00626 0.05134
#
# Static dielectric constant tensor:
#      x y z
#    x 4.196660 -0.171530 -0.084090 
#    y -0.171530 8.932090 0.342850 
#    z -0.084090 0.342850 4.657440 
# 
# 
# High freq. dielectric constant tensor:
#      x y z
#    x 1.926290 0.013030 0.001230 
#    y 0.013030 1.933030 0.001400 
#    z 0.001230 0.001400 1.968280 
# 
# From -- ./inp_files/499707.got.cif
#   From: 2010.06.25/outbox.cif.g09.slc.cpg/sg2_250_cif.got.tgz:499707.got - 2010.06.27 13:26:56.
