data_PCOD8030597
_publ_section_title
;
Structure prediction by ZEFSAII (Michael W. Deem and Ramdas Pophale) SiO2 
 PCOD8030597
Probable space group: P -1
;
_chemical_formula_sum "Si O2"
_cell_formula_units_Z 16
_cell_length_a 12.009623
_cell_length_b 9.038226
_cell_length_c 18.866802
_cell_angle_alpha 130.234650
_cell_angle_beta 151.684007
_cell_angle_gamma 48.177273
_cell_volume 713.779837
_symmetry_space_group_name_H-M "P -1"
_symmetry_group_IT_number 2
_symmetry_cell_setting 'triclinic'
loop_
_space_group_symop_operation_xyz
x,y,z
-x,-y,-z
loop_
_atom_site_type_symbol
_atom_site_label
_atom_site_fract_x
_atom_site_fract_y
_atom_site_fract_z
Si Si1 0.145841 0.297014 0.978714
Si Si2 0.866378 0.832629 0.226298
Si Si3 0.469630 0.540406 0.216152
Si Si4 0.318533 0.865104 0.976196
Si Si5 0.093959 0.759755 0.676400
Si Si6 0.900046 0.229264 0.037432
Si Si7 0.618606 0.769204 0.481822
Si Si8 0.243586 0.464226 0.368504
O O1 0.415840 0.324952 0.130970
O O2 0.176931 0.100410 0.983746
O O3 0.058555 0.258955 0.838919
O O4 0.000000 0.500000 0.000000
O O5 0.600217 0.830001 0.102964
O O6 0.057995 0.686479 0.341284
O O7 0.895466 0.058233 0.314694
O O8 0.755636 0.464044 0.333646
O O9 0.422560 0.673242 0.303256
O O10 0.283004 0.656199 0.088999
O O11 0.191125 0.789929 0.817135
O O12 0.273486 0.745316 0.982846
O O13 0.817340 0.756062 0.528149
O O14 0.124806 0.329983 0.206972
O O15 0.000000 0.000000 0.000000
O O16 0.723249 0.648615 0.573118
O O17 0.500000 0.000000 0.500000
O O18 0.500000 0.500000 0.500000
#
# Coordination Sequence:
#
# PCOD8030597 Si02
#       8
#     2   2   2   2   2   2   2   2
#     4  11  22  38  69 105 135 174 234 289 346 405
#     4  11  23  45  71 103 139 185 232 292 350 425
#     4  12  25  44  72 101 137 185 241 287 343 423
#     4  11  22  42  73 102 143 179 232 298 352 409
#     4  11  22  46  68 101 141 185 232 280 357 427
#     4  12  26  45  73 109 139 182 248 300 342 416
#     4  12  28  46  70 100 143 190 226 287 365 416
#     4  12  27  47  70 104 145 187 229 288 366 420
#
# _framework density 22.415875
#
# number of rings (size 3 to 8) (size 9 to 14) (size 15 to 20)
#    0.000    0.500    5.000    3.375    7.000    1.000 
#    0.000    0.625    0.000    0.000    0.000    0.000 
#    0.000    0.000    0.000    0.000    0.000    0.000 
#
# Total GULP energy -198276.393493 kJ/mol
# GULP energy per Si atom -12392.274593 kJ/mol
# Density = 2.236486 g / cm^3
# Si number density = 22.415875 Si / 1000 Ang^3
#
#
#
# Elastic Constant Matrix: (Units=GPa)
#
#
# Indices 1 2 3 4 5 6 
#
# 1 76.4579 41.9358 17.8533 -5.1361 6.0137 0.3219
# 2 41.9358 145.9153 64.7739 -4.2396 -15.4394 -5.1546
# 3 17.8533 64.7739 75.6438 -8.7593 -11.7864 12.3505
# 4 -5.1361 -4.2396 -8.7593 31.3155 1.6911 0.2471
# 5 6.0137 -15.4394 -11.7864 1.6911 33.6937 -1.1063
# 6 0.3219 -5.1546 12.3505 0.2471 -1.1063 36.3017
#
#
#
# Elastic Compliance Matrix: (Units=1/GPa)
#
#
# Indices 1 2 3 4 5 6 
#
# 1 0.016607 -0.005525 0.000439 0.002406 -0.005504 -0.001265
# 2 -0.005525 0.014047 -0.011412 -0.002447 0.003752 0.006057
# 3 0.000439 -0.011412 0.025702 0.005632 0.003062 -0.010314
# 4 0.002406 -0.002447 0.005632 0.033665 -0.001354 -0.002555
# 5 -0.005504 0.003752 0.003062 -0.001354 0.033539 0.000571
# 6 -0.001265 0.006057 -0.010314 -0.002555 0.000571 0.031962
#
#
# Mechanical properties :
#
#
# Convention : Reuss Voigt Hill
#
# Bulk Modulus (GPa) = 42.80957 60.79366 51.80161
# Shear Modulus (GPa) = 25.47073 31.82580 28.64827
#
# Velocity S-wave (km/s) = 3.37453 3.77210 3.57884
# Velocity P-wave (km/s) = 5.85855 6.79347 6.34326
#
# Compressibility (1/GPa) = 0.02335926
#
# Stress axis : x y z
#
# Youngs Moduli (GPa) = 60.21655 71.18918 38.90791
#
# Poissons Ratio (x) = 0.39330 -0.01708
# Poissons Ratio (y) = 0.33268 0.44403
# Poissons Ratio (z) = -0.02643 0.81243
#
# Static dielectric constant tensor:
#      x y z
#    x 6.380670 1.191690 0.225540 
#    y 1.191690 4.925040 0.206940 
#    z 0.225540 0.206940 4.522760 
# 
# 
# High freq. dielectric constant tensor:
#      x y z
#    x 1.883960 0.000520 0.015960 
#    y 0.000520 1.903460 0.005860 
#    z 0.015960 0.005860 1.884660 
# 
# From -- ./inp_files/279438.got.cif
#   From: 2010.06.25/outbox.cif.g09.slc.cpg/sg2_140_cif.got.tgz:279438.got - 2010.06.27 13:26:56.
