data_PCOD8030782
_publ_section_title
;
Structure prediction by ZEFSAII (Michael W. Deem and Ramdas Pophale) SiO2 
 PCOD8030782
Probable space group: P -1
;
_chemical_formula_sum "Si O2"
_cell_formula_units_Z 16
_cell_length_a 23.906475
_cell_length_b 18.095597
_cell_length_c 14.853317
_cell_angle_alpha 31.102428
_cell_angle_beta 19.656691
_cell_angle_gamma 21.119005
_cell_volume 765.577288
_symmetry_space_group_name_H-M "P -1"
_symmetry_group_IT_number 2
_symmetry_cell_setting 'triclinic'
loop_
_space_group_symop_operation_xyz
x,y,z
-x,-y,-z
loop_
_atom_site_type_symbol
_atom_site_label
_atom_site_fract_x
_atom_site_fract_y
_atom_site_fract_z
Si Si1 0.335192 0.201066 0.101458
Si Si2 0.025446 0.397673 0.200812
Si Si3 0.900412 0.000457 0.742074
Si Si4 0.289690 0.690333 0.853504
Si Si5 0.228589 0.051659 0.575796
Si Si6 0.602537 0.438644 0.809797
Si Si7 0.574879 0.352725 0.621259
Si Si8 0.718887 0.826295 0.126963
O O1 0.225665 0.177168 0.374035
O O2 0.117736 0.384705 0.173172
O O3 0.475954 0.253204 0.867909
O O4 0.500000 0.000000 0.000000
O O5 0.824330 0.405461 0.504660
O O6 0.920502 0.604125 0.099557
O O7 0.236550 0.200687 0.021188
O O8 0.132931 0.828379 0.632608
O O9 0.702937 0.220589 0.860820
O O10 0.744164 0.960860 0.995802
O O11 0.000000 0.000000 0.500000
O O12 0.392326 0.623404 0.868904
O O13 0.471986 0.486192 0.729063
O O14 0.269594 0.866942 0.664293
O O15 0.023845 0.785106 0.157495
O O16 0.442808 0.946663 0.432908
O O17 0.500000 0.500000 0.000000
O O18 0.500000 0.500000 0.500000
#
# Coordination Sequence:
#
# PCOD8030782 Si02
#       8
#     2   2   2   2   2   2   2   2
#     4  12  23  39  65 102 134 173 227 282 334 410
#     4  11  22  40  67  98 133 174 229 280 340 399
#     4  12  23  44  71  99 134 175 231 281 332 400
#     4  11  25  47  68  97 139 184 228 282 352 411
#     4  11  24  43  68  95 136 181 223 278 350 406
#     4  12  25  45  71 102 138 182 227 281 347 408
#     4  12  26  44  71 104 137 179 230 285 342 408
#     4  11  22  41  70  96 129 181 225 284 337 401
#
# _framework density 20.899263000000001
#
# number of rings (size 3 to 8) (size 9 to 14) (size 15 to 20)
#    0.000    0.500    5.000    3.750    1.750    2.500 
#    2.250    0.625    0.000    0.000    0.000    0.000 
#    0.000    0.000    0.000    0.000    0.000    0.000 
#
# Total GULP energy -198440.635538 kJ/mol
# GULP energy per Si atom -12402.539721 kJ/mol
# Density = 2.085169 g / cm^3
# Si number density = 20.899263 Si / 1000 Ang^3
#
#
#
# Elastic Constant Matrix: (Units=GPa)
#
#
# Indices 1 2 3 4 5 6 
#
# 1 99.1249 33.0612 32.7151 -5.7644 -5.6477 -5.4389
# 2 33.0612 87.4767 37.3885 -1.4496 5.8717 11.8342
# 3 32.7151 37.3885 122.3921 -5.7703 -18.4042 7.1860
# 4 -5.7644 -1.4496 -5.7703 39.8549 -4.5099 -6.3931
# 5 -5.6477 5.8717 -18.4042 -4.5099 41.5320 0.8377
# 6 -5.4389 11.8342 7.1860 -6.3931 0.8377 47.1626
#
#
#
# Elastic Compliance Matrix: (Units=1/GPa)
#
#
# Indices 1 2 3 4 5 6 
#
# 1 0.012569 -0.004470 -0.001823 0.002081 0.001697 0.003101
# 2 -0.004470 0.015746 -0.004192 -0.001866 -0.004814 -0.003995
# 3 -0.001823 -0.004192 0.010861 0.001652 0.005351 -0.000684
# 4 0.002081 -0.001866 0.001652 0.026668 0.004094 0.003999
# 5 0.001697 -0.004814 0.005351 0.004094 0.027792 0.000650
# 6 0.003101 -0.003995 -0.000684 0.003999 0.000650 0.023198
#
#
# Mechanical properties :
#
#
# Convention : Reuss Voigt Hill
#
# Bulk Modulus (GPa) = 54.93096 57.25816 56.09456
# Shear Modulus (GPa) = 34.75314 39.43182 37.09248
#
# Velocity S-wave (km/s) = 4.08228 4.34839 4.21743
# Velocity P-wave (km/s) = 6.96855 7.25728 7.11438
#
# Compressibility (1/GPa) = 0.01820467
#
# Stress axis : x y z
#
# Youngs Moduli (GPa) = 79.56348 63.50991 92.07157
#
# Poissons Ratio (x) = 0.28389 0.16784
# Poissons Ratio (y) = 0.35565 0.38601
# Poissons Ratio (z) = 0.14503 0.26626
#
# Static dielectric constant tensor:
#      x y z
#    x 3.648480 -0.700460 -0.137480 
#    y -0.700460 3.922270 0.296310 
#    z -0.137480 0.296310 3.854020 
# 
# 
# High freq. dielectric constant tensor:
#      x y z
#    x 1.817540 -0.014790 -0.017050 
#    y -0.014790 1.831500 -0.005460 
#    z -0.017050 -0.005460 1.824420 
# 
# From -- ./inp_files/271181.got.cif
#   From: 2010.06.25/outbox.cif.g09.slc.cpg/sg2_136_cif.got.tgz:271181.got - 2010.06.27 13:26:56.
