data_PCOD8030975
_publ_section_title
;
Structure prediction by ZEFSAII (Michael W. Deem and Ramdas Pophale) SiO2 
 PCOD8030975
Probable space group: P -1
;
_chemical_formula_sum "Si O2"
_cell_formula_units_Z 14
_cell_length_a 10.415110
_cell_length_b 26.019779
_cell_length_c 12.572392
_cell_angle_alpha 24.346180
_cell_angle_beta 35.725881
_cell_angle_gamma 25.968340
_cell_volume 614.528810
_symmetry_space_group_name_H-M "P -1"
_symmetry_group_IT_number 2
_symmetry_cell_setting 'triclinic'
loop_
_space_group_symop_operation_xyz
x,y,z
-x,-y,-z
loop_
_atom_site_type_symbol
_atom_site_label
_atom_site_fract_x
_atom_site_fract_y
_atom_site_fract_z
Si Si1 0.596514 0.599523 0.285709
Si Si2 0.690318 0.877665 0.196968
Si Si3 0.711492 0.104756 0.423259
Si Si4 0.788677 0.514500 0.923437
Si Si5 0.234689 0.404086 0.432081
Si Si6 0.135829 0.922890 0.862775
Si Si7 0.307819 0.710819 0.492672
O O1 0.500000 0.500000 0.500000
O O2 0.542581 0.625960 0.399081
O O3 0.933000 0.499443 0.214690
O O4 0.416590 0.778559 0.013740
O O5 0.484975 0.936761 0.326296
O O6 0.820846 0.698366 0.407072
O O7 0.952147 0.866989 0.074179
O O8 0.500000 0.000000 0.000000
O O9 0.522623 0.303083 0.184493
O O10 0.783095 0.049772 0.357149
O O11 0.000000 0.000000 0.500000
O O12 0.790611 0.478343 0.863146
O O13 0.810666 0.383995 0.227987
O O14 0.549060 0.290305 0.492579
O O15 0.000000 0.500000 0.500000
O O16 0.961105 0.095844 0.718322
#
# Coordination Sequence:
#
# PCOD8030975 Si02
#       7
#     2   2   2   2   2   2   2
#     4  12  27  49  72  98 139 187 236 283 344 421
#     4  11  22  42  68 101 137 176 223 281 348 399
#     4  11  23  41  69 100 135 175 227 283 343 407
#     4  11  26  45  70 104 139 184 228 287 353 408
#     4  11  22  41  70 101 136 178 225 286 344 398
#     4  12  26  45  71 104 138 185 233 281 343 419
#     4  12  26  45  70 103 141 181 233 288 346 411
#
# _framework density 22.781680000000001
#
# number of rings (size 3 to 8) (size 9 to 14) (size 15 to 20)
#    0.000    0.571    4.286    4.286    2.000    6.286 
#    0.000    0.000    0.000    0.000    0.000    0.000 
#    0.000    0.000    0.000    0.000    0.000    0.000 
#
# Total GULP energy -173587.154617 kJ/mol
# GULP energy per Si atom -12399.082473 kJ/mol
# Density = 2.272983 g / cm^3
# Si number density = 22.781680 Si / 1000 Ang^3
#
#
#
# Elastic Constant Matrix: (Units=GPa)
#
#
# Indices 1 2 3 4 5 6 
#
# 1 72.5433 23.3642 28.0307 2.3783 4.7086 -7.8157
# 2 23.3642 120.7125 41.4725 2.6165 -5.2685 -3.0965
# 3 28.0307 41.4725 111.4299 1.2546 3.7896 -8.9708
# 4 2.3783 2.6165 1.2546 47.1981 0.0244 12.4409
# 5 4.7086 -5.2685 3.7896 0.0244 38.4614 -0.5113
# 6 -7.8157 -3.0965 -8.9708 12.4409 -0.5113 40.9303
#
#
#
# Elastic Compliance Matrix: (Units=1/GPa)
#
#
# Indices 1 2 3 4 5 6 
#
# 1 0.016053 -0.002073 -0.002975 -0.001307 -0.001920 0.002630
# 2 -0.002073 0.009882 -0.003238 -0.000294 0.001923 -0.000245
# 3 -0.002975 -0.003238 0.011112 -0.000423 -0.001151 0.001737
# 4 -0.001307 -0.000294 -0.000423 0.023238 0.000048 -0.007427
# 5 -0.001920 0.001923 -0.001151 0.000048 0.026610 -0.000156
# 6 0.002630 -0.000245 0.001737 -0.007427 -0.000156 0.027552
#
#
# Mechanical properties :
#
#
# Convention : Reuss Voigt Hill
#
# Bulk Modulus (GPa) = 48.84234 54.49118 51.66676
# Shear Modulus (GPa) = 36.27304 39.43917 37.85611
#
# Velocity S-wave (km/s) = 3.99457 4.16526 4.08081
# Velocity P-wave (km/s) = 6.53921 6.86318 6.70316
#
# Compressibility (1/GPa) = 0.02047404
#
# Stress axis : x y z
#
# Youngs Moduli (GPa) = 62.29423 101.19439 89.99668
#
# Poissons Ratio (x) = 0.20978 0.26773
# Poissons Ratio (y) = 0.12914 0.29143
# Poissons Ratio (z) = 0.18532 0.32769
#
# Static dielectric constant tensor:
#      x y z
#    x 4.027610 -0.008200 0.236310 
#    y -0.008200 4.234910 0.021370 
#    z 0.236310 0.021370 3.668690 
# 
# 
# High freq. dielectric constant tensor:
#      x y z
#    x 1.892250 -0.002150 0.024170 
#    y -0.002150 1.912080 0.003770 
#    z 0.024170 0.003770 1.906430 
# 
# From -- ./inp_files/524607.got.cif
#   From: 2010.06.25/outbox.cif.g09.slc.cpg/sg2_263_cif.got.tgz:524607.got - 2010.06.27 13:26:56.
