data_PCOD8030508
_publ_section_title
;
Structure prediction by ZEFSAII (Michael W. Deem and Ramdas Pophale) SiO2 
 PCOD8030508
Probable space group: P -1
;
_chemical_formula_sum "Si O2"
_cell_formula_units_Z 14
_cell_length_a 11.521056
_cell_length_b 11.595912
_cell_length_c 8.180775
_cell_angle_alpha 122.993837
_cell_angle_beta 117.549165
_cell_angle_gamma 41.155262
_cell_volume 600.527369
_symmetry_space_group_name_H-M "P -1"
_symmetry_group_IT_number 2
_symmetry_cell_setting 'triclinic'
loop_
_space_group_symop_operation_xyz
x,y,z
-x,-y,-z
loop_
_atom_site_type_symbol
_atom_site_label
_atom_site_fract_x
_atom_site_fract_y
_atom_site_fract_z
Si Si1 0.492193 0.841836 0.360282
Si Si2 0.729716 0.437278 0.697101
Si Si3 0.296268 0.100628 0.925128
Si Si4 0.606144 0.231408 0.437269
Si Si5 0.821576 0.812380 0.724606
Si Si6 0.107980 0.525421 0.462780
Si Si7 0.803309 0.588058 0.126760
O O1 0.499552 0.739230 0.446028
O O2 0.625563 0.690184 0.193798
O O3 0.500000 0.000000 0.500000
O O4 0.289155 0.983949 0.268604
O O5 0.732440 0.271108 0.588987
O O6 0.529226 0.634229 0.694088
O O7 0.829968 0.409510 0.576446
O O8 0.824525 0.433224 0.915475
O O9 0.202264 0.286593 0.909992
O O10 0.274451 0.978147 0.710613
O O11 0.187123 0.159529 0.065552
O O12 0.500000 0.000000 0.000000
O O13 0.751564 0.696765 0.555498
O O14 0.018910 0.678501 0.667672
O O15 0.969052 0.509878 0.287994
#
# Coordination Sequence:
#
# PCOD8030508 Si02
#       7
#     2   2   2   2   2   2   2
#     4  12  20  38  65  96 116 164 213 265 290 371
#     4  11  24  43  60  95 132 167 198 264 316 379
#     4  12  19  38  66  95 116 164 216 259 288 378
#     4  11  24  41  67  92 127 163 214 257 318 357
#     4  11  22  36  65  94 124 156 221 250 311 348
#     4  11  23  39  63  98 127 165 201 266 308 377
#     4  12  23  37  70  93 127 161 216 251 312 366
#
# _framework density 23.312843000000001
#
# number of rings (size 3 to 8) (size 9 to 14) (size 15 to 20)
#    0.000    0.571    7.143    1.286    2.000    0.571 
#    0.000    3.571    0.000    0.000    0.000    0.000 
#    0.000    0.000    0.000    0.000    0.000    0.000 
#
# Total GULP energy -173447.283601 kJ/mol
# GULP energy per Si atom -12389.091686 kJ/mol
# Density = 2.325978 g / cm^3
# Si number density = 23.312843 Si / 1000 Ang^3
#
#
#
# Elastic Constant Matrix: (Units=GPa)
#
#
# Indices 1 2 3 4 5 6 
#
# 1 119.1942 9.4484 58.5467 16.9052 -5.3361 13.1668
# 2 9.4484 61.4271 15.3041 -2.2020 11.3803 6.1152
# 3 58.5467 15.3041 128.8141 14.4218 -8.0004 9.0558
# 4 16.9052 -2.2020 14.4218 27.0574 4.0452 -4.6235
# 5 -5.3361 11.3803 -8.0004 4.0452 47.4173 4.7624
# 6 13.1668 6.1152 9.0558 -4.6235 4.7624 30.8837
#
#
#
# Elastic Compliance Matrix: (Units=1/GPa)
#
#
# Indices 1 2 3 4 5 6 
#
# 1 0.012084 -0.000911 -0.004178 -0.006546 0.001937 -0.005025
# 2 -0.000911 0.018223 -0.002427 0.003915 -0.005106 -0.001135
# 3 -0.004178 -0.002427 0.010673 -0.003954 0.002435 -0.001835
# 4 -0.006546 0.003915 -0.003954 0.046516 -0.007445 0.011287
# 5 0.001937 -0.005106 0.002435 -0.007445 0.024117 -0.005362
# 6 -0.005025 -0.001135 -0.001835 0.011287 -0.005362 0.037801
#
#
# Mechanical properties :
#
#
# Convention : Reuss Voigt Hill
#
# Bulk Modulus (GPa) = 38.53580 52.89263 45.71422
# Shear Modulus (GPa) = 28.88577 36.14742 32.51660
#
# Velocity S-wave (km/s) = 3.52383 3.94196 3.73874
# Velocity P-wave (km/s) = 5.75520 6.59213 6.18783
#
# Compressibility (1/GPa) = 0.02594989
#
# Stress axis : x y z
#
# Youngs Moduli (GPa) = 82.75369 54.87449 93.69362
#
# Poissons Ratio (x) = 0.05000 0.39142
# Poissons Ratio (y) = 0.07540 0.22736
# Poissons Ratio (z) = 0.34571 0.13316
#
# Static dielectric constant tensor:
#      x y z
#    x 4.126250 -0.280560 -0.215460 
#    y -0.280560 6.815650 -0.918640 
#    z -0.215460 -0.918640 4.886720 
# 
# 
# High freq. dielectric constant tensor:
#      x y z
#    x 1.908410 -0.000650 -0.036030 
#    y -0.000650 1.945140 -0.008800 
#    z -0.036030 -0.008800 1.906660 
# 
# From -- ./inp_files/216438.got.cif
#   From: 2010.06.25/outbox.cif.g09.slc.cpg/sg2_109_cif.got.tgz:216438.got - 2010.06.27 13:26:56.
