data_PCOD8030002
_publ_section_title
;
Structure prediction by ZEFSAII (Michael W. Deem and Ramdas Pophale) SiO2 
 PCOD8030002
Probable space group: P -1
;
_chemical_formula_sum "Si O2"
_cell_formula_units_Z 16
_cell_length_a 9.897402
_cell_length_b 14.009185
_cell_length_c 14.544127
_cell_angle_alpha 151.243502
_cell_angle_beta 134.507676
_cell_angle_gamma 42.854691
_cell_volume 649.280245
_symmetry_space_group_name_H-M "P -1"
_symmetry_group_IT_number 2
_symmetry_cell_setting 'triclinic'
loop_
_space_group_symop_operation_xyz
x,y,z
-x,-y,-z
loop_
_atom_site_type_symbol
_atom_site_label
_atom_site_fract_x
_atom_site_fract_y
_atom_site_fract_z
Si Si1 0.642449 0.844119 0.768396
Si Si2 0.293652 0.782979 0.645018
Si Si3 0.162758 0.595717 0.252445
Si Si4 0.988524 0.233226 0.215265
Si Si5 0.576500 0.279894 0.798192
Si Si6 0.991066 0.233158 0.861754
Si Si7 0.603218 0.314914 0.191824
Si Si8 0.357974 0.141502 0.422797
O O1 0.529108 0.733027 0.687260
O O2 0.886027 0.708209 0.760014
O O3 0.541440 0.859751 0.631258
O O4 0.606683 0.078602 0.984618
O O5 0.173250 0.702082 0.444036
O O6 0.309277 0.661271 0.645675
O O7 0.182637 0.033448 0.814080
O O8 0.045436 0.770565 0.268797
O O9 0.379132 0.474769 0.206003
O O10 0.040131 0.441463 0.086147
O O11 0.113414 0.233731 0.369975
O O12 0.753505 0.373388 0.239489
O O13 0.000000 0.000000 0.000000
O O14 0.801319 0.228221 0.825068
O O15 0.425816 0.286684 0.648036
O O16 0.571576 0.100458 0.715264
O O17 0.500000 0.500000 0.000000
#
# Coordination Sequence:
#
# PCOD8030002 Si02
#       8
#     2   2   2   2   2   2   2   2
#     4   9  20  39  67  93 133 177 214 270 336 399
#     4  12  23  43  70  98 134 178 226 273 334 403
#     4  11  26  43  66  99 136 176 221 282 332 395
#     4   8  18  37  66  92 125 175 211 269 335 387
#     4  11  24  39  67  96 130 175 224 278 324 402
#     4  11  26  44  66  97 135 180 225 270 338 400
#     4  11  21  41  69  99 135 174 223 283 328 392
#     4   9  21  42  63  95 132 173 219 272 339 389
#
# _framework density 24.642671
#
# number of rings (size 3 to 8) (size 9 to 14) (size 15 to 20)
#    0.750    1.000    1.250    2.625    1.750    3.000 
#    0.000    0.625    0.000    0.000    0.000    0.000 
#    0.000    0.000    0.000    0.000    0.000    0.000 
#
# Total GULP energy -198283.640719 kJ/mol
# GULP energy per Si atom -12392.727545 kJ/mol
# Density = 2.458658 g / cm^3
# Si number density = 24.642671 Si / 1000 Ang^3
#
#
#
# Elastic Constant Matrix: (Units=GPa)
#
#
# Indices 1 2 3 4 5 6 
#
# 1 105.0070 7.3029 16.8339 -3.8540 7.9051 -13.5228
# 2 7.3029 52.7791 -9.8027 -5.8684 4.8224 -9.4376
# 3 16.8339 -9.8027 93.0918 -19.3479 -7.2774 -8.9853
# 4 -3.8540 -5.8684 -19.3479 31.3592 -3.7689 2.9733
# 5 7.9051 4.8224 -7.2774 -3.7689 28.3336 -7.5286
# 6 -13.5228 -9.4376 -8.9853 2.9733 -7.5286 23.6095
#
#
#
# Elastic Compliance Matrix: (Units=1/GPa)
#
#
# Indices 1 2 3 4 5 6 
#
# 1 0.010597 -0.000923 -0.001922 -0.000737 -0.002235 0.004349
# 2 -0.000923 0.022325 0.004859 0.006269 0.001149 0.009822
# 3 -0.001922 0.004859 0.014936 0.010006 0.006857 0.007452
# 4 -0.000737 0.006269 0.010006 0.039772 0.007903 0.003403
# 5 -0.002235 0.001149 0.006857 0.007903 0.042332 0.014292
# 6 0.004349 0.009822 0.007452 0.003403 0.014292 0.055738
#
#
# Mechanical properties :
#
#
# Convention : Reuss Voigt Hill
#
# Bulk Modulus (GPa) = 19.27311 31.06067 25.16689
# Shear Modulus (GPa) = 25.12980 32.43006 28.77993
#
# Velocity S-wave (km/s) = 3.19684 3.63162 3.42115
# Velocity P-wave (km/s) = 4.63297 5.49697 5.08336
#
# Compressibility (1/GPa) = 0.05188576
#
# Stress axis : x y z
#
# Youngs Moduli (GPa) = 94.36868 44.79231 66.95206
#
# Poissons Ratio (x) = 0.04135 0.12865
# Poissons Ratio (y) = 0.08712 -0.32529
# Poissons Ratio (z) = 0.18134 -0.21763
#
# Static dielectric constant tensor:
#      x y z
#    x 3.922220 0.539950 0.032920 
#    y 0.539950 3.750880 -0.283930 
#    z 0.032920 -0.283930 4.557360 
# 
# 
# High freq. dielectric constant tensor:
#      x y z
#    x 1.981540 -0.002330 0.004170 
#    y -0.002330 1.963270 -0.008720 
#    z 0.004170 -0.008720 1.997420 
# 
# From -- ./inp_files/570407.got.cif
#   From: 2010.06.25/outbox.cif.g09.slc.cpg/sg2_286_cif.got.tgz:570407.got - 2010.06.27 13:26:56.
