data_PCOD8030323
_publ_section_title
;
Structure prediction by ZEFSAII (Michael W. Deem and Ramdas Pophale) SiO2 
 PCOD8030323
Probable space group: P -1
;
_chemical_formula_sum "Si O2"
_cell_formula_units_Z 14
_cell_length_a 12.256894
_cell_length_b 14.182278
_cell_length_c 11.718532
_cell_angle_alpha 149.644486
_cell_angle_beta 141.562657
_cell_angle_gamma 47.526544
_cell_volume 639.962839
_symmetry_space_group_name_H-M "P -1"
_symmetry_group_IT_number 2
_symmetry_cell_setting 'triclinic'
loop_
_space_group_symop_operation_xyz
x,y,z
-x,-y,-z
loop_
_atom_site_type_symbol
_atom_site_label
_atom_site_fract_x
_atom_site_fract_y
_atom_site_fract_z
Si Si1 0.844787 0.610530 0.931160
Si Si2 0.020270 0.044934 0.229076
Si Si3 0.373737 0.728839 0.552457
Si Si4 0.367956 0.824661 0.902491
Si Si5 0.925526 0.704573 0.665723
Si Si6 0.295830 0.402234 0.428695
Si Si7 0.251437 0.043632 0.640137
O O1 0.672394 0.487564 0.690915
O O2 0.864947 0.610766 0.809423
O O3 0.819102 0.812716 0.173358
O O4 0.000000 0.500000 0.000000
O O5 0.107672 0.210712 0.398460
O O6 0.116633 0.048783 0.431766
O O7 0.809385 0.070053 0.094000
O O8 0.055880 0.847650 0.988789
O O9 0.384664 0.839047 0.794913
O O10 0.559661 0.734920 0.648514
O O11 0.238015 0.839122 0.474120
O O12 0.357139 0.613558 0.718551
O O13 0.548730 0.913362 0.192701
O O14 0.750898 0.683654 0.576690
O O15 0.000000 0.500000 0.500000
#
# Coordination Sequence:
#
# PCOD8030323 Si02
#       7
#     2   2   2   2   2   2   2
#     4  11  24  38  64 103 141 169 219 276 333 411
#     4  11  27  45  70 103 129 176 238 275 327 404
#     4  11  23  40  64 103 140 179 212 265 350 405
#     4  11  21  44  70 100 143 174 216 280 338 400
#     4  11  25  48  71  90 134 186 226 280 334 384
#     4  11  21  44  70  94 136 186 218 269 341 399
#     4  12  24  41  70 104 139 171 220 280 338 403
#
# _framework density 21.876270000000002
#
# number of rings (size 3 to 8) (size 9 to 14) (size 15 to 20)
#    0.000    0.857    4.286    3.857    4.000    1.143 
#    0.000    7.143    0.000    0.000    0.000    0.000 
#    0.000    0.000    0.000    0.000    0.000    0.000 
#
# Total GULP energy -173564.938245 kJ/mol
# GULP energy per Si atom -12397.495589 kJ/mol
# Density = 2.182648 g / cm^3
# Si number density = 21.876270 Si / 1000 Ang^3
#
#
#
# Elastic Constant Matrix: (Units=GPa)
#
#
# Indices 1 2 3 4 5 6 
#
# 1 114.1800 22.2628 -0.1005 8.6774 1.7684 -0.5065
# 2 22.2628 81.2569 14.7056 16.9098 -4.3716 -4.8156
# 3 -0.1005 14.7056 62.2635 16.0350 -11.7744 -5.4965
# 4 8.6774 16.9098 16.0350 39.0595 -7.2654 8.5627
# 5 1.7684 -4.3716 -11.7744 -7.2654 23.4516 3.6691
# 6 -0.5065 -4.8156 -5.4965 8.5627 3.6691 30.4861
#
#
#
# Elastic Compliance Matrix: (Units=1/GPa)
#
#
# Indices 1 2 3 4 5 6 
#
# 1 0.009384 -0.002390 0.000829 -0.001777 -0.001380 0.000593
# 2 -0.002390 0.014722 -0.001665 -0.006044 -0.000367 0.003727
# 3 0.000829 -0.001665 0.020051 -0.007482 0.006646 0.004667
# 4 -0.001777 -0.006044 -0.007482 0.036256 0.008603 -0.013552
# 5 -0.001380 -0.000367 0.006646 0.008603 0.049820 -0.007295
# 6 0.000593 0.003727 0.004667 -0.013552 -0.007295 0.038926
#
#
# Mechanical properties :
#
#
# Convention : Reuss Voigt Hill
#
# Bulk Modulus (GPa) = 26.52239 36.82625 31.67432
# Shear Modulus (GPa) = 26.57026 33.32160 29.94593
#
# Velocity S-wave (km/s) = 3.48885 3.90703 3.70385
# Velocity P-wave (km/s) = 5.32725 6.10112 5.72727
#
# Compressibility (1/GPa) = 0.03770400
#
# Stress axis : x y z
#
# Youngs Moduli (GPa) = 106.56507 67.92630 49.87291
#
# Poissons Ratio (x) = 0.16237 -0.04132
# Poissons Ratio (y) = 0.25473 0.08302
# Poissons Ratio (z) = -0.08830 0.11307
#
# Static dielectric constant tensor:
#      x y z
#    x 4.223630 0.115450 0.089530 
#    y 0.115450 4.081760 0.216380 
#    z 0.089530 0.216380 4.048960 
# 
# 
# High freq. dielectric constant tensor:
#      x y z
#    x 1.859620 0.003860 0.005240 
#    y 0.003860 1.865440 0.027750 
#    z 0.005240 0.027750 1.854190 
# 
# From -- ./inp_files/249130.got.cif
#   From: 2010.06.25/outbox.cif.g09.slc.cpg/sg2_125_cif.got.tgz:249130.got - 2010.06.27 13:26:56.
