data_PCOD8030976
_publ_section_title
;
Structure prediction by ZEFSAII (Michael W. Deem and Ramdas Pophale) SiO2 
 PCOD8030976
Probable space group: P -1
;
_chemical_formula_sum "Si O2"
_cell_formula_units_Z 16
_cell_length_a 9.064208
_cell_length_b 9.231196
_cell_length_c 25.010906
_cell_angle_alpha 132.195600
_cell_angle_beta 150.161719
_cell_angle_gamma 46.556192
_cell_volume 739.450000
_symmetry_space_group_name_H-M "P -1"
_symmetry_group_IT_number 2
_symmetry_cell_setting 'triclinic'
loop_
_space_group_symop_operation_xyz
x,y,z
-x,-y,-z
loop_
_atom_site_type_symbol
_atom_site_label
_atom_site_fract_x
_atom_site_fract_y
_atom_site_fract_z
Si Si1 0.244038 0.502572 0.317439
Si Si2 0.617864 0.233248 0.812675
Si Si3 0.439660 0.486748 0.915447
Si Si4 0.811241 0.344538 0.388045
Si Si5 0.651597 0.846319 0.663356
Si Si6 0.283307 0.946299 0.463946
Si Si7 0.716896 0.357385 0.238632
Si Si8 0.305607 0.224838 0.005808
O O1 0.458576 0.439136 0.317434
O O2 0.413051 0.358907 0.384317
O O3 0.198079 0.738721 0.373768
O O4 0.928002 0.450167 0.192175
O O5 0.581718 0.268444 0.874808
O O6 0.342694 0.407089 0.739978
O O7 0.582295 0.015381 0.730578
O O8 0.942235 0.257030 0.899628
O O9 0.600911 0.640814 0.977268
O O10 0.500000 0.500000 0.000000
O O11 0.821033 0.317512 0.321536
O O12 0.000000 0.500000 0.500000
O O13 0.964589 0.127036 0.410311
O O14 0.438733 0.931786 0.567007
O O15 0.009972 0.791265 0.746677
O O16 0.500000 0.000000 0.500000
O O17 0.407267 0.291740 0.112185
O O18 0.500000 0.000000 0.000000
#
# Coordination Sequence:
#
# PCOD8030976 Si02
#       8
#     2   2   2   2   2   2   2   2
#     4  12  27  46  68 103 146 178 229 291 352 407
#     4  11  24  44  75  99 140 188 230 274 353 413
#     4  11  26  45  68 105 142 175 228 289 344 404
#     4  12  26  44  69 104 136 182 239 284 346 410
#     4  12  24  47  71 102 139 180 231 292 344 413
#     4  12  26  46  72 100 137 184 236 288 343 410
#     4  11  22  41  70 101 137 176 233 279 339 415
#     4  11  22  45  70 101 134 184 231 272 339 423
#
# _framework density 21.637703999999999
#
# number of rings (size 3 to 8) (size 9 to 14) (size 15 to 20)
#    0.000    0.500    6.250    2.625    5.250    1.500 
#    0.000    1.250    0.000    0.000    0.000    0.000 
#    0.000    0.000    0.000    0.000    0.000    0.000 
#
# Total GULP energy -198355.203379 kJ/mol
# GULP energy per Si atom -12397.200211 kJ/mol
# Density = 2.158846 g / cm^3
# Si number density = 21.637704 Si / 1000 Ang^3
#
#
#
# Elastic Constant Matrix: (Units=GPa)
#
#
# Indices 1 2 3 4 5 6 
#
# 1 116.5675 44.7359 50.9145 2.0010 -17.6008 -9.5775
# 2 44.7359 151.9160 50.5245 7.6950 -22.0161 -11.9872
# 3 50.9145 50.5245 90.9195 -2.4998 -22.5041 8.9965
# 4 2.0010 7.6950 -2.4998 33.3409 -1.9684 1.4847
# 5 -17.6008 -22.0161 -22.5041 -1.9684 40.5116 -5.5535
# 6 -9.5775 -11.9872 8.9965 1.4847 -5.5535 40.6739
#
#
#
# Elastic Compliance Matrix: (Units=1/GPa)
#
#
# Indices 1 2 3 4 5 6 
#
# 1 0.012391 -0.000812 -0.006488 -0.001128 0.001888 0.004412
# 2 -0.000812 0.009090 -0.004417 -0.002403 0.002551 0.003901
# 3 -0.006488 -0.004417 0.018960 0.003391 0.004584 -0.006521
# 4 -0.001128 -0.002403 0.003391 0.031062 0.001228 -0.002690
# 5 0.001888 0.002551 0.004584 0.001228 0.030079 0.004245
# 6 0.004412 0.003901 -0.006521 -0.002690 0.004245 0.028895
#
#
# Mechanical properties :
#
#
# Convention : Reuss Voigt Hill
#
# Bulk Modulus (GPa) = 58.80157 72.41698 65.60927
# Shear Modulus (GPa) = 31.33222 37.12047 34.22635
#
# Velocity S-wave (km/s) = 3.80944 4.14641 3.98149
# Velocity P-wave (km/s) = 6.82522 7.51427 7.17802
#
# Compressibility (1/GPa) = 0.01700635
#
# Stress axis : x y z
#
# Youngs Moduli (GPa) = 80.70225 110.00924 52.74377
#
# Poissons Ratio (x) = 0.08936 0.34220
# Poissons Ratio (y) = 0.06555 0.23298
# Poissons Ratio (z) = 0.52359 0.48593
#
# Static dielectric constant tensor:
#      x y z
#    x 4.092070 -0.191810 0.143760 
#    y -0.191810 4.206000 -0.024420 
#    z 0.143760 -0.024420 3.837460 
# 
# 
# High freq. dielectric constant tensor:
#      x y z
#    x 1.854140 -0.014570 0.003600 
#    y -0.014570 1.862060 0.000920 
#    z 0.003600 0.000920 1.850900 
# 
# From -- ./inp_files/225804.got.cif
#   From: 2010.06.25/outbox.cif.g09.slc.cpg/sg2_113_cif.got.tgz:225804.got - 2010.06.27 13:26:56.
