data_PCOD8030780
_publ_section_title
;
Structure prediction by ZEFSAII (Michael W. Deem and Ramdas Pophale) SiO2 
 PCOD8030780
Probable space group: P -1
;
_chemical_formula_sum "Si O2"
_cell_formula_units_Z 14
_cell_length_a 29.581542
_cell_length_b 20.626444
_cell_length_c 9.061707
_cell_angle_alpha 142.759211
_cell_angle_beta 141.967264
_cell_angle_gamma 11.114572
_cell_volume 644.019780
_symmetry_space_group_name_H-M "P -1"
_symmetry_group_IT_number 2
_symmetry_cell_setting 'triclinic'
loop_
_space_group_symop_operation_xyz
x,y,z
-x,-y,-z
loop_
_atom_site_type_symbol
_atom_site_label
_atom_site_fract_x
_atom_site_fract_y
_atom_site_fract_z
Si Si1 0.133263 0.109908 0.448453
Si Si2 0.532644 0.702117 0.807287
Si Si3 0.863888 0.297854 0.673588
Si Si4 0.338427 0.123071 0.318337
Si Si5 0.749926 0.094058 0.930725
Si Si6 0.507898 0.735155 0.297397
Si Si7 0.771689 0.247521 0.846558
O O1 0.926704 0.469085 0.631690
O O2 0.353872 0.881133 0.576028
O O3 0.091379 0.118887 0.195238
O O4 0.176145 0.951766 0.384557
O O5 0.695799 0.544625 0.831729
O O6 0.668282 0.423148 0.741848
O O7 0.390926 0.975904 0.047653
O O8 0.706409 0.513550 0.511062
O O9 0.000000 0.000000 0.500000
O O10 0.070056 0.102441 0.843061
O O11 0.500000 0.000000 0.500000
O O12 0.388754 0.994984 0.370039
O O13 0.697348 0.043010 0.741418
O O14 0.500000 0.500000 0.000000
O O15 0.608599 0.503664 0.029358
O O16 0.000000 0.000000 0.000000
#
# Coordination Sequence:
#
# PCOD8030780 Si02
#       7
#     2   2   2   2   2   2   2
#     4  12  22  43  69  94 136 178 220 278 327 398
#     4  11  24  43  66 101 131 172 227 274 335 394
#     4  12  22  41  71 101 133 173 220 279 334 392
#     4  11  26  48  66  92 137 180 223 273 330 399
#     4  12  22  41  69 102 136 170 219 282 333 388
#     4  11  24  45  67 100 135 172 223 274 334 395
#     4  11  22  40  67  98 130 173 223 275 331 390
#
# _framework density 21.738462999999999
#
# number of rings (size 3 to 8) (size 9 to 14) (size 15 to 20)
#    0.000    0.571    4.286    5.143    0.000    0.571 
#   12.857    1.429    0.000    0.000    0.000    0.000 
#    0.000    0.000    0.000    0.000    0.000    0.000 
#
# Total GULP energy -173571.963581 kJ/mol
# GULP energy per Si atom -12397.997399 kJ/mol
# Density = 2.168899 g / cm^3
# Si number density = 21.738463 Si / 1000 Ang^3
#
#
#
# Elastic Constant Matrix: (Units=GPa)
#
#
# Indices 1 2 3 4 5 6 
#
# 1 95.2969 32.0397 22.9398 3.0909 14.9979 8.9205
# 2 32.0397 109.1505 37.0776 -0.9213 11.5167 1.7039
# 3 22.9398 37.0776 74.3679 -15.2688 12.2763 11.9399
# 4 3.0909 -0.9213 -15.2688 50.7069 -7.1648 12.1626
# 5 14.9979 11.5167 12.2763 -7.1648 43.0754 -4.5522
# 6 8.9205 1.7039 11.9399 12.1626 -4.5522 34.7908
#
#
#
# Elastic Compliance Matrix: (Units=1/GPa)
#
#
# Indices 1 2 3 4 5 6 
#
# 1 0.012692 -0.002690 -0.001828 -0.001284 -0.003659 -0.002525
# 2 -0.002690 0.011971 -0.005930 -0.002169 -0.000637 0.002814
# 3 -0.001828 -0.005930 0.020723 0.008076 -0.003357 -0.009615
# 4 -0.001284 -0.002169 0.008076 0.025044 0.001743 -0.010863
# 5 -0.003659 -0.000637 -0.003357 0.001743 0.026431 0.004970
# 6 -0.002525 0.002814 -0.009615 -0.010863 0.004970 0.037001
#
#
# Mechanical properties :
#
#
# Convention : Reuss Voigt Hill
#
# Bulk Modulus (GPa) = 40.83470 51.43661 46.13566
# Shear Modulus (GPa) = 30.68955 38.16517 34.42736
#
# Velocity S-wave (km/s) = 3.76142 4.19460 3.98390
# Velocity P-wave (km/s) = 6.13919 6.86822 6.51391
#
# Compressibility (1/GPa) = 0.02448898
#
# Stress axis : x y z
#
# Youngs Moduli (GPa) = 78.79069 83.53685 48.25478
#
# Poissons Ratio (x) = 0.22470 0.08822
# Poissons Ratio (y) = 0.21193 0.28617
# Poissons Ratio (z) = 0.14405 0.49541
#
# Static dielectric constant tensor:
#      x y z
#    x 4.380040 -0.293710 -0.403450 
#    y -0.293710 4.050120 0.065450 
#    z -0.403450 0.065450 4.099490 
# 
# 
# High freq. dielectric constant tensor:
#      x y z
#    x 1.858190 -0.012790 -0.001750 
#    y -0.012790 1.853960 -0.009750 
#    z -0.001750 -0.009750 1.859430 
# 
# From -- ./inp_files/188493.got.cif
#   From: 2010.06.25/outbox.cif.g09.slc.cpg/sg2_95_cif.got.tgz:188493.got - 2010.06.27 13:26:56.
