data_PCOD8030977
_publ_section_title
;
Structure prediction by ZEFSAII (Michael W. Deem and Ramdas Pophale) SiO2 
 PCOD8030977
Probable space group: P -1
;
_chemical_formula_sum "Si O2"
_cell_formula_units_Z 12
_cell_length_a 5.378390
_cell_length_b 9.518776
_cell_length_c 12.248296
_cell_angle_alpha 103.944973
_cell_angle_beta 66.478737
_cell_angle_gamma 100.546208
_cell_volume 555.349380
_symmetry_space_group_name_H-M "P -1"
_symmetry_group_IT_number 2
_symmetry_cell_setting 'triclinic'
loop_
_space_group_symop_operation_xyz
x,y,z
-x,-y,-z
loop_
_atom_site_type_symbol
_atom_site_label
_atom_site_fract_x
_atom_site_fract_y
_atom_site_fract_z
Si Si1 0.700919 0.663382 0.119059
Si Si2 0.269901 0.156075 0.222654
Si Si3 0.227490 0.416666 0.138093
Si Si4 0.208965 0.380562 0.441736
Si Si5 0.746448 0.545636 0.317617
Si Si6 0.191998 0.005895 0.862744
O O1 0.412213 0.569172 0.138112
O O2 0.828710 0.634265 0.209204
O O3 0.666749 0.833299 0.154124
O O4 0.876760 0.617921 0.974971
O O5 0.358674 0.275578 0.134973
O O6 0.139916 0.225782 0.366862
O O7 0.550467 0.087652 0.187414
O O8 0.015676 0.044656 0.208045
O O9 0.974152 0.432472 0.266866
O O10 0.462374 0.449588 0.338475
O O11 0.269528 0.351639 0.553799
O O12 0.000000 0.500000 0.500000
O O13 0.000000 0.000000 0.000000
#
# Coordination Sequence:
#
# PCOD8030977 Si02
#       6
#     2   2   2   2   2   2
#     4  11  25  41  68 105 142 184 229 300 351 421
#     4  12  25  47  69 107 135 190 236 286 349 429
#     4  11  23  41  73 103 138 177 251 289 351 408
#     4  11  23  41  72 102 134 183 243 299 339 411
#     4  11  22  41  70 102 137 178 239 301 348 401
#     4  12  28  45  70 102 154 186 228 281 373 427
#
# _framework density 21.60802
#
# number of rings (size 3 to 8) (size 9 to 14) (size 15 to 20)
#    0.000    0.667    5.000    2.000    4.667    1.333 
#    0.000    1.667    0.000    0.000    0.000    0.000 
#    0.000    0.000    0.000    0.000    0.000    0.000 
#
# Total GULP energy -148688.559435 kJ/mol
# GULP energy per Si atom -12390.713286 kJ/mol
# Density = 2.155884 g / cm^3
# Si number density = 21.608020 Si / 1000 Ang^3
#
#
#
# Elastic Constant Matrix: (Units=GPa)
#
#
# Indices 1 2 3 4 5 6 
#
# 1 107.4343 37.3769 34.6626 20.2842 -9.5544 5.2451
# 2 37.3769 123.1909 38.6425 12.5289 3.5302 8.9917
# 3 34.6626 38.6425 136.7081 16.2135 13.5182 -0.7172
# 4 20.2842 12.5289 16.2135 33.2468 -3.0295 4.7329
# 5 -9.5544 3.5302 13.5182 -3.0295 50.0639 5.0952
# 6 5.2451 8.9917 -0.7172 4.7329 5.0952 30.8148
#
#
#
# Elastic Compliance Matrix: (Units=1/GPa)
#
#
# Indices 1 2 3 4 5 6 
#
# 1 0.012099 -0.002522 -0.002046 -0.005022 0.002844 -0.001070
# 2 -0.002522 0.009774 -0.001983 -0.000898 -0.000460 -0.002255
# 3 -0.002046 -0.001983 0.009068 -0.003010 -0.003096 0.002112
# 4 -0.005022 -0.000898 -0.003010 0.035880 0.002587 -0.004892
# 5 0.002844 -0.000460 -0.003096 0.002587 0.021996 -0.004456
# 6 -0.001070 -0.002255 0.002112 -0.004892 -0.004456 0.034829
#
#
# Mechanical properties :
#
#
# Convention : Reuss Voigt Hill
#
# Bulk Modulus (GPa) = 56.05658 65.41082 60.73370
# Shear Modulus (GPa) = 35.03976 39.93518 37.48747
#
# Velocity S-wave (km/s) = 4.03129 4.30369 4.16972
# Velocity P-wave (km/s) = 6.90414 7.41842 7.16590
#
# Compressibility (1/GPa) = 0.01783912
#
# Stress axis : x y z
#
# Youngs Moduli (GPa) = 82.65235 102.31451 110.27288
#
# Poissons Ratio (x) = 0.25800 0.22564
# Poissons Ratio (y) = 0.20842 0.21868
# Poissons Ratio (z) = 0.16912 0.20290
#
# Static dielectric constant tensor:
#      x y z
#    x 3.954200 -0.059550 0.250030 
#    y -0.059550 4.236350 0.438500 
#    z 0.250030 0.438500 4.598640 
# 
# 
# High freq. dielectric constant tensor:
#      x y z
#    x 1.853940 -0.000820 0.016090 
#    y -0.000820 1.827100 0.010540 
#    z 0.016090 0.010540 1.866730 
# 
# From -- ./inp_files/28892.got.cif
#   From: 2010.06.25/outbox.cif.g09.slc.cpg/sg2_15_cif.got.tgz:28892.got - 2010.06.27 13:26:56.
