data_PCOD8030918
_publ_section_title
;
Structure prediction by ZEFSAII (Michael W. Deem and Ramdas Pophale) SiO2 
 PCOD8030918
Probable space group: P -1
;
_chemical_formula_sum "Si O2"
_cell_formula_units_Z 16
_cell_length_a 11.932821
_cell_length_b 6.503785
_cell_length_c 11.908801
_cell_angle_alpha 90.693473
_cell_angle_beta 86.316110
_cell_angle_gamma 50.971155
_cell_volume 714.831834
_symmetry_space_group_name_H-M "P -1"
_symmetry_group_IT_number 2
_symmetry_cell_setting 'triclinic'
loop_
_space_group_symop_operation_xyz
x,y,z
-x,-y,-z
loop_
_atom_site_type_symbol
_atom_site_label
_atom_site_fract_x
_atom_site_fract_y
_atom_site_fract_z
Si Si1 0.562279 0.936856 0.776493
Si Si2 0.484319 0.227475 0.564152
Si Si3 0.742247 0.831311 0.113768
Si Si4 0.773776 0.346455 0.728157
Si Si5 0.258160 0.779435 0.508072
Si Si6 0.093734 0.080689 0.733248
Si Si7 0.070299 0.768620 0.899362
Si Si8 0.230477 0.007902 0.113624
O O1 0.642478 0.652397 0.709771
O O2 0.508848 0.169831 0.694519
O O3 0.426433 0.011365 0.854441
O O4 0.682386 0.896511 0.848554
O O5 0.321885 0.497560 0.556525
O O6 0.607124 0.225402 0.503592
O O7 0.500000 0.000000 0.500000
O O8 0.826134 0.812173 0.219736
O O9 0.814644 0.532353 0.063574
O O10 0.751448 0.004117 0.022678
O O11 0.807551 0.177373 0.611757
O O12 0.717245 0.264933 0.832901
O O13 0.919094 0.300538 0.754453
O O14 0.135513 0.012279 0.599162
O O15 0.144540 0.820796 0.798403
O O16 0.941746 0.782695 0.850169
O O17 0.000000 0.000000 0.000000
#
# Coordination Sequence:
#
# PCOD8030918 Si02
#       8
#     2   2   2   2   2   2   2   2
#     4  12  25  43  68 101 138 176 222 277 337 397
#     4  11  22  41  67  95 133 179 217 276 336 391
#     4  12  26  43  70 102 133 178 229 272 333 405
#     4  11  25  44  68 100 139 178 218 279 339 388
#     4  11  23  43  69  97 135 174 232 272 330 402
#     4  11  25  43  70 101 133 177 226 278 330 402
#     4  11  24  46  71  96 133 179 223 277 334 396
#     4  11  25  44  67  98 137 177 221 274 337 394
#
# _framework density 22.382885999999999
#
# number of rings (size 3 to 8) (size 9 to 14) (size 15 to 20)
#    0.000    0.750    3.750    3.375    5.250    1.500 
#    0.000    0.625    0.000    0.000    0.000    0.000 
#    0.000    0.000    0.000    0.000    0.000    0.000 
#
# Total GULP energy -198365.041594 kJ/mol
# GULP energy per Si atom -12397.815100 kJ/mol
# Density = 2.233194 g / cm^3
# Si number density = 22.382886 Si / 1000 Ang^3
#
#
#
# Elastic Constant Matrix: (Units=GPa)
#
#
# Indices 1 2 3 4 5 6 
#
# 1 110.4616 26.3622 25.6079 12.2102 3.8162 1.9304
# 2 26.3622 97.5195 40.8193 -4.0603 -5.4892 -6.5169
# 3 25.6079 40.8193 100.8438 -1.4409 -3.3556 -1.1691
# 4 12.2102 -4.0603 -1.4409 36.0044 4.0866 3.4448
# 5 3.8162 -5.4892 -3.3556 4.0866 40.4601 -0.2194
# 6 1.9304 -6.5169 -1.1691 3.4448 -0.2194 22.3715
#
#
#
# Elastic Compliance Matrix: (Units=1/GPa)
#
#
# Indices 1 2 3 4 5 6 
#
# 1 0.010502 -0.002372 -0.001809 -0.003668 -0.001098 -0.001138
# 2 -0.002372 0.013227 -0.004637 0.001598 0.001492 0.003584
# 3 -0.001809 -0.004637 0.012270 0.000586 0.000496 -0.000639
# 4 -0.003668 0.001598 0.000586 0.029862 -0.002425 -0.003809
# 5 -0.001098 0.001492 0.000496 -0.002425 0.025314 0.001177
# 6 -0.001138 0.003584 -0.000639 -0.003809 0.001177 0.046407
#
#
# Mechanical properties :
#
#
# Convention : Reuss Voigt Hill
#
# Bulk Modulus (GPa) = 54.46098 54.93376 54.69737
# Shear Modulus (GPa) = 30.99071 34.16956 32.58014
#
# Velocity S-wave (km/s) = 3.72502 3.91140 3.81935
# Velocity P-wave (km/s) = 6.54869 6.70782 6.62873
#
# Compressibility (1/GPa) = 0.01836177
#
# Stress axis : x y z
#
# Youngs Moduli (GPa) = 95.22320 75.60389 81.49818
#
# Poissons Ratio (x) = 0.17936 0.14740
# Poissons Ratio (y) = 0.22591 0.37794
# Poissons Ratio (z) = 0.17222 0.35061
#
# Static dielectric constant tensor:
#      x y z
#    x 4.088340 0.127280 -0.029960 
#    y 0.127280 3.478350 0.301840 
#    z -0.029960 0.301840 3.441980 
# 
# 
# High freq. dielectric constant tensor:
#      x y z
#    x 1.894790 0.005030 0.003240 
#    y 0.005030 1.867500 -0.013810 
#    z 0.003240 -0.013810 1.881700 
# 
# From -- ./inp_files/410504.got.cif
#   From: 2010.06.25/outbox.cif.g09.slc.cpg/sg2_206_cif.got.tgz:410504.got - 2010.06.27 13:26:56.
