data_PCOD8030720
_publ_section_title
;
Structure prediction by ZEFSAII (Michael W. Deem and Ramdas Pophale) SiO2 
 PCOD8030720
Probable space group: P -1
;
_chemical_formula_sum "Si O2"
_cell_formula_units_Z 16
_cell_length_a 16.515334
_cell_length_b 9.153225
_cell_length_c 12.871479
_cell_angle_alpha 99.142590
_cell_angle_beta 154.782479
_cell_angle_gamma 91.136720
_cell_volume 754.042848
_symmetry_space_group_name_H-M "P -1"
_symmetry_group_IT_number 2
_symmetry_cell_setting 'triclinic'
loop_
_space_group_symop_operation_xyz
x,y,z
-x,-y,-z
loop_
_atom_site_type_symbol
_atom_site_label
_atom_site_fract_x
_atom_site_fract_y
_atom_site_fract_z
Si Si1 0.876639 0.804731 0.639944
Si Si2 0.922485 0.574275 0.323620
Si Si3 0.301973 0.750845 0.656740
Si Si4 0.640353 0.673861 0.143238
Si Si5 0.715454 0.254230 0.920342
Si Si6 0.728695 0.307013 0.719285
Si Si7 0.661740 0.019997 0.455543
Si Si8 0.202383 0.471536 0.346926
O O1 0.787130 0.769597 0.416626
O O2 0.739238 0.668084 0.549048
O O3 0.858979 0.968796 0.677059
O O4 0.111272 0.819118 0.908945
O O5 0.768620 0.655163 0.191411
O O6 0.000000 0.500000 0.500000
O O7 0.112477 0.721742 0.511295
O O8 0.812265 0.432542 0.098328
O O9 0.353904 0.909975 0.667353
O O10 0.226973 0.594805 0.481015
O O11 0.505283 0.771690 0.960352
O O12 0.500000 0.500000 0.000000
O O13 0.610667 0.265247 0.688134
O O14 0.546447 0.137767 0.788756
O O15 0.686682 0.143535 0.590447
O O16 0.663087 0.429986 0.585388
O O17 0.968286 0.393019 0.030665
#
# Coordination Sequence:
#
# PCOD8030720 Si02
#       8
#     2   2   2   2   2   2   2   2
#     4  11  22  40  63  93 125 166 205 248 315 375
#     4  12  21  39  68  92 118 167 208 255 305 361
#     4  11  23  42  62  97 124 161 209 258 302 372
#     4  12  21  37  67  93 123 160 211 255 301 365
#     4  11  22  41  65  94 126 161 210 253 310 372
#     4   9  19  39  64  90 125 162 204 261 305 358
#     4  11  26  40  64  91 132 164 200 256 322 359
#     4   9  17  37  66  89 121 159 208 259 297 359
#
# _framework density 21.218952000000002
#
# number of rings (size 3 to 8) (size 9 to 14) (size 15 to 20)
#    0.000    1.250    6.250    1.125    0.000    3.500 
#    0.000    1.875    2.750    0.000    0.000    0.000 
#    0.000    0.000    0.000    0.000    0.000    0.000 
#
# Total GULP energy -198318.483703 kJ/mol
# GULP energy per Si atom -12394.905231 kJ/mol
# Density = 2.117066 g / cm^3
# Si number density = 21.218952 Si / 1000 Ang^3
#
#
#
# Elastic Constant Matrix: (Units=GPa)
#
#
# Indices 1 2 3 4 5 6 
#
# 1 141.7765 62.8087 40.5550 -7.3114 11.6412 24.5743
# 2 62.8087 115.3012 23.3875 -12.2332 9.8398 16.8651
# 3 40.5550 23.3875 62.0589 -3.9540 6.3350 4.2935
# 4 -7.3114 -12.2332 -3.9540 25.7865 6.8725 -2.5201
# 5 11.6412 9.8398 6.3350 6.8725 40.6778 -1.5421
# 6 24.5743 16.8651 4.2935 -2.5201 -1.5421 37.5199
#
#
#
# Elastic Compliance Matrix: (Units=1/GPa)
#
#
# Indices 1 2 3 4 5 6 
#
# 1 0.011509 -0.004258 -0.005372 0.000374 -0.001682 -0.005054
# 2 -0.004258 0.012301 -0.001122 0.004889 -0.002499 -0.002387
# 3 -0.005372 -0.001122 0.020186 0.001623 -0.001543 0.001758
# 4 0.000374 0.004889 0.001623 0.043835 -0.008950 -0.000052
# 5 -0.001682 -0.002499 -0.001543 -0.008950 0.027533 0.002932
# 6 -0.005054 -0.002387 0.001758 -0.000052 0.002932 0.030951
#
#
# Mechanical properties :
#
#
# Convention : Reuss Voigt Hill
#
# Bulk Modulus (GPa) = 44.45531 63.62656 54.04093
# Shear Modulus (GPa) = 28.52010 33.62252 31.07131
#
# Velocity S-wave (km/s) = 3.67016 3.98496 3.83079
# Velocity P-wave (km/s) = 6.24150 7.15710 6.71492
#
# Compressibility (1/GPa) = 0.02249450
#
# Stress axis : x y z
#
# Youngs Moduli (GPa) = 86.88503 81.29586 49.53926
#
# Poissons Ratio (x) = 0.34612 0.26611
# Poissons Ratio (y) = 0.36992 0.05557
# Poissons Ratio (z) = 0.46671 0.09119
#
# Static dielectric constant tensor:
#      x y z
#    x 4.511380 0.514260 -0.510000 
#    y 0.514260 4.180420 -0.377060 
#    z -0.510000 -0.377060 4.215900 
# 
# 
# High freq. dielectric constant tensor:
#      x y z
#    x 1.842480 0.014640 -0.018870 
#    y 0.014640 1.826600 -0.000810 
#    z -0.018870 -0.000810 1.819560 
# 
# From -- ./inp_files/447713.got.cif
#   From: 2010.06.25/outbox.cif.g09.slc.cpg/sg2_224_cif.got.tgz:447713.got - 2010.06.27 13:26:56.
