data_PCOD8030333
_publ_section_title
;
Structure prediction by ZEFSAII (Michael W. Deem and Ramdas Pophale) SiO2 
 PCOD8030333
Probable space group: P -1
;
_chemical_formula_sum "Si O2"
_cell_formula_units_Z 16
_cell_length_a 12.927842
_cell_length_b 8.962597
_cell_length_c 17.352417
_cell_angle_alpha 43.885824
_cell_angle_beta 130.183571
_cell_angle_gamma 95.284447
_cell_volume 756.049765
_symmetry_space_group_name_H-M "P -1"
_symmetry_group_IT_number 2
_symmetry_cell_setting 'triclinic'
loop_
_space_group_symop_operation_xyz
x,y,z
-x,-y,-z
loop_
_atom_site_type_symbol
_atom_site_label
_atom_site_fract_x
_atom_site_fract_y
_atom_site_fract_z
Si Si1 0.959987 0.681465 0.276191
Si Si2 0.579970 0.172113 0.676482
Si Si3 0.981911 0.768461 0.077687
Si Si4 0.636276 0.684889 0.332240
Si Si5 0.325384 0.904113 0.881251
Si Si6 0.641433 0.358850 0.330100
Si Si7 0.013325 0.123507 0.537361
Si Si8 0.617575 0.886403 0.521336
O O1 0.152488 0.581743 0.433293
O O2 0.930310 0.755685 0.144235
O O3 0.967787 0.419001 0.387517
O O4 0.792898 0.959173 0.146614
O O5 0.500000 0.500000 0.500000
O O6 0.509099 0.144574 0.731282
O O7 0.514382 0.087358 0.610992
O O8 0.808554 0.906677 0.885971
O O9 0.171034 0.450874 0.250619
O O10 0.000000 0.000000 0.000000
O O11 0.564452 0.559057 0.295735
O O12 0.623438 0.913270 0.189392
O O13 0.522034 0.561757 0.121497
O O14 0.215677 0.892865 0.765691
O O15 0.856978 0.202007 0.489515
O O16 0.638548 0.108377 0.425344
O O17 0.000000 0.000000 0.500000
O O18 0.500000 0.000000 0.500000
#
# Coordination Sequence:
#
# PCOD8030333 Si02
#       8
#     2   2   2   2   2   2   2   2
#     4  11  21  44  71 100 138 180 241 279 339 422
#     4  12  25  48  76 104 137 183 237 290 344 423
#     4  12  26  47  79 101 133 189 236 287 353 419
#     4  11  21  44  72 101 141 186 236 284 336 421
#     4  11  24  42  68 104 136 189 236 275 345 418
#     4  12  25  42  68 101 142 179 230 291 351 407
#     4  11  24  41  64  98 143 182 222 292 347 404
#     4  12  29  49  69 107 143 177 234 297 356 413
#
# _framework density 21.162628000000002
#
# number of rings (size 3 to 8) (size 9 to 14) (size 15 to 20)
#    0.000    0.500    5.000    3.375    5.250    3.000 
#    0.000    0.000    0.000    0.000    0.000    0.000 
#    0.000    0.000    0.000    0.000    0.000    0.000 
#
# Total GULP energy -198396.895578 kJ/mol
# GULP energy per Si atom -12399.805974 kJ/mol
# Density = 2.111446 g / cm^3
# Si number density = 21.162628 Si / 1000 Ang^3
#
#
#
# Elastic Constant Matrix: (Units=GPa)
#
#
# Indices 1 2 3 4 5 6 
#
# 1 112.2000 45.8298 45.6831 -1.0576 6.5090 -2.1522
# 2 45.8298 167.8422 65.7405 14.7354 2.0280 9.0637
# 3 45.6831 65.7405 138.5701 11.6075 6.1468 16.1698
# 4 -1.0576 14.7354 11.6075 31.1730 4.2546 3.2121
# 5 6.5090 2.0280 6.1468 4.2546 29.5130 -2.1741
# 6 -2.1522 9.0637 16.1698 3.2121 -2.1741 45.1625
#
#
#
# Elastic Compliance Matrix: (Units=1/GPa)
#
#
# Indices 1 2 3 4 5 6 
#
# 1 0.011195 -0.002186 -0.002992 0.002610 -0.001942 0.001764
# 2 -0.002186 0.007907 -0.002779 -0.002853 0.000896 -0.000450
# 3 -0.002992 -0.002779 0.010111 -0.002070 -0.001186 -0.003115
# 4 0.002610 -0.002853 -0.002070 0.035119 -0.005107 -0.001305
# 5 -0.001942 0.000896 -0.001186 -0.005107 0.035397 0.002220
# 6 0.001764 -0.000450 -0.003115 -0.001305 0.002220 0.023632
#
#
# Mechanical properties :
#
#
# Convention : Reuss Voigt Hill
#
# Bulk Modulus (GPa) = 75.19246 81.45768 78.32507
# Shear Modulus (GPa) = 34.79308 38.59363 36.69336
#
# Velocity S-wave (km/s) = 4.05913 4.27508 4.16850
# Velocity P-wave (km/s) = 7.58792 7.93368 7.76273
#
# Compressibility (1/GPa) = 0.01329921
#
# Stress axis : x y z
#
# Youngs Moduli (GPa) = 89.32688 126.46612 98.90390
#
# Poissons Ratio (x) = 0.27644 0.29592
# Poissons Ratio (y) = 0.19526 0.27485
# Poissons Ratio (z) = 0.26727 0.35145
#
# Static dielectric constant tensor:
#      x y z
#    x 4.027410 0.529800 0.649310 
#    y 0.529800 0.186120 -3.193010 
#    z 0.649310 -3.193010 1.023140 
# 
# 
# High freq. dielectric constant tensor:
#      x y z
#    x 1.842830 0.005200 0.004020 
#    y 0.005200 1.839350 0.015570 
#    z 0.004020 0.015570 1.833140 
# 
# From -- ./inp_files/223573.got.cif
#   From: 2010.06.25/outbox.cif.g09.slc.cpg/sg2_112_cif.got.tgz:223573.got - 2010.06.27 13:26:56.
