data_PCOD8030537
_publ_section_title
;
Structure prediction by ZEFSAII (Michael W. Deem and Ramdas Pophale) SiO2 
 PCOD8030537
Probable space group: P -1
;
_chemical_formula_sum "Si O2"
_cell_formula_units_Z 16
_cell_length_a 12.168801
_cell_length_b 14.189444
_cell_length_c 6.534934
_cell_angle_alpha 109.976516
_cell_angle_beta 85.973701
_cell_angle_gamma 50.703394
_cell_volume 754.291175
_symmetry_space_group_name_H-M "P -1"
_symmetry_group_IT_number 2
_symmetry_cell_setting 'triclinic'
loop_
_space_group_symop_operation_xyz
x,y,z
-x,-y,-z
loop_
_atom_site_type_symbol
_atom_site_label
_atom_site_fract_x
_atom_site_fract_y
_atom_site_fract_z
Si Si1 0.407578 0.140783 0.739164
Si Si2 0.435780 0.802187 0.954811
Si Si3 0.391129 0.319330 0.548984
Si Si4 0.921542 0.447579 0.424795
Si Si5 0.601125 0.531954 0.993688
Si Si6 0.089607 0.034783 0.116492
Si Si7 0.942071 0.269745 0.616713
Si Si8 0.117600 0.200442 0.933849
O O1 0.347600 0.258798 0.667171
O O2 0.269597 0.172582 0.896883
O O3 0.500000 0.000000 0.500000
O O4 0.515172 0.126966 0.882621
O O5 0.460797 0.797918 0.701929
O O6 0.537228 0.644669 0.907524
O O7 0.254098 0.895053 0.086568
O O8 0.259045 0.418362 0.471472
O O9 0.412893 0.406388 0.738849
O O10 0.965684 0.351608 0.537894
O O11 0.000000 0.500000 0.500000
O O12 0.979299 0.360774 0.143115
O O13 0.772451 0.381361 0.817237
O O14 0.500000 0.500000 0.000000
O O15 0.972972 0.149673 0.391612
O O16 0.135148 0.093309 0.996661
O O17 0.000000 0.000000 0.000000
O O18 0.076505 0.186587 0.705670
#
# Coordination Sequence:
#
# PCOD8030537 Si02
#       8
#     2   2   2   2   2   2   2   2
#     4  11  24  42  67  98 133 177 219 272 331 395
#     4  11  25  46  68 100 136 172 225 273 330 397
#     4  11  23  41  66  99 132 170 220 270 333 389
#     4  11  22  37  65  99 132 171 206 266 334 389
#     4  11  26  43  70  98 130 177 223 276 328 388
#     4  11  28  46  68  97 133 181 221 272 331 393
#     4  11  24  45  66 100 134 171 223 271 330 393
#     4  11  24  42  67  97 135 172 219 271 329 392
#
# _framework density 21.211967999999999
#
# number of rings (size 3 to 8) (size 9 to 14) (size 15 to 20)
#    0.000    1.000    2.500    3.000    5.250    7.000 
#    0.000    0.000    0.000    0.000    0.000    0.000 
#    0.000    0.000    0.000    0.000    0.000    0.000 
#
# Total GULP energy -198423.279992 kJ/mol
# GULP energy per Si atom -12401.455000 kJ/mol
# Density = 2.116369 g / cm^3
# Si number density = 21.211968 Si / 1000 Ang^3
#
#
#
# Elastic Constant Matrix: (Units=GPa)
#
#
# Indices 1 2 3 4 5 6 
#
# 1 153.7199 32.0686 56.3216 9.1816 16.1768 -1.7694
# 2 32.0686 65.8171 28.6160 5.1511 9.0706 -12.2642
# 3 56.3216 28.6160 138.9795 9.8733 12.3292 0.3254
# 4 9.1816 5.1511 9.8733 37.0122 -2.9114 -0.6236
# 5 16.1768 9.0706 12.3292 -2.9114 35.4985 2.2583
# 6 -1.7694 -12.2642 0.3254 -0.6236 2.2583 35.7205
#
#
#
# Elastic Compliance Matrix: (Units=1/GPa)
#
#
# Indices 1 2 3 4 5 6 
#
# 1 0.008284 -0.002583 -0.002534 -0.001207 -0.002313 -0.000328
# 2 -0.002583 0.019416 -0.002551 -0.001539 -0.003454 0.006753
# 3 -0.002534 -0.002551 0.008981 -0.001537 -0.001374 -0.001023
# 4 -0.001207 -0.001539 -0.001537 0.028236 0.003814 -0.000322
# 5 -0.002313 -0.003454 -0.001374 0.003814 0.031100 -0.003188
# 6 -0.000328 0.006753 -0.001023 -0.000322 -0.003188 0.030503
#
#
# Mechanical properties :
#
#
# Convention : Reuss Voigt Hill
#
# Bulk Modulus (GPa) = 46.84707 65.83654 56.34180
# Shear Modulus (GPa) = 33.56372 37.74691 35.65532
#
# Velocity S-wave (km/s) = 3.98213 4.22300 4.10433
# Velocity P-wave (km/s) = 6.57847 7.40832 7.00569
#
# Compressibility (1/GPa) = 0.02134605
#
# Stress axis : x y z
#
# Youngs Moduli (GPa) = 120.71158 51.50384 111.34789
#
# Poissons Ratio (x) = 0.13302 0.28212
# Poissons Ratio (y) = 0.31175 0.28408
# Poissons Ratio (z) = 0.30584 0.13140
#
# Static dielectric constant tensor:
#      x y z
#    x 4.612020 -0.492950 -0.492810 
#    y -0.492950 4.267150 0.410810 
#    z -0.492810 0.410810 4.388980 
# 
# 
# High freq. dielectric constant tensor:
#      x y z
#    x 1.832040 -0.000750 0.003490 
#    y -0.000750 1.836350 0.006330 
#    z 0.003490 0.006330 1.849330 
# 
# From -- ./inp_files/68590.got.cif
#   From: 2010.06.25/outbox.cif.g09.slc.cpg/sg2_35_cif.got.tgz:68590.got - 2010.06.27 13:26:56.
