data_PCOD8030547
_publ_section_title
;
Structure prediction by ZEFSAII (Michael W. Deem and Ramdas Pophale) SiO2 
 PCOD8030547
Probable space group: P -1
;
_chemical_formula_sum "Si O2"
_cell_formula_units_Z 16
_cell_length_a 12.031108
_cell_length_b 12.686774
_cell_length_c 12.419537
_cell_angle_alpha 95.584412
_cell_angle_beta 66.638708
_cell_angle_gamma 38.601483
_cell_volume 763.545484
_symmetry_space_group_name_H-M "P -1"
_symmetry_group_IT_number 2
_symmetry_cell_setting 'triclinic'
loop_
_space_group_symop_operation_xyz
x,y,z
-x,-y,-z
loop_
_atom_site_type_symbol
_atom_site_label
_atom_site_fract_x
_atom_site_fract_y
_atom_site_fract_z
Si Si1 0.325473 0.540918 0.023953
Si Si2 0.855825 0.779548 0.568049
Si Si3 0.240100 0.011270 0.592142
Si Si4 0.730511 0.044387 0.821343
Si Si5 0.770366 0.047844 0.035198
Si Si6 0.358660 0.635210 0.817818
Si Si7 0.167779 0.840461 0.525187
Si Si8 0.413038 0.231569 0.363507
O O1 0.026985 0.774331 0.211589
O O2 0.500000 0.500000 0.000000
O O3 0.442752 0.331165 0.965102
O O4 0.325638 0.559656 0.898433
O O5 0.812751 0.872795 0.479846
O O6 0.678706 0.813022 0.637595
O O7 0.171132 0.504596 0.451393
O O8 0.729163 0.950455 0.728430
O O9 0.300735 0.843271 0.518644
O O10 0.503681 0.834762 0.548064
O O11 0.750277 0.988597 0.931824
O O12 0.969418 0.942282 0.697766
O O13 0.574797 0.307251 0.137415
O O14 0.686898 0.045138 0.171482
O O15 0.068086 0.868685 0.893708
O O16 0.597704 0.428991 0.618609
O O17 0.000000 0.000000 0.500000
#
# Coordination Sequence:
#
# PCOD8030547 Si02
#       8
#     2   2   2   2   2   2   2   2
#     4  12  20  38  64  99 131 169 207 258 339 398
#     4  11  26  47  68  96 130 173 228 277 325 378
#     4  12  23  44  72  97 133 174 218 272 330 395
#     4  12  24  39  66  96 132 172 210 268 331 393
#     4  11  24  40  61  93 131 169 212 266 326 391
#     4  11  22  38  59  95 133 164 207 262 328 395
#     4  12  22  37  64 101 133 166 212 266 332 401
#     4  11  26  47  70  93 128 180 227 273 322 386
#
# _framework density 20.954875999999999
#
# number of rings (size 3 to 8) (size 9 to 14) (size 15 to 20)
#    0.000    0.500    6.250    1.875    3.500    1.000 
#    0.000    0.625    0.000    0.000    0.000    0.000 
#    0.000    0.000    0.000    0.000    0.000    0.000 
#
# Total GULP energy -198273.038334 kJ/mol
# GULP energy per Si atom -12392.064896 kJ/mol
# Density = 2.090718 g / cm^3
# Si number density = 20.954876 Si / 1000 Ang^3
#
#
#
# Elastic Constant Matrix: (Units=GPa)
#
#
# Indices 1 2 3 4 5 6 
#
# 1 111.0942 41.9540 35.5051 6.7299 21.1502 -4.2159
# 2 41.9540 98.3061 36.5744 -3.9024 16.6925 -13.4155
# 3 35.5051 36.5744 96.6047 4.0920 14.9257 -7.5870
# 4 6.7299 -3.9024 4.0920 32.5728 -4.2795 3.5132
# 5 21.1502 16.6925 14.9257 -4.2795 33.3087 -3.0113
# 6 -4.2159 -13.4155 -7.5870 3.5132 -3.0113 29.6550
#
#
#
# Elastic Compliance Matrix: (Units=1/GPa)
#
#
# Indices 1 2 3 4 5 6 
#
# 1 0.012333 -0.003748 -0.002177 -0.003372 -0.005470 -0.000655
# 2 -0.003748 0.014134 -0.003314 0.002063 -0.002546 0.004511
# 3 -0.002177 -0.003314 0.013070 -0.002138 -0.002954 0.001489
# 4 -0.003372 0.002063 -0.002138 0.033069 0.006006 -0.003401
# 5 -0.005470 -0.002546 -0.002954 0.006006 0.036898 0.000350
# 6 -0.000655 0.004511 0.001489 -0.003401 0.000350 0.036488
#
#
# Mechanical properties :
#
#
# Convention : Reuss Voigt Hill
#
# Bulk Modulus (GPa) = 47.48348 59.34135 53.41241
# Shear Modulus (GPa) = 29.15618 31.90539 30.53078
#
# Velocity S-wave (km/s) = 3.73417 3.90625 3.82118
# Velocity P-wave (km/s) = 6.42659 6.98034 6.70918
#
# Compressibility (1/GPa) = 0.02105996
#
# Stress axis : x y z
#
# Youngs Moduli (GPa) = 81.08082 70.74972 76.51074
#
# Poissons Ratio (x) = 0.26516 0.16660
# Poissons Ratio (y) = 0.30388 0.25352
# Poissons Ratio (z) = 0.17655 0.23443
#
# Static dielectric constant tensor:
#      x y z
#    x 3.868450 -0.079450 0.114140 
#    y -0.079450 4.036680 0.092270 
#    z 0.114140 0.092270 4.169120 
# 
# 
# High freq. dielectric constant tensor:
#      x y z
#    x 1.803140 -0.006830 0.010610 
#    y -0.006830 1.827910 -0.002440 
#    z 0.010610 -0.002440 1.829060 
# 
# From -- ./inp_files/239635.got.cif
#   From: 2010.06.25/outbox.cif.g09.slc.cpg/sg2_120_cif.got.tgz:239635.got - 2010.06.27 13:26:56.
