data_PCOD8030540
_publ_section_title
;
Structure prediction by ZEFSAII (Michael W. Deem and Ramdas Pophale) SiO2 
 PCOD8030540
Probable space group: P -1
;
_chemical_formula_sum "Si O2"
_cell_formula_units_Z 14
_cell_length_a 23.653356
_cell_length_b 12.459235
_cell_length_c 18.884651
_cell_angle_alpha 26.445204
_cell_angle_beta 12.522425
_cell_angle_gamma 27.799077
_cell_volume 534.186274
_symmetry_space_group_name_H-M "P -1"
_symmetry_group_IT_number 2
_symmetry_cell_setting 'triclinic'
loop_
_space_group_symop_operation_xyz
x,y,z
-x,-y,-z
loop_
_atom_site_type_symbol
_atom_site_label
_atom_site_fract_x
_atom_site_fract_y
_atom_site_fract_z
Si Si1 0.350270 0.264876 0.317754
Si Si2 0.619581 0.781367 0.533385
Si Si3 0.202372 0.476502 0.172886
Si Si4 0.025670 0.588180 0.051235
Si Si5 0.145796 0.936876 0.586056
Si Si6 0.473188 0.544324 0.345196
Si Si7 0.647857 0.807841 0.186781
O O1 0.364404 0.133553 0.455447
O O2 0.052669 0.333637 0.617756
O O3 0.482948 0.065718 0.216813
O O4 0.500000 0.500000 0.000000
O O5 0.916528 0.671879 0.212617
O O6 0.500000 0.000000 0.500000
O O7 0.431407 0.567492 0.886326
O O8 0.146764 0.221997 0.423987
O O9 0.275137 0.454777 0.013559
O O10 0.763826 0.557126 0.345835
O O11 0.173689 0.802823 0.708023
O O12 0.219502 0.333999 0.960658
O O13 0.389835 0.820354 0.309164
O O14 0.876142 0.874914 0.919398
O O15 0.534644 0.369726 0.442363
#
# Coordination Sequence:
#
# PCOD8030540 Si02
#       7
#     2   2   2   2   2   2   2
#     4  12  25  42  65  97 133 167 209 269 323 372
#     4  11  25  44  67  96 129 168 218 261 314 384
#     4  11  22  37  66  94 130 167 211 264 324 372
#     4   8  17  36  64  89 121 172 211 257 309 377
#     4   9  15  32  62  91 123 165 211 257 316 377
#     4   8  16  30  60  92 118 167 216 251 308 382
#     4   9  17  36  61  86 129 170 208 252 317 379
#
# _framework density 26.208086000000002
#
# number of rings (size 3 to 8) (size 9 to 14) (size 15 to 20)
#    0.000    2.286    1.429    4.714    0.000    2.857 
#    0.000    0.714    0.000    4.286    0.000    0.000 
#    0.000    0.000    0.000    0.000    0.000    0.000 
#
# Total GULP energy -173584.525061 kJ/mol
# GULP energy per Si atom -12398.894647 kJ/mol
# Density = 2.614844 g / cm^3
# Si number density = 26.208086 Si / 1000 Ang^3
#
#
#
# Elastic Constant Matrix: (Units=GPa)
#
#
# Indices 1 2 3 4 5 6 
#
# 1 52.2693 31.1997 8.2822 5.8794 9.0223 -5.6140
# 2 31.1997 204.9640 56.2529 24.5515 17.5227 8.2863
# 3 8.2822 56.2529 96.5281 10.3919 21.7368 15.5554
# 4 5.8794 24.5515 10.3919 50.0469 13.5321 9.8452
# 5 9.0223 17.5227 21.7368 13.5321 24.5015 0.8477
# 6 -5.6140 8.2863 15.5554 9.8452 0.8477 33.6019
#
#
#
# Elastic Compliance Matrix: (Units=1/GPa)
#
#
# Indices 1 2 3 4 5 6 
#
# 1 0.022603 -0.003220 0.000750 -0.000310 -0.006670 0.004482
# 2 -0.003220 0.006531 -0.003509 -0.002380 0.000937 0.000149
# 3 0.000750 -0.003509 0.016239 0.003406 -0.013806 -0.007177
# 4 -0.000310 -0.002380 0.003406 0.026297 -0.015440 -0.008357
# 5 -0.006670 0.000937 -0.013806 -0.015440 0.063100 0.007978
# 6 0.004482 0.000149 -0.007177 -0.008357 0.007978 0.036042
#
#
# Mechanical properties :
#
#
# Convention : Reuss Voigt Hill
#
# Bulk Modulus (GPa) = 29.92651 60.58124 45.25387
# Shear Modulus (GPa) = 25.78568 38.83184 32.30876
#
# Velocity S-wave (km/s) = 3.14009 3.85343 3.51490
# Velocity P-wave (km/s) = 4.95888 6.55471 5.81183
#
# Compressibility (1/GPa) = 0.03341519
#
# Stress axis : x y z
#
# Youngs Moduli (GPa) = 44.24276 153.11673 61.58114
#
# Poissons Ratio (x) = 0.49310 -0.04621
# Poissons Ratio (y) = 0.14248 0.21606
# Poissons Ratio (z) = -0.03320 0.53721
#
# Static dielectric constant tensor:
#      x y z
#    x 4.744830 0.284400 0.214030 
#    y 0.284400 4.973170 0.220650 
#    z 0.214030 0.220650 4.942150 
# 
# 
# High freq. dielectric constant tensor:
#      x y z
#    x 2.045410 0.015100 -0.014760 
#    y 0.015100 2.059390 0.012650 
#    z -0.014760 0.012650 2.054380 
# 
# From -- ./inp_files/416428.got.cif
#   From: 2010.06.25/outbox.cif.g09.slc.cpg/sg2_209_cif.got.tgz:416428.got - 2010.06.27 13:26:56.
