data_PCOD8030229
_publ_section_title
;
Structure prediction by ZEFSAII (Michael W. Deem and Ramdas Pophale) SiO2 
 PCOD8030229
Probable space group: P -1
;
_chemical_formula_sum "Si O2"
_cell_formula_units_Z 16
_cell_length_a 14.309253
_cell_length_b 10.807843
_cell_length_c 8.551151
_cell_angle_alpha 42.615186
_cell_angle_beta 125.721097
_cell_angle_gamma 103.866851
_cell_volume 682.141657
_symmetry_space_group_name_H-M "P -1"
_symmetry_group_IT_number 2
_symmetry_cell_setting 'triclinic'
loop_
_space_group_symop_operation_xyz
x,y,z
-x,-y,-z
loop_
_atom_site_type_symbol
_atom_site_label
_atom_site_fract_x
_atom_site_fract_y
_atom_site_fract_z
Si Si1 0.293612 0.048372 0.734773
Si Si2 0.238578 0.686696 0.078560
Si Si3 0.683417 0.671309 0.740926
Si Si4 0.088213 0.570469 0.622616
Si Si5 0.986697 0.705677 0.718262
Si Si6 0.734110 0.409537 0.448452
Si Si7 0.377369 0.153613 0.035632
Si Si8 0.450450 0.778458 0.632325
O O1 0.334568 0.118430 0.547790
O O2 0.148990 0.151146 0.521799
O O3 0.376846 0.091411 0.913078
O O4 0.311942 0.820531 0.957349
O O5 0.297799 0.479956 0.243688
O O6 0.257809 0.676021 0.292391
O O7 0.091452 0.778454 0.826462
O O8 0.564435 0.692109 0.705902
O O9 0.802699 0.607037 0.026520
O O10 0.147803 0.691853 0.452766
O O11 0.000000 0.500000 0.500000
O O12 0.006452 0.703522 0.553625
O O13 0.000000 0.500000 0.000000
O O14 0.618581 0.377623 0.278669
O O15 0.726235 0.635057 0.237719
O O16 0.504862 0.181523 0.189036
O O17 0.357596 0.986478 0.282294
#
# Coordination Sequence:
#
# PCOD8030229 Si02
#       8
#     2   2   2   2   2   2   2   2
#     4  12  23  45  69  98 140 177 227 282 343 402
#     4  11  24  43  68 102 135 184 222 279 345 409
#     4  11  25  44  69 101 136 180 227 281 336 405
#     4  11  23  41  73 102 131 182 225 275 347 402
#     4  11  21  43  70  97 138 174 225 283 340 404
#     4  12  23  46  71  97 143 180 224 280 343 406
#     4  11  23  44  69  95 136 181 225 284 337 397
#     4  11  26  45  68 102 135 184 233 276 342 400
#
# _framework density 23.455541
#
# number of rings (size 3 to 8) (size 9 to 14) (size 15 to 20)
#    0.000    0.750    6.250    2.250    0.000    2.000 
#    6.750    0.625    0.000    0.000    0.000    0.000 
#    0.000    0.000    0.000    0.000    0.000    0.000 
#
# Total GULP energy -198338.684998 kJ/mol
# GULP energy per Si atom -12396.167812 kJ/mol
# Density = 2.340215 g / cm^3
# Si number density = 23.455541 Si / 1000 Ang^3
#
#
#
# Elastic Constant Matrix: (Units=GPa)
#
#
# Indices 1 2 3 4 5 6 
#
# 1 118.6133 41.0813 16.2317 8.7765 -10.6256 13.2073
# 2 41.0813 114.7269 30.8070 25.6606 -10.0193 20.7676
# 3 16.2317 30.8070 72.9485 9.4868 -14.7932 4.4366
# 4 8.7765 25.6606 9.4868 44.4652 3.7629 3.7180
# 5 -10.6256 -10.0193 -14.7932 3.7629 34.8603 -1.0002
# 6 13.2073 20.7676 4.4366 3.7180 -1.0002 25.7443
#
#
#
# Elastic Compliance Matrix: (Units=1/GPa)
#
#
# Indices 1 2 3 4 5 6 
#
# 1 0.009933 -0.002713 -0.000463 -0.000238 0.001999 -0.002715
# 2 -0.002713 0.013607 -0.003448 -0.006083 0.002047 -0.008033
# 3 -0.000463 -0.003448 0.016759 -0.002077 0.006223 0.000673
# 4 -0.000238 -0.006083 -0.002077 0.026853 -0.005564 0.001293
# 5 0.001999 0.002047 0.006223 -0.005564 0.033077 -0.001661
# 6 -0.002715 -0.008033 0.000673 0.001293 -0.001661 0.046349
#
#
# Mechanical properties :
#
#
# Convention : Reuss Voigt Hill
#
# Bulk Modulus (GPa) = 36.96776 53.61430 45.29103
# Shear Modulus (GPa) = 29.61338 35.55854 32.58596
#
# Velocity S-wave (km/s) = 3.55707 3.89781 3.73133
# Velocity P-wave (km/s) = 5.71536 6.56998 6.15751
#
# Compressibility (1/GPa) = 0.02705060
#
# Stress axis : x y z
#
# Youngs Moduli (GPa) = 100.67644 73.49122 59.67069
#
# Poissons Ratio (x) = 0.19939 0.02762
# Poissons Ratio (y) = 0.27314 0.20575
# Poissons Ratio (z) = 0.04660 0.25340
#
# Static dielectric constant tensor:
#      x y z
#    x 4.261330 0.037790 -0.138290 
#    y 0.037790 4.294650 -0.002870 
#    z -0.138290 -0.002870 4.553820 
# 
# 
# High freq. dielectric constant tensor:
#      x y z
#    x 1.923660 0.003450 -0.008920 
#    y 0.003450 1.930350 0.015650 
#    z -0.008920 0.015650 1.933970 
# 
# From -- ./inp_files/269901.got.cif
#   From: 2010.06.25/outbox.cif.g09.slc.cpg/sg2_135_cif.got.tgz:269901.got - 2010.06.27 13:26:56.
