data_PCOD8030591
_publ_section_title
;
Structure prediction by ZEFSAII (Michael W. Deem and Ramdas Pophale) SiO2 
 PCOD8030591
Probable space group: P -1
;
_chemical_formula_sum "Si O2"
_cell_formula_units_Z 16
_cell_length_a 7.866299
_cell_length_b 14.802429
_cell_length_c 12.429759
_cell_angle_alpha 62.438980
_cell_angle_beta 118.843010
_cell_angle_gamma 144.889042
_cell_volume 722.492363
_symmetry_space_group_name_H-M "P -1"
_symmetry_group_IT_number 2
_symmetry_cell_setting 'triclinic'
loop_
_space_group_symop_operation_xyz
x,y,z
-x,-y,-z
loop_
_atom_site_type_symbol
_atom_site_label
_atom_site_fract_x
_atom_site_fract_y
_atom_site_fract_z
Si Si1 0.961704 0.087858 0.043018
Si Si2 0.354907 0.773288 0.279868
Si Si3 0.649302 0.964901 0.621006
Si Si4 0.751467 0.811483 0.227116
Si Si5 0.548355 0.069937 0.188239
Si Si6 0.158647 0.279829 0.202085
Si Si7 0.686867 0.824258 0.539648
Si Si8 0.277764 0.367000 0.845809
O O1 0.998379 0.134556 0.153117
O O2 0.936401 0.953742 0.113518
O O3 0.240424 0.256905 0.976814
O O4 0.656508 0.001745 0.940329
O O5 0.464848 0.762314 0.208635
O O6 0.425135 0.720631 0.425598
O O7 0.006021 0.668827 0.222318
O O8 0.557662 0.951890 0.277655
O O9 0.016077 0.119939 0.642686
O O10 0.500000 0.000000 0.500000
O O11 0.561393 0.916781 0.745838
O O12 0.548565 0.826014 0.600740
O O13 0.665528 0.666728 0.232387
O O14 0.885129 0.246070 0.169062
O O15 0.271133 0.273796 0.350874
O O16 0.425519 0.450368 0.132932
O O17 0.000000 0.000000 0.500000
#
# Coordination Sequence:
#
# PCOD8030591 Si02
#       8
#     2   2   2   2   2   2   2   2
#     4  11  22  42  71  92 127 178 228 267 317 395
#     4  11  22  42  69  96 128 176 219 265 327 400
#     4  12  20  36  68 103 127 159 225 279 311 380
#     4  12  22  42  71  96 128 177 221 267 321 398
#     4  11  22  38  68  98 127 170 225 267 321 387
#     4  12  24  43  64  97 136 171 214 282 331 381
#     4  12  20  38  70  98 123 170 227 268 318 394
#     4  11  27  43  63  99 139 170 214 274 344 381
#
# _framework density 22.145562999999999
#
# number of rings (size 3 to 8) (size 9 to 14) (size 15 to 20)
#    0.000    0.500    8.750    1.125    1.750    0.500 
#    2.250    1.250    0.000    0.000    0.000    0.000 
#    0.000    0.000    0.000    0.000    0.000    0.000 
#
# Total GULP energy -198238.426384 kJ/mol
# GULP energy per Si atom -12389.901649 kJ/mol
# Density = 2.209516 g / cm^3
# Si number density = 22.145563 Si / 1000 Ang^3
#
#
#
# Elastic Constant Matrix: (Units=GPa)
#
#
# Indices 1 2 3 4 5 6 
#
# 1 98.9963 33.2816 10.5783 -0.4194 0.7605 20.2363
# 2 33.2816 98.9117 27.4761 -3.9298 7.4002 18.7144
# 3 10.5783 27.4761 102.5173 3.2963 9.4067 4.1490
# 4 -0.4194 -3.9298 3.2963 22.0229 0.7761 0.1019
# 5 0.7605 7.4002 9.4067 0.7761 23.8756 -3.6873
# 6 20.2363 18.7144 4.1490 0.1019 -3.6873 25.1098
#
#
#
# Elastic Compliance Matrix: (Units=1/GPa)
#
#
# Indices 1 2 3 4 5 6 
#
# 1 0.012714 -0.002572 -0.000202 -0.000119 -0.000824 -0.008416
# 2 -0.002572 0.013798 -0.002776 0.003026 -0.004500 -0.008425
# 3 -0.000202 -0.002776 0.010895 -0.002011 -0.003369 -0.000055
# 4 -0.000119 0.003026 -0.002011 0.046327 -0.002004 -0.002310
# 5 -0.000824 -0.004500 -0.003369 -0.002004 0.046459 0.011405
# 6 -0.008416 -0.008425 -0.000055 -0.002310 0.011405 0.054580
#
#
# Mechanical properties :
#
#
# Convention : Reuss Voigt Hill
#
# Bulk Modulus (GPa) = 38.01506 49.23305 43.62405
# Shear Modulus (GPa) = 24.43278 29.47429 26.95354
#
# Velocity S-wave (km/s) = 3.32517 3.65216 3.49249
# Velocity P-wave (km/s) = 5.65204 6.32962 6.00041
#
# Compressibility (1/GPa) = 0.02630536
#
# Stress axis : x y z
#
# Youngs Moduli (GPa) = 78.65305 72.47625 91.78254
#
# Poissons Ratio (x) = 0.18644 0.01858
# Poissons Ratio (y) = 0.20233 0.25478
# Poissons Ratio (z) = 0.01592 0.20119
#
# Static dielectric constant tensor:
#      x y z
#    x 4.182850 0.107230 -0.028560 
#    y 0.107230 3.554340 0.075380 
#    z -0.028560 0.075380 4.234440 
# 
# 
# High freq. dielectric constant tensor:
#      x y z
#    x 1.881540 0.011090 -0.001060 
#    y 0.011090 1.821880 0.016160 
#    z -0.001060 0.016160 1.883960 
# 
# From -- ./inp_files/402043.got.cif
#   From: 2010.06.25/outbox.cif.g09.slc.cpg/sg2_202_cif.got.tgz:402043.got - 2010.06.27 13:26:56.
