data_PCOD8030158
_publ_section_title
;
Structure prediction by ZEFSAII (Michael W. Deem and Ramdas Pophale) SiO2 
 PCOD8030158
Probable space group: P -1
;
_chemical_formula_sum "Si O2"
_cell_formula_units_Z 16
_cell_length_a 8.484059
_cell_length_b 23.566371
_cell_length_c 9.578134
_cell_angle_alpha 40.180696
_cell_angle_beta 79.395974
_cell_angle_gamma 48.239895
_cell_volume 680.098118
_symmetry_space_group_name_H-M "P -1"
_symmetry_group_IT_number 2
_symmetry_cell_setting 'triclinic'
loop_
_space_group_symop_operation_xyz
x,y,z
-x,-y,-z
loop_
_atom_site_type_symbol
_atom_site_label
_atom_site_fract_x
_atom_site_fract_y
_atom_site_fract_z
Si Si1 0.228122 0.505104 0.820816
Si Si2 0.904484 0.809377 0.157548
Si Si3 0.218550 0.945968 0.171856
Si Si4 0.094145 0.548071 0.327972
Si Si5 0.747443 0.589222 0.719410
Si Si6 0.441469 0.098108 0.210915
Si Si7 0.409656 0.656090 0.190786
Si Si8 0.876466 0.043903 0.285629
O O1 0.526989 0.375024 0.928305
O O2 0.027595 0.679981 0.487130
O O3 0.064843 0.487108 0.851160
O O4 0.299623 0.462546 0.053816
O O5 0.132786 0.729099 0.149436
O O6 0.632262 0.899600 0.940074
O O7 0.809410 0.934892 0.035326
O O8 0.536824 0.769193 0.416496
O O9 0.154192 0.935588 0.352378
O O10 0.000000 0.000000 0.000000
O O11 0.287554 0.449673 0.343280
O O12 0.296851 0.511731 0.469486
O O13 0.000000 0.500000 0.500000
O O14 0.812196 0.731036 0.000516
O O15 0.740482 0.014410 0.314889
O O16 0.500000 0.000000 0.500000
O O17 0.375506 0.770353 0.039843
O O18 0.000000 0.000000 0.500000
#
# Coordination Sequence:
#
# PCOD8030158 Si02
#       8
#     2   2   2   2   2   2   2   2
#     4  11  23  40  69 102 141 178 234 299 351 412
#     4  11  25  45  73 105 140 191 236 299 350 418
#     4  11  26  46  69  97 142 192 235 283 356 427
#     4  12  22  44  74  98 135 188 242 284 342 435
#     4  11  24  43  66 104 140 186 233 285 359 424
#     4  12  25  42  72 111 140 171 243 300 353 408
#     4  11  21  42  74  97 136 188 242 276 348 424
#     4  11  23  44  72 100 139 189 231 283 350 428
#
# _framework density 23.526017
#
# number of rings (size 3 to 8) (size 9 to 14) (size 15 to 20)
#    0.000    0.750    3.750    4.125    1.750    3.500 
#    2.250    1.250    0.000    0.000    0.000    0.000 
#    0.000    0.000    0.000    0.000    0.000    0.000 
#
# Total GULP energy -198288.801195 kJ/mol
# GULP energy per Si atom -12393.050075 kJ/mol
# Density = 2.347247 g / cm^3
# Si number density = 23.526017 Si / 1000 Ang^3
#
#
#
# Elastic Constant Matrix: (Units=GPa)
#
#
# Indices 1 2 3 4 5 6 
#
# 1 88.3093 18.1612 25.5572 2.1558 3.7420 19.1002
# 2 18.1612 129.3173 36.3439 9.2271 -7.9661 11.7602
# 3 25.5572 36.3439 113.6455 7.4799 -15.6810 7.6313
# 4 2.1558 9.2271 7.4799 41.9317 3.3689 1.5924
# 5 3.7420 -7.9661 -15.6810 3.3689 42.5606 -1.8750
# 6 19.1002 11.7602 7.6313 1.5924 -1.8750 37.0741
#
#
#
# Elastic Compliance Matrix: (Units=1/GPa)
#
#
# Indices 1 2 3 4 5 6 
#
# 1 0.013796 -0.000753 -0.002832 0.000424 -0.002715 -0.006441
# 2 -0.000753 0.008814 -0.002304 -0.001493 0.000905 -0.001824
# 3 -0.002832 -0.002304 0.010806 -0.001600 0.003936 0.000233
# 4 0.000424 -0.001493 -0.001600 0.024696 -0.002889 -0.000622
# 5 -0.002715 0.000905 0.003936 -0.002889 0.025659 0.001723
# 6 -0.006441 -0.001824 0.000233 -0.000622 0.001723 0.030936
#
#
# Mechanical properties :
#
#
# Convention : Reuss Voigt Hill
#
# Bulk Modulus (GPa) = 46.21395 54.59964 50.40680
# Shear Modulus (GPa) = 37.39795 41.06058 39.22927
#
# Velocity S-wave (km/s) = 3.99136 4.18224 4.08791
# Velocity P-wave (km/s) = 6.39747 6.82496 6.61467
#
# Compressibility (1/GPa) = 0.02163849
#
# Stress axis : x y z
#
# Youngs Moduli (GPa) = 72.48432 113.45133 92.54500
#
# Poissons Ratio (x) = 0.08548 0.26205
# Poissons Ratio (y) = 0.05461 0.21320
# Poissons Ratio (z) = 0.20524 0.26136
#
# Static dielectric constant tensor:
#      x y z
#    x 4.289820 -0.102650 -0.128400 
#    y -0.102650 4.185350 -0.115300 
#    z -0.128400 -0.115300 4.687110 
# 
# 
# High freq. dielectric constant tensor:
#      x y z
#    x 1.928050 -0.001560 -0.006150 
#    y -0.001560 1.936280 -0.000890 
#    z -0.006150 -0.000890 1.937630 
# 
# From -- ./inp_files/225963.got.cif
#   From: 2010.06.25/outbox.cif.g09.slc.cpg/sg2_113_cif.got.tgz:225963.got - 2010.06.27 13:26:56.
