data_PCOD8030757
_publ_section_title
;
Structure prediction by ZEFSAII (Michael W. Deem and Ramdas Pophale) SiO2 
 PCOD8030757
Probable space group: P -1
;
_chemical_formula_sum "Si O2"
_cell_formula_units_Z 16
_cell_length_a 17.854457
_cell_length_b 8.960462
_cell_length_c 8.841283
_cell_angle_alpha 132.511020
_cell_angle_beta 132.609916
_cell_angle_gamma 62.123353
_cell_volume 767.250921
_symmetry_space_group_name_H-M "P -1"
_symmetry_group_IT_number 2
_symmetry_cell_setting 'triclinic'
loop_
_space_group_symop_operation_xyz
x,y,z
-x,-y,-z
loop_
_atom_site_type_symbol
_atom_site_label
_atom_site_fract_x
_atom_site_fract_y
_atom_site_fract_z
Si Si1 0.289373 0.276602 0.859671
Si Si2 0.108854 0.537160 0.104589
Si Si3 0.891776 0.465441 0.256988
Si Si4 0.249200 0.819605 0.961852
Si Si5 0.720308 0.726041 0.674755
Si Si6 0.386358 0.468668 0.875271
Si Si7 0.387417 0.489757 0.401431
Si Si8 0.258958 0.828467 0.621883
O O1 0.184053 0.343964 0.679223
O O2 0.381951 0.291631 0.875001
O O3 0.284781 0.054231 0.765845
O O4 0.308450 0.449267 0.130559
O O5 0.184078 0.364019 0.159936
O O6 0.151865 0.757283 0.357985
O O7 0.096891 0.541392 0.911927
O O8 0.000000 0.500000 0.000000
O O9 0.849086 0.263724 0.141362
O O10 0.000000 0.500000 0.500000
O O11 0.347118 0.679160 0.041894
O O12 0.242357 0.823198 0.774224
O O13 0.264171 0.045395 0.199528
O O14 0.696333 0.586284 0.402865
O O15 0.620348 0.705963 0.632263
O O16 0.500000 0.500000 0.000000
O O17 0.500000 0.500000 0.500000
O O18 0.351141 0.686521 0.584158
#
# Coordination Sequence:
#
# PCOD8030757 Si02
#       8
#     2   2   2   2   2   2   2   2
#     4  11  24  41  66  96 132 167 216 267 318 380
#     4  11  23  43  69  95 128 169 214 262 320 387
#     4  11  24  43  66  98 130 165 211 269 323 379
#     4  11  23  42  69  92 134 169 211 267 320 378
#     4  11  23  44  65  95 130 170 217 263 318 381
#     4  11  25  42  64  96 133 170 212 266 324 375
#     4  11  22  40  66  95 127 167 218 264 309 378
#     4  11  22  43  67  95 128 173 214 262 321 380
#
# _framework density 20.853674999999999
#
# number of rings (size 3 to 8) (size 9 to 14) (size 15 to 20)
#    0.000    1.000    6.250    1.500    3.500    3.000 
#    0.000    3.750    0.000    0.000    0.000    0.000 
#    0.000    0.000    0.000    0.000    0.000    0.000 
#
# Total GULP energy -198225.439456 kJ/mol
# GULP energy per Si atom -12389.089966 kJ/mol
# Density = 2.080621 g / cm^3
# Si number density = 20.853675 Si / 1000 Ang^3
#
#
#
# Elastic Constant Matrix: (Units=GPa)
#
#
# Indices 1 2 3 4 5 6 
#
# 1 152.2803 61.5625 44.4453 12.8247 20.3668 26.9038
# 2 61.5625 121.5343 58.7906 18.1504 13.7095 23.6184
# 3 44.4453 58.7906 94.2416 9.0946 9.7062 -0.5869
# 4 12.8247 18.1504 9.0946 31.9171 8.4269 1.9903
# 5 20.3668 13.7095 9.7062 8.4269 32.4529 -1.0585
# 6 26.9038 23.6184 -0.5869 1.9903 -1.0585 39.2055
#
#
#
# Elastic Compliance Matrix: (Units=1/GPa)
#
#
# Indices 1 2 3 4 5 6 
#
# 1 0.009869 -0.001800 -0.003048 -0.000500 -0.004582 -0.005832
# 2 -0.001800 0.015694 -0.008321 -0.004785 -0.002035 -0.008156
# 3 -0.003048 -0.008321 0.017197 0.000494 0.000396 0.007347
# 4 -0.000500 -0.004785 0.000494 0.035910 -0.007097 0.001218
# 5 -0.004582 -0.002035 0.000396 -0.007097 0.036461 0.005721
# 6 -0.005832 -0.008156 0.007347 0.001218 0.005721 0.034625
#
#
# Mechanical properties :
#
#
# Convention : Reuss Voigt Hill
#
# Bulk Modulus (GPa) = 60.89152 77.51702 69.20427
# Shear Modulus (GPa) = 27.53789 34.26561 30.90175
#
# Velocity S-wave (km/s) = 3.63785 4.05797 3.85364
# Velocity P-wave (km/s) = 6.84895 7.69472 7.28412
#
# Compressibility (1/GPa) = 0.01642265
#
# Stress axis : x y z
#
# Youngs Moduli (GPa) = 101.32287 63.71750 58.15093
#
# Poissons Ratio (x) = 0.11469 0.17723
# Poissons Ratio (y) = 0.18238 0.48388
# Poissons Ratio (z) = 0.30881 0.53020
#
# Static dielectric constant tensor:
#      x y z
#    x 4.022580 0.372600 -0.032300 
#    y 0.372600 3.772940 -0.094150 
#    z -0.032300 -0.094150 3.748880 
# 
# 
# High freq. dielectric constant tensor:
#      x y z
#    x 1.833480 0.028860 -0.002450 
#    y 0.028860 1.810120 -0.003400 
#    z -0.002450 -0.003400 1.814070 
# 
# From -- ./inp_files/206158.got.cif
#   From: 2010.06.25/outbox.cif.g09.slc.cpg/sg2_104_cif.got.tgz:206158.got - 2010.06.27 13:26:56.
