data_PCOD8030915
_publ_section_title
;
Structure prediction by ZEFSAII (Michael W. Deem and Ramdas Pophale) SiO2 
 PCOD8030915
Probable space group: P -1
;
_chemical_formula_sum "Si O2"
_cell_formula_units_Z 16
_cell_length_a 11.744063
_cell_length_b 15.940465
_cell_length_c 12.554768
_cell_angle_alpha 31.154617
_cell_angle_beta 80.040182
_cell_angle_gamma 56.938945
_cell_volume 749.240646
_symmetry_space_group_name_H-M "P -1"
_symmetry_group_IT_number 2
_symmetry_cell_setting 'triclinic'
loop_
_space_group_symop_operation_xyz
x,y,z
-x,-y,-z
loop_
_atom_site_type_symbol
_atom_site_label
_atom_site_fract_x
_atom_site_fract_y
_atom_site_fract_z
Si Si1 0.584380 0.719010 0.993696
Si Si2 0.100460 0.987624 0.632748
Si Si3 0.167914 0.703614 0.119126
Si Si4 0.956376 0.729271 0.294932
Si Si5 0.980378 0.388648 0.350972
Si Si6 0.269040 0.574804 0.910755
Si Si7 0.600852 0.287604 0.803143
Si Si8 0.728297 0.673761 0.635574
O O1 0.779109 0.601558 0.098209
O O2 0.584361 0.600439 0.018428
O O3 0.555873 0.637207 0.189075
O O4 0.423889 0.023397 0.680096
O O5 0.131976 0.118661 0.551377
O O6 0.935370 0.200485 0.347814
O O7 0.279075 0.728218 0.816402
O O8 0.049645 0.904417 0.819919
O O9 0.293331 0.708744 0.138750
O O10 0.295957 0.420430 0.358383
O O11 0.039154 0.774714 0.155102
O O12 0.000000 0.500000 0.500000
O O13 0.039943 0.661947 0.472276
O O14 0.737188 0.004618 0.036109
O O15 0.064274 0.477363 0.242678
O O16 0.296114 0.386325 0.182792
O O17 0.500000 0.500000 0.500000
#
# Coordination Sequence:
#
# PCOD8030915 Si02
#       8
#     2   2   2   2   2   2   2   2
#     4  11  23  42  65  96 133 172 219 268 329 390
#     4   9  19  38  62  93 123 167 218 268 314 389
#     4  11  22  41  68  91 130 173 217 267 328 392
#     4  12  23  42  68  96 128 176 215 266 333 395
#     4  11  22  41  67  92 133 172 216 268 330 389
#     4   9  21  38  65  94 128 169 219 271 325 382
#     4  12  26  42  65 101 136 169 221 279 327 393
#     4  11  22  44  63  97 133 171 219 271 326 386
#
# _framework density 21.354952999999998
#
# number of rings (size 3 to 8) (size 9 to 14) (size 15 to 20)
#    0.000    1.250    3.750    1.500    3.500    3.000 
#    0.000   10.625    0.000    0.000    0.000    0.000 
#    0.000    0.000    0.000    0.000    0.000    0.000 
#
# Total GULP energy -198299.362014 kJ/mol
# GULP energy per Si atom -12393.710126 kJ/mol
# Density = 2.130635 g / cm^3
# Si number density = 21.354953 Si / 1000 Ang^3
#
#
#
# Elastic Constant Matrix: (Units=GPa)
#
#
# Indices 1 2 3 4 5 6 
#
# 1 60.8506 16.9597 31.6971 -18.7905 1.6584 5.9575
# 2 16.9597 126.1824 53.3694 -14.2733 2.1102 8.2420
# 3 31.6971 53.3694 104.0871 1.1367 -8.7586 2.9614
# 4 -18.7905 -14.2733 1.1367 41.1921 6.2602 -5.9392
# 5 1.6584 2.1102 -8.7586 6.2602 18.3736 -2.7197
# 6 5.9575 8.2420 2.9614 -5.9392 -2.7197 33.8504
#
#
#
# Elastic Compliance Matrix: (Units=1/GPa)
#
#
# Indices 1 2 3 4 5 6 
#
# 1 0.026607 0.003203 -0.010972 0.015196 -0.013611 -0.002930
# 2 0.003203 0.011772 -0.007685 0.006630 -0.007893 -0.002229
# 3 -0.010972 -0.007685 0.018149 -0.010099 0.014200 0.001583
# 4 0.015196 0.006630 -0.010099 0.036938 -0.019307 0.001524
# 5 -0.013611 -0.007893 0.014200 -0.019307 0.070703 0.005368
# 6 -0.002930 -0.002229 0.001583 0.001524 0.005368 0.031160
#
#
# Mechanical properties :
#
#
# Convention : Reuss Voigt Hill
#
# Bulk Modulus (GPa) = 39.03307 55.01917 47.02612
# Shear Modulus (GPa) = 21.29667 31.28950 26.29308
#
# Velocity S-wave (km/s) = 3.16139 3.83196 3.51271
# Velocity P-wave (km/s) = 5.62528 6.73785 6.20654
#
# Compressibility (1/GPa) = 0.02561930
#
# Stress axis : x y z
#
# Youngs Moduli (GPa) = 37.58433 84.94434 55.09947
#
# Poissons Ratio (x) = -0.27204 0.60458
# Poissons Ratio (y) = -0.12037 0.42342
# Poissons Ratio (z) = 0.41239 0.65277
#
# Static dielectric constant tensor:
#      x y z
#    x 3.627700 0.273250 -0.167970 
#    y 0.273250 4.489280 -0.058540 
#    z -0.167970 -0.058540 3.986990 
# 
# 
# High freq. dielectric constant tensor:
#      x y z
#    x 1.806480 0.014840 -0.012640 
#    y 0.014840 1.865790 0.000340 
#    z -0.012640 0.000340 1.847810 
# 
# From -- ./inp_files/433669.got.cif
#   From: 2010.06.25/outbox.cif.g09.slc.cpg/sg2_217_cif.got.tgz:433669.got - 2010.06.27 13:26:56.
