data_PCOD8030553
_publ_section_title
;
Structure prediction by ZEFSAII (Michael W. Deem and Ramdas Pophale) SiO2 
 PCOD8030553
Probable space group: P -1
;
_chemical_formula_sum "Si O2"
_cell_formula_units_Z 16
_cell_length_a 7.367402
_cell_length_b 8.127445
_cell_length_c 15.268277
_cell_angle_alpha 82.863387
_cell_angle_beta 96.284259
_cell_angle_gamma 124.978161
_cell_volume 742.472177
_symmetry_space_group_name_H-M "P -1"
_symmetry_group_IT_number 2
_symmetry_cell_setting 'triclinic'
loop_
_space_group_symop_operation_xyz
x,y,z
-x,-y,-z
loop_
_atom_site_type_symbol
_atom_site_label
_atom_site_fract_x
_atom_site_fract_y
_atom_site_fract_z
Si Si1 0.414114 0.346758 0.428197
Si Si2 0.635208 0.417537 0.865802
Si Si3 0.366427 0.612313 0.850821
Si Si4 0.626959 0.954637 0.441477
Si Si5 0.336436 0.112765 0.008559
Si Si6 0.213493 0.651106 0.658072
Si Si7 0.066358 0.303278 0.992520
Si Si8 0.275533 0.593456 0.323773
O O1 0.500000 0.500000 0.500000
O O2 0.261723 0.127985 0.483379
O O3 0.631171 0.378899 0.392950
O O4 0.280630 0.395573 0.351690
O O5 0.525389 0.541201 0.837668
O O6 0.698784 0.365951 0.781131
O O7 0.458476 0.205473 0.916791
O O8 0.857471 0.545133 0.930271
O O9 0.487560 0.804553 0.908760
O O10 0.301919 0.686048 0.758827
O O11 0.145810 0.427499 0.898245
O O12 0.464534 0.787022 0.373054
O O13 0.500000 0.000000 0.500000
O O14 0.794697 0.159039 0.384053
O O15 0.180607 0.185579 0.018821
O O16 0.199021 0.868291 0.012417
O O17 0.960790 0.456065 0.653249
#
# Coordination Sequence:
#
# PCOD8030553 Si02
#       8
#     2   2   2   2   2   2   2   2
#     4   9  20  41  64  84 113 151 192 238 297 356
#     4   9  17  32  55  83 116 152 197 239 281 336
#     4   9  17  32  55  82 117 155 192 237 288 334
#     4   9  22  41  60  86 117 147 193 241 292 359
#     4   8  15  29  52  79 120 153 191 243 279 327
#     4  11  22  38  61  90 121 151 192 245 293 349
#     4   8  15  29  52  83 109 159 201 228 282 344
#     4  11  22  38  63  89 118 156 193 242 295 345
#
# _framework density 21.549630000000001
#
# number of rings (size 3 to 8) (size 9 to 14) (size 15 to 20)
#    0.000    2.750    1.250    1.500    0.000    7.000 
#    0.000    6.250    0.000    4.500    0.000    0.000 
#    0.000    0.000    0.000    0.000    0.000    0.000 
#
# Total GULP energy -198238.300290 kJ/mol
# GULP energy per Si atom -12389.893768 kJ/mol
# Density = 2.150058 g / cm^3
# Si number density = 21.549630 Si / 1000 Ang^3
#
#
#
# Elastic Constant Matrix: (Units=GPa)
#
#
# Indices 1 2 3 4 5 6 
#
# 1 45.3751 9.9455 13.1754 -1.7562 -14.5675 6.5115
# 2 9.9455 103.5861 39.5693 -1.9479 -18.0212 21.6934
# 3 13.1754 39.5693 122.0983 -4.2975 -18.8979 4.3388
# 4 -1.7562 -1.9479 -4.2975 26.9696 -0.9236 -1.1791
# 5 -14.5675 -18.0212 -18.8979 -0.9236 16.2430 1.0441
# 6 6.5115 21.6934 4.3388 -1.1791 1.0441 28.6941
#
#
#
# Elastic Compliance Matrix: (Units=1/GPa)
#
#
# Indices 1 2 3 4 5 6 
#
# 1 0.036045 0.006579 0.001156 0.003806 0.042132 -0.014705
# 2 0.006579 0.017010 -0.002009 0.001492 0.023473 -0.014841
# 3 0.001156 -0.002009 0.010548 0.001967 0.011234 -0.000666
# 4 0.003806 0.001492 0.001967 0.038029 0.009588 -0.001075
# 5 0.042132 0.023473 0.011234 0.009588 0.141178 -0.033749
# 6 -0.014705 -0.014841 -0.000666 -0.001075 -0.033749 0.050692
#
#
# Mechanical properties :
#
#
# Convention : Reuss Voigt Hill
#
# Bulk Modulus (GPa) = 13.32389 44.04888 28.68639
# Shear Modulus (GPa) = 16.28296 28.27263 22.27779
#
# Velocity S-wave (km/s) = 2.75180 3.62605 3.21875
# Velocity P-wave (km/s) = 4.03644 6.16572 5.21099
#
# Compressibility (1/GPa) = 0.07505316
#
# Stress axis : x y z
#
# Youngs Moduli (GPa) = 27.74325 58.79041 94.80213
#
# Poissons Ratio (x) = -0.38676 -0.10960
# Poissons Ratio (y) = -0.18251 0.19049
# Poissons Ratio (z) = -0.03207 0.11813
#
# Static dielectric constant tensor:
#      x y z
#    x 3.795910 -0.260020 0.277340 
#    y -0.260020 4.586040 -0.548540 
#    z 0.277340 -0.548540 4.378190 
# 
# 
# High freq. dielectric constant tensor:
#      x y z
#    x 1.837670 -0.009900 -0.000300 
#    y -0.009900 1.838920 -0.011550 
#    z -0.000300 -0.011550 1.852340 
# 
# From -- ./inp_files/222136.got.cif
#   From: 2010.06.25/outbox.cif.g09.slc.cpg/sg2_112_cif.got.tgz:222136.got - 2010.06.27 13:26:56.
