data_PCOD8030183
_publ_section_title
;
Structure prediction by ZEFSAII (Michael W. Deem and Ramdas Pophale) SiO2 
 PCOD8030183
Probable space group: P -1
;
_chemical_formula_sum "Si O2"
_cell_formula_units_Z 16
_cell_length_a 20.995047
_cell_length_b 24.603765
_cell_length_c 9.508282
_cell_angle_alpha 150.287490
_cell_angle_beta 29.103361
_cell_angle_gamma 163.738569
_cell_volume 652.810811
_symmetry_space_group_name_H-M "P -1"
_symmetry_group_IT_number 2
_symmetry_cell_setting 'triclinic'
loop_
_space_group_symop_operation_xyz
x,y,z
-x,-y,-z
loop_
_atom_site_type_symbol
_atom_site_label
_atom_site_fract_x
_atom_site_fract_y
_atom_site_fract_z
Si Si1 0.904004 0.183828 0.927402
Si Si2 0.679035 0.193478 0.184925
Si Si3 0.141692 0.150104 0.262300
Si Si4 0.540728 0.809074 0.155890
Si Si5 0.725729 0.418342 0.410329
Si Si6 0.385253 0.749252 0.033653
Si Si7 0.901040 0.232940 0.344062
Si Si8 0.688309 0.722668 0.082931
O O1 0.095749 0.225930 0.612848
O O2 0.872414 0.250639 0.013554
O O3 0.004673 0.315447 0.169782
O O4 0.652734 0.949828 0.913482
O O5 0.552804 0.181149 0.516180
O O6 0.809374 0.366842 0.215477
O O7 0.500000 0.000000 0.000000
O O8 0.379322 0.255735 0.096497
O O9 0.198352 0.233744 0.185126
O O10 0.913841 0.908148 0.164522
O O11 0.360224 0.674816 0.068781
O O12 0.772647 0.027660 0.135242
O O13 0.457001 0.264609 0.622968
O O14 0.901197 0.634280 0.616495
O O15 0.753556 0.422529 0.198474
O O16 0.286633 0.802675 0.347301
O O17 0.500000 0.500000 0.000000
#
# Coordination Sequence:
#
# PCOD8030183 Si02
#       8
#     2   2   2   2   2   2   2   2
#     4  11  22  44  69 103 139 185 241 285 356 434
#     4  12  21  40  71  95 134 184 232 285 345 421
#     4  11  24  45  75 103 141 196 235 286 366 424
#     4  11  22  43  73  95 136 189 237 279 350 427
#     4  12  24  43  67 102 141 178 239 295 357 418
#     4  11  21  43  67 102 140 179 237 293 345 426
#     4  11  23  41  69 103 141 181 233 298 357 415
#     4  11  24  46  70 105 147 183 241 300 346 426
#
# _framework density 24.509399999999999
#
# number of rings (size 3 to 8) (size 9 to 14) (size 15 to 20)
#    0.000    0.750    6.250    1.875    1.750    2.500 
#    6.750    0.625    0.000    0.000    0.000    0.000 
#    0.000    0.000    0.000    0.000    0.000    0.000 
#
# Total GULP energy -198357.345904 kJ/mol
# GULP energy per Si atom -12397.334119 kJ/mol
# Density = 2.445362 g / cm^3
# Si number density = 24.509400 Si / 1000 Ang^3
#
#
#
# Elastic Constant Matrix: (Units=GPa)
#
#
# Indices 1 2 3 4 5 6 
#
# 1 142.7936 21.1525 67.6548 6.1204 27.6458 16.2723
# 2 21.1525 52.1026 15.8817 4.2204 12.2678 1.6142
# 3 67.6548 15.8817 166.4121 -16.2262 18.4654 11.5434
# 4 6.1204 4.2204 -16.2262 30.9863 8.0541 -0.2630
# 5 27.6458 12.2678 18.4654 8.0541 53.4169 6.0913
# 6 16.2723 1.6142 11.5434 -0.2630 6.0913 28.8039
#
#
#
# Elastic Compliance Matrix: (Units=1/GPa)
#
#
# Indices 1 2 3 4 5 6 
#
# 1 0.010078 -0.002005 -0.003655 -0.002977 -0.002634 -0.003586
# 2 -0.002005 0.021268 -0.001150 -0.002254 -0.003231 0.001064
# 3 -0.003655 -0.001150 0.008381 0.005649 -0.001495 -0.000862
# 4 -0.002977 -0.002254 0.005649 0.037614 -0.005690 0.001091
# 5 -0.002634 -0.003231 -0.001495 -0.005690 0.022490 -0.002540
# 6 -0.003586 0.001064 -0.000862 0.001091 -0.002540 0.037576
#
#
# Mechanical properties :
#
#
# Convention : Reuss Voigt Hill
#
# Bulk Modulus (GPa) = 38.30301 63.40960 50.85630
# Shear Modulus (GPa) = 31.30292 39.74939 35.52616
#
# Velocity S-wave (km/s) = 3.57764 4.03153 3.81135
# Velocity P-wave (km/s) = 5.72083 6.89918 6.33745
#
# Compressibility (1/GPa) = 0.02610761
#
# Stress axis : x y z
#
# Youngs Moduli (GPa) = 99.22397 47.01988 119.31206
#
# Poissons Ratio (x) = 0.09427 0.43611
# Poissons Ratio (y) = 0.19893 0.13718
# Poissons Ratio (z) = 0.36269 0.05406
#
# Static dielectric constant tensor:
#      x y z
#    x 4.947690 0.230300 0.191490 
#    y 0.230300 4.322260 0.006290 
#    z 0.191490 0.006290 4.428210 
# 
# 
# High freq. dielectric constant tensor:
#      x y z
#    x 1.983020 0.008550 0.009490 
#    y 0.008550 1.957610 -0.007590 
#    z 0.009490 -0.007590 1.979480 
# 
# From -- ./inp_files/350039.got.cif
#   From: 2010.06.25/outbox.cif.g09.slc.cpg/sg2_176_cif.got.tgz:350039.got - 2010.06.27 13:26:56.
