data_PCOD8030685
_publ_section_title
;
Structure prediction by ZEFSAII (Michael W. Deem and Ramdas Pophale) SiO2 
 PCOD8030685
Probable space group: P -1
;
_chemical_formula_sum "Si O2"
_cell_formula_units_Z 16
_cell_length_a 14.377106
_cell_length_b 9.635890
_cell_length_c 11.467528
_cell_angle_alpha 100.553164
_cell_angle_beta 29.068016
_cell_angle_gamma 109.988968
_cell_volume 701.704624
_symmetry_space_group_name_H-M "P -1"
_symmetry_group_IT_number 2
_symmetry_cell_setting 'triclinic'
loop_
_space_group_symop_operation_xyz
x,y,z
-x,-y,-z
loop_
_atom_site_type_symbol
_atom_site_label
_atom_site_fract_x
_atom_site_fract_y
_atom_site_fract_z
Si Si1 0.761785 0.208418 0.706300
Si Si2 0.202808 0.153444 0.799942
Si Si3 0.334418 0.275283 0.932985
Si Si4 0.411138 0.822632 0.769618
Si Si5 0.197475 0.671772 0.559889
Si Si6 0.201006 0.554358 0.117756
Si Si7 0.058051 0.679766 0.956543
Si Si8 0.671055 0.959233 0.930747
O O1 0.846485 0.230213 0.484151
O O2 0.838987 0.373519 0.707493
O O3 0.830126 0.091891 0.693592
O O4 0.511890 0.145494 0.969031
O O5 0.278627 0.207661 0.855195
O O6 0.386076 0.131551 0.524519
O O7 0.151379 0.286309 0.810817
O O8 0.000000 0.000000 0.000000
O O9 0.580614 0.338603 0.695051
O O10 0.265521 0.413792 0.055008
O O11 0.224949 0.143089 0.130103
O O12 0.205828 0.777520 0.910047
O O13 0.381825 0.678239 0.862619
O O14 0.429969 0.968743 0.847830
O O15 0.177518 0.747552 0.715012
O O16 0.014708 0.503312 0.727451
O O17 0.000000 0.500000 0.000000
#
# Coordination Sequence:
#
# PCOD8030685 Si02
#       8
#     2   2   2   2   2   2   2   2
#     4   9  21  42  65  92 125 170 214 265 314 372
#     4  12  27  40  63  97 133 170 212 258 316 387
#     4  11  23  40  66  94 131 164 213 265 320 369
#     4  11  24  42  65  95 132 172 206 262 320 379
#     4  11  22  39  68  94 129 166 209 263 319 374
#     4  11  23  42  68  96 127 164 218 264 318 377
#     4  12  24  42  67  96 133 168 213 258 321 383
#     4   9  21  41  65  90 128 171 214 256 321 379
#
# _framework density 22.801618000000001
#
# number of rings (size 3 to 8) (size 9 to 14) (size 15 to 20)
#    0.000    1.250    3.750    1.125    5.250    4.000 
#    0.000    0.625    0.000    0.000    0.000    0.000 
#    0.000    0.000    0.000    0.000    0.000    0.000 
#
# Total GULP energy -198338.994458 kJ/mol
# GULP energy per Si atom -12396.187154 kJ/mol
# Density = 2.274972 g / cm^3
# Si number density = 22.801618 Si / 1000 Ang^3
#
#
#
# Elastic Constant Matrix: (Units=GPa)
#
#
# Indices 1 2 3 4 5 6 
#
# 1 116.7499 43.9518 17.6016 -1.6952 3.5189 -12.2492
# 2 43.9518 106.9079 7.1091 -10.8901 -1.3250 -15.4699
# 3 17.6016 7.1091 50.4376 -18.1203 2.1691 -11.6837
# 4 -1.6952 -10.8901 -18.1203 21.1542 -0.2662 -0.9289
# 5 3.5189 -1.3250 2.1691 -0.2662 43.4930 -6.5967
# 6 -12.2492 -15.4699 -11.6837 -0.9289 -6.5967 41.1577
#
#
#
# Elastic Compliance Matrix: (Units=1/GPa)
#
#
# Indices 1 2 3 4 5 6 
#
# 1 0.011156 -0.004943 -0.005570 -0.006450 -0.000876 -0.000405
# 2 -0.004943 0.012927 0.004905 0.010709 0.001411 0.005248
# 3 -0.005570 0.004905 0.035459 0.032949 0.000718 0.011111
# 4 -0.006450 0.010709 0.032949 0.081109 0.001760 0.013571
# 5 -0.000876 0.001411 0.000718 0.001760 0.023736 0.004317
# 6 -0.000405 0.005248 0.011111 0.013571 0.004317 0.030301
#
#
# Mechanical properties :
#
#
# Convention : Reuss Voigt Hill
#
# Bulk Modulus (GPa) = 20.69217 45.71338 33.20278
# Shear Modulus (GPa) = 22.52117 34.85651 28.68884
#
# Velocity S-wave (km/s) = 3.14618 3.91408 3.55095
# Velocity P-wave (km/s) = 4.72149 6.36542 5.60406
#
# Compressibility (1/GPa) = 0.04832746
#
# Stress axis : x y z
#
# Youngs Moduli (GPa) = 89.63762 77.35528 28.20143
#
# Poissons Ratio (x) = 0.38233 0.15708
# Poissons Ratio (y) = 0.44304 -0.13833
# Poissons Ratio (z) = 0.49928 -0.37942
#
# Static dielectric constant tensor:
#      x y z
#    x 4.535610 -0.039780 0.078270 
#    y -0.039780 4.167510 -0.306430 
#    z 0.078270 -0.306430 4.025360 
# 
# 
# High freq. dielectric constant tensor:
#      x y z
#    x 1.922180 0.003600 0.011830 
#    y 0.003600 1.899930 -0.020790 
#    z 0.011830 -0.020790 1.882720 
# 
# From -- ./inp_files/447627.got.cif
#   From: 2010.06.25/outbox.cif.g09.slc.cpg/sg2_224_cif.got.tgz:447627.got - 2010.06.27 13:26:56.
