data_PCOD8030934
_publ_section_title
;
Structure prediction by ZEFSAII (Michael W. Deem and Ramdas Pophale) SiO2 
 PCOD8030934
Probable space group: P -1
;
_chemical_formula_sum "Si O2"
_cell_formula_units_Z 14
_cell_length_a 8.750530
_cell_length_b 12.895899
_cell_length_c 9.606162
_cell_angle_alpha 47.488762
_cell_angle_beta 112.971898
_cell_angle_gamma 126.296894
_cell_volume 643.938041
_symmetry_space_group_name_H-M "P -1"
_symmetry_group_IT_number 2
_symmetry_cell_setting 'triclinic'
loop_
_space_group_symop_operation_xyz
x,y,z
-x,-y,-z
loop_
_atom_site_type_symbol
_atom_site_label
_atom_site_fract_x
_atom_site_fract_y
_atom_site_fract_z
Si Si1 0.827897 0.044716 0.239366
Si Si2 0.525690 0.179013 0.370203
Si Si3 0.141219 0.493590 0.171746
Si Si4 0.855405 0.061018 0.921685
Si Si5 0.090384 0.647096 0.504996
Si Si6 0.565653 0.176171 0.082730
Si Si7 0.788546 0.774662 0.632484
O O1 0.640357 0.046058 0.229365
O O2 0.998499 0.154422 0.301103
O O3 0.788667 0.861034 0.407489
O O4 0.876844 0.118612 0.035979
O O5 0.689863 0.291723 0.434220
O O6 0.578662 0.255587 0.166048
O O7 0.337496 0.187262 0.338772
O O8 0.500000 0.000000 0.500000
O O9 0.267562 0.410668 0.241815
O O10 0.028482 0.399341 0.353627
O O11 0.296537 0.675624 0.102342
O O12 0.000000 0.500000 0.000000
O O13 0.911040 0.203559 0.704572
O O14 0.646210 0.912829 0.966656
O O15 0.000000 0.000000 0.000000
O O16 0.000000 0.500000 0.500000
#
# Coordination Sequence:
#
# PCOD8030934 Si02
#       7
#     2   2   2   2   2   2   2
#     4  11  22  41  68 102 136 184 242 289 354 422
#     4  12  23  45  72 105 138 188 244 291 352 426
#     4  12  25  46  69 105 143 186 235 294 354 424
#     4  12  26  43  69 103 142 185 239 293 357 427
#     4  12  27  47  72 103 149 186 233 303 361 412
#     4  12  24  44  72  98 143 188 238 292 353 430
#     4  11  24  40  74 102 138 187 240 292 351 429
#
# _framework density 21.741223999999999
#
# number of rings (size 3 to 8) (size 9 to 14) (size 15 to 20)
#    0.000    0.286    5.714    3.000    2.000    2.857 
#    0.000    2.143    0.000    0.000    0.000    0.000 
#    0.000    0.000    0.000    0.000    0.000    0.000 
#
# Total GULP energy -173546.220531 kJ/mol
# GULP energy per Si atom -12396.158609 kJ/mol
# Density = 2.169174 g / cm^3
# Si number density = 21.741224 Si / 1000 Ang^3
#
#
#
# Elastic Constant Matrix: (Units=GPa)
#
#
# Indices 1 2 3 4 5 6 
#
# 1 146.4729 37.8767 46.3913 -2.8855 13.3823 -0.7610
# 2 37.8767 93.0713 32.1042 -9.0148 7.4135 10.5854
# 3 46.3913 32.1042 141.4870 -3.1521 -9.6427 0.1609
# 4 -2.8855 -9.0148 -3.1521 40.4858 -5.4701 -4.1066
# 5 13.3823 7.4135 -9.6427 -5.4701 39.6109 -0.1287
# 6 -0.7610 10.5854 0.1609 -4.1066 -0.1287 42.6515
#
#
#
# Elastic Compliance Matrix: (Units=1/GPa)
#
#
# Indices 1 2 3 4 5 6 
#
# 1 0.008526 -0.002511 -0.002447 -0.000483 -0.003071 0.000729
# 2 -0.002511 0.013253 -0.002266 0.002019 -0.001915 -0.003137
# 3 -0.002447 -0.002266 0.008628 0.000511 0.003423 0.000546
# 4 -0.000483 0.002019 0.000511 0.025827 0.003483 0.001986
# 5 -0.003071 -0.001915 0.003423 0.003483 0.027958 0.000827
# 6 0.000729 -0.003137 0.000546 0.001986 0.000827 0.024429
#
#
# Mechanical properties :
#
#
# Convention : Reuss Voigt Hill
#
# Bulk Modulus (GPa) = 62.65575 68.19729 65.42652
# Shear Modulus (GPa) = 38.94434 42.19357 40.56895
#
# Velocity S-wave (km/s) = 4.23693 4.41014 4.32440
# Velocity P-wave (km/s) = 7.26752 7.57418 7.42243
#
# Compressibility (1/GPa) = 0.01596023
#
# Stress axis : x y z
#
# Youngs Moduli (GPa) = 117.28472 75.45624 115.89891
#
# Poissons Ratio (x) = 0.18947 0.28357
# Poissons Ratio (y) = 0.29450 0.26260
# Poissons Ratio (z) = 0.28696 0.17097
#
# Static dielectric constant tensor:
#      x y z
#    x 3.688940 -0.075250 0.417330 
#    y -0.075250 3.760590 0.272820 
#    z 0.417330 0.272820 3.338410 
# 
# 
# High freq. dielectric constant tensor:
#      x y z
#    x 1.865480 0.000920 -0.003000 
#    y 0.000920 1.841310 -0.002750 
#    z -0.003000 -0.002750 1.870730 
# 
# From -- ./inp_files/157712.got.cif
#   From: 2010.06.25/outbox.cif.g09.slc.cpg/sg2_79_cif.got.tgz:157712.got - 2010.06.27 13:26:56.
