data_PCOD8030543
_publ_section_title
;
Structure prediction by ZEFSAII (Michael W. Deem and Ramdas Pophale) SiO2 
 PCOD8030543
Probable space group: P -1
;
_chemical_formula_sum "Si O2"
_cell_formula_units_Z 14
_cell_length_a 7.787804
_cell_length_b 14.300385
_cell_length_c 15.187872
_cell_angle_alpha 143.012748
_cell_angle_beta 129.688002
_cell_angle_gamma 76.530344
_cell_volume 627.270387
_symmetry_space_group_name_H-M "P -1"
_symmetry_group_IT_number 2
_symmetry_cell_setting 'triclinic'
loop_
_space_group_symop_operation_xyz
x,y,z
-x,-y,-z
loop_
_atom_site_type_symbol
_atom_site_label
_atom_site_fract_x
_atom_site_fract_y
_atom_site_fract_z
Si Si1 0.623028 0.502690 0.170109
Si Si2 0.850416 0.527091 0.089607
Si Si3 0.692222 0.338176 0.242579
Si Si4 0.615476 0.076834 0.455892
Si Si5 0.615111 0.840077 0.412554
Si Si6 0.288846 0.946214 0.082428
Si Si7 0.658836 0.720395 0.748498
O O1 0.812811 0.485822 0.151696
O O2 0.615053 0.421020 0.200491
O O3 0.759582 0.734039 0.397735
O O4 0.318465 0.390687 0.940168
O O5 0.174288 0.689842 0.304144
O O6 0.719548 0.324060 0.843809
O O7 0.460047 0.270546 0.190057
O O8 0.000000 0.500000 0.500000
O O9 0.688022 0.158897 0.072549
O O10 0.361899 0.040386 0.404576
O O11 0.748025 0.982724 0.478523
O O12 0.508389 0.980360 0.253060
O O13 0.379414 0.156768 0.241685
O O14 0.986033 0.817658 0.932404
O O15 0.500000 0.500000 0.500000
#
# Coordination Sequence:
#
# PCOD8030543 Si02
#       7
#     2   2   2   2   2   2   2
#     4   9  22  41  62  95 135 172 228 270 337 417
#     4   9  20  41  61  90 134 174 217 272 341 404
#     4  12  25  46  75  99 137 189 233 285 349 405
#     4  11  22  37  68  97 131 175 222 285 340 406
#     4   9  21  39  58  96 133 169 224 267 338 419
#     4  11  27  46  70 108 135 180 242 282 347 420
#     4  11  26  49  71  97 143 180 230 293 345 402
#
# _framework density 22.318926000000001
#
# number of rings (size 3 to 8) (size 9 to 14) (size 15 to 20)
#    0.857    0.857    1.429    1.714    4.000    4.000 
#    2.571    0.000    0.000    0.000    0.000    0.000 
#    0.000    0.000    0.000    0.000    0.000    0.000 
#
# Total GULP energy -173457.287151 kJ/mol
# GULP energy per Si atom -12389.806225 kJ/mol
# Density = 2.226813 g / cm^3
# Si number density = 22.318926 Si / 1000 Ang^3
#
#
#
# Elastic Constant Matrix: (Units=GPa)
#
#
# Indices 1 2 3 4 5 6 
#
# 1 111.9432 34.2090 30.9708 0.1047 -14.2679 23.7117
# 2 34.2090 102.6237 24.4507 3.6524 0.0342 20.2037
# 3 30.9708 24.4507 88.4052 10.1973 -18.0867 18.4793
# 4 0.1047 3.6524 10.1973 32.8502 -1.8276 -8.8952
# 5 -14.2679 0.0342 -18.0867 -1.8276 31.0839 7.1625
# 6 23.7117 20.2037 18.4793 -8.8952 7.1625 31.6091
#
#
#
# Elastic Compliance Matrix: (Units=1/GPa)
#
#
# Indices 1 2 3 4 5 6 
#
# 1 0.012958 -0.002115 0.000490 -0.002545 0.008699 -0.011342
# 2 -0.002115 0.012007 -0.001053 -0.002686 -0.000338 -0.006151
# 3 0.000490 -0.001053 0.019038 -0.009535 0.014618 -0.016820
# 4 -0.002545 -0.002686 -0.009535 0.039244 -0.009571 0.022413
# 5 0.008699 -0.000338 0.014618 -0.009571 0.050804 -0.029061
# 6 -0.011342 -0.006151 -0.016820 0.022413 -0.029061 0.066802
#
#
# Mechanical properties :
#
#
# Convention : Reuss Voigt Hill
#
# Bulk Modulus (GPa) = 25.87704 53.58147 39.72925
# Shear Modulus (GPa) = 22.82150 33.33142 28.07646
#
# Velocity S-wave (km/s) = 3.20115 3.86867 3.55063
# Velocity P-wave (km/s) = 5.02818 6.63436 5.88631
#
# Compressibility (1/GPa) = 0.03864430
#
# Stress axis : x y z
#
# Youngs Moduli (GPa) = 77.17514 83.28354 52.52726
#
# Poissons Ratio (x) = 0.17618 -0.02572
# Poissons Ratio (y) = 0.16326 0.05532
# Poissons Ratio (z) = -0.03779 0.08772
#
# Static dielectric constant tensor:
#      x y z
#    x 3.850960 0.157310 -0.149800 
#    y 0.157310 3.937170 0.143570 
#    z -0.149800 0.143570 3.923720 
# 
# 
# High freq. dielectric constant tensor:
#      x y z
#    x 1.866650 0.016440 -0.020660 
#    y 0.016440 1.879420 0.012610 
#    z -0.020660 0.012610 1.872260 
# 
# From -- ./inp_files/504507.got.cif
#   From: 2010.06.25/outbox.cif.g09.slc.cpg/sg2_253_cif.got.tgz:504507.got - 2010.06.27 13:26:56.
