data_PCOD8030653
_publ_section_title
;
Structure prediction by ZEFSAII (Michael W. Deem and Ramdas Pophale) SiO2 
 PCOD8030653
Probable space group: P -1
;
_chemical_formula_sum "Si O2"
_cell_formula_units_Z 12
_cell_length_a 12.043582
_cell_length_b 21.120883
_cell_length_c 17.413582
_cell_angle_alpha 18.349765
_cell_angle_beta 31.780910
_cell_angle_gamma 23.355059
_cell_volume 544.689807
_symmetry_space_group_name_H-M "P -1"
_symmetry_group_IT_number 2
_symmetry_cell_setting 'triclinic'
loop_
_space_group_symop_operation_xyz
x,y,z
-x,-y,-z
loop_
_atom_site_type_symbol
_atom_site_label
_atom_site_fract_x
_atom_site_fract_y
_atom_site_fract_z
Si Si1 0.214549 0.086408 0.157003
Si Si2 0.617878 0.197985 0.775891
Si Si3 0.170074 0.890074 0.904994
Si Si4 0.133099 0.310740 0.521668
Si Si5 0.608845 0.663311 0.523614
Si Si6 0.642470 0.581181 0.871935
O O1 0.280209 0.921456 0.231339
O O2 0.302988 0.888357 0.404904
O O3 0.372068 0.200320 0.941521
O O4 0.877352 0.337921 0.071321
O O5 0.500000 0.500000 0.500000
O O6 0.880865 0.006776 0.899875
O O7 0.392497 0.844970 0.764857
O O8 0.106632 0.089475 0.779760
O O9 0.328757 0.601634 0.182029
O O10 0.379098 0.199774 0.566521
O O11 0.192220 0.371508 0.334838
O O12 0.838541 0.585195 0.413452
O O13 0.500000 0.500000 0.000000
#
# Coordination Sequence:
#
# PCOD8030653 Si02
#       6
#     2   2   2   2   2   2
#     4  11  23  40  62  94 131 164 213 264 317 374
#     4  11  22  39  66  96 123 167 220 264 306 376
#     4  12  24  43  69  96 129 170 215 259 323 383
#     4  11  23  42  67  96 128 170 213 263 320 377
#     4  11  23  41  67  95 133 167 208 266 323 378
#     4  12  23  45  66  92 130 175 212 262 320 377
#
# _framework density 22.030887
#
# number of rings (size 3 to 8) (size 9 to 14) (size 15 to 20)
#    0.000    0.667    3.333    7.000    0.000    2.000 
#    0.000    0.833    0.000    0.000    0.000    0.000 
#    0.000    0.000    0.000    0.000    0.000    0.000 
#
# Total GULP energy -148819.785149 kJ/mol
# GULP energy per Si atom -12401.648762 kJ/mol
# Density = 2.198074 g / cm^3
# Si number density = 22.030887 Si / 1000 Ang^3
#
#
#
# Elastic Constant Matrix: (Units=GPa)
#
#
# Indices 1 2 3 4 5 6 
#
# 1 140.8891 19.2070 67.6381 -22.8897 -1.0422 -22.1400
# 2 19.2070 76.0315 19.9212 -9.7314 3.0080 -13.7179
# 3 67.6381 19.9212 114.8346 -7.5946 -3.1434 -16.1575
# 4 -22.8897 -9.7314 -7.5946 29.0206 0.3108 7.2768
# 5 -1.0422 3.0080 -3.1434 0.3108 42.2911 -9.8317
# 6 -22.1400 -13.7179 -16.1575 7.2768 -9.8317 37.8617
#
#
#
# Elastic Compliance Matrix: (Units=1/GPa)
#
#
# Indices 1 2 3 4 5 6 
#
# 1 0.011506 0.000035 -0.005891 0.006773 0.000504 0.003056
# 2 0.000035 0.014779 -0.001819 0.003550 -0.000320 0.003834
# 3 -0.005891 -0.001819 0.012672 -0.002497 0.001446 0.002159
# 4 0.006773 0.003550 -0.002497 0.041402 -0.001547 -0.004177
# 5 0.000504 -0.000320 0.001446 -0.001547 0.025599 0.007740
# 6 0.003056 0.003834 0.002159 -0.004177 0.007740 0.033322
#
#
# Mechanical properties :
#
#
# Convention : Reuss Voigt Hill
#
# Bulk Modulus (GPa) = 42.36181 60.58753 51.47467
# Shear Modulus (GPa) = 30.76953 36.83396 33.80175
#
# Velocity S-wave (km/s) = 3.74124 4.09335 3.92125
# Velocity P-wave (km/s) = 6.15894 7.06411 6.62700
#
# Compressibility (1/GPa) = 0.02360617
#
# Stress axis : x y z
#
# Youngs Moduli (GPa) = 86.91390 67.66430 78.91401
#
# Poissons Ratio (x) = -0.00240 0.46491
# Poissons Ratio (y) = -0.00308 0.14357
# Poissons Ratio (z) = 0.51204 0.12310
#
# Static dielectric constant tensor:
#      x y z
#    x 4.218500 0.035790 0.043190 
#    y 0.035790 4.229860 0.004620 
#    z 0.043190 0.004620 3.996140 
# 
# 
# High freq. dielectric constant tensor:
#      x y z
#    x 1.879810 -0.003510 0.000130 
#    y -0.003510 1.854560 -0.001260 
#    z 0.000130 -0.001260 1.869420 
# 
# From -- ./inp_files/173704.got.cif
#   From: 2010.06.25/outbox.cif.g09.slc.cpg/sg2_87_cif.got.tgz:173704.got - 2010.06.27 13:26:56.
