data_PCOD8030249
_publ_section_title
;
Structure prediction by ZEFSAII (Michael W. Deem and Ramdas Pophale) SiO2 
 PCOD8030249
Probable space group: P -1
;
_chemical_formula_sum "Si O2"
_cell_formula_units_Z 16
_cell_length_a 9.273539
_cell_length_b 5.473357
_cell_length_c 18.028307
_cell_angle_alpha 117.187484
_cell_angle_beta 75.908758
_cell_angle_gamma 123.076631
_cell_volume 682.037340
_symmetry_space_group_name_H-M "P -1"
_symmetry_group_IT_number 2
_symmetry_cell_setting 'triclinic'
loop_
_space_group_symop_operation_xyz
x,y,z
-x,-y,-z
loop_
_atom_site_type_symbol
_atom_site_label
_atom_site_fract_x
_atom_site_fract_y
_atom_site_fract_z
Si Si1 0.222582 0.708801 0.213461
Si Si2 0.201150 0.637007 0.494689
Si Si3 0.552045 0.794258 0.245934
Si Si4 0.380928 0.391759 0.339037
Si Si5 0.845498 0.467868 0.252647
Si Si6 0.386590 0.666616 0.047727
Si Si7 0.300755 0.352330 0.582960
Si Si8 0.339862 0.636292 0.886743
O O1 0.355582 0.711194 0.255455
O O2 0.238751 0.547828 0.112222
O O3 0.029137 0.488761 0.236481
O O4 0.270405 0.078233 0.258183
O O5 0.252522 0.507416 0.398200
O O6 0.247785 0.496108 0.540853
O O7 0.000000 0.500000 0.500000
O O8 0.295980 0.018346 0.525198
O O9 0.549794 0.655144 0.307703
O O10 0.582408 0.595892 0.150970
O O11 0.698367 0.152771 0.267202
O O12 0.497211 0.373547 0.389057
O O13 0.836523 0.725086 0.342338
O O14 0.813784 0.497613 0.172876
O O15 0.516237 0.018523 0.110545
O O16 0.500000 0.500000 0.000000
O O17 0.290614 0.659906 0.981569
#
# Coordination Sequence:
#
# PCOD8030249 Si02
#       8
#     2   2   2   2   2   2   2   2
#     4  12  26  44  74 107 140 197 244 301 368 443
#     4  12  29  47  73 114 152 191 254 316 372 446
#     4  12  22  47  69 103 145 192 238 303 363 440
#     4  12  26  47  75 103 146 200 248 294 379 446
#     4  12  26  44  72 109 146 187 250 303 366 436
#     4  11  21  43  72 101 141 191 239 296 370 437
#     4  12  25  48  74 107 151 201 244 310 377 445
#     4  11  22  43  73  97 147 188 238 303 362 439
#
# _framework density 23.459125
#
# number of rings (size 3 to 8) (size 9 to 14) (size 15 to 20)
#    0.000    0.250    6.250    2.625    3.500    1.500 
#    0.000    2.500    0.000    0.000    0.000    0.000 
#    0.000    0.000    0.000    0.000    0.000    0.000 
#
# Total GULP energy -198220.935854 kJ/mol
# GULP energy per Si atom -12388.808491 kJ/mol
# Density = 2.340573 g / cm^3
# Si number density = 23.459125 Si / 1000 Ang^3
#
#
#
# Elastic Constant Matrix: (Units=GPa)
#
#
# Indices 1 2 3 4 5 6 
#
# 1 121.8920 40.4047 37.9439 1.7775 -13.1920 9.1466
# 2 40.4047 63.3500 23.1630 0.8089 3.5504 -13.1659
# 3 37.9439 23.1630 119.7952 7.1404 -12.8135 -2.0012
# 4 1.7775 0.8089 7.1404 27.9289 -6.7595 -6.0223
# 5 -13.1920 3.5504 -12.8135 -6.7595 42.5495 -3.3330
# 6 9.1466 -13.1659 -2.0012 -6.0223 -3.3330 35.1446
#
#
#
# Elastic Compliance Matrix: (Units=1/GPa)
#
#
# Indices 1 2 3 4 5 6 
#
# 1 0.012632 -0.008865 -0.001990 -0.000604 0.003452 -0.006498
# 2 -0.008865 0.024906 -0.002394 0.001860 -0.004359 0.011407
# 3 -0.001990 -0.002394 0.009788 -0.001739 0.002262 0.000095
# 4 -0.000604 0.001860 -0.001739 0.039438 0.006032 0.008085
# 5 0.003452 -0.004359 0.002262 0.006032 0.026666 0.001160
# 6 -0.006498 0.011407 0.000095 0.008085 0.001160 0.035919
#
#
# Mechanical properties :
#
#
# Convention : Reuss Voigt Hill
#
# Bulk Modulus (GPa) = 48.01541 56.45114 52.23328
# Shear Modulus (GPa) = 27.35356 34.69298 31.02327
#
# Velocity S-wave (km/s) = 3.41839 3.84978 3.64048
# Velocity P-wave (km/s) = 6.00772 6.62397 6.32335
#
# Compressibility (1/GPa) = 0.02082665
#
# Stress axis : x y z
#
# Youngs Moduli (GPa) = 79.16243 40.15060 102.16544
#
# Poissons Ratio (x) = 0.35595 0.20334
# Poissons Ratio (y) = 0.70181 0.24461
# Poissons Ratio (z) = 0.15756 0.09613
#
# Static dielectric constant tensor:
#      x y z
#    x 4.133290 -0.202590 -0.129630 
#    y -0.202590 4.005550 0.140050 
#    z -0.129630 0.140050 4.751910 
# 
# 
# High freq. dielectric constant tensor:
#      x y z
#    x 1.926710 -0.017590 -0.004040 
#    y -0.017590 1.907940 0.002870 
#    z -0.004040 0.002870 1.954900 
# 
# From -- ./inp_files/553838.got.cif
#   From: 2010.06.25/outbox.cif.g09.slc.cpg/sg2_277_cif.got.tgz:553838.got - 2010.06.27 13:26:56.
