data_PCOD8030013
_publ_section_title
;
Structure prediction by ZEFSAII (Michael W. Deem and Ramdas Pophale) SiO2 
 PCOD8030013
Probable space group: P -1
;
_chemical_formula_sum "Si O2"
_cell_formula_units_Z 16
_cell_length_a 12.947643
_cell_length_b 9.471265
_cell_length_c 12.021827
_cell_angle_alpha 76.292560
_cell_angle_beta 124.890315
_cell_angle_gamma 71.568283
_cell_volume 967.824339
_symmetry_space_group_name_H-M "P -1"
_symmetry_group_IT_number 2
_symmetry_cell_setting 'triclinic'
loop_
_space_group_symop_operation_xyz
x,y,z
-x,-y,-z
loop_
_atom_site_type_symbol
_atom_site_label
_atom_site_fract_x
_atom_site_fract_y
_atom_site_fract_z
Si Si1 0.533625 0.392283 0.877658
Si Si2 0.555422 0.560141 0.422214
Si Si3 0.256165 0.204675 0.678998
Si Si4 0.201076 0.263297 0.887010
Si Si5 0.122421 0.581365 0.424630
Si Si6 0.272487 0.538098 0.871474
Si Si7 0.570483 0.097642 0.826445
Si Si8 0.007794 0.825310 0.515008
O O1 0.476677 0.498010 0.705203
O O2 0.391875 0.479748 0.856695
O O3 0.587347 0.191010 0.928099
O O4 0.674712 0.394916 0.007082
O O5 0.500000 0.500000 0.500000
O O6 0.737974 0.464573 0.560798
O O7 0.462590 0.776010 0.324671
O O8 0.269726 0.184807 0.823224
O O9 0.169481 0.412527 0.560060
O O10 0.424385 0.087565 0.752350
O O11 0.161702 0.130958 0.585935
O O12 0.255911 0.386247 0.935878
O O13 0.017827 0.366130 0.753490
O O14 0.276670 0.099450 0.051802
O O15 0.075555 0.741141 0.450680
O O16 0.107296 0.693561 0.699460
O O17 0.000000 0.000000 0.500000
#
# Coordination Sequence:
#
# PCOD8030013 Si02
#       8
#     2   2   2   2   2   2   2   2
#     4   9  20  30  48  75 103 129 167 197 259 300
#     4   9  18  38  58  69  93 132 182 217 241 285
#     4  10  17  31  47  69 109 138 169 189 243 310
#     4  11  17  28  50  70 108 131 158 207 249 302
#     4  10  18  34  49  76  97 139 177 195 248 303
#     4  11  18  30  45  75 115 130 147 204 265 308
#     4   9  19  31  48  79  90 130 181 200 241 299
#     4  11  20  27  45  75 111 139 159 194 247 310
#
# _framework density 16.531925999999999
#
# number of rings (size 3 to 8) (size 9 to 14) (size 15 to 20)
#    0.750    1.250    5.000    1.125    3.500    1.000 
#    0.000    0.625    0.000    1.500    0.000    0.000 
#    0.000    0.000    0.000    0.000    0.000    0.000 
#
# Total GULP energy -198273.788522 kJ/mol
# GULP energy per Si atom -12392.111783 kJ/mol
# Density = 1.649430 g / cm^3
# Si number density = 16.531926 Si / 1000 Ang^3
#
#
#
# Elastic Constant Matrix: (Units=GPa)
#
#
# Indices 1 2 3 4 5 6 
#
# 1 85.5015 27.3318 48.1923 1.3161 1.2764 19.8006
# 2 27.3318 85.5284 31.6218 0.3783 7.9721 24.1060
# 3 48.1923 31.6218 80.7452 -9.2284 18.3728 13.2066
# 4 1.3161 0.3783 -9.2284 28.9501 7.7451 6.8465
# 5 1.2764 7.9721 18.3728 7.7451 25.3361 3.5422
# 6 19.8006 24.1060 13.2066 6.8465 3.5422 20.8974
#
#
#
# Elastic Compliance Matrix: (Units=1/GPa)
#
#
# Indices 1 2 3 4 5 6 
#
# 1 0.023553 0.000924 -0.016325 -0.007002 0.014347 -0.013204
# 2 0.000924 0.018918 -0.003614 0.004070 -0.001620 -0.021473
# 3 -0.016325 -0.003614 0.032147 0.018736 -0.026760 -0.002281
# 4 -0.007002 0.004070 0.018736 0.053575 -0.027710 -0.022756
# 5 0.014347 -0.001620 -0.026760 -0.027710 0.066720 0.002956
# 6 -0.013204 -0.021473 -0.002281 -0.022756 0.002956 0.093530
#
#
# Mechanical properties :
#
#
# Convention : Reuss Voigt Hill
#
# Bulk Modulus (GPa) = 27.33120 51.78523 39.55822
# Shear Modulus (GPa) = 14.76372 24.67868 19.72120
#
# Velocity S-wave (km/s) = 2.99162 3.86785 3.45761
# Velocity P-wave (km/s) = 5.33867 7.16516 6.31826
#
# Compressibility (1/GPa) = 0.03658822
#
# Stress axis : x y z
#
# Youngs Moduli (GPa) = 42.45755 52.85892 31.10731
#
# Poissons Ratio (x) = -0.04884 0.50782
# Poissons Ratio (y) = -0.03923 0.11243
# Poissons Ratio (z) = 0.69310 0.19105
#
# Static dielectric constant tensor:
#      x y z
#    x 2.860560 0.267080 0.360380 
#    y 0.267080 3.046900 0.003780 
#    z 0.360380 0.003780 3.168460 
# 
# 
# High freq. dielectric constant tensor:
#      x y z
#    x 1.603830 0.027890 0.033050 
#    y 0.027890 1.619060 -0.008880 
#    z 0.033050 -0.008880 1.635390 
# 
# From -- ./inp_files/303978.got.cif
#   From: 2010.06.25/outbox.cif.g09.slc.cpg/sg2_152_cif.got.tgz:303978.got - 2010.06.27 13:26:56.
