data_PCOD8030417
_publ_section_title
;
Structure prediction by ZEFSAII (Michael W. Deem and Ramdas Pophale) SiO2 
 PCOD8030417
Probable space group: P -1
;
_chemical_formula_sum "Si O2"
_cell_formula_units_Z 16
_cell_length_a 8.617251
_cell_length_b 8.709940
_cell_length_c 25.341498
_cell_angle_alpha 43.907744
_cell_angle_beta 140.398419
_cell_angle_gamma 107.856776
_cell_volume 695.439862
_symmetry_space_group_name_H-M "P -1"
_symmetry_group_IT_number 2
_symmetry_cell_setting 'triclinic'
loop_
_space_group_symop_operation_xyz
x,y,z
-x,-y,-z
loop_
_atom_site_type_symbol
_atom_site_label
_atom_site_fract_x
_atom_site_fract_y
_atom_site_fract_z
Si Si1 0.908562 0.686205 0.235855
Si Si2 0.425769 0.581371 0.792718
Si Si3 0.956029 0.180095 0.547026
Si Si4 0.098764 0.361120 0.639450
Si Si5 0.140963 0.388283 0.170829
Si Si6 0.072403 0.842678 0.908049
Si Si7 0.645722 0.713575 0.633907
Si Si8 0.787706 0.972220 0.912663
O O1 0.647134 0.639513 0.181085
O O2 0.050592 0.613475 0.349638
O O3 0.145095 0.505505 0.299119
O O4 0.792666 0.992618 0.117194
O O5 0.574925 0.614190 0.772407
O O6 0.132149 0.866271 0.658337
O O7 0.662193 0.460814 0.932121
O O8 0.049805 0.335862 0.495638
O O9 0.611442 0.326142 0.409848
O O10 0.018330 0.203189 0.618461
O O11 0.450056 0.200688 0.777868
O O12 0.115877 0.175188 0.183423
O O13 0.175607 0.312592 0.260214
O O14 0.846264 0.683539 0.011775
O O15 0.862511 0.990064 0.866992
O O16 0.500000 0.000000 0.500000
O O17 0.000000 0.000000 0.000000
#
# Coordination Sequence:
#
# PCOD8030417 Si02
#       8
#     2   2   2   2   2   2   2   2
#     4  12  26  43  67 101 139 173 230 282 350 393
#     4  11  23  44  72 101 134 179 226 277 334 418
#     4  11  24  46  68  95 141 178 235 269 342 408
#     4  11  25  42  70 104 131 183 224 287 327 413
#     4  11  25  44  73  97 137 186 229 279 336 411
#     4  11  24  43  71 108 138 172 225 287 345 400
#     4  12  27  46  65  95 136 182 226 280 347 402
#     4  11  21  45  72 104 139 181 229 273 341 409
#
# _framework density 23.007019
#
# number of rings (size 3 to 8) (size 9 to 14) (size 15 to 20)
#    0.000    0.750    1.250    7.875    3.500    3.500 
#    0.000    1.875    0.000    0.000    0.000    0.000 
#    0.000    0.000    0.000    0.000    0.000    0.000 
#
# Total GULP energy -198422.490916 kJ/mol
# GULP energy per Si atom -12401.405682 kJ/mol
# Density = 2.295465 g / cm^3
# Si number density = 23.007019 Si / 1000 Ang^3
#
#
#
# Elastic Constant Matrix: (Units=GPa)
#
#
# Indices 1 2 3 4 5 6 
#
# 1 107.4179 49.3069 44.5854 -0.3179 -20.4188 -23.2762
# 2 49.3069 119.0104 42.2341 0.5476 -13.4421 -15.2365
# 3 44.5854 42.2341 83.1376 3.4998 -9.6203 -12.5289
# 4 -0.3179 0.5476 3.4998 32.9720 0.8780 -12.7296
# 5 -20.4188 -13.4421 -9.6203 0.8780 43.3856 5.7963
# 6 -23.2762 -15.2365 -12.5289 -12.7296 5.7963 44.1359
#
#
#
# Elastic Compliance Matrix: (Units=1/GPa)
#
#
# Indices 1 2 3 4 5 6 
#
# 1 0.014911 -0.003175 -0.005190 0.002786 0.004083 0.005561
# 2 -0.003175 0.011324 -0.003778 0.000623 0.001002 0.001210
# 3 -0.005190 -0.003778 0.016852 -0.001687 0.000126 0.000240
# 4 0.002786 0.000623 -0.001687 0.034969 -0.001106 0.011436
# 5 0.004083 0.001002 0.000126 -0.001106 0.025483 -0.001130
# 6 0.005561 0.001210 0.000240 0.011436 -0.001130 0.029523
#
#
# Mechanical properties :
#
#
# Convention : Reuss Voigt Hill
#
# Bulk Modulus (GPa) = 53.18818 64.64651 58.91735
# Shear Modulus (GPa) = 30.55963 35.66133 33.11048
#
# Velocity S-wave (km/s) = 3.64850 3.94130 3.79772
# Velocity P-wave (km/s) = 6.39666 6.99081 6.70032
#
# Compressibility (1/GPa) = 0.01880117
#
# Stress axis : x y z
#
# Youngs Moduli (GPa) = 67.06590 88.30733 59.33921
#
# Poissons Ratio (x) = 0.28041 0.30797
# Poissons Ratio (y) = 0.21296 0.22416
# Poissons Ratio (z) = 0.34807 0.33359
#
# Static dielectric constant tensor:
#      x y z
#    x 4.172130 -0.009520 -0.147510 
#    y -0.009520 4.358470 -0.163950 
#    z -0.147510 -0.163950 4.528530 
# 
# 
# High freq. dielectric constant tensor:
#      x y z
#    x 1.904950 -0.005960 -0.013770 
#    y -0.005960 1.920070 -0.003530 
#    z -0.013770 -0.003530 1.908400 
# 
# From -- ./inp_files/226123.got.cif
#   From: 2010.06.25/outbox.cif.g09.slc.cpg/sg2_114_cif.got.tgz:226123.got - 2010.06.27 13:26:56.
