data_PCOD8030927
_publ_section_title
;
Structure prediction by ZEFSAII (Michael W. Deem and Ramdas Pophale) SiO2 
 PCOD8030927
Probable space group: P -1
;
_chemical_formula_sum "Si O2"
_cell_formula_units_Z 16
_cell_length_a 15.490664
_cell_length_b 9.257424
_cell_length_c 11.596757
_cell_angle_alpha 116.189039
_cell_angle_beta 63.905530
_cell_angle_gamma 148.071534
_cell_volume 781.711814
_symmetry_space_group_name_H-M "P -1"
_symmetry_group_IT_number 2
_symmetry_cell_setting 'triclinic'
loop_
_space_group_symop_operation_xyz
x,y,z
-x,-y,-z
loop_
_atom_site_type_symbol
_atom_site_label
_atom_site_fract_x
_atom_site_fract_y
_atom_site_fract_z
Si Si1 0.057767 0.217498 0.626046
Si Si2 0.982675 0.009462 0.197970
Si Si3 0.572918 0.939667 0.997299
Si Si4 0.113343 0.692457 0.206047
Si Si5 0.759773 0.113144 0.165116
Si Si6 0.687399 0.239575 0.449666
Si Si7 0.905517 0.507465 0.625388
Si Si8 0.739449 0.708927 0.029034
O O1 0.241448 0.520542 0.587749
O O2 0.932302 0.195444 0.676290
O O3 0.000000 0.000000 0.500000
O O4 0.062836 0.177338 0.741825
O O5 0.975507 0.179082 0.312655
O O6 0.165409 0.219993 0.116546
O O7 0.845809 0.800042 0.107948
O O8 0.434871 0.615371 0.972455
O O9 0.726906 0.076807 0.885482
O O10 0.500000 0.000000 0.000000
O O11 0.647835 0.068453 0.127481
O O12 0.163208 0.644938 0.265569
O O13 0.955767 0.403727 0.127817
O O14 0.727642 0.126246 0.320696
O O15 0.710595 0.860382 0.093214
O O16 0.756879 0.354195 0.577287
O O17 0.500000 0.000000 0.500000
O O18 0.000000 0.500000 0.500000
#
# Coordination Sequence:
#
# PCOD8030927 Si02
#       8
#     2   2   2   2   2   2   2   2
#     4  11  22  41  67  99 129 173 219 268 329 395
#     4  11  23  40  70  96 132 171 227 264 330 401
#     4  12  28  41  66 102 137 169 225 282 331 383
#     4  11  24  42  70  97 133 179 218 275 331 401
#     4  11  24  47  66  94 136 179 222 264 341 403
#     4  11  26  40  70 100 130 171 216 278 328 386
#     4  12  20  45  68  95 130 175 221 261 327 404
#     4  11  25  43  67  97 129 180 216 277 331 388
#
# _framework density 20.467901000000001
#
# number of rings (size 3 to 8) (size 9 to 14) (size 15 to 20)
#    0.000    0.750    5.000    2.250    8.750    1.000 
#    0.000    0.000    0.000    4.500    0.000    0.000 
#    0.000    0.000    0.000    0.000    0.000    0.000 
#
# Total GULP energy -198396.454265 kJ/mol
# GULP energy per Si atom -12399.778392 kJ/mol
# Density = 2.042132 g / cm^3
# Si number density = 20.467901 Si / 1000 Ang^3
#
#
#
# Elastic Constant Matrix: (Units=GPa)
#
#
# Indices 1 2 3 4 5 6 
#
# 1 94.0220 55.9820 39.1824 -6.7605 17.5536 -14.9305
# 2 55.9820 173.5879 66.9136 -14.4029 -5.8313 3.7826
# 3 39.1824 66.9136 92.1175 3.1063 10.4548 -0.9833
# 4 -6.7605 -14.4029 3.1063 33.9944 -3.7496 -7.4359
# 5 17.5536 -5.8313 10.4548 -3.7496 47.0197 2.2136
# 6 -14.9305 3.7826 -0.9833 -7.4359 2.2136 34.1070
#
#
#
# Elastic Compliance Matrix: (Units=1/GPa)
#
#
# Indices 1 2 3 4 5 6 
#
# 1 0.017728 -0.004512 -0.003528 0.003244 -0.006572 0.009293
# 2 -0.004512 0.010119 -0.006129 0.003874 0.004740 -0.002737
# 3 -0.003528 -0.006129 0.017402 -0.005589 -0.003695 -0.001342
# 4 0.003244 0.003874 -0.005589 0.034307 0.002865 0.008123
# 5 -0.006572 0.004740 -0.003695 0.002865 0.025573 -0.004544
# 6 0.009293 -0.002737 -0.001342 0.008123 -0.004544 0.035718
#
#
# Mechanical properties :
#
#
# Convention : Reuss Voigt Hill
#
# Bulk Modulus (GPa) = 59.12949 75.98703 67.55826
# Shear Modulus (GPa) = 28.60077 36.20086 32.40082
#
# Velocity S-wave (km/s) = 3.74217 4.21011 3.98302
# Velocity P-wave (km/s) = 6.90097 7.79993 7.36418
#
# Compressibility (1/GPa) = 0.01691203
#
# Stress axis : x y z
#
# Youngs Moduli (GPa) = 56.40706 98.82868 57.46555
#
# Poissons Ratio (x) = 0.44587 0.20273
# Poissons Ratio (y) = 0.25448 0.35220
# Poissons Ratio (z) = 0.19900 0.60570
#
# Static dielectric constant tensor:
#      x y z
#    x 3.462270 -0.047030 0.856330 
#    y -0.047030 3.783280 0.079500 
#    z 0.856330 0.079500 2.472630 
# 
# 
# High freq. dielectric constant tensor:
#      x y z
#    x 1.803490 -0.007630 0.008910 
#    y -0.007630 1.800560 0.003400 
#    z 0.008910 0.003400 1.813540 
# 
# From -- ./inp_files/216401.got.cif
#   From: 2010.06.25/outbox.cif.g09.slc.cpg/sg2_109_cif.got.tgz:216401.got - 2010.06.27 13:26:56.
