data_PCOD8030380
_publ_section_title
;
Structure prediction by ZEFSAII (Michael W. Deem and Ramdas Pophale) SiO2 
 PCOD8030380
Probable space group: P -1
;
_chemical_formula_sum "Si O2"
_cell_formula_units_Z 16
_cell_length_a 8.275888
_cell_length_b 15.838776
_cell_length_c 15.194073
_cell_angle_alpha 154.309443
_cell_angle_beta 59.371518
_cell_angle_gamma 112.457203
_cell_volume 726.894836
_symmetry_space_group_name_H-M "P -1"
_symmetry_group_IT_number 2
_symmetry_cell_setting 'triclinic'
loop_
_space_group_symop_operation_xyz
x,y,z
-x,-y,-z
loop_
_atom_site_type_symbol
_atom_site_label
_atom_site_fract_x
_atom_site_fract_y
_atom_site_fract_z
Si Si1 0.330135 0.512156 0.309594
Si Si2 0.415206 0.852463 0.185450
Si Si3 0.305857 0.901413 0.596845
Si Si4 0.682010 0.871638 0.680786
Si Si5 0.902798 0.127469 0.962749
Si Si6 0.364999 0.656562 0.620985
Si Si7 0.979207 0.495316 0.758829
Si Si8 0.306661 0.666314 0.205310
O O1 0.412595 0.701626 0.429837
O O2 0.293776 0.537294 0.447626
O O3 0.143607 0.493865 0.287169
O O4 0.494122 0.316189 0.067670
O O5 0.279033 0.765715 0.209721
O O6 0.585240 0.917549 0.255458
O O7 0.302969 0.042378 0.341149
O O8 0.295591 0.848800 0.447702
O O9 0.095521 0.956834 0.753523
O O10 0.473120 0.828174 0.718386
O O11 0.830236 0.667591 0.460272
O O12 0.727406 0.038579 0.891013
O O13 0.831150 0.230358 0.171961
O O14 0.957465 0.297458 0.044063
O O15 0.500000 0.500000 0.500000
O O16 0.864364 0.445495 0.829395
O O17 0.500000 0.500000 0.000000
#
# Coordination Sequence:
#
# PCOD8030380 Si02
#       8
#     2   2   2   2   2   2   2   2
#     4  11  23  46  69 103 136 181 238 285 333 413
#     4  12  24  42  75 102 139 185 229 286 349 407
#     4  11  22  44  70 104 136 178 238 287 332 415
#     4  12  26  46  67 104 146 175 233 289 348 411
#     4  12  24  46  70  98 142 188 227 289 342 404
#     4  12  26  46  73  99 140 191 227 286 358 405
#     4  11  24  46  68 102 144 173 233 290 336 409
#     4  11  21  44  76 100 136 186 232 280 346 411
#
# _framework density 22.011437000000001
#
# number of rings (size 3 to 8) (size 9 to 14) (size 15 to 20)
#    0.000    0.500    8.750    1.500    0.000    1.500 
#    0.000    0.625    0.000    0.000    0.000    0.000 
#    0.000    0.000    0.000    0.000    0.000    0.000 
#
# Total GULP energy -198386.083826 kJ/mol
# GULP energy per Si atom -12399.130239 kJ/mol
# Density = 2.196134 g / cm^3
# Si number density = 22.011437 Si / 1000 Ang^3
#
#
#
# Elastic Constant Matrix: (Units=GPa)
#
#
# Indices 1 2 3 4 5 6 
#
# 1 49.5087 15.1856 19.7025 2.4283 0.4134 4.1377
# 2 15.1856 90.2125 15.4118 6.8549 5.1199 3.7391
# 3 19.7025 15.4118 109.9470 -6.3955 7.0711 5.2789
# 4 2.4283 6.8549 -6.3955 41.7700 5.9342 0.7357
# 5 0.4134 5.1199 7.0711 5.9342 27.6058 5.7658
# 6 4.1377 3.7391 5.2789 0.7357 5.7658 43.3795
#
#
#
# Elastic Compliance Matrix: (Units=1/GPa)
#
#
# Indices 1 2 3 4 5 6 
#
# 1 0.022871 -0.003115 -0.003800 -0.001642 0.001912 -0.001677
# 2 -0.003115 0.012031 -0.001119 -0.001753 -0.001441 -0.000382
# 3 -0.003800 -0.001119 0.010273 0.002381 -0.002782 -0.000462
# 4 -0.001642 -0.001753 0.002381 0.025509 -0.005818 0.000359
# 5 0.001912 -0.001441 -0.002782 -0.005818 0.039442 -0.004863
# 6 -0.001677 -0.000382 -0.000462 0.000359 -0.004863 0.023942
#
#
# Mechanical properties :
#
#
# Convention : Reuss Voigt Hill
#
# Bulk Modulus (GPa) = 34.35604 38.91868 36.63736
# Shear Modulus (GPa) = 31.28175 35.84228 33.56201
#
# Velocity S-wave (km/s) = 3.77392 4.03966 3.90905
# Velocity P-wave (km/s) = 5.88490 6.28315 6.08728
#
# Compressibility (1/GPa) = 0.02910696
#
# Stress axis : x y z
#
# Youngs Moduli (GPa) = 43.72389 83.11617 97.34547
#
# Poissons Ratio (x) = 0.25890 0.36989
# Poissons Ratio (y) = 0.13620 0.10895
# Poissons Ratio (z) = 0.16614 0.09303
#
# Static dielectric constant tensor:
#      x y z
#    x 3.813580 0.138080 0.158440 
#    y 0.138080 4.096150 0.043910 
#    z 0.158440 0.043910 4.130690 
# 
# 
# High freq. dielectric constant tensor:
#      x y z
#    x 1.844980 0.007140 0.007040 
#    y 0.007140 1.865790 0.011840 
#    z 0.007040 0.011840 1.880930 
# 
# From -- ./inp_files/505712.got.cif
#   From: 2010.06.25/outbox.cif.g09.slc.cpg/sg2_253_cif.got.tgz:505712.got - 2010.06.27 13:26:56.
