data_PCOD8030805
_publ_section_title
;
Structure prediction by ZEFSAII (Michael W. Deem and Ramdas Pophale) SiO2 
 PCOD8030805
Probable space group: P -1
;
_chemical_formula_sum "Si O2"
_cell_formula_units_Z 12
_cell_length_a 11.178275
_cell_length_b 8.434421
_cell_length_c 9.266044
_cell_angle_alpha 81.805109
_cell_angle_beta 91.872695
_cell_angle_gamma 37.043759
_cell_volume 504.962049
_symmetry_space_group_name_H-M "P -1"
_symmetry_group_IT_number 2
_symmetry_cell_setting 'triclinic'
loop_
_space_group_symop_operation_xyz
x,y,z
-x,-y,-z
loop_
_atom_site_type_symbol
_atom_site_label
_atom_site_fract_x
_atom_site_fract_y
_atom_site_fract_z
Si Si1 0.898058 0.177029 0.328940
Si Si2 0.443686 0.672629 0.760989
Si Si3 0.182000 0.422925 0.622829
Si Si4 0.743994 0.055510 0.801666
Si Si5 0.352039 0.028844 0.924025
Si Si6 0.299532 0.055197 0.471059
O O1 0.777357 0.169910 0.241836
O O2 0.736850 0.492073 0.331391
O O3 0.000000 0.000000 0.500000
O O4 0.048582 0.096750 0.232125
O O5 0.609238 0.355128 0.794839
O O6 0.487782 0.742914 0.887904
O O7 0.436597 0.778551 0.598064
O O8 0.325869 0.208505 0.519290
O O9 0.943727 0.707892 0.534192
O O10 0.198083 0.273305 0.770173
O O11 0.651676 0.027917 0.684287
O O12 0.783079 0.907673 0.964736
O O13 0.500000 0.000000 0.000000
#
# Coordination Sequence:
#
# PCOD8030805 Si02
#       6
#     2   2   2   2   2   2
#     4  11  22  40  69 102 129 169 213 276 331 378
#     4  11  22  44  68  95 140 163 220 280 318 391
#     4   9  19  39  62  90 134 163 216 266 315 382
#     4  11  23  41  68 101 132 173 222 256 338 396
#     4  11  25  45  63  94 136 181 214 270 327 390
#     4   9  19  37  64  97 121 175 211 268 322 371
#
# _framework density 23.764161000000001
#
# number of rings (size 3 to 8) (size 9 to 14) (size 15 to 20)
#    0.000    1.667    3.333    2.000    0.000    3.333 
#    3.000    4.167    0.000    0.000    0.000    0.000 
#    0.000    0.000    0.000    0.000    0.000    0.000 
#
# Total GULP energy -148712.665116 kJ/mol
# GULP energy per Si atom -12392.722093 kJ/mol
# Density = 2.371007 g / cm^3
# Si number density = 23.764161 Si / 1000 Ang^3
#
#
#
# Elastic Constant Matrix: (Units=GPa)
#
#
# Indices 1 2 3 4 5 6 
#
# 1 89.1194 43.9924 29.4099 13.4088 9.7447 36.2981
# 2 43.9924 122.4133 53.2080 13.0439 -0.7717 35.5914
# 3 29.4099 53.2080 117.6494 16.3519 -10.9124 18.1086
# 4 13.4088 13.0439 16.3519 35.5326 9.0376 4.4262
# 5 9.7447 -0.7717 -10.9124 9.0376 41.3352 9.0716
# 6 36.2981 35.5914 18.1086 4.4262 9.0716 42.7641
#
#
#
# Elastic Compliance Matrix: (Units=1/GPa)
#
#
# Indices 1 2 3 4 5 6 
#
# 1 0.018597 -0.001921 -0.001356 -0.003791 -0.001099 -0.012986
# 2 -0.001921 0.012953 -0.003771 -0.001785 0.001790 -0.007748
# 3 -0.001356 -0.003771 0.011794 -0.004556 0.004625 -0.001214
# 4 -0.003791 -0.001785 -0.004556 0.033958 -0.008864 0.004998
# 5 -0.001099 0.001790 0.004625 -0.008864 0.029362 -0.007826
# 6 -0.012986 -0.007748 -0.001214 0.004998 -0.007826 0.042512
#
#
# Mechanical properties :
#
#
# Convention : Reuss Voigt Hill
#
# Bulk Modulus (GPa) = 34.19263 64.71141 49.45202
# Shear Modulus (GPa) = 28.89855 37.43116 33.16486
#
# Velocity S-wave (km/s) = 3.49098 3.97307 3.73980
# Velocity P-wave (km/s) = 5.53794 6.95247 6.28513
#
# Compressibility (1/GPa) = 0.02924607
#
# Stress axis : x y z
#
# Youngs Moduli (GPa) = 53.77353 77.20454 84.79205
#
# Poissons Ratio (x) = 0.14830 0.11499
# Poissons Ratio (y) = 0.10330 0.31977
# Poissons Ratio (z) = 0.07293 0.29115
#
# Static dielectric constant tensor:
#      x y z
#    x 4.637130 0.651340 0.185550 
#    y 0.651340 4.657320 0.188330 
#    z 0.185550 0.188330 4.316920 
# 
# 
# High freq. dielectric constant tensor:
#      x y z
#    x 1.944740 0.030570 0.003550 
#    y 0.030570 1.952850 0.005730 
#    z 0.003550 0.005730 1.936530 
# 
# From -- ./inp_files/160603.got.cif
#   From: 2010.06.25/outbox.cif.g09.slc.cpg/sg2_81_cif.got.tgz:160603.got - 2010.06.27 13:26:56.
