data_PCOD8030393
_publ_section_title
;
Structure prediction by ZEFSAII (Michael W. Deem and Ramdas Pophale) SiO2 
 PCOD8030393
Probable space group: P -1
;
_chemical_formula_sum "Si O2"
_cell_formula_units_Z 14
_cell_length_a 12.380705
_cell_length_b 13.270927
_cell_length_c 15.710920
_cell_angle_alpha 26.800896
_cell_angle_beta 36.928121
_cell_angle_gamma 45.623890
_cell_volume 698.338290
_symmetry_space_group_name_H-M "P -1"
_symmetry_group_IT_number 2
_symmetry_cell_setting 'triclinic'
loop_
_space_group_symop_operation_xyz
x,y,z
-x,-y,-z
loop_
_atom_site_type_symbol
_atom_site_label
_atom_site_fract_x
_atom_site_fract_y
_atom_site_fract_z
Si Si1 0.387459 0.210277 0.935878
Si Si2 0.286345 0.746198 0.827456
Si Si3 0.457181 0.292177 0.020070
Si Si4 0.333138 0.407766 0.539070
Si Si5 0.111843 0.161934 0.007354
Si Si6 0.516722 0.978827 0.366992
Si Si7 0.147314 0.656898 0.334417
O O1 0.361102 0.218342 0.048025
O O2 0.490725 0.436748 0.665572
O O3 0.191489 0.186828 0.033614
O O4 0.500000 0.000000 0.000000
O O5 0.369285 0.507063 0.951396
O O6 0.357083 0.910430 0.584094
O O7 0.071724 0.712829 0.978994
O O8 0.337401 0.851835 0.807277
O O9 0.669437 0.340871 0.836544
O O10 0.426017 0.092601 0.257521
O O11 0.382629 0.238354 0.560952
O O12 0.181969 0.563026 0.478072
O O13 0.262255 0.275103 0.765645
O O14 0.074750 0.903704 0.200507
O O15 0.000000 0.500000 0.500000
#
# Coordination Sequence:
#
# PCOD8030393 Si02
#       7
#     2   2   2   2   2   2   2
#     4  11  21  45  68  94 130 169 224 267 318 387
#     4  11  26  41  63 100 134 165 216 271 328 383
#     4  11  23  44  65  91 134 177 210 266 332 379
#     4  11  22  42  70  94 126 175 217 266 327 379
#     4  12  25  41  68 100 129 168 224 270 315 388
#     4  11  22  44  67  91 132 178 209 262 336 385
#     4  11  23  38  65  98 131 164 221 270 311 388
#
# _framework density 20.04759
#
# number of rings (size 3 to 8) (size 9 to 14) (size 15 to 20)
#    0.000    0.857    7.143    1.714    4.000    2.857 
#    0.000    0.714    0.000    0.000    0.000    0.000 
#    0.000    0.000    0.000    0.000    0.000    0.000 
#
# Total GULP energy -173669.521498 kJ/mol
# GULP energy per Si atom -12404.965821 kJ/mol
# Density = 2.000196 g / cm^3
# Si number density = 20.047590 Si / 1000 Ang^3
#
#
#
# Elastic Constant Matrix: (Units=GPa)
#
#
# Indices 1 2 3 4 5 6 
#
# 1 88.0849 18.6353 35.5390 6.4623 -5.1995 7.5329
# 2 18.6353 95.7277 19.5687 -11.4406 -7.4085 0.1845
# 3 35.5390 19.5687 75.9197 -10.7671 11.2274 10.6298
# 4 6.4623 -11.4406 -10.7671 29.1724 -2.9107 1.6315
# 5 -5.1995 -7.4085 11.2274 -2.9107 35.3396 0.7960
# 6 7.5329 0.1845 10.6298 1.6315 0.7960 31.8124
#
#
#
# Elastic Compliance Matrix: (Units=1/GPa)
#
#
# Indices 1 2 3 4 5 6 
#
# 1 0.015994 -0.001891 -0.008499 -0.006975 0.004098 -0.000681
# 2 -0.001891 0.012065 -0.002165 0.004638 0.003303 0.000781
# 3 -0.008499 -0.002165 0.020698 0.008213 -0.007488 -0.005125
# 4 -0.006975 0.004638 0.008213 0.040933 0.000781 -0.003238
# 5 0.004098 0.003303 -0.007488 0.000781 0.032020 0.000671
# 6 -0.000681 0.000781 -0.005125 -0.003238 0.000671 0.033453
#
#
# Mechanical properties :
#
#
# Convention : Reuss Voigt Hill
#
# Bulk Modulus (GPa) = 42.28879 45.24648 43.76763
# Shear Modulus (GPa) = 26.57371 31.66415 29.11893
#
# Velocity S-wave (km/s) = 3.64473 3.97854 3.81529
# Velocity P-wave (km/s) = 6.23315 6.61238 6.42556
#
# Compressibility (1/GPa) = 0.02364693
#
# Stress axis : x y z
#
# Youngs Moduli (GPa) = 62.52451 82.88193 48.31371
#
# Poissons Ratio (x) = 0.15675 0.41063
# Poissons Ratio (y) = 0.11825 0.10459
# Poissons Ratio (z) = 0.53141 0.17942
#
# Static dielectric constant tensor:
#      x y z
#    x 3.905140 0.160110 -0.011910 
#    y 0.160110 3.611160 -0.226970 
#    z -0.011910 -0.226970 3.785510 
# 
# 
# High freq. dielectric constant tensor:
#      x y z
#    x 1.789210 0.005580 0.009310 
#    y 0.005580 1.778920 -0.018250 
#    z 0.009310 -0.018250 1.782930 
# 
# From -- ./inp_files/176991.got.cif
#   From: 2010.06.25/outbox.cif.g09.slc.cpg/sg2_89_cif.got.tgz:176991.got - 2010.06.27 13:26:56.
