data_PCOD8030164
_publ_section_title
;
Structure prediction by ZEFSAII (Michael W. Deem and Ramdas Pophale) SiO2 
 PCOD8030164
Probable space group: P -1
;
_chemical_formula_sum "Si O2"
_cell_formula_units_Z 16
_cell_length_a 15.268596
_cell_length_b 13.475010
_cell_length_c 7.867656
_cell_angle_alpha 145.087724
_cell_angle_beta 68.386051
_cell_angle_gamma 120.490629
_cell_volume 794.570474
_symmetry_space_group_name_H-M "P -1"
_symmetry_group_IT_number 2
_symmetry_cell_setting 'triclinic'
loop_
_space_group_symop_operation_xyz
x,y,z
-x,-y,-z
loop_
_atom_site_type_symbol
_atom_site_label
_atom_site_fract_x
_atom_site_fract_y
_atom_site_fract_z
Si Si1 0.879481 0.740338 0.140887
Si Si2 0.463223 0.469925 0.173944
Si Si3 0.591143 0.840352 0.768291
Si Si4 0.789524 0.786262 0.599640
Si Si5 0.243412 0.412537 0.316231
Si Si6 0.531858 0.162933 0.842383
Si Si7 0.289306 0.790240 0.998164
Si Si8 0.103344 0.882196 0.230520
O O1 0.810568 0.667173 0.259241
O O2 0.989549 0.725838 0.067374
O O3 0.898216 0.961267 0.410625
O O4 0.828815 0.623382 0.846389
O O5 0.495190 0.672502 0.521768
O O6 0.340852 0.366020 0.127821
O O7 0.500000 0.500000 0.000000
O O8 0.517825 0.347929 0.051347
O O9 0.670335 0.749832 0.646288
O O10 0.545261 0.924865 0.069597
O O11 0.643767 0.002776 0.825159
O O12 0.817184 0.717225 0.663306
O O13 0.854865 0.008626 0.827084
O O14 0.278758 0.630645 0.644583
O O15 0.500000 0.000000 0.500000
O O16 0.651429 0.231043 0.905090
O O17 0.175962 0.781475 0.108512
#
# Coordination Sequence:
#
# PCOD8030164 Si02
#       8
#     2   2   2   2   2   2   2   2
#     4   9  20  42  69  88 120 166 212 260 322 381
#     4  12  25  40  61  89 125 177 209 254 312 381
#     4  11  21  43  59  82 133 164 208 252 311 378
#     4   9  19  39  64  89 120 163 209 258 306 384
#     4  12  23  37  65  91 126 166 214 260 316 374
#     4  12  25  38  60  93 127 162 211 261 309 375
#     4  11  24  39  61  92 125 167 204 267 313 364
#     4   8  20  43  66  87 125 160 210 265 319 375
#
# _framework density 20.136666000000002
#
# number of rings (size 3 to 8) (size 9 to 14) (size 15 to 20)
#    0.750    0.750    2.500    3.000    3.500    1.000 
#    0.000    0.625    0.000    0.000    0.000    0.000 
#    0.000    0.000    0.000    0.000    0.000    0.000 
#
# Total GULP energy -198332.795647 kJ/mol
# GULP energy per Si atom -12395.799728 kJ/mol
# Density = 2.009083 g / cm^3
# Si number density = 20.136666 Si / 1000 Ang^3
#
#
#
# Elastic Constant Matrix: (Units=GPa)
#
#
# Indices 1 2 3 4 5 6 
#
# 1 166.5456 36.9903 55.6549 -11.6148 2.0512 14.5191
# 2 36.9903 55.5718 22.0076 -16.0976 4.9488 3.5494
# 3 55.6549 22.0076 108.7827 -12.8613 16.3025 0.5259
# 4 -11.6148 -16.0976 -12.8613 32.0497 -6.1213 -3.0906
# 5 2.0512 4.9488 16.3025 -6.1213 33.5722 -0.7384
# 6 14.5191 3.5494 0.5259 -3.0906 -0.7384 26.9941
#
#
#
# Elastic Compliance Matrix: (Units=1/GPa)
#
#
# Indices 1 2 3 4 5 6 
#
# 1 0.008497 -0.004231 -0.003808 -0.000621 0.001753 -0.003963
# 2 -0.004231 0.024335 -0.001461 0.009973 -0.000796 0.000224
# 3 -0.003808 -0.001461 0.012449 0.002097 -0.005169 0.002097
# 4 -0.000621 0.009973 0.002097 0.038031 0.004560 0.003461
# 5 0.001753 -0.000796 -0.005169 0.004560 0.033153 0.000691
# 6 -0.003963 0.000224 0.002097 0.003461 0.000691 0.039522
#
#
# Mechanical properties :
#
#
# Convention : Reuss Voigt Hill
#
# Bulk Modulus (GPa) = 38.05166 62.24508 50.14837
# Shear Modulus (GPa) = 27.21103 32.93967 30.07535
#
# Velocity S-wave (km/s) = 3.68002 4.04890 3.86886
# Velocity P-wave (km/s) = 6.08230 7.26887 6.70190
#
# Compressibility (1/GPa) = 0.02628006
#
# Stress axis : x y z
#
# Youngs Moduli (GPa) = 117.68453 41.09315 80.32705
#
# Poissons Ratio (x) = 0.17386 0.30592
# Poissons Ratio (y) = 0.49790 0.11739
# Poissons Ratio (z) = 0.44820 0.06005
#
# Static dielectric constant tensor:
#      x y z
#    x 3.798990 0.134630 -0.161190 
#    y 0.134630 3.388070 0.031290 
#    z -0.161190 0.031290 3.339160 
# 
# 
# High freq. dielectric constant tensor:
#      x y z
#    x 1.790940 0.007690 -0.007710 
#    y 0.007690 1.772890 -0.005390 
#    z -0.007710 -0.005390 1.769880 
# 
# From -- ./inp_files/316190.got.cif
#   From: 2010.06.25/outbox.cif.g09.slc.cpg/sg2_159_cif.got.tgz:316190.got - 2010.06.27 13:26:56.
