data_PCOD8030571
_publ_section_title
;
Structure prediction by ZEFSAII (Michael W. Deem and Ramdas Pophale) SiO2 
 PCOD8030571
Probable space group: P -1
;
_chemical_formula_sum "Si O2"
_cell_formula_units_Z 12
_cell_length_a 12.668131
_cell_length_b 8.612713
_cell_length_c 12.913956
_cell_angle_alpha 92.669572
_cell_angle_beta 129.708569
_cell_angle_gamma 127.923548
_cell_volume 589.995724
_symmetry_space_group_name_H-M "P -1"
_symmetry_group_IT_number 2
_symmetry_cell_setting 'triclinic'
loop_
_space_group_symop_operation_xyz
x,y,z
-x,-y,-z
loop_
_atom_site_type_symbol
_atom_site_label
_atom_site_fract_x
_atom_site_fract_y
_atom_site_fract_z
Si Si1 0.980476 0.679766 0.669154
Si Si2 0.501380 0.173474 0.222432
Si Si3 0.974371 0.198124 0.948613
Si Si4 0.796395 0.377177 0.061997
Si Si5 0.512925 0.694916 0.000010
Si Si6 0.779764 0.718046 0.710614
O O1 0.780306 0.441968 0.450485
O O2 0.886714 0.735005 0.678770
O O3 0.021222 0.567304 0.761911
O O4 0.236208 0.985510 0.785664
O O5 0.292372 0.024942 0.170274
O O6 0.493378 0.285437 0.126194
O O7 0.449033 0.950206 0.140905
O O8 0.053987 0.422265 0.938714
O O9 0.946486 0.028302 0.847045
O O10 0.195150 0.370677 0.175764
O O11 0.719756 0.445218 0.091299
O O12 0.500000 0.500000 0.000000
O O13 0.500000 0.500000 0.500000
#
# Coordination Sequence:
#
# PCOD8030571 Si02
#       6
#     2   2   2   2   2   2
#     4  11  23  42  66  95 129 165 217 257 315 379
#     4  11  23  42  67  92 129 170 209 262 316 376
#     4  11  23  41  66  94 131 167 212 259 318 370
#     4  11  25  41  65  95 130 167 208 264 317 374
#     4  11  25  45  66  90 127 169 213 266 316 373
#     4  11  22  38  64  95 127 166 209 261 308 368
#
# _framework density 20.339130999999998
#
# number of rings (size 3 to 8) (size 9 to 14) (size 15 to 20)
#    0.000    1.000    5.000    3.500    2.333    5.333 
#    0.000    0.000    0.000    0.000    0.000    0.000 
#    0.000    0.000    0.000    0.000    0.000    0.000 
#
# Total GULP energy -148806.868354 kJ/mol
# GULP energy per Si atom -12400.572363 kJ/mol
# Density = 2.029284 g / cm^3
# Si number density = 20.339131 Si / 1000 Ang^3
#
#
#
# Elastic Constant Matrix: (Units=GPa)
#
#
# Indices 1 2 3 4 5 6 
#
# 1 103.6916 21.0398 8.0967 -4.6965 1.5376 -2.8631
# 2 21.0398 146.8971 41.9700 -3.8963 1.0747 -1.7257
# 3 8.0967 41.9700 144.0335 -1.5416 5.6457 -1.7729
# 4 -4.6965 -3.8963 -1.5416 9.3663 -3.6980 1.1428
# 5 1.5376 1.0747 5.6457 -3.6980 33.2996 3.6679
# 6 -2.8631 -1.7257 -1.7729 1.1428 3.6679 32.5510
#
#
#
# Elastic Compliance Matrix: (Units=1/GPa)
#
#
# Indices 1 2 3 4 5 6 
#
# 1 0.010135 -0.001286 -0.000140 0.004451 0.000019 0.000657
# 2 -0.001286 0.007667 -0.002153 0.002356 0.000434 0.000045
# 3 -0.000140 -0.002153 0.007631 -0.000276 -0.001298 0.000445
# 4 0.004451 0.002356 -0.000276 0.115751 0.013176 -0.005047
# 5 0.000019 0.000434 -0.001298 0.013176 0.032154 -0.004132
# 6 0.000657 0.000045 0.000445 -0.005047 -0.004132 0.031448
#
#
# Mechanical properties :
#
#
# Convention : Reuss Voigt Hill
#
# Bulk Modulus (GPa) = 54.71820 59.64834 57.18327
# Shear Modulus (GPa) = 22.93202 36.61107 29.77154
#
# Velocity S-wave (km/s) = 3.36144 4.24728 3.83006
# Velocity P-wave (km/s) = 6.48283 7.31048 6.90906
#
# Compressibility (1/GPa) = 0.01827546
#
# Stress axis : x y z
#
# Youngs Moduli (GPa) = 98.66470 130.43542 131.03711
#
# Poissons Ratio (x) = 0.16774 0.01835
# Poissons Ratio (y) = 0.12688 0.28211
# Poissons Ratio (z) = 0.01382 0.28082
#
# Static dielectric constant tensor:
#      x y z
#    x 4.469300 0.267730 0.277950 
#    y 0.267730 3.819370 0.156710 
#    z 0.277950 0.156710 3.990180 
# 
# 
# High freq. dielectric constant tensor:
#      x y z
#    x 1.813120 -0.006720 -0.004260 
#    y -0.006720 1.790560 -0.002590 
#    z -0.004260 -0.002590 1.791400 
# 
# From -- ./inp_files/22797.got.cif
#   From: 2010.06.25/outbox.cif.g09.slc.cpg/sg2_12_cif.got.tgz:22797.got - 2010.06.27 13:26:56.
