data_PCOD8030883
_publ_section_title
;
Structure prediction by ZEFSAII (Michael W. Deem and Ramdas Pophale) SiO2 
 PCOD8030883
Probable space group: P -1
;
_chemical_formula_sum "Si O2"
_cell_formula_units_Z 14
_cell_length_a 9.444264
_cell_length_b 19.784804
_cell_length_c 6.743753
_cell_angle_alpha 126.439507
_cell_angle_beta 132.203024
_cell_angle_gamma 45.486242
_cell_volume 647.314882
_symmetry_space_group_name_H-M "P -1"
_symmetry_group_IT_number 2
_symmetry_cell_setting 'triclinic'
loop_
_space_group_symop_operation_xyz
x,y,z
-x,-y,-z
loop_
_atom_site_type_symbol
_atom_site_label
_atom_site_fract_x
_atom_site_fract_y
_atom_site_fract_z
Si Si1 0.186468 0.756289 0.117821
Si Si2 0.185036 0.885992 0.011895
Si Si3 0.759423 0.443416 0.183237
Si Si4 0.486421 0.763868 0.735795
Si Si5 0.742290 0.870967 0.052528
Si Si6 0.902342 0.557201 0.806096
Si Si7 0.471453 0.951798 0.580646
O O1 0.102078 0.832324 0.988748
O O2 0.406123 0.741218 0.411671
O O3 0.201735 0.659055 0.877917
O O4 0.999667 0.792872 0.177292
O O5 0.392083 0.878582 0.311347
O O6 0.277963 0.820502 0.787088
O O7 0.000000 0.000000 0.000000
O O8 0.825329 0.493938 0.500801
O O9 0.906891 0.431490 0.106205
O O10 0.500000 0.500000 0.000000
O O11 0.579079 0.836488 0.920500
O O12 0.685672 0.662241 0.831213
O O13 0.697239 0.893693 0.814763
O O14 0.710474 0.964686 0.302902
O O15 0.000000 0.500000 0.000000
O O16 0.500000 0.000000 0.500000
#
# Coordination Sequence:
#
# PCOD8030883 Si02
#       7
#     2   2   2   2   2   2   2
#     4  12  26  45  70 102 141 184 235 289 354 421
#     4  12  27  43  68 105 144 185 239 291 345 416
#     4  11  25  48  74 103 145 183 230 296 368 421
#     4  12  25  46  69 102 137 185 235 284 355 428
#     4  11  24  42  68  93 134 184 230 283 342 411
#     4  11  27  47  76 106 140 184 238 295 358 433
#     4  11  22  41  65  94 136 181 228 286 342 399
#
# _framework density 21.627804999999999
#
# number of rings (size 3 to 8) (size 9 to 14) (size 15 to 20)
#    0.000    0.571    5.714    1.714    4.000    4.000 
#    2.571    0.000    0.000    0.000    0.000    0.000 
#    0.000    0.000    0.000    0.000    0.000    0.000 
#
# Total GULP energy -173523.758148 kJ/mol
# GULP energy per Si atom -12394.554153 kJ/mol
# Density = 2.157858 g / cm^3
# Si number density = 21.627805 Si / 1000 Ang^3
#
#
#
# Elastic Constant Matrix: (Units=GPa)
#
#
# Indices 1 2 3 4 5 6 
#
# 1 105.7230 50.6058 37.3625 -3.9691 3.0037 0.1720
# 2 50.6058 150.1587 40.0781 -2.0751 -6.7917 3.6468
# 3 37.3625 40.0781 92.9946 2.6659 -6.0335 12.0955
# 4 -3.9691 -2.0751 2.6659 36.4640 8.2269 1.4242
# 5 3.0037 -6.7917 -6.0335 8.2269 30.9480 0.8841
# 6 0.1720 3.6468 12.0955 1.4242 0.8841 43.0718
#
#
#
# Elastic Compliance Matrix: (Units=1/GPa)
#
#
# Indices 1 2 3 4 5 6 
#
# 1 0.012688 -0.003332 -0.004126 0.002204 -0.003393 0.001387
# 2 -0.003332 0.008442 -0.002164 -0.000123 0.001791 -0.000127
# 3 -0.004126 -0.002164 0.014115 -0.002219 0.003375 -0.003760
# 4 0.002204 -0.000123 -0.002219 0.029762 -0.008580 -0.000183
# 5 -0.003393 0.001791 0.003375 -0.008580 0.036017 -0.001541
# 6 0.001387 -0.000127 -0.003760 -0.000183 -0.001541 0.024316
#
#
# Mechanical properties :
#
#
# Convention : Reuss Voigt Hill
#
# Bulk Modulus (GPa) = 62.48567 67.21878 64.85223
# Shear Modulus (GPa) = 33.35169 36.81874 35.08521
#
# Velocity S-wave (km/s) = 3.93119 4.13047 4.03206
# Velocity P-wave (km/s) = 7.03987 7.34132 7.19217
#
# Compressibility (1/GPa) = 0.01600367
#
# Stress axis : x y z
#
# Youngs Moduli (GPa) = 78.81280 118.45112 70.84694
#
# Poissons Ratio (x) = 0.39464 0.29229
# Poissons Ratio (y) = 0.26258 0.15329
# Poissons Ratio (z) = 0.32515 0.25629
#
# Static dielectric constant tensor:
#      x y z
#    x 3.241040 -0.078660 -0.605550 
#    y -0.078660 5.067010 0.800620 
#    z -0.605550 0.800620 3.789850 
# 
# 
# High freq. dielectric constant tensor:
#      x y z
#    x 1.854390 -0.000300 0.009690 
#    y -0.000300 1.856740 0.005090 
#    z 0.009690 0.005090 1.855120 
# 
# From -- ./inp_files/49114.got.cif
#   From: 2010.06.25/outbox.cif.g09.slc.cpg/sg2_25_cif.got.tgz:49114.got - 2010.06.27 13:26:56.
