data_PCOD8030546
_publ_section_title
;
Structure prediction by ZEFSAII (Michael W. Deem and Ramdas Pophale) SiO2 
 PCOD8030546
Probable space group: P -1
;
_chemical_formula_sum "Si O2"
_cell_formula_units_Z 16
_cell_length_a 15.067623
_cell_length_b 9.135773
_cell_length_c 21.642195
_cell_angle_alpha 39.164847
_cell_angle_beta 28.931735
_cell_angle_gamma 39.381697
_cell_volume 865.696944
_symmetry_space_group_name_H-M "P -1"
_symmetry_group_IT_number 2
_symmetry_cell_setting 'triclinic'
loop_
_space_group_symop_operation_xyz
x,y,z
-x,-y,-z
loop_
_atom_site_type_symbol
_atom_site_label
_atom_site_fract_x
_atom_site_fract_y
_atom_site_fract_z
Si Si1 0.252546 0.167461 0.390046
Si Si2 0.022476 0.937167 0.306473
Si Si3 0.343138 0.088953 0.621074
Si Si4 0.075292 0.446760 0.588526
Si Si5 0.650177 0.447026 0.714911
Si Si6 0.245746 0.610781 0.850522
Si Si7 0.564722 0.729232 0.368141
Si Si8 0.101214 0.517371 0.841041
O O1 0.128410 0.076360 0.545262
O O2 0.356941 0.353338 0.293402
O O3 0.110251 0.307677 0.374884
O O4 0.415387 0.919601 0.350203
O O5 0.994392 0.776827 0.318665
O O6 0.240240 0.822234 0.237471
O O7 0.995317 0.208383 0.212486
O O8 0.185387 0.353005 0.616441
O O9 0.444332 0.117780 0.613603
O O10 0.500000 0.000000 0.500000
O O11 0.233677 0.891175 0.761537
O O12 0.231993 0.494118 0.432643
O O13 0.440185 0.452717 0.817894
O O14 0.236754 0.505373 0.821941
O O15 0.065571 0.599666 0.004490
O O16 0.500000 0.500000 0.500000
O O17 0.772344 0.643690 0.237747
#
# Coordination Sequence:
#
# PCOD8030546 Si02
#       8
#     2   2   2   2   2   2   2   2
#     4   9  17  33  54  85 110 141 181 232 282 324
#     4   9  16  33  55  83 115 137 184 230 281 323
#     4  12  20  36  62  85 108 148 193 225 270 344
#     4   9  17  30  59  84 107 140 188 231 269 332
#     4   9  17  31  58  84 104 147 188 228 267 338
#     4  11  22  38  57  82 111 153 196 220 275 335
#     4  12  23  36  58  86 116 143 182 238 288 320
#     4  11  24  37  54  84 119 148 181 241 279 320
#
# _framework density 18.482218
#
# number of rings (size 3 to 8) (size 9 to 14) (size 15 to 20)
#    0.000    1.750    5.000    3.000    0.000    1.000 
#    0.000    1.875    0.000    0.750    0.000    0.000 
#    0.000    0.000    0.000    0.000    0.000    0.000 
#
# Total GULP energy -198299.019954 kJ/mol
# GULP energy per Si atom -12393.688747 kJ/mol
# Density = 1.844015 g / cm^3
# Si number density = 18.482218 Si / 1000 Ang^3
#
#
#
# Elastic Constant Matrix: (Units=GPa)
#
#
# Indices 1 2 3 4 5 6 
#
# 1 71.7775 35.1037 36.6983 11.0341 -12.0974 -22.6652
# 2 35.1037 119.1012 51.2438 3.4872 -1.3493 -30.0391
# 3 36.6983 51.2438 95.9762 -4.3067 -8.6218 -1.8753
# 4 11.0341 3.4872 -4.3067 21.4473 -0.5568 0.5013
# 5 -12.0974 -1.3493 -8.6218 -0.5568 24.9946 1.4961
# 6 -22.6652 -30.0391 -1.8753 0.5013 1.4961 40.7312
#
#
#
# Elastic Compliance Matrix: (Units=1/GPa)
#
#
# Indices 1 2 3 4 5 6 
#
# 1 0.028052 0.001006 -0.010949 -0.016940 0.008535 0.015742
# 2 0.001006 0.014646 -0.008423 -0.004913 -0.002403 0.011122
# 3 -0.010949 -0.008423 0.019555 0.011251 0.001937 -0.011614
# 4 -0.016940 -0.004913 0.011251 0.058643 -0.002489 -0.013162
# 5 0.008535 -0.002403 0.001937 -0.002489 0.044535 0.001461
# 6 0.015742 0.011122 -0.011614 -0.013162 0.001461 0.041087
#
#
# Mechanical properties :
#
#
# Convention : Reuss Voigt Hill
#
# Bulk Modulus (GPa) = 39.18527 59.21628 49.20078
# Shear Modulus (GPa) = 19.86048 28.35521 24.10785
#
# Velocity S-wave (km/s) = 3.28162 3.92112 3.61554
# Velocity P-wave (km/s) = 5.96711 7.25323 6.64138
#
# Compressibility (1/GPa) = 0.02551979
#
# Stress axis : x y z
#
# Youngs Moduli (GPa) = 35.64867 68.28020 51.13721
#
# Poissons Ratio (x) = -0.06871 0.55991
# Poissons Ratio (y) = -0.03587 0.43075
# Poissons Ratio (z) = 0.39032 0.57515
#
# Static dielectric constant tensor:
#      x y z
#    x 3.744970 -0.635780 -0.072310 
#    y -0.635780 4.805070 0.023090 
#    z -0.072310 0.023090 3.150370 
# 
# 
# High freq. dielectric constant tensor:
#      x y z
#    x 1.710850 -0.032540 -0.011790 
#    y -0.032540 1.718930 -0.012130 
#    z -0.011790 -0.012130 1.689840 
# 
# From -- ./inp_files/303916.got.cif
#   From: 2010.06.25/outbox.cif.g09.slc.cpg/sg2_152_cif.got.tgz:303916.got - 2010.06.27 13:26:56.
