data_PCOD8030434
_publ_section_title
;
Structure prediction by ZEFSAII (Michael W. Deem and Ramdas Pophale) SiO2 
 PCOD8030434
Probable space group: P -1
;
_chemical_formula_sum "Si O2"
_cell_formula_units_Z 12
_cell_length_a 12.151207
_cell_length_b 9.140094
_cell_length_c 9.799187
_cell_angle_alpha 61.781044
_cell_angle_beta 95.474960
_cell_angle_gamma 138.420033
_cell_volume 570.995626
_symmetry_space_group_name_H-M "P -1"
_symmetry_group_IT_number 2
_symmetry_cell_setting 'triclinic'
loop_
_space_group_symop_operation_xyz
x,y,z
-x,-y,-z
loop_
_atom_site_type_symbol
_atom_site_label
_atom_site_fract_x
_atom_site_fract_y
_atom_site_fract_z
Si Si1 0.674586 0.348199 0.514044
Si Si2 0.313911 0.967621 0.480790
Si Si3 0.971047 0.331953 0.190885
Si Si4 0.641673 0.635963 0.834789
Si Si5 0.374871 0.707577 0.167424
Si Si6 0.030680 0.026439 0.659012
O O1 0.739819 0.236957 0.546681
O O2 0.572162 0.239711 0.692378
O O3 0.844273 0.679454 0.392481
O O4 0.528571 0.215338 0.438201
O O5 0.169217 0.758908 0.676964
O O6 0.298713 0.130550 0.344684
O O7 0.162487 0.504315 0.208236
O O8 0.881495 0.047809 0.258206
O O9 0.000000 0.500000 0.000000
O O10 0.557635 0.387871 0.842193
O O11 0.500000 0.500000 0.000000
O O12 0.842973 0.809252 0.823427
O O13 0.500000 0.000000 0.000000
O O14 0.000000 0.000000 0.500000
#
# Coordination Sequence:
#
# PCOD8030434 Si02
#       6
#     2   2   2   2   2   2
#     4  11  23  40  65  91 130 172 214 267 322 385
#     4  11  24  41  62  98 130 169 220 269 320 380
#     4  11  23  41  66  96 129 168 222 266 323 389
#     4  11  23  41  66  96 129 168 222 266 323 389
#     4  11  22  39  62  93 130 173 215 263 325 386
#     4  11  21  46  65  90 128 171 214 264 324 383
#
# _framework density 21.015923999999998
#
# number of rings (size 3 to 8) (size 9 to 14) (size 15 to 20)
#    0.000    1.000    5.000    2.000    0.000   12.000 
#    0.000    1.667    0.000    0.000    0.000    0.000 
#    0.000    0.000    0.000    0.000    0.000    0.000 
#
# Total GULP energy -148661.685845 kJ/mol
# GULP energy per Si atom -12388.473820 kJ/mol
# Density = 2.096809 g / cm^3
# Si number density = 21.015924 Si / 1000 Ang^3
#
#
#
# Elastic Constant Matrix: (Units=GPa)
#
#
# Indices 1 2 3 4 5 6 
#
# 1 114.6077 45.8335 46.7365 -0.7446 -6.1600 -41.7994
# 2 45.8335 121.7713 32.6835 -12.3547 -4.7751 -43.0362
# 3 46.7365 32.6835 134.6753 -12.6202 -12.6635 -29.2125
# 4 -0.7446 -12.3547 -12.6202 32.6910 -3.4908 4.8428
# 5 -6.1600 -4.7751 -12.6635 -3.4908 51.8500 -7.5253
# 6 -41.7994 -43.0362 -29.2125 4.8428 -7.5253 48.3881
#
#
#
# Elastic Compliance Matrix: (Units=1/GPa)
#
#
# Indices 1 2 3 4 5 6 
#
# 1 0.013985 -0.001166 -0.002354 -0.002297 0.002307 0.010212
# 2 -0.001166 0.012827 0.000204 0.003635 0.002877 0.010608
# 3 -0.002354 0.000204 0.009683 0.003467 0.002933 0.004103
# 4 -0.002297 0.003635 0.003467 0.033522 0.003237 0.000490
# 5 0.002307 0.002877 0.002933 0.003237 0.022130 0.009440
# 6 0.010212 0.010608 0.004103 0.000490 0.009440 0.042818
#
#
# Mechanical properties :
#
#
# Convention : Reuss Voigt Hill
#
# Bulk Modulus (GPa) = 33.48531 69.06238 51.27384
# Shear Modulus (GPa) = 32.99230 42.97255 37.98243
#
# Velocity S-wave (km/s) = 3.96646 4.52681 4.25587
# Velocity P-wave (km/s) = 6.07824 7.76247 6.97140
#
# Compressibility (1/GPa) = 0.02986384
#
# Stress axis : x y z
#
# Youngs Moduli (GPa) = 71.50644 77.96169 103.27067
#
# Poissons Ratio (x) = 0.09088 0.24306
# Poissons Ratio (y) = 0.08335 -0.02105
# Poissons Ratio (z) = 0.16830 -0.01589
#
# Static dielectric constant tensor:
#      x y z
#    x 4.276270 -1.059400 0.514950 
#    y -1.059400 6.821880 -2.511970 
#    z 0.514950 -2.511970 5.596930 
# 
# 
# High freq. dielectric constant tensor:
#      x y z
#    x 1.841290 -0.020410 -0.003660 
#    y -0.020410 1.819550 -0.024290 
#    z -0.003660 -0.024290 1.820420 
# 
# From -- ./inp_files/154492.got.cif
#   From: 2010.06.25/outbox.cif.g09.slc.cpg/sg2_78_cif.got.tgz:154492.got - 2010.06.27 13:26:56.
