data_PCOD8030279
_publ_section_title
;
Structure prediction by ZEFSAII (Michael W. Deem and Ramdas Pophale) SiO2 
 PCOD8030279
Probable space group: P -1
;
_chemical_formula_sum "Si O2"
_cell_formula_units_Z 12
_cell_length_a 9.234296
_cell_length_b 9.184455
_cell_length_c 13.264321
_cell_angle_alpha 43.501655
_cell_angle_beta 49.335225
_cell_angle_gamma 75.287916
_cell_volume 533.404861
_symmetry_space_group_name_H-M "P -1"
_symmetry_group_IT_number 2
_symmetry_cell_setting 'triclinic'
loop_
_space_group_symop_operation_xyz
x,y,z
-x,-y,-z
loop_
_atom_site_type_symbol
_atom_site_label
_atom_site_fract_x
_atom_site_fract_y
_atom_site_fract_z
Si Si1 0.887788 0.669579 0.962133
Si Si2 0.568833 0.015821 0.747494
Si Si3 0.201610 0.736950 0.288758
Si Si4 0.157148 0.040441 0.499525
Si Si5 0.816060 0.923968 0.041652
Si Si6 0.454126 0.565519 0.134104
O O1 0.824237 0.707456 0.085584
O O2 0.674776 0.548351 0.055290
O O3 0.045929 0.910041 0.717099
O O4 0.000000 0.500000 0.000000
O O5 0.750509 0.128500 0.694147
O O6 0.401017 0.129273 0.772430
O O7 0.674572 0.058173 0.567369
O O8 0.465596 0.732743 0.949979
O O9 0.408309 0.695169 0.186940
O O10 0.000000 0.500000 0.500000
O O11 0.151034 0.880034 0.153500
O O12 0.265056 0.314291 0.335589
O O13 0.000000 0.000000 0.500000
O O14 0.000000 0.000000 0.000000
#
# Coordination Sequence:
#
# PCOD8030279 Si02
#       6
#     2   2   2   2   2   2
#     4  12  27  46  66  98 143 181 220 283 350 402
#     4  11  22  44  73 103 134 178 232 282 335 408
#     4  11  21  43  74  99 132 179 231 279 335 408
#     4  12  25  43  71 106 132 176 236 277 337 410
#     4  11  24  45  66  98 135 179 226 281 339 397
#     4  11  22  43  72  97 138 178 227 279 336 403
#
# _framework density 22.496981000000002
#
# number of rings (size 3 to 8) (size 9 to 14) (size 15 to 20)
#    0.000    0.667    5.000    3.500    2.333    3.333 
#    3.000    1.667    0.000    0.000    0.000    0.000 
#    0.000    0.000    0.000    0.000    0.000    0.000 
#
# Total GULP energy -148783.604854 kJ/mol
# GULP energy per Si atom -12398.633738 kJ/mol
# Density = 2.244578 g / cm^3
# Si number density = 22.496981 Si / 1000 Ang^3
#
#
#
# Elastic Constant Matrix: (Units=GPa)
#
#
# Indices 1 2 3 4 5 6 
#
# 1 111.9549 47.0452 20.0906 -9.3629 -5.9120 -11.8021
# 2 47.0452 126.4459 20.1917 5.1650 2.4093 -19.6411
# 3 20.0906 20.1917 62.9099 -12.3385 -20.2619 2.2676
# 4 -9.3629 5.1650 -12.3385 43.8372 4.0833 -7.1310
# 5 -5.9120 2.4093 -20.2619 4.0833 22.2308 -1.2202
# 6 -11.8021 -19.6411 2.2676 -7.1310 -1.2202 44.1191
#
#
#
# Elastic Compliance Matrix: (Units=1/GPa)
#
#
# Indices 1 2 3 4 5 6 
#
# 1 0.011299 -0.003843 -0.001342 0.002621 0.001819 0.001854
# 2 -0.003843 0.010845 -0.004731 -0.002311 -0.005893 0.003507
# 3 -0.001342 -0.004731 0.026390 0.005162 0.023132 -0.002347
# 4 0.002621 -0.002311 0.005162 0.025570 0.001152 0.003572
# 5 0.001819 -0.005893 0.023132 0.001152 0.066905 -0.001289
# 6 0.001854 0.003507 -0.002347 0.003572 -0.001289 0.025385
#
#
# Mechanical properties :
#
#
# Convention : Reuss Voigt Hill
#
# Bulk Modulus (GPa) = 34.84124 52.88508 43.86316
# Shear Modulus (GPa) = 25.53699 36.30298 30.91998
#
# Velocity S-wave (km/s) = 3.37282 4.02142 3.71132
# Velocity P-wave (km/s) = 5.53973 6.71723 6.15669
#
# Compressibility (1/GPa) = 0.02870162
#
# Stress axis : x y z
#
# Youngs Moduli (GPa) = 88.50666 92.20625 37.89315
#
# Poissons Ratio (x) = 0.35436 0.05085
# Poissons Ratio (y) = 0.34014 0.17928
# Poissons Ratio (z) = 0.11877 0.43624
#
# Static dielectric constant tensor:
#      x y z
#    x 3.866210 -0.267190 -0.274340 
#    y -0.267190 4.641310 0.362270 
#    z -0.274340 0.362270 4.201250 
# 
# 
# High freq. dielectric constant tensor:
#      x y z
#    x 1.873830 -0.011340 -0.025010 
#    y -0.011340 1.916600 0.013320 
#    z -0.025010 0.013320 1.871330 
# 
# From -- ./inp_files/152013.got.cif
#   From: 2010.06.25/outbox.cif.g09.slc.cpg/sg2_77_cif.got.tgz:152013.got - 2010.06.27 13:26:56.
