data_PCOD8030624
_publ_section_title
;
Structure prediction by ZEFSAII (Michael W. Deem and Ramdas Pophale) SiO2 
 PCOD8030624
Probable space group: P -1
;
_chemical_formula_sum "Si O2"
_cell_formula_units_Z 14
_cell_length_a 10.297393
_cell_length_b 19.734020
_cell_length_c 5.115590
_cell_angle_alpha 95.933332
_cell_angle_beta 102.351835
_cell_angle_gamma 140.109990
_cell_volume 588.882967
_symmetry_space_group_name_H-M "P -1"
_symmetry_group_IT_number 2
_symmetry_cell_setting 'triclinic'
loop_
_space_group_symop_operation_xyz
x,y,z
-x,-y,-z
loop_
_atom_site_type_symbol
_atom_site_label
_atom_site_fract_x
_atom_site_fract_y
_atom_site_fract_z
Si Si1 0.553092 0.633620 0.423124
Si Si2 0.227520 0.714588 0.601696
Si Si3 0.661866 0.823503 0.636638
Si Si4 0.927915 0.056799 0.797968
Si Si5 0.956657 0.620639 0.969447
Si Si6 0.486655 0.040304 0.256301
Si Si7 0.181936 0.289822 0.909735
O O1 0.596199 0.730618 0.396800
O O2 0.288128 0.507466 0.274634
O O3 0.654682 0.663530 0.763968
O O4 0.667712 0.632543 0.253483
O O5 0.440292 0.752345 0.680082
O O6 0.298622 0.820162 0.593335
O O7 0.134701 0.674906 0.840611
O O8 0.033443 0.613793 0.264947
O O9 0.855445 0.885787 0.951470
O O10 0.773587 0.931292 0.546908
O O11 0.012272 0.156435 0.700094
O O12 0.748273 0.015597 0.904969
O O13 0.955408 0.701151 0.054686
O O14 0.500000 0.000000 0.500000
O O15 0.500000 0.000000 0.000000
#
# Coordination Sequence:
#
# PCOD8030624 Si02
#       7
#     2   2   2   2   2   2   2
#     4  11  24  41  65  90 125 163 210 260 301 373
#     4  11  24  40  63  91 128 165 208 255 302 373
#     4   9  22  42  62  94 123 167 213 246 309 369
#     4   9  20  40  66  89 127 162 200 259 307 369
#     4  12  24  42  64  92 126 166 206 259 314 355
#     4  11  22  39  63  96 127 159 202 253 313 371
#     4  11  22  40  65  95 121 159 208 258 317 369
#
# _framework density 23.773824999999999
#
# number of rings (size 3 to 8) (size 9 to 14) (size 15 to 20)
#    0.000    1.429    0.000    5.143    0.000    7.429 
#    0.000    8.571    0.000    0.000    0.000    0.000 
#    0.000    0.000    0.000    0.000    0.000    0.000 
#
# Total GULP energy -173484.199204 kJ/mol
# GULP energy per Si atom -12391.728515 kJ/mol
# Density = 2.371971 g / cm^3
# Si number density = 23.773825 Si / 1000 Ang^3
#
#
#
# Elastic Constant Matrix: (Units=GPa)
#
#
# Indices 1 2 3 4 5 6 
#
# 1 113.5392 32.8396 40.1263 7.3477 -0.0900 13.8326
# 2 32.8396 85.7382 30.9011 8.0617 -7.5708 14.3941
# 3 40.1263 30.9011 77.0072 -11.5992 -4.5004 7.7246
# 4 7.3477 8.0617 -11.5992 36.5446 8.8237 -7.6733
# 5 -0.0900 -7.5708 -4.5004 8.8237 26.9156 3.2161
# 6 13.8326 14.3941 7.7246 -7.6733 3.2161 42.1300
#
#
#
# Elastic Compliance Matrix: (Units=1/GPa)
#
#
# Indices 1 2 3 4 5 6 
#
# 1 0.012089 -0.001336 -0.006134 -0.004943 0.000658 -0.003338
# 2 -0.001336 0.016970 -0.006346 -0.008570 0.007271 -0.006312
# 3 -0.006134 -0.006346 0.019857 0.009958 -0.002050 0.002512
# 4 -0.004943 -0.008570 0.009958 0.039342 -0.014978 0.011034
# 5 0.000658 0.007271 -0.002050 -0.014978 0.044780 -0.008471
# 6 -0.003338 -0.006312 0.002512 0.011034 -0.008471 0.029184
#
#
# Mechanical properties :
#
#
# Convention : Reuss Voigt Hill
#
# Bulk Modulus (GPa) = 46.98640 53.77983 50.38311
# Shear Modulus (GPa) = 25.38710 32.61256 28.99983
#
# Velocity S-wave (km/s) = 3.27136 3.70778 3.49638
# Velocity P-wave (km/s) = 5.83745 6.40318 6.12685
#
# Compressibility (1/GPa) = 0.02128276
#
# Stress axis : x y z
#
# Youngs Moduli (GPa) = 82.71942 58.92763 50.36014
#
# Poissons Ratio (x) = 0.07874 0.30892
# Poissons Ratio (y) = 0.11053 0.31960
# Poissons Ratio (z) = 0.50742 0.37397
#
# Static dielectric constant tensor:
#      x y z
#    x 4.645290 -0.180700 -0.205110 
#    y -0.180700 4.497360 0.439940 
#    z -0.205110 0.439940 3.793950 
# 
# 
# High freq. dielectric constant tensor:
#      x y z
#    x 1.960110 0.007260 -0.001310 
#    y 0.007260 1.945270 0.023470 
#    z -0.001310 0.023470 1.925230 
# 
# From -- ./inp_files/27750.got.cif
#   From: 2010.06.25/outbox.cif.g09.slc.cpg/sg2_14_cif.got.tgz:27750.got - 2010.06.27 13:26:56.
