data_PCOD8030499
_publ_section_title
;
Structure prediction by ZEFSAII (Michael W. Deem and Ramdas Pophale) SiO2 
 PCOD8030499
Probable space group: P -1
;
_chemical_formula_sum "Si O2"
_cell_formula_units_Z 12
_cell_length_a 11.514261
_cell_length_b 10.963690
_cell_length_c 10.849029
_cell_angle_alpha 86.025916
_cell_angle_beta 122.723115
_cell_angle_gamma 45.999161
_cell_volume 561.946808
_symmetry_space_group_name_H-M "P -1"
_symmetry_group_IT_number 2
_symmetry_cell_setting 'triclinic'
loop_
_space_group_symop_operation_xyz
x,y,z
-x,-y,-z
loop_
_atom_site_type_symbol
_atom_site_label
_atom_site_fract_x
_atom_site_fract_y
_atom_site_fract_z
Si Si1 0.159090 0.395170 0.229794
Si Si2 0.808078 0.882135 0.598717
Si Si3 0.850885 0.987425 0.374093
Si Si4 0.626921 0.475312 0.961723
Si Si5 0.297393 0.717753 0.220432
Si Si6 0.162860 0.626613 0.353642
O O1 0.141505 0.297218 0.322293
O O2 0.025120 0.614469 0.209835
O O3 0.487990 0.172148 0.413212
O O4 0.000000 0.500000 0.000000
O O5 0.031841 0.783220 0.817656
O O6 0.887530 0.851215 0.505116
O O7 0.519530 0.277354 0.143992
O O8 0.000000 0.000000 0.500000
O O9 0.952851 0.850003 0.314919
O O10 0.500000 0.500000 0.000000
O O11 0.550466 0.465879 0.793519
O O12 0.237198 0.670016 0.295159
O O13 0.528387 0.643840 0.391971
O O14 0.000000 0.000000 0.000000
#
# Coordination Sequence:
#
# PCOD8030499 Si02
#       6
#     2   2   2   2   2   2
#     4  11  25  47  69  92 132 180 225 272 321 394
#     4  11  24  43  70  95 130 178 222 266 335 392
#     4  12  23  41  65  98 137 170 211 272 337 390
#     4  12  22  40  67  98 137 171 211 274 337 388
#     4  11  22  36  62  98 130 167 219 271 329 390
#     4  11  24  40  62  97 132 169 221 271 322 396
#
# _framework density 21.354334000000001
#
# number of rings (size 3 to 8) (size 9 to 14) (size 15 to 20)
#    0.000    0.667    3.333    5.000    2.333    2.000 
#    0.000    3.333    0.000    0.000    0.000    0.000 
#    0.000    0.000    0.000    0.000    0.000    0.000 
#
# Total GULP energy -148695.453622 kJ/mol
# GULP energy per Si atom -12391.287802 kJ/mol
# Density = 2.130573 g / cm^3
# Si number density = 21.354334 Si / 1000 Ang^3
#
#
#
# Elastic Constant Matrix: (Units=GPa)
#
#
# Indices 1 2 3 4 5 6 
#
# 1 109.9108 42.9234 34.3849 15.8890 -15.0944 -8.0837
# 2 42.9234 146.7427 59.2684 23.2405 -4.3516 1.0907
# 3 34.3849 59.2684 138.4769 -3.6402 5.4917 0.3698
# 4 15.8890 23.2405 -3.6402 42.4417 -3.8413 -2.5983
# 5 -15.0944 -4.3516 5.4917 -3.8413 40.4138 5.6406
# 6 -8.0837 1.0907 0.3698 -2.5983 5.6406 30.0631
#
#
#
# Elastic Compliance Matrix: (Units=1/GPa)
#
#
# Indices 1 2 3 4 5 6 
#
# 1 0.011711 -0.001900 -0.002335 -0.003055 0.003882 0.002254
# 2 -0.001900 0.009741 -0.003848 -0.004983 0.000578 -0.001356
# 3 -0.002335 -0.003848 0.009633 0.003610 -0.002271 0.000131
# 4 -0.003055 -0.004983 0.003610 0.027869 0.000247 0.001677
# 5 0.003882 0.000578 -0.002271 0.000247 0.027149 -0.004022
# 6 0.002254 -0.001356 0.000131 0.001677 -0.004022 0.034817
#
#
# Mechanical properties :
#
#
# Convention : Reuss Voigt Hill
#
# Bulk Modulus (GPa) = 67.02808 74.25374 70.64091
# Shear Modulus (GPa) = 35.19671 39.82063 37.50867
#
# Velocity S-wave (km/s) = 4.06424 4.32297 4.19560
# Velocity P-wave (km/s) = 7.31305 7.73079 7.52482
#
# Compressibility (1/GPa) = 0.01491912
#
# Stress axis : x y z
#
# Youngs Moduli (GPa) = 85.38651 102.65896 103.81488
#
# Poissons Ratio (x) = 0.19510 0.24240
# Poissons Ratio (y) = 0.16228 0.39943
# Poissons Ratio (z) = 0.19937 0.39498
#
# Static dielectric constant tensor:
#      x y z
#    x 3.908680 -0.111020 0.108060 
#    y -0.111020 3.846510 -0.018530 
#    z 0.108060 -0.018530 4.869540 
# 
# 
# High freq. dielectric constant tensor:
#      x y z
#    x 1.834520 -0.014070 -0.009320 
#    y -0.014070 1.830030 -0.005520 
#    z -0.009320 -0.005520 1.860780 
# 
# From -- ./inp_files/71600.got.cif
#   From: 2010.06.25/outbox.cif.g09.slc.cpg/sg2_36_cif.got.tgz:71600.got - 2010.06.27 13:26:56.
