data_PCOD8030879
_publ_section_title
;
Structure prediction by ZEFSAII (Michael W. Deem and Ramdas Pophale) SiO2 
 PCOD8030879
Probable space group: P -1
;
_chemical_formula_sum "Si O2"
_cell_formula_units_Z 14
_cell_length_a 15.074711
_cell_length_b 21.042059
_cell_length_c 11.996384
_cell_angle_alpha 159.566326
_cell_angle_beta 27.325039
_cell_angle_gamma 153.104945
_cell_volume 566.520324
_symmetry_space_group_name_H-M "P -1"
_symmetry_group_IT_number 2
_symmetry_cell_setting 'triclinic'
loop_
_space_group_symop_operation_xyz
x,y,z
-x,-y,-z
loop_
_atom_site_type_symbol
_atom_site_label
_atom_site_fract_x
_atom_site_fract_y
_atom_site_fract_z
Si Si1 0.577450 0.857425 0.252354
Si Si2 0.994526 0.116903 0.325839
Si Si3 0.187206 0.848362 0.763160
Si Si4 0.984131 0.566610 0.342101
Si Si5 0.391671 0.494059 0.729412
Si Si6 0.707294 0.938212 0.791722
Si Si7 0.758818 0.139560 0.845065
O O1 0.405532 0.817205 0.476261
O O2 0.500000 0.000000 0.500000
O O3 0.808990 0.950702 0.195322
O O4 0.558835 0.649995 0.878732
O O5 0.086989 0.311869 0.470548
O O6 0.918582 0.159005 0.599535
O O7 0.183872 0.036318 0.999924
O O8 0.014149 0.658818 0.585919
O O9 0.140973 0.900158 0.025604
O O10 0.200488 0.566561 0.050625
O O11 0.806050 0.353032 0.197257
O O12 0.500000 0.500000 0.500000
O O13 0.300915 0.277942 0.528022
O O14 0.795304 0.999801 0.670256
O O15 0.476967 0.943159 0.069570
#
# Coordination Sequence:
#
# PCOD8030879 Si02
#       7
#     2   2   2   2   2   2   2
#     4  11  22  41  65 104 140 169 221 279 335 397
#     4  12  23  43  71 100 138 176 221 279 335 398
#     4  11  24  42  70  98 137 179 217 281 336 394
#     4  11  25  43  67 105 133 170 231 277 329 399
#     4  11  23  40  72  99 133 179 220 277 339 395
#     4  11  25  47  68  95 138 181 223 275 343 393
#     4  11  26  45  67  98 136 179 228 279 326 408
#
# _framework density 24.712264000000001
#
# number of rings (size 3 to 8) (size 9 to 14) (size 15 to 20)
#    0.000    0.857    4.286    3.429    2.000    4.000 
#    0.000    2.143    0.000    0.000    0.000    0.000 
#    0.000    0.000    0.000    0.000    0.000    0.000 
#
# Total GULP energy -173548.046499 kJ/mol
# GULP energy per Si atom -12396.289036 kJ/mol
# Density = 2.465602 g / cm^3
# Si number density = 24.712264 Si / 1000 Ang^3
#
#
#
# Elastic Constant Matrix: (Units=GPa)
#
#
# Indices 1 2 3 4 5 6 
#
# 1 118.0891 38.2056 61.7491 13.3406 15.6102 6.3081
# 2 38.2056 80.0298 37.1928 20.1943 11.3245 -3.8678
# 3 61.7491 37.1928 132.4826 14.0158 16.5418 -0.1791
# 4 13.3406 20.1943 14.0158 42.7768 16.6309 -6.7589
# 5 15.6102 11.3245 16.5418 16.6309 44.4699 3.6727
# 6 6.3081 -3.8678 -0.1791 -6.7589 3.6727 28.2052
#
#
#
# Elastic Compliance Matrix: (Units=1/GPa)
#
#
# Indices 1 2 3 4 5 6 
#
# 1 0.012445 -0.003628 -0.004559 -0.000734 -0.001199 -0.003330
# 2 -0.003628 0.016905 -0.002430 -0.005723 -0.000132 0.001760
# 3 -0.004559 -0.002430 0.010584 -0.000054 -0.001778 0.000972
# 4 -0.000734 -0.005723 -0.000054 0.031893 -0.010889 0.008439
# 5 -0.001199 -0.000132 -0.001778 -0.010889 0.028174 -0.006039
# 6 -0.003330 0.001760 0.000972 0.008439 -0.006039 0.039255
#
#
# Mechanical properties :
#
#
# Convention : Reuss Voigt Hill
#
# Bulk Modulus (GPa) = 53.47873 67.21072 60.34473
# Shear Modulus (GPa) = 29.98936 35.98732 32.98834
#
# Velocity S-wave (km/s) = 3.48737 3.82023 3.65759
# Velocity P-wave (km/s) = 6.15656 6.83485 6.50455
#
# Compressibility (1/GPa) = 0.01869902
#
# Stress axis : x y z
#
# Youngs Moduli (GPa) = 80.35062 59.15435 94.47827
#
# Poissons Ratio (x) = 0.21464 0.43074
# Poissons Ratio (y) = 0.29155 0.22961
# Poissons Ratio (z) = 0.36633 0.14376
#
# Static dielectric constant tensor:
#      x y z
#    x 4.738730 0.387690 0.021730 
#    y 0.387690 4.464240 -0.131060 
#    z 0.021730 -0.131060 4.976940 
# 
# 
# High freq. dielectric constant tensor:
#      x y z
#    x 1.989470 0.024700 0.005360 
#    y 0.024700 1.963900 -0.011230 
#    z 0.005360 -0.011230 2.007350 
# 
# From -- ./inp_files/457800.got.cif
#   From: 2010.06.25/outbox.cif.g09.slc.cpg/sg2_229_cif.got.tgz:457800.got - 2010.06.27 13:26:56.
