data_PCOD8030654
_publ_section_title
;
Structure prediction by ZEFSAII (Michael W. Deem and Ramdas Pophale) SiO2 
 PCOD8030654
Probable space group: P -1
;
_chemical_formula_sum "Si O2"
_cell_formula_units_Z 16
_cell_length_a 13.770418
_cell_length_b 8.614442
_cell_length_c 12.643151
_cell_angle_alpha 122.827442
_cell_angle_beta 45.468828
_cell_angle_gamma 92.992103
_cell_volume 751.785516
_symmetry_space_group_name_H-M "P -1"
_symmetry_group_IT_number 2
_symmetry_cell_setting 'triclinic'
loop_
_space_group_symop_operation_xyz
x,y,z
-x,-y,-z
loop_
_atom_site_type_symbol
_atom_site_label
_atom_site_fract_x
_atom_site_fract_y
_atom_site_fract_z
Si Si1 0.454941 0.861445 0.914111
Si Si2 0.172945 0.821778 0.618877
Si Si3 0.689570 0.345802 0.323545
Si Si4 0.365632 0.228022 0.468790
Si Si5 0.516654 0.448695 0.844230
Si Si6 0.662836 0.799089 0.167064
Si Si7 0.838631 0.902631 0.919855
Si Si8 0.855205 0.749034 0.204681
O O1 0.593011 0.767577 0.683267
O O2 0.454880 0.671341 0.908385
O O3 0.271757 0.029131 0.074800
O O4 0.500000 0.000000 0.000000
O O5 0.285711 0.701106 0.588505
O O6 0.292727 0.726204 0.391076
O O7 0.087517 0.085073 0.799271
O O8 0.029256 0.777564 0.698257
O O9 0.500000 0.500000 0.500000
O O10 0.738731 0.517031 0.316081
O O11 0.790257 0.124408 0.099887
O O12 0.235871 0.167605 0.579576
O O13 0.535206 0.059633 0.337138
O O14 0.409193 0.349459 0.857806
O O15 0.500000 0.500000 0.000000
O O16 0.718816 0.777200 0.236560
O O17 0.814264 0.737481 0.950319
O O18 0.000000 0.500000 0.000000
#
# Coordination Sequence:
#
# PCOD8030654 Si02
#       8
#     2   2   2   2   2   2   2   2
#     4  11  25  46  72  96 125 180 237 276 330 410
#     4  12  25  43  68 103 142 174 224 282 341 399
#     4  12  20  38  68 100 132 180 219 265 333 417
#     4  11  22  39  66  96 132 176 222 270 327 400
#     4  12  26  47  72  95 129 179 235 285 330 398
#     4  11  24  42  66  98 139 174 226 272 332 406
#     4  11  24  43  67 101 139 175 219 282 338 401
#     4  12  26  38  63 105 147 175 211 276 346 400
#
# _framework density 21.282665000000001
#
# number of rings (size 3 to 8) (size 9 to 14) (size 15 to 20)
#    0.000    0.500    6.250    3.000    7.000    0.000 
#    0.000    4.375    0.000    0.000    0.000    0.000 
#    0.000    0.000    0.000    0.000    0.000    0.000 
#
# Total GULP energy -198236.260422 kJ/mol
# GULP energy per Si atom -12389.766276 kJ/mol
# Density = 2.123422 g / cm^3
# Si number density = 21.282665 Si / 1000 Ang^3
#
#
#
# Elastic Constant Matrix: (Units=GPa)
#
#
# Indices 1 2 3 4 5 6 
#
# 1 106.2658 51.3765 53.7837 -18.1430 4.1618 5.4274
# 2 51.3765 144.7073 47.9240 -10.7250 -1.8261 4.1983
# 3 53.7837 47.9240 100.7630 -19.0290 -11.9435 2.3796
# 4 -18.1430 -10.7250 -19.0290 37.7371 7.8039 -3.2970
# 5 4.1618 -1.8261 -11.9435 7.8039 25.5044 -5.1485
# 6 5.4274 4.1983 2.3796 -3.2970 -5.1485 41.3920
#
#
#
# Elastic Compliance Matrix: (Units=1/GPa)
#
#
# Indices 1 2 3 4 5 6 
#
# 1 0.015495 -0.002922 -0.006890 0.004580 -0.007757 -0.001939
# 2 -0.002922 0.008832 -0.002699 -0.000258 -0.000156 -0.000398
# 3 -0.006890 -0.002699 0.016297 0.002598 0.008061 0.001450
# 4 0.004580 -0.000258 0.002598 0.031893 -0.009171 0.000676
# 5 -0.007757 -0.000156 0.008061 -0.009171 0.048223 0.005837
# 6 -0.001939 -0.000398 0.001450 0.000676 0.005837 0.025150
#
#
# Mechanical properties :
#
#
# Convention : Reuss Voigt Hill
#
# Bulk Modulus (GPa) = 64.08882 73.10049 68.59465
# Shear Modulus (GPa) = 28.39093 34.17014 31.28054
#
# Velocity S-wave (km/s) = 3.65635 4.01126 3.83791
# Velocity P-wave (km/s) = 6.92847 7.47500 7.20692
#
# Compressibility (1/GPa) = 0.01560335
#
# Stress axis : x y z
#
# Youngs Moduli (GPa) = 64.53836 113.22339 61.35989
#
# Poissons Ratio (x) = 0.33080 0.42275
# Poissons Ratio (y) = 0.18856 0.16561
# Poissons Ratio (z) = 0.44465 0.30559
#
# Static dielectric constant tensor:
#      x y z
#    x 3.676340 0.079760 -0.192910 
#    y 0.079760 4.159870 -0.521580 
#    z -0.192910 -0.521580 3.545500 
# 
# 
# High freq. dielectric constant tensor:
#      x y z
#    x 1.814250 0.002540 -0.011270 
#    y 0.002540 1.867870 -0.008680 
#    z -0.011270 -0.008680 1.824300 
# 
# From -- ./inp_files/357371.got.cif
#   From: 2010.06.25/outbox.cif.g09.slc.cpg/sg2_179_cif.got.tgz:357371.got - 2010.06.27 13:26:56.
