data_PCOD8030749
_publ_section_title
;
Structure prediction by ZEFSAII (Michael W. Deem and Ramdas Pophale) SiO2 
 PCOD8030749
Probable space group: P -1
;
_chemical_formula_sum "Si O2"
_cell_formula_units_Z 14
_cell_length_a 11.651098
_cell_length_b 9.908963
_cell_length_c 19.866408
_cell_angle_alpha 28.660586
_cell_angle_beta 143.616787
_cell_angle_gamma 132.710612
_cell_volume 649.331994
_symmetry_space_group_name_H-M "P -1"
_symmetry_group_IT_number 2
_symmetry_cell_setting 'triclinic'
loop_
_space_group_symop_operation_xyz
x,y,z
-x,-y,-z
loop_
_atom_site_type_symbol
_atom_site_label
_atom_site_fract_x
_atom_site_fract_y
_atom_site_fract_z
Si Si1 0.416709 0.798838 0.356404
Si Si2 0.879800 0.379424 0.436024
Si Si3 0.592514 0.768250 0.952285
Si Si4 0.829408 0.354379 0.952777
Si Si5 0.352465 0.120606 0.435614
Si Si6 0.488283 0.736685 0.064846
Si Si7 0.977356 0.772278 0.202157
O O1 0.500000 0.500000 0.500000
O O2 0.527262 0.893068 0.432790
O O3 0.186165 0.821751 0.250562
O O4 0.466614 0.997237 0.232703
O O5 0.660032 0.508268 0.267088
O O6 0.993993 0.475349 0.381732
O O7 0.000000 0.500000 0.500000
O O8 0.842933 0.049729 0.574330
O O9 0.500000 0.500000 0.000000
O O10 0.489149 0.840476 0.943125
O O11 0.827266 0.732725 0.087642
O O12 0.720910 0.550913 0.757524
O O13 0.710695 0.374142 0.958091
O O14 0.000000 0.500000 0.000000
O O15 0.888734 0.038006 0.090522
O O16 0.500000 0.000000 0.500000
O O17 0.500000 0.000000 0.000000
#
# Coordination Sequence:
#
# PCOD8030749 Si02
#       7
#     2   2   2   2   2   2   2
#     4  12  27  49  70 101 143 182 229 292 350 408
#     4  11  22  40  66 105 140 173 224 290 343 392
#     4  11  25  46  72 100 142 186 225 281 345 418
#     4  12  24  42  72 109 135 180 234 286 339 410
#     4  12  25  42  72 105 142 178 229 287 345 400
#     4  11  23  43  71 100 136 183 235 275 339 409
#     4  11  25  46  70  99 139 189 232 277 345 421
#
# _framework density 21.560618999999999
#
# number of rings (size 3 to 8) (size 9 to 14) (size 15 to 20)
#    0.000    0.571    4.286    5.571    2.000    0.000 
#    0.000    1.429    0.000    0.000    0.000    0.000 
#    0.000    0.000    0.000    0.000    0.000    0.000 
#
# Total GULP energy -173450.824213 kJ/mol
# GULP energy per Si atom -12389.344587 kJ/mol
# Density = 2.151155 g / cm^3
# Si number density = 21.560619 Si / 1000 Ang^3
#
#
#
# Elastic Constant Matrix: (Units=GPa)
#
#
# Indices 1 2 3 4 5 6 
#
# 1 147.7364 62.5259 69.1265 2.0877 -19.2165 5.3527
# 2 62.5259 157.0407 38.7576 17.7456 -14.6744 7.0869
# 3 69.1265 38.7576 103.9023 3.2184 -30.3583 -0.4525
# 4 2.0877 17.7456 3.2184 44.2739 0.4965 -5.6034
# 5 -19.2165 -14.6744 -30.3583 0.4965 40.6480 0.3079
# 6 5.3527 7.0869 -0.4525 -5.6034 0.3079 42.0276
#
#
#
# Elastic Compliance Matrix: (Units=1/GPa)
#
#
# Indices 1 2 3 4 5 6 
#
# 1 0.010932 -0.002909 -0.006424 0.001020 -0.000686 -0.000830
# 2 -0.002909 0.008249 -0.000719 -0.003317 0.001118 -0.001479
# 3 -0.006424 -0.000719 0.016919 -0.000621 0.009340 0.000970
# 4 0.001020 -0.003317 -0.000621 0.024397 -0.001505 0.003686
# 5 -0.000686 0.001118 0.009340 -0.001505 0.031678 -0.000433
# 6 -0.000830 -0.001479 0.000970 0.003686 -0.000433 0.024654
#
#
# Mechanical properties :
#
#
# Convention : Reuss Voigt Hill
#
# Bulk Modulus (GPa) = 62.51223 83.27770 72.89496
# Shear Modulus (GPa) = 35.14592 41.27452 38.21022
#
# Velocity S-wave (km/s) = 4.04183 4.38007 4.21434
# Velocity P-wave (km/s) = 7.13011 8.01803 7.58707
#
# Compressibility (1/GPa) = 0.01599687
#
# Stress axis : x y z
#
# Youngs Moduli (GPa) = 91.47348 121.22021 59.10688
#
# Poissons Ratio (x) = 0.35265 0.37968
# Poissons Ratio (y) = 0.26612 0.04249
# Poissons Ratio (z) = 0.58758 0.08714
#
# Static dielectric constant tensor:
#      x y z
#    x 3.620340 -0.060190 0.130210 
#    y -0.060190 3.880950 0.406580 
#    z 0.130210 0.406580 3.730690 
# 
# 
# High freq. dielectric constant tensor:
#      x y z
#    x 1.850690 0.020780 -0.021260 
#    y 0.020780 1.863490 0.003270 
#    z -0.021260 0.003270 1.853990 
# 
# From -- ./inp_files/157255.got.cif
#   From: 2010.06.25/outbox.cif.g09.slc.cpg/sg2_79_cif.got.tgz:157255.got - 2010.06.27 13:26:56.
