data_PCOD8030825
_publ_section_title
;
Structure prediction by ZEFSAII (Michael W. Deem and Ramdas Pophale) SiO2 
 PCOD8030825
Probable space group: P -1
;
_chemical_formula_sum "Si O2"
_cell_formula_units_Z 16
_cell_length_a 12.555727
_cell_length_b 15.031319
_cell_length_c 5.525397
_cell_angle_alpha 60.189917
_cell_angle_beta 56.377317
_cell_angle_gamma 55.681363
_cell_volume 690.761398
_symmetry_space_group_name_H-M "P -1"
_symmetry_group_IT_number 2
_symmetry_cell_setting 'triclinic'
loop_
_space_group_symop_operation_xyz
x,y,z
-x,-y,-z
loop_
_atom_site_type_symbol
_atom_site_label
_atom_site_fract_x
_atom_site_fract_y
_atom_site_fract_z
Si Si1 0.575861 0.780783 0.886555
Si Si2 0.064262 0.264144 0.229674
Si Si3 0.294209 0.869931 0.333341
Si Si4 0.086597 0.030684 0.052275
Si Si5 0.722533 0.672012 0.348321
Si Si6 0.708441 0.949786 0.561482
Si Si7 0.863402 0.262482 0.143647
Si Si8 0.082634 0.559278 0.460838
O O1 0.633229 0.717413 0.646384
O O2 0.597892 0.896794 0.712444
O O3 0.410058 0.812124 0.060065
O O4 0.639070 0.711696 0.146564
O O5 0.148371 0.139625 0.385459
O O6 0.905221 0.284929 0.331676
O O7 0.043287 0.359048 0.325863
O O8 0.151117 0.285746 0.866877
O O9 0.269769 0.771058 0.647291
O O10 0.353448 0.942606 0.329444
O O11 0.134579 0.945276 0.337632
O O12 0.243484 0.009636 0.797695
O O13 0.006727 0.160436 0.027427
O O14 0.000000 0.000000 0.000000
O O15 0.786632 0.537344 0.442125
O O16 0.841698 0.370989 0.866979
O O17 0.000000 0.500000 0.500000
#
# Coordination Sequence:
#
# PCOD8030825 Si02
#       8
#     2   2   2   2   2   2   2   2
#     4  11  28  47  70 102 142 195 245 280 330 418
#     4  11  22  40  70 106 137 169 226 296 368 417
#     4  12  27  43  66  99 146 194 230 279 345 427
#     4  12  23  41  68 102 146 177 229 289 364 417
#     4  11  25  47  71 102 140 180 242 301 344 405
#     4  11  22  41  68 100 141 186 226 290 340 425
#     4  12  24  40  65 105 139 173 228 289 365 422
#     4  12  24  42  72 106 133 174 229 302 371 415
#
# _framework density 23.162845999999998
#
# number of rings (size 3 to 8) (size 9 to 14) (size 15 to 20)
#    0.000    0.500    5.000    4.125    5.250    0.500 
#    0.000    1.250    0.000    0.000    0.000    0.000 
#    0.000    0.000    0.000    0.000    0.000    0.000 
#
# Total GULP energy -198246.804157 kJ/mol
# GULP energy per Si atom -12390.425260 kJ/mol
# Density = 2.311013 g / cm^3
# Si number density = 23.162846 Si / 1000 Ang^3
#
#
#
# Elastic Constant Matrix: (Units=GPa)
#
#
# Indices 1 2 3 4 5 6 
#
# 1 53.4220 16.1544 21.9582 -10.6642 -5.1486 0.7182
# 2 16.1544 94.2908 48.9872 -7.8952 -6.2949 6.9955
# 3 21.9582 48.9872 101.5619 -3.0565 -13.8447 6.5614
# 4 -10.6642 -7.8952 -3.0565 47.3127 -0.6068 1.8572
# 5 -5.1486 -6.2949 -13.8447 -0.6068 36.7926 7.1135
# 6 0.7182 6.9955 6.5614 1.8572 7.1135 20.7619
#
#
#
# Elastic Compliance Matrix: (Units=1/GPa)
#
#
# Indices 1 2 3 4 5 6 
#
# 1 0.021674 -0.001308 -0.003715 0.004448 0.001493 -0.000045
# 2 -0.001308 0.014594 -0.006419 0.001858 0.000547 -0.003197
# 3 -0.003715 -0.006419 0.014598 -0.000756 0.004603 -0.003832
# 4 0.004448 0.001858 -0.000756 0.022543 0.001630 -0.003116
# 5 0.001493 0.000547 0.004603 0.001630 0.031696 -0.012696
# 6 -0.000045 -0.003197 -0.003832 -0.003116 -0.012696 0.055084
#
#
# Mechanical properties :
#
#
# Convention : Reuss Voigt Hill
#
# Bulk Modulus (GPa) = 35.73794 47.05270 41.39532
# Shear Modulus (GPa) = 25.98760 31.78510 28.88635
#
# Velocity S-wave (km/s) = 3.35319 3.70840 3.53526
# Velocity P-wave (km/s) = 5.51854 6.22047 5.87999
#
# Compressibility (1/GPa) = 0.02798147
#
# Stress axis : x y z
#
# Youngs Moduli (GPa) = 46.13889 68.52149 68.50248
#
# Poissons Ratio (x) = 0.08961 0.25448
# Poissons Ratio (y) = 0.06034 0.43975
# Poissons Ratio (z) = 0.17140 0.43987
#
# Static dielectric constant tensor:
#      x y z
#    x 4.345350 0.556410 0.395330 
#    y 0.556410 4.878140 0.192940 
#    z 0.395330 0.192940 4.599970 
# 
# 
# High freq. dielectric constant tensor:
#      x y z
#    x 1.894240 0.006700 0.005710 
#    y 0.006700 1.913150 -0.004940 
#    z 0.005710 -0.004940 1.931250 
# 
# From -- ./inp_files/77089.got.cif
#   From: 2010.06.25/outbox.cif.g09.slc.cpg/sg2_39_cif.got.tgz:77089.got - 2010.06.27 13:26:56.
