data_PCOD8030446
_publ_section_title
;
Structure prediction by ZEFSAII (Michael W. Deem and Ramdas Pophale) SiO2 
 PCOD8030446
Probable space group: P -1
;
_chemical_formula_sum "Si O2"
_cell_formula_units_Z 16
_cell_length_a 15.291879
_cell_length_b 9.893999
_cell_length_c 11.643994
_cell_angle_alpha 99.860277
_cell_angle_beta 28.965908
_cell_angle_gamma 85.275352
_cell_volume 734.329478
_symmetry_space_group_name_H-M "P -1"
_symmetry_group_IT_number 2
_symmetry_cell_setting 'triclinic'
loop_
_space_group_symop_operation_xyz
x,y,z
-x,-y,-z
loop_
_atom_site_type_symbol
_atom_site_label
_atom_site_fract_x
_atom_site_fract_y
_atom_site_fract_z
Si Si1 0.250308 0.764879 0.642949
Si Si2 0.815864 0.769715 0.883740
Si Si3 0.158306 0.992132 0.975101
Si Si4 0.928477 0.499406 0.895825
Si Si5 0.780906 0.300659 0.716340
Si Si6 0.769655 0.265566 0.979780
Si Si7 0.290995 0.452108 0.618614
Si Si8 0.462853 0.336213 0.907858
O O1 0.217254 0.638499 0.735489
O O2 0.450688 0.665855 0.319814
O O3 0.056620 0.864327 0.798787
O O4 0.284009 0.879987 0.707694
O O5 0.715317 0.928341 0.100702
O O6 0.905158 0.616106 0.837845
O O7 0.992169 0.775972 0.607188
O O8 0.649859 0.769380 0.985270
O O9 0.107863 0.894562 0.113042
O O10 0.165045 0.421097 0.658134
O O11 0.886204 0.365736 0.874915
O O12 0.768423 0.591761 0.196672
O O13 0.640500 0.261327 0.787487
O O14 0.779200 0.223752 0.828611
O O15 0.696275 0.486158 0.851646
O O16 0.533823 0.351145 0.306855
#
# Coordination Sequence:
#
# PCOD8030446 Si02
#       8
#     2   2   2   2   2   2   2   2
#     4  11  21  46  69  96 143 175 218 274 343 399
#     4  12  24  44  66 105 131 178 225 272 337 402
#     4  11  26  42  68 100 143 174 212 280 347 398
#     4  11  23  39  69  98 133 173 227 284 321 387
#     4  11  24  42  71  96 134 175 232 278 317 389
#     4  12  25  43  68 100 132 182 220 276 331 395
#     4  11  22  41  68 100 134 170 233 276 323 397
#     4  11  23  41  71  98 124 184 227 279 318 392
#
# _framework density 21.788585000000001
#
# number of rings (size 3 to 8) (size 9 to 14) (size 15 to 20)
#    0.000    0.750    6.250    0.750    3.500    1.000 
#    2.250    0.625    0.000    0.000    0.000    0.000 
#    0.000    0.000    0.000    0.000    0.000    0.000 
#
# Total GULP energy -198440.263539 kJ/mol
# GULP energy per Si atom -12402.516471 kJ/mol
# Density = 2.173899 g / cm^3
# Si number density = 21.788585 Si / 1000 Ang^3
#
#
#
# Elastic Constant Matrix: (Units=GPa)
#
#
# Indices 1 2 3 4 5 6 
#
# 1 108.6989 30.5220 27.2003 -5.4757 3.4376 33.9380
# 2 30.5220 75.9185 16.6218 -2.5898 -2.0201 12.3486
# 3 27.2003 16.6218 68.7567 -1.2349 -4.1767 10.6829
# 4 -5.4757 -2.5898 -1.2349 14.6297 5.3745 1.8530
# 5 3.4376 -2.0201 -4.1767 5.3745 30.7298 -8.9187
# 6 33.9380 12.3486 10.6829 1.8530 -8.9187 50.7841
#
#
#
# Elastic Compliance Matrix: (Units=1/GPa)
#
#
# Indices 1 2 3 4 5 6 
#
# 1 0.014762 -0.003427 -0.003758 0.008276 -0.006653 -0.009712
# 2 -0.003427 0.015215 -0.002125 0.001108 0.000643 -0.000890
# 3 -0.003758 -0.002125 0.016680 -0.001417 0.002815 0.000065
# 4 0.008276 0.001108 -0.001417 0.079751 -0.018371 -0.011638
# 5 -0.006653 0.000643 0.002815 -0.018371 0.040243 0.011436
# 6 -0.009712 -0.000890 0.000065 -0.011638 0.011436 0.028817
#
#
# Mechanical properties :
#
#
# Convention : Reuss Voigt Hill
#
# Bulk Modulus (GPa) = 35.66844 44.67357 40.17101
# Shear Modulus (GPa) = 22.37805 31.16405 26.77105
#
# Velocity S-wave (km/s) = 3.20824 3.78602 3.50905
# Velocity P-wave (km/s) = 5.48904 6.29759 5.90717
#
# Compressibility (1/GPa) = 0.02803599
#
# Stress axis : x y z
#
# Youngs Moduli (GPa) = 67.74216 65.72567 59.95269
#
# Poissons Ratio (x) = 0.22525 0.22530
# Poissons Ratio (y) = 0.23216 0.12741
# Poissons Ratio (z) = 0.25457 0.13968
#
# Static dielectric constant tensor:
#      x y z
#    x 4.389270 0.150560 0.037360 
#    y 0.150560 3.915010 -0.117000 
#    z 0.037360 -0.117000 3.736990 
# 
# 
# High freq. dielectric constant tensor:
#      x y z
#    x 1.880480 0.007370 0.006040 
#    y 0.007370 1.841800 -0.007890 
#    z 0.006040 -0.007890 1.839630 
# 
# From -- ./inp_files/382379.got.cif
#   From: 2010.06.25/outbox.cif.g09.slc.cpg/sg2_192_cif.got.tgz:382379.got - 2010.06.27 13:26:56.
