data_PCOD8030715
_publ_section_title
;
Structure prediction by ZEFSAII (Michael W. Deem and Ramdas Pophale) SiO2 
 PCOD8030715
Probable space group: P -1
;
_chemical_formula_sum "Si O2"
_cell_formula_units_Z 16
_cell_length_a 11.514788
_cell_length_b 19.130386
_cell_length_c 13.872509
_cell_angle_alpha 31.039318
_cell_angle_beta 147.594926
_cell_angle_gamma 126.447233
_cell_volume 746.249529
_symmetry_space_group_name_H-M "P -1"
_symmetry_group_IT_number 2
_symmetry_cell_setting 'triclinic'
loop_
_space_group_symop_operation_xyz
x,y,z
-x,-y,-z
loop_
_atom_site_type_symbol
_atom_site_label
_atom_site_fract_x
_atom_site_fract_y
_atom_site_fract_z
Si Si1 0.122092 0.366868 0.665922
Si Si2 0.285202 0.543832 0.873355
Si Si3 0.707737 0.965586 0.764589
Si Si4 0.361223 0.793491 0.870942
Si Si5 0.462104 0.985731 0.200155
Si Si6 0.926142 0.121789 0.607204
Si Si7 0.260210 0.357685 0.245650
Si Si8 0.710810 0.456994 0.778740
O O1 0.000000 0.500000 0.500000
O O2 0.965341 0.423217 0.393116
O O3 0.119807 0.215966 0.886210
O O4 0.397615 0.326159 0.877772
O O5 0.240449 0.696122 0.717535
O O6 0.500000 0.500000 0.000000
O O7 0.359596 0.406704 0.163504
O O8 0.500000 0.000000 0.500000
O O9 0.581214 0.041881 0.686239
O O10 0.880217 0.036469 0.766213
O O11 0.161058 0.914132 0.513452
O O12 0.417908 0.900086 0.857803
O O13 0.246381 0.701230 0.955682
O O14 0.630083 0.824918 0.457306
O O15 0.211812 0.070746 0.864381
O O16 0.356474 0.410228 0.345244
O O17 0.966411 0.432018 0.941863
O O18 0.500000 0.500000 0.500000
#
# Coordination Sequence:
#
# PCOD8030715 Si02
#       8
#     2   2   2   2   2   2   2   2
#     4  11  24  38  61 100 141 181 230 274 331 414
#     4  12  24  40  68 101 141 182 225 275 341 418
#     4  11  22  40  61  96 143 186 218 273 341 407
#     4  11  23  45  68  97 133 180 227 285 343 402
#     4  11  25  41  68 101 141 177 231 279 344 413
#     4  12  22  41  65  93 141 184 219 278 341 406
#     4  11  27  47  71 108 132 180 238 287 340 417
#     4  11  26  49  77  95 139 178 234 294 349 403
#
# _framework density 21.440552
#
# number of rings (size 3 to 8) (size 9 to 14) (size 15 to 20)
#    0.000    0.750    6.250    2.625    3.500    1.500 
#    0.000    1.250    0.000    0.000    0.000    0.000 
#    0.000    0.000    0.000    0.000    0.000    0.000 
#
# Total GULP energy -198431.242891 kJ/mol
# GULP energy per Si atom -12401.952681 kJ/mol
# Density = 2.139175 g / cm^3
# Si number density = 21.440552 Si / 1000 Ang^3
#
#
#
# Elastic Constant Matrix: (Units=GPa)
#
#
# Indices 1 2 3 4 5 6 
#
# 1 81.9925 36.9862 29.4009 -1.0759 -3.7956 3.1731
# 2 36.9862 129.3807 46.1498 -0.1115 9.3504 -9.2167
# 3 29.4009 46.1498 97.6821 8.7762 4.6835 -21.8836
# 4 -1.0759 -0.1115 8.7762 56.8770 -4.7924 -4.6723
# 5 -3.7956 9.3504 4.6835 -4.7924 24.4994 -3.5946
# 6 3.1731 -9.2167 -21.8836 -4.6723 -3.5946 32.6461
#
#
#
# Elastic Compliance Matrix: (Units=1/GPa)
#
#
# Indices 1 2 3 4 5 6 
#
# 1 0.015801 -0.003578 -0.004454 0.000920 0.004119 -0.004946
# 2 -0.003578 0.010312 -0.003521 0.000228 -0.003696 0.000525
# 3 -0.004454 -0.003521 0.015593 -0.001827 -0.001292 0.009488
# 4 0.000920 0.000228 -0.001827 0.018394 0.004275 0.001854
# 5 0.004119 -0.003696 -0.001292 0.004275 0.044418 0.003193
# 6 -0.004946 0.000525 0.009488 0.001854 0.003193 0.038237
#
#
# Mechanical properties :
#
#
# Convention : Reuss Voigt Hill
#
# Bulk Modulus (GPa) = 53.75936 59.34769 56.55352
# Shear Modulus (GPa) = 29.05942 35.90574 32.48258
#
# Velocity S-wave (km/s) = 3.68550 4.09671 3.89653
# Velocity P-wave (km/s) = 6.57561 7.07937 6.83214
#
# Compressibility (1/GPa) = 0.01860141
#
# Stress axis : x y z
#
# Youngs Moduli (GPa) = 63.28554 96.96997 64.13163
#
# Poissons Ratio (x) = 0.34693 0.28564
# Poissons Ratio (y) = 0.22642 0.22581
# Poissons Ratio (z) = 0.28187 0.34143
#
# Static dielectric constant tensor:
#      x y z
#    x 6.920220 -5.217140 -4.524910 
#    y -5.217140 12.751080 7.371780 
#    z -4.524910 7.371780 9.897210 
# 
# 
# High freq. dielectric constant tensor:
#      x y z
#    x 1.825810 0.002930 -0.010030 
#    y 0.002930 1.860710 0.010830 
#    z -0.010030 0.010830 1.842040 
# 
# From -- ./inp_files/524059.got.cif
#   From: 2010.06.25/outbox.cif.g09.slc.cpg/sg2_263_cif.got.tgz:524059.got - 2010.06.27 13:26:56.
