data_PCOD8030864
_publ_section_title
;
Structure prediction by ZEFSAII (Michael W. Deem and Ramdas Pophale) SiO2 
 PCOD8030864
Probable space group: P -1
;
_chemical_formula_sum "Si O2"
_cell_formula_units_Z 16
_cell_length_a 9.712918
_cell_length_b 9.712919
_cell_length_c 12.040176
_cell_angle_alpha 76.754291
_cell_angle_beta 127.291472
_cell_angle_gamma 122.207590
_cell_volume 757.152202
_symmetry_space_group_name_H-M "P -1"
_symmetry_group_IT_number 2
_symmetry_cell_setting 'triclinic'
loop_
_space_group_symop_operation_xyz
x,y,z
-x,-y,-z
loop_
_atom_site_type_symbol
_atom_site_label
_atom_site_fract_x
_atom_site_fract_y
_atom_site_fract_z
Si Si1 0.820485 0.508701 0.618470
Si Si2 0.727161 0.700204 0.710221
Si Si3 0.609768 0.797985 0.118470
Si Si4 0.272925 0.649958 0.810724
Si Si5 0.507111 0.856401 0.465100
Si Si6 0.891301 0.042011 0.034900
Si Si7 0.489982 0.016939 0.789778
Si Si8 0.339234 0.462201 0.689276
O O1 0.707630 0.565803 0.637468
O O2 0.706954 0.311363 0.598647
O O3 0.812560 0.573512 0.479910
O O4 0.048248 0.585702 0.754546
O O5 0.683224 0.831971 0.605459
O O6 0.564443 0.605106 0.744049
O O7 0.946932 0.794259 0.853254
O O8 0.571665 0.929838 0.137468
O O9 0.668844 0.706298 0.254546
O O10 0.787284 0.891693 0.098647
O O11 0.406398 0.667350 0.979910
O O12 0.263735 0.513735 0.750000
O O13 0.361057 0.820394 0.755951
O O14 0.558995 0.906322 0.353254
O O15 0.500000 0.000000 0.500000
O O16 0.726512 0.077765 0.894540
O O17 0.000000 0.000000 0.000000
#
# Coordination Sequence:
#
# PCOD8030864 Si02
#       8
#     2   2   2   2   2   2   2   2
#     4  11  23  41  62  90 122 159 203 251 302 361
#     4  11  22  41  63  89 122 161 202 250 302 359
#     4  11  23  41  62  90 122 159 203 251 302 361
#     4  11  23  40  60  87 122 159 199 251 304 357
#     4  11  23  40  63  92 124 161 203 252 304 361
#     4  11  23  40  63  92 124 161 203 252 304 361
#     4  11  22  41  63  89 122 161 202 250 302 359
#     4  11  23  40  60  87 122 159 199 251 304 357
#
# _framework density 21.131815
#
# number of rings (size 3 to 8) (size 9 to 14) (size 15 to 20)
#    0.000    1.000    0.000   10.500    0.000    4.000 
#    0.000    5.000    0.000    0.000    0.000    0.000 
#    0.000    0.000    0.000    0.000    0.000    0.000 
#
# Total GULP energy -198508.583673 kJ/mol
# GULP energy per Si atom -12406.786480 kJ/mol
# Density = 2.108372 g / cm^3
# Si number density = 21.131815 Si / 1000 Ang^3
#
#
#
# Elastic Constant Matrix: (Units=GPa)
#
#
# Indices 1 2 3 4 5 6 
#
# 1 115.9632 34.6288 26.4197 4.5601 -0.5556 -12.2797
# 2 34.6288 90.5265 32.8871 -5.5788 4.8898 -8.9627
# 3 26.4197 32.8871 59.0109 3.1980 -9.9160 4.4957
# 4 4.5601 -5.5788 3.1980 44.4744 7.1339 -1.7688
# 5 -0.5556 4.8898 -9.9160 7.1339 34.4156 8.5416
# 6 -12.2797 -8.9627 4.4957 -1.7688 8.5416 37.1594
#
#
#
# Elastic Compliance Matrix: (Units=1/GPa)
#
#
# Indices 1 2 3 4 5 6 
#
# 1 0.010614 -0.002184 -0.004034 -0.000685 -0.001476 0.003775
# 2 -0.002184 0.017225 -0.010796 0.004763 -0.008286 0.006870
# 3 -0.004034 -0.010796 0.028128 -0.005532 0.013370 -0.010677
# 4 -0.000685 0.004763 -0.005532 0.025133 -0.008679 0.004783
# 5 -0.001476 -0.008286 0.013370 -0.008679 0.039220 -0.013532
# 6 0.003775 0.006870 -0.010677 0.004783 -0.013532 0.034446
#
#
# Mechanical properties :
#
#
# Convention : Reuss Voigt Hill
#
# Bulk Modulus (GPa) = 45.57578 50.37467 47.97523
# Shear Modulus (GPa) = 25.49649 34.64756 30.07202
#
# Velocity S-wave (km/s) = 3.47730 4.05358 3.77645
# Velocity P-wave (km/s) = 6.14300 6.76748 6.46278
#
# Compressibility (1/GPa) = 0.02194148
#
# Stress axis : x y z
#
# Youngs Moduli (GPa) = 94.21420 58.05488 35.55143
#
# Poissons Ratio (x) = 0.12677 0.14340
# Poissons Ratio (y) = 0.20573 0.38381
# Poissons Ratio (z) = 0.38002 0.62675
#
# Static dielectric constant tensor:
#      x y z
#    x 3.802810 -0.071040 -0.023400 
#    y -0.071040 3.722770 0.022060 
#    z -0.023400 0.022060 3.928140 
# 
# 
# High freq. dielectric constant tensor:
#      x y z
#    x 1.836010 -0.007200 -0.005120 
#    y -0.007200 1.828110 0.003410 
#    z -0.005120 0.003410 1.836950 
# 
# From -- ./inp_files/184845.got.cif
#   From: 2010.06.25/outbox.cif.g09.slc.cpg/sg2_93_cif.got.tgz:184845.got - 2010.06.27 13:26:56.
