data_PCOD8030673
_publ_section_title
;
Structure prediction by ZEFSAII (Michael W. Deem and Ramdas Pophale) SiO2 
 PCOD8030673
Probable space group: P -1
;
_chemical_formula_sum "Si O2"
_cell_formula_units_Z 12
_cell_length_a 9.540137
_cell_length_b 14.160038
_cell_length_c 14.324466
_cell_angle_alpha 159.909842
_cell_angle_beta 49.686320
_cell_angle_gamma 130.084092
_cell_volume 501.946255
_symmetry_space_group_name_H-M "P -1"
_symmetry_group_IT_number 2
_symmetry_cell_setting 'triclinic'
loop_
_space_group_symop_operation_xyz
x,y,z
-x,-y,-z
loop_
_atom_site_type_symbol
_atom_site_label
_atom_site_fract_x
_atom_site_fract_y
_atom_site_fract_z
Si Si1 0.011014 0.035251 0.916963
Si Si2 0.208567 0.485563 0.563707
Si Si3 0.421447 0.259094 0.429787
Si Si4 0.288938 0.041402 0.648256
Si Si5 0.757186 0.342525 0.024393
Si Si6 0.141255 0.565604 0.138464
O O1 0.215362 0.016059 0.764754
O O2 0.857727 0.800347 0.724469
O O3 0.000000 0.000000 0.000000
O O4 0.962055 0.336322 0.184884
O O5 0.312779 0.427785 0.559454
O O6 0.357545 0.675871 0.611760
O O7 0.368212 0.931779 0.138638
O O8 0.356680 0.392285 0.677854
O O9 0.148988 0.813350 0.440152
O O10 0.500000 0.000000 0.500000
O O11 0.282358 0.351952 0.903673
O O12 0.809974 0.286231 0.843683
O O13 0.935827 0.397922 0.066081
#
# Coordination Sequence:
#
# PCOD8030673 Si02
#       6
#     2   2   2   2   2   2
#     4  12  26  45  68  94 131 177 223 271 323 384
#     4  11  24  42  66  97 131 171 216 267 332 392
#     4  11  22  39  67  99 132 168 211 269 330 394
#     4  12  26  45  68  94 131 177 223 271 323 384
#     4  11  22  39  67  99 132 168 211 269 330 394
#     4  11  24  42  66  97 131 171 216 267 332 392
#
# _framework density 23.906942000000001
#
# number of rings (size 3 to 8) (size 9 to 14) (size 15 to 20)
#    0.000    0.667    0.000    9.000    0.000    9.333 
#    0.000    0.000    0.000    0.000    0.000    0.000 
#    0.000    0.000    0.000    0.000    0.000    0.000 
#
# Total GULP energy -148806.874334 kJ/mol
# GULP energy per Si atom -12400.572861 kJ/mol
# Density = 2.385253 g / cm^3
# Si number density = 23.906942 Si / 1000 Ang^3
#
#
#
# Elastic Constant Matrix: (Units=GPa)
#
#
# Indices 1 2 3 4 5 6 
#
# 1 46.7512 30.1014 19.8127 -14.1304 -1.8693 -2.8241
# 2 30.1014 108.9675 18.4543 -17.7774 2.5998 11.6416
# 3 19.8127 18.4543 118.4688 -4.5223 5.5408 0.0964
# 4 -14.1304 -17.7774 -4.5223 53.4602 1.8719 0.2842
# 5 -1.8693 2.5998 5.5408 1.8719 33.6827 -4.5617
# 6 -2.8241 11.6416 0.0964 0.2842 -4.5617 32.4973
#
#
#
# Elastic Compliance Matrix: (Units=1/GPa)
#
#
# Indices 1 2 3 4 5 6 
#
# 1 0.029769 -0.007469 -0.003789 0.004917 0.003351 0.005701
# 2 -0.007469 0.012302 -0.000480 0.002179 -0.002134 -0.005373
# 3 -0.003789 -0.000480 0.009219 -0.000318 -0.001729 -0.000425
# 4 0.004917 0.002179 -0.000318 0.020745 -0.001089 -0.000687
# 5 0.003351 -0.002134 -0.001729 -0.001089 0.031121 0.005439
# 6 0.005701 -0.005373 -0.000425 -0.000687 0.005439 0.033963
#
#
# Mechanical properties :
#
#
# Convention : Reuss Voigt Hill
#
# Bulk Modulus (GPa) = 35.95232 45.65825 40.80528
# Shear Modulus (GPa) = 29.43537 37.64931 33.54234
#
# Velocity S-wave (km/s) = 3.51272 3.97272 3.74978
# Velocity P-wave (km/s) = 5.61457 6.33901 5.98776
#
# Compressibility (1/GPa) = 0.02781462
#
# Stress axis : x y z
#
# Youngs Moduli (GPa) = 33.59240 81.28767 108.47747
#
# Poissons Ratio (x) = 0.60711 0.41099
# Poissons Ratio (y) = 0.25089 0.05206
# Poissons Ratio (z) = 0.12727 0.03901
#
# Static dielectric constant tensor:
#      x y z
#    x 3.986710 0.065770 0.107020 
#    y 0.065770 4.470420 -0.217310 
#    z 0.107020 -0.217310 4.511300 
# 
# 
# High freq. dielectric constant tensor:
#      x y z
#    x 1.918430 0.003320 0.005510 
#    y 0.003320 1.968430 -0.007800 
#    z 0.005510 -0.007800 1.970340 
# 
# From -- ./inp_files/314753.got.cif
#   From: 2010.06.25/outbox.cif.g09.slc.cpg/sg2_158_cif.got.tgz:314753.got - 2010.06.27 13:26:56.
