data_PCOD8030987
_publ_section_title
;
Structure prediction by ZEFSAII (Michael W. Deem and Ramdas Pophale) SiO2 
 PCOD8030987
Probable space group: P -1
;
_chemical_formula_sum "Si O2"
_cell_formula_units_Z 14
_cell_length_a 22.345412
_cell_length_b 13.552003
_cell_length_c 6.657970
_cell_angle_alpha 119.988390
_cell_angle_beta 59.716779
_cell_angle_gamma 158.278064
_cell_volume 641.267464
_symmetry_space_group_name_H-M "P -1"
_symmetry_group_IT_number 2
_symmetry_cell_setting 'triclinic'
loop_
_space_group_symop_operation_xyz
x,y,z
-x,-y,-z
loop_
_atom_site_type_symbol
_atom_site_label
_atom_site_fract_x
_atom_site_fract_y
_atom_site_fract_z
Si Si1 0.349695 0.322816 0.444822
Si Si2 0.423166 0.576376 0.209463
Si Si3 0.526608 0.111218 0.372531
Si Si4 0.025125 0.464155 0.223726
Si Si5 0.236607 0.934783 0.072309
Si Si6 0.807169 0.724194 0.054547
Si Si7 0.744984 0.379372 0.934248
O O1 0.500000 0.500000 0.500000
O O2 0.420647 0.466398 0.254081
O O3 0.250156 0.275412 0.672952
O O4 0.221435 0.029960 0.319951
O O5 0.429020 0.694012 0.460267
O O6 0.259514 0.331435 0.103077
O O7 0.573777 0.800849 0.028829
O O8 0.500000 0.000000 0.500000
O O9 0.363724 0.866362 0.266721
O O10 0.677164 0.279093 0.172489
O O11 0.168524 0.731999 0.118512
O O12 0.076775 0.412718 0.147321
O O13 0.000000 0.500000 0.500000
O O14 0.858679 0.204746 0.118830
O O15 0.738014 0.495355 0.975385
O O16 0.000000 0.000000 0.000000
#
# Coordination Sequence:
#
# PCOD8030987 Si02
#       7
#     2   2   2   2   2   2   2
#     4  12  28  47  76 102 143 196 243 296 352 430
#     4  12  25  47  73 104 138 189 243 295 355 432
#     4  11  22  41  71 100 134 178 230 286 353 416
#     4  11  27  46  73 105 145 184 232 302 355 424
#     4  11  27  46  72 106 139 187 247 284 362 425
#     4  12  29  46  70 108 146 189 240 295 363 424
#     4  11  25  43  70 103 139 179 232 293 353 422
#
# _framework density 21.831765000000001
#
# number of rings (size 3 to 8) (size 9 to 14) (size 15 to 20)
#    0.000    0.571    4.286    2.143   10.000    2.857 
#    0.000    0.000    0.000    0.000    0.000    0.000 
#    0.000    0.000    0.000    0.000    0.000    0.000 
#
# Total GULP energy -173659.902873 kJ/mol
# GULP energy per Si atom -12404.278777 kJ/mol
# Density = 2.178207 g / cm^3
# Si number density = 21.831765 Si / 1000 Ang^3
#
#
#
# Elastic Constant Matrix: (Units=GPa)
#
#
# Indices 1 2 3 4 5 6 
#
# 1 113.7447 29.4068 43.8381 -1.3222 6.9006 14.0117
# 2 29.4068 96.0721 38.2026 4.6163 0.6267 16.5726
# 3 43.8381 38.2026 130.5442 12.7040 -1.1599 14.0824
# 4 -1.3222 4.6163 12.7040 41.3662 -7.0144 -6.2945
# 5 6.9006 0.6267 -1.1599 -7.0144 36.6776 -4.2273
# 6 14.0117 16.5726 14.0824 -6.2945 -4.2273 34.1791
#
#
#
# Elastic Compliance Matrix: (Units=1/GPa)
#
#
# Indices 1 2 3 4 5 6 
#
# 1 0.010831 -0.001722 -0.002943 0.000670 -0.002267 -0.002549
# 2 -0.001722 0.012861 -0.002508 -0.001609 -0.000847 -0.004898
# 3 -0.002943 -0.002508 0.009938 -0.003203 0.000038 -0.002257
# 4 0.000670 -0.001609 -0.003203 0.027528 0.005944 0.007630
# 5 -0.002267 -0.000847 0.000038 0.005944 0.029544 0.006073
# 6 -0.002549 -0.004898 -0.002257 0.007630 0.006073 0.035764
#
#
# Mechanical properties :
#
#
# Convention : Reuss Voigt Hill
#
# Bulk Modulus (GPa) = 51.86044 62.58400 57.22222
# Shear Modulus (GPa) = 33.95817 37.70549 35.83183
#
# Velocity S-wave (km/s) = 3.94820 4.16034 4.05565
# Velocity P-wave (km/s) = 6.67761 7.19768 6.94252
#
# Compressibility (1/GPa) = 0.01928252
#
# Stress axis : x y z
#
# Youngs Moduli (GPa) = 92.33055 77.75436 100.62259
#
# Poissons Ratio (x) = 0.13393 0.29617
# Poissons Ratio (y) = 0.15903 0.25235
# Poissons Ratio (z) = 0.27176 0.19500
#
# Static dielectric constant tensor:
#      x y z
#    x 3.819390 -0.030140 0.209060 
#    y -0.030140 3.926930 0.126660 
#    z 0.209060 0.126660 3.993590 
# 
# 
# High freq. dielectric constant tensor:
#      x y z
#    x 1.868960 -0.004140 -0.001450 
#    y -0.004140 1.851930 0.007980 
#    z -0.001450 0.007980 1.879410 
# 
# From -- ./inp_files/101018.got.cif
#   From: 2010.06.25/outbox.cif.g09.slc.cpg/sg2_51_cif.got.tgz:101018.got - 2010.06.27 13:26:56.
