data_PCOD8030026
_publ_section_title
;
Structure prediction by ZEFSAII (Michael W. Deem and Ramdas Pophale) SiO2 
 PCOD8030026
Probable space group: P -1
;
_chemical_formula_sum "Si O2"
_cell_formula_units_Z 16
_cell_length_a 9.149228
_cell_length_b 15.784258
_cell_length_c 11.969945
_cell_angle_alpha 26.160363
_cell_angle_beta 92.993880
_cell_angle_gamma 104.897976
_cell_volume 668.727897
_symmetry_space_group_name_H-M "P -1"
_symmetry_group_IT_number 2
_symmetry_cell_setting 'triclinic'
loop_
_space_group_symop_operation_xyz
x,y,z
-x,-y,-z
loop_
_atom_site_type_symbol
_atom_site_label
_atom_site_fract_x
_atom_site_fract_y
_atom_site_fract_z
Si Si1 0.848482 0.630399 0.780179
Si Si2 0.910097 0.706691 0.942848
Si Si3 0.735015 0.151146 0.271063
Si Si4 0.781407 0.022309 0.644960
Si Si5 0.733957 0.860966 0.336745
Si Si6 0.466665 0.935375 0.847871
Si Si7 0.038947 0.345367 0.761519
Si Si8 0.668717 0.540069 0.512240
O O1 0.817040 0.590894 0.960703
O O2 0.753348 0.756668 0.577924
O O3 0.045103 0.752785 0.610913
O O4 0.779643 0.401883 0.986894
O O5 0.100038 0.875880 0.716720
O O6 0.818345 0.822292 0.866534
O O7 0.920398 0.559277 0.221022
O O8 0.667632 0.023656 0.535305
O O9 0.598340 0.038426 0.306020
O O10 0.661496 0.992344 0.782888
O O11 0.723506 0.700574 0.429007
O O12 0.566039 0.889195 0.290286
O O13 0.891725 0.098048 0.048513
O O14 0.348284 0.692846 0.176451
O O15 0.197265 0.341679 0.718493
O O16 0.000000 0.500000 0.500000
O O17 0.500000 0.500000 0.500000
#
# Coordination Sequence:
#
# PCOD8030026 Si02
#       8
#     2   2   2   2   2   2   2   2
#     4  11  23  43  72 111 139 185 240 295 356 434
#     4  11  21  41  71 102 140 184 235 289 350 422
#     4  11  21  43  68 106 147 180 237 291 353 441
#     4  11  22  39  68 104 145 185 224 292 363 421
#     4  12  25  50  77 100 146 192 239 298 362 425
#     4  12  24  47  68 104 147 186 234 297 359 425
#     4  12  24  48  77 101 141 196 244 291 347 426
#     4  12  28  50  70 105 143 186 247 299 356 421
#
# _framework density 23.926022
#
# number of rings (size 3 to 8) (size 9 to 14) (size 15 to 20)
#    0.000    0.500    5.000    5.250    0.000    0.500 
#    9.000    1.250    0.000    0.000    0.000    0.000 
#    0.000    0.000    0.000    0.000    0.000    0.000 
#
# Total GULP energy -198277.032709 kJ/mol
# GULP energy per Si atom -12392.314544 kJ/mol
# Density = 2.387157 g / cm^3
# Si number density = 23.926022 Si / 1000 Ang^3
#
#
#
# Elastic Constant Matrix: (Units=GPa)
#
#
# Indices 1 2 3 4 5 6 
#
# 1 118.6392 15.0797 17.6432 6.6443 4.4223 -26.2735
# 2 15.0797 98.8742 27.8587 16.3781 3.4097 -3.1894
# 3 17.6432 27.8587 83.2898 14.0560 16.8922 -3.0498
# 4 6.6443 16.3781 14.0560 28.5430 -2.7901 3.5950
# 5 4.4223 3.4097 16.8922 -2.7901 29.7204 10.5482
# 6 -26.2735 -3.1894 -3.0498 3.5950 10.5482 38.7273
#
#
#
# Elastic Compliance Matrix: (Units=1/GPa)
#
#
# Indices 1 2 3 4 5 6 
#
# 1 0.010935 -0.000529 -0.000131 -0.003821 -0.005082 0.009104
# 2 -0.000529 0.011957 -0.002782 -0.005567 -0.000623 0.001093
# 3 -0.000131 -0.002782 0.017014 -0.008557 -0.011933 0.005067
# 4 -0.003821 -0.005567 -0.008557 0.046281 0.014681 -0.012020
# 5 -0.005082 -0.000623 -0.011933 0.014681 0.049477 -0.019278
# 6 0.009104 0.001093 0.005067 -0.012020 -0.019278 0.038853
#
#
# Mechanical properties :
#
#
# Convention : Reuss Voigt Hill
#
# Bulk Modulus (GPa) = 30.28124 46.88515 38.58320
# Shear Modulus (GPa) = 25.98635 35.41291 30.69963
#
# Velocity S-wave (km/s) = 3.29920 3.85138 3.58593
# Velocity P-wave (km/s) = 5.21504 6.27821 5.77116
#
# Compressibility (1/GPa) = 0.03302375
#
# Stress axis : x y z
#
# Youngs Moduli (GPa) = 91.44900 83.63224 58.77460
#
# Poissons Ratio (x) = 0.04425 0.00767
# Poissons Ratio (y) = 0.04839 0.16349
# Poissons Ratio (z) = 0.01194 0.23263
#
# Static dielectric constant tensor:
#      x y z
#    x 4.560560 0.003850 0.192890 
#    y 0.003850 3.627700 0.355730 
#    z 0.192890 0.355730 4.551940 
# 
# 
# High freq. dielectric constant tensor:
#      x y z
#    x 1.958740 -0.009430 0.019400 
#    y -0.009430 1.943750 0.017780 
#    z 0.019400 0.017780 1.943090 
# 
# From -- ./inp_files/398176.got.cif
#   From: 2010.06.25/outbox.cif.g09.slc.cpg/sg2_200_cif.got.tgz:398176.got - 2010.06.27 13:26:56.
