data_PCOD8030570
_publ_section_title
;
Structure prediction by ZEFSAII (Michael W. Deem and Ramdas Pophale) SiO2 
 PCOD8030570
Probable space group: P -1
;
_chemical_formula_sum "Si O2"
_cell_formula_units_Z 10
_cell_length_a 11.039313
_cell_length_b 11.278132
_cell_length_c 9.091689
_cell_angle_alpha 141.283554
_cell_angle_beta 119.594624
_cell_angle_gamma 38.499892
_cell_volume 420.446541
_symmetry_space_group_name_H-M "P -1"
_symmetry_group_IT_number 2
_symmetry_cell_setting 'triclinic'
loop_
_space_group_symop_operation_xyz
x,y,z
-x,-y,-z
loop_
_atom_site_type_symbol
_atom_site_label
_atom_site_fract_x
_atom_site_fract_y
_atom_site_fract_z
Si Si1 0.218922 0.237890 0.554975
Si Si2 0.772312 0.282119 0.596665
Si Si3 0.447333 0.353644 0.900608
Si Si4 0.650001 0.993935 0.265019
Si Si5 0.219920 0.386102 0.279535
O O1 0.300322 0.374062 0.724690
O O2 0.978508 0.459975 0.590031
O O3 0.344346 0.973268 0.266170
O O4 0.257416 0.122136 0.631236
O O5 0.644751 0.218836 0.431888
O O6 0.778101 0.398451 0.564359
O O7 0.665077 0.512806 0.882724
O O8 0.000000 0.000000 0.500000
O O9 0.500000 0.500000 0.000000
O O10 0.417390 0.148700 0.268213
O O11 0.790632 0.741936 0.990708
#
# Coordination Sequence:
#
# PCOD8030570 Si02
#       5
#     2   2   2   2   2
#     4  11  22  41  64  85 124 161 197 249 300 356
#     4  12  21  38  68  90 121 160 200 250 301 352
#     4  11  22  38  64  88 120 163 200 242 304 360
#     4  11  22  38  65  91 123 155 201 255 292 357
#     4  11  23  40  63  94 118 158 207 244 303 352
#
# _framework density 23.784236
#
# number of rings (size 3 to 8) (size 9 to 14) (size 15 to 20)
#    0.000    0.800    6.000    2.400    0.000    0.000 
#    0.000    5.000    4.400    0.000    0.000    0.000 
#    0.000    0.000    0.000    0.000    0.000    0.000 
#
# Total GULP energy -124026.846213 kJ/mol
# GULP energy per Si atom -12402.684621 kJ/mol
# Density = 2.373010 g / cm^3
# Si number density = 23.784236 Si / 1000 Ang^3
#
#
#
# Elastic Constant Matrix: (Units=GPa)
#
#
# Indices 1 2 3 4 5 6 
#
# 1 115.9969 8.4669 46.0673 3.8248 14.9483 -22.8932
# 2 8.4669 52.3726 21.8074 23.0521 -15.9696 -33.8879
# 3 46.0673 21.8074 124.4177 19.8232 4.0740 -21.1793
# 4 3.8248 23.0521 19.8232 33.1098 -14.9125 -11.9498
# 5 14.9483 -15.9696 4.0740 -14.9125 48.2682 3.0992
# 6 -22.8932 -33.8879 -21.1793 -11.9498 3.0992 45.9731
#
#
#
# Elastic Compliance Matrix: (Units=1/GPa)
#
#
# Indices 1 2 3 4 5 6 
#
# 1 0.011436 0.003080 -0.003550 -0.000231 -0.002709 0.006452
# 2 0.003080 0.052292 -0.001678 -0.019967 0.008165 0.033566
# 3 -0.003550 -0.001678 0.010708 -0.005560 -0.002118 0.000625
# 4 -0.000231 -0.019967 -0.005560 0.050011 0.009710 -0.005050
# 5 -0.002709 0.008165 -0.002118 0.009710 0.027155 0.004387
# 6 0.006452 0.033566 0.000625 -0.005050 0.004387 0.048387
#
#
# Mechanical properties :
#
#
# Convention : Reuss Voigt Hill
#
# Bulk Modulus (GPa) = 14.25731 49.49671 31.87701
# Shear Modulus (GPa) = 21.96213 39.89991 30.93102
#
# Velocity S-wave (km/s) = 3.04203 4.10027 3.61013
# Velocity P-wave (km/s) = 4.28323 6.57816 5.55060
#
# Compressibility (1/GPa) = 0.07013944
#
# Stress axis : x y z
#
# Youngs Moduli (GPa) = 87.44142 19.12342 93.38899
#
# Poissons Ratio (x) = -0.05891 0.33157
# Poissons Ratio (y) = -0.26936 0.15674
# Poissons Ratio (z) = 0.31045 0.03210
#
# Static dielectric constant tensor:
#      x y z
#    x 4.488740 -0.307260 0.101180 
#    y -0.307260 3.967990 0.133490 
#    z 0.101180 0.133490 4.542770 
# 
# 
# High freq. dielectric constant tensor:
#      x y z
#    x 1.959990 -0.015520 0.003600 
#    y -0.015520 1.922710 0.014260 
#    z 0.003600 0.014260 1.951390 
# 
# From -- ./inp_files/17556.got.cif
#   From: 2010.06.25/outbox.cif.g09.slc.cpg/sg2_9_cif.got.tgz:17556.got - 2010.06.27 13:26:56.
