data_PCOD8030572
_publ_section_title
;
Structure prediction by ZEFSAII (Michael W. Deem and Ramdas Pophale) SiO2 
 PCOD8030572
Probable space group: P -1
;
_chemical_formula_sum "Si O2"
_cell_formula_units_Z 12
_cell_length_a 16.558838
_cell_length_b 13.268522
_cell_length_c 18.536748
_cell_angle_alpha 160.144036
_cell_angle_beta 157.336053
_cell_angle_gamma 34.116824
_cell_volume 507.494843
_symmetry_space_group_name_H-M "P -1"
_symmetry_group_IT_number 2
_symmetry_cell_setting 'triclinic'
loop_
_space_group_symop_operation_xyz
x,y,z
-x,-y,-z
loop_
_atom_site_type_symbol
_atom_site_label
_atom_site_fract_x
_atom_site_fract_y
_atom_site_fract_z
Si Si1 0.336108 0.475627 0.942274
Si Si2 0.049427 0.828693 0.222343
Si Si3 0.874575 0.496122 0.066672
Si Si4 0.242529 0.651563 0.832305
Si Si5 0.613336 0.863574 0.833426
Si Si6 0.681587 0.011852 0.216287
O O1 0.275064 0.612696 0.058955
O O2 0.246625 0.648737 0.920589
O O3 0.599042 0.545231 0.198826
O O4 0.225791 0.099502 0.593225
O O5 0.833487 0.940297 0.114665
O O6 0.000000 0.500000 0.000000
O O7 0.137319 0.796023 0.191561
O O8 0.127835 0.657104 0.407073
O O9 0.789720 0.736885 0.110850
O O10 0.000000 0.500000 0.500000
O O11 0.330901 0.007766 0.115428
O O12 0.500000 0.500000 0.500000
O O13 0.446091 0.033457 0.843011
O O14 0.500000 0.000000 0.000000
#
# Coordination Sequence:
#
# PCOD8030572 Si02
#       6
#     2   2   2   2   2   2
#     4  11  24  45  72  95 139 188 226 282 352 410
#     4  12  23  41  70 104 140 179 228 286 346 405
#     4  11  23  42  65 104 139 174 232 287 341 408
#     4  11  24  45  71  96 137 190 226 281 355 415
#     4  12  22  42  69  99 137 176 230 282 338 411
#     4  11  22  38  64  98 141 177 223 287 347 402
#
# _framework density 23.64556
#
# number of rings (size 3 to 8) (size 9 to 14) (size 15 to 20)
#    0.000    0.667    5.000    5.000    0.000    0.000 
#    0.000    4.167    3.667    0.000    0.000    0.000 
#    0.000    0.000    0.000    0.000    0.000    0.000 
#
# Total GULP energy -148801.403957 kJ/mol
# GULP energy per Si atom -12400.116996 kJ/mol
# Density = 2.359174 g / cm^3
# Si number density = 23.645560 Si / 1000 Ang^3
#
#
#
# Elastic Constant Matrix: (Units=GPa)
#
#
# Indices 1 2 3 4 5 6 
#
# 1 120.4803 19.9853 26.7508 -5.9395 13.6053 1.5655
# 2 19.9853 90.5474 37.8425 -24.4769 10.1246 10.6525
# 3 26.7508 37.8425 78.9684 -17.5921 7.1218 2.8775
# 4 -5.9395 -24.4769 -17.5921 52.2115 7.5721 8.3362
# 5 13.6053 10.1246 7.1218 7.5721 30.8709 6.0310
# 6 1.5655 10.6525 2.8775 8.3362 6.0310 57.5472
#
#
#
# Elastic Compliance Matrix: (Units=1/GPa)
#
#
# Indices 1 2 3 4 5 6 
#
# 1 0.009363 -0.000538 -0.002508 0.000436 -0.003532 0.000277
# 2 -0.000538 0.016264 -0.005509 0.006930 -0.004899 -0.003211
# 3 -0.002508 -0.005509 0.017010 0.003125 -0.001773 -0.000030
# 4 0.000436 0.006930 0.003125 0.025427 -0.008596 -0.004233
# 5 -0.003532 -0.004899 -0.001773 -0.008596 0.038403 -0.001688
# 6 0.000277 -0.003211 -0.000030 -0.004233 -0.001688 0.018756
#
#
# Mechanical properties :
#
#
# Convention : Reuss Voigt Hill
#
# Bulk Modulus (GPa) = 39.17522 51.01703 45.09612
# Shear Modulus (GPa) = 33.14713 41.82042 37.48378
#
# Velocity S-wave (km/s) = 3.74817 4.21008 3.98582
# Velocity P-wave (km/s) = 5.94435 6.72723 6.34787
#
# Compressibility (1/GPa) = 0.02552634
#
# Stress axis : x y z
#
# Youngs Moduli (GPa) = 106.80235 61.48564 58.78858
#
# Poissons Ratio (x) = 0.03309 0.14746
# Poissons Ratio (y) = 0.05748 0.32386
# Poissons Ratio (z) = 0.26790 0.33872
#
# Static dielectric constant tensor:
#      x y z
#    x 4.958960 -0.306660 0.508240 
#    y -0.306660 4.613440 -0.489520 
#    z 0.508240 -0.489520 4.230170 
# 
# 
# High freq. dielectric constant tensor:
#      x y z
#    x 1.943300 0.008930 0.018550 
#    y 0.008930 1.942380 -0.031120 
#    z 0.018550 -0.031120 1.918890 
# 
# From -- ./inp_files/600330.got.cif
#   From: 2010.06.25/outbox.cif.g09.slc.cpg/sg2_301_cif.got.tgz:600330.got - 2010.06.27 13:26:56.
