data_PCOD8030465
_publ_section_title
;
Structure prediction by ZEFSAII (Michael W. Deem and Ramdas Pophale) SiO2 
 PCOD8030465
Probable space group: P -1
;
_chemical_formula_sum "Si O2"
_cell_formula_units_Z 16
_cell_length_a 16.496909
_cell_length_b 8.584261
_cell_length_c 11.422369
_cell_angle_alpha 92.554516
_cell_angle_beta 124.271637
_cell_angle_gamma 42.518637
_cell_volume 676.011222
_symmetry_space_group_name_H-M "P -1"
_symmetry_group_IT_number 2
_symmetry_cell_setting 'triclinic'
loop_
_space_group_symop_operation_xyz
x,y,z
-x,-y,-z
loop_
_atom_site_type_symbol
_atom_site_label
_atom_site_fract_x
_atom_site_fract_y
_atom_site_fract_z
Si Si1 0.408438 0.304384 0.087145
Si Si2 0.421527 0.247666 0.723397
Si Si3 0.925666 0.418667 0.253168
Si Si4 0.507996 0.807538 0.479995
Si Si5 0.984208 0.842486 0.454509
Si Si6 0.688799 0.033983 0.120832
Si Si7 0.215408 0.754035 0.144421
Si Si8 0.116634 0.212620 0.161421
O O1 0.302448 0.580717 0.086437
O O2 0.466699 0.070924 0.200446
O O3 0.592582 0.129248 0.170412
O O4 0.258828 0.443538 0.872855
O O5 0.450862 0.289146 0.624478
O O6 0.197023 0.508684 0.567891
O O7 0.520647 0.238314 0.893303
O O8 0.869200 0.674818 0.230841
O O9 0.068035 0.176410 0.466736
O O10 0.998801 0.295452 0.175202
O O11 0.663862 0.492993 0.664093
O O12 0.500000 0.000000 0.500000
O O13 0.297303 0.047842 0.362467
O O14 0.803200 0.044926 0.225818
O O15 0.000000 0.000000 0.500000
O O16 0.208491 0.951507 0.145837
O O17 0.000000 0.000000 0.000000
O O18 0.000000 0.500000 0.000000
#
# Coordination Sequence:
#
# PCOD8030465 Si02
#       8
#     2   2   2   2   2   2   2   2
#     4  11  21  46  76 106 148 197 257 316 384 458
#     4  11  24  49  72 112 154 194 259 315 382 468
#     4  11  23  47  75 107 147 194 254 313 384 469
#     4  12  27  47  75 110 156 203 253 317 386 466
#     4  12  28  44  72 116 153 197 251 317 387 465
#     4  11  24  46  79 104 143 206 246 311 389 451
#     4  12  26  47  74 108 149 204 254 322 387 453
#     4  12  27  49  73 113 151 203 261 314 392 468
#
# _framework density 23.668244000000001
#
# number of rings (size 3 to 8) (size 9 to 14) (size 15 to 20)
#    0.000    0.500    5.000    3.750    5.250    1.500 
#    6.750    0.000    0.000    0.000    0.000    0.000 
#    0.000    0.000    0.000    0.000    0.000    0.000 
#
# Total GULP energy -198270.540901 kJ/mol
# GULP energy per Si atom -12391.908806 kJ/mol
# Density = 2.361437 g / cm^3
# Si number density = 23.668244 Si / 1000 Ang^3
#
#
#
# Elastic Constant Matrix: (Units=GPa)
#
#
# Indices 1 2 3 4 5 6 
#
# 1 74.8184 25.9047 44.6442 3.7451 12.6478 4.2426
# 2 25.9047 133.2237 26.4714 0.0313 6.3781 16.4847
# 3 44.6442 26.4714 134.8433 -4.5160 19.0370 4.6384
# 4 3.7451 0.0313 -4.5160 34.5369 6.3513 1.8547
# 5 12.6478 6.3781 19.0370 6.3513 51.2330 6.0548
# 6 4.2426 16.4847 4.6384 1.8547 6.0548 44.9777
#
#
#
# Elastic Compliance Matrix: (Units=1/GPa)
#
#
# Indices 1 2 3 4 5 6 
#
# 1 0.017712 -0.002324 -0.005222 -0.002261 -0.001870 0.000065
# 2 -0.002324 0.008461 -0.000802 0.000269 0.000119 -0.002826
# 3 -0.005222 -0.000802 0.009734 0.002301 -0.002516 0.000027
# 4 -0.002261 0.000269 0.002301 0.030278 -0.003985 -0.000835
# 5 -0.001870 0.000119 -0.002516 -0.003985 0.021674 -0.002361
# 6 0.000065 -0.002826 0.000027 -0.000835 -0.002361 0.023613
#
#
# Mechanical properties :
#
#
# Convention : Reuss Voigt Hill
#
# Bulk Modulus (GPa) = 52.05430 59.65845 55.85638
# Shear Modulus (GPa) = 37.15502 42.54051 39.84777
#
# Velocity S-wave (km/s) = 3.96640 4.24414 4.10762
# Velocity P-wave (km/s) = 6.55877 7.01981 6.79320
#
# Compressibility (1/GPa) = 0.01921071
#
# Stress axis : x y z
#
# Youngs Moduli (GPa) = 56.45916 118.18270 102.73598
#
# Poissons Ratio (x) = 0.27470 0.53646
# Poissons Ratio (y) = 0.13123 0.08241
# Poissons Ratio (z) = 0.29481 0.09480
#
# Static dielectric constant tensor:
#      x y z
#    x 4.687030 -0.608500 0.713980 
#    y -0.608500 4.977380 -0.629330 
#    z 0.713980 -0.629330 5.250330 
# 
# 
# High freq. dielectric constant tensor:
#      x y z
#    x 1.935080 -0.002760 0.011600 
#    y -0.002760 1.943880 0.001660 
#    z 0.011600 0.001660 1.945650 
# 
# From -- ./inp_files/462236.got.cif
#   From: 2010.06.25/outbox.cif.g09.slc.cpg/sg2_232_cif.got.tgz:462236.got - 2010.06.27 13:26:56.
