data_PCOD8030756
_publ_section_title
;
Structure prediction by ZEFSAII (Michael W. Deem and Ramdas Pophale) SiO2 
 PCOD8030756
Probable space group: P -1
;
_chemical_formula_sum "Si O2"
_cell_formula_units_Z 16
_cell_length_a 9.021499
_cell_length_b 17.129955
_cell_length_c 10.374611
_cell_angle_alpha 83.535390
_cell_angle_beta 29.692922
_cell_angle_gamma 82.553862
_cell_volume 787.484887
_symmetry_space_group_name_H-M "P -1"
_symmetry_group_IT_number 2
_symmetry_cell_setting 'triclinic'
loop_
_space_group_symop_operation_xyz
x,y,z
-x,-y,-z
loop_
_atom_site_type_symbol
_atom_site_label
_atom_site_fract_x
_atom_site_fract_y
_atom_site_fract_z
Si Si1 0.408384 0.085581 0.999814
Si Si2 0.599685 0.563140 0.008921
Si Si3 0.048350 0.085756 0.001028
Si Si4 0.337563 0.348059 0.495585
Si Si5 0.037568 0.160858 0.500017
Si Si6 0.003055 0.347026 0.489937
Si Si7 0.109881 0.561206 0.001079
Si Si8 0.617568 0.838454 0.499137
O O1 0.708816 0.130220 0.749231
O O2 0.229713 0.082382 0.999883
O O3 0.206713 0.129999 0.251125
O O4 0.500000 0.000000 0.000000
O O5 0.335105 0.617597 0.262130
O O6 0.500000 0.500000 0.000000
O O7 0.829860 0.622236 0.766166
O O8 0.743371 0.503883 0.009286
O O9 0.725838 0.130344 0.252702
O O10 0.226393 0.130867 0.751044
O O11 0.000000 0.000000 0.000000
O O12 0.167687 0.375284 0.488309
O O13 0.367246 0.254921 0.501946
O O14 0.154974 0.383556 0.747565
O O15 0.665067 0.380130 0.242512
O O16 0.005513 0.254023 0.499990
O O17 0.217510 0.133458 0.499941
O O18 0.000000 0.500000 0.000000
#
# Coordination Sequence:
#
# PCOD8030756 Si02
#       8
#     2   2   2   2   2   2   2   2
#     4  12  25  45  69 100 137 170 210 274 326 379
#     4  12  21  39  67  89 123 162 223 262 311 369
#     4  12  25  45  69 100 133 174 222 257 318 397
#     4  11  22  43  65  87 129 166 214 256 321 380
#     4  11  24  44  68 100 135 169 219 269 335 377
#     4  11  22  40  66  95 119 168 212 268 310 380
#     4  12  25  41  59  93 125 170 209 266 321 375
#     4  11  24  44  71  97 129 179 219 265 320 399
#
# _framework density 20.317851000000001
#
# number of rings (size 3 to 8) (size 9 to 14) (size 15 to 20)
#    0.000    0.500    2.500    6.750    0.000    4.000 
#   13.500    0.000    0.000    0.000    0.000    0.000 
#    0.000    0.000    0.000    0.000    0.000    0.000 
#
# Total GULP energy -198319.202299 kJ/mol
# GULP energy per Si atom -12394.950144 kJ/mol
# Density = 2.027161 g / cm^3
# Si number density = 20.317851 Si / 1000 Ang^3
#
#
#
# Elastic Constant Matrix: (Units=GPa)
#
#
# Indices 1 2 3 4 5 6 
#
# 1 157.2044 57.1958 70.3069 2.0841 10.6676 10.0691
# 2 57.1958 114.1837 63.7293 1.2517 -4.6060 5.5952
# 3 70.3069 63.7293 173.6981 -0.2017 -50.0269 6.2373
# 4 2.0841 1.2517 -0.2017 46.8086 -3.4742 -1.0505
# 5 10.6676 -4.6060 -50.0269 -3.4742 -5.3837 2.8201
# 6 10.0691 5.5952 6.2373 -1.0505 2.8201 40.3895
#
#
#
# Elastic Compliance Matrix: (Units=1/GPa)
#
#
# Indices 1 2 3 4 5 6 
#
# 1 0.006853 -0.003485 0.000815 0.000327 0.007785 -0.001887
# 2 -0.003485 0.011842 -0.002153 0.000011 0.002635 -0.000623
# 3 0.000815 -0.002153 0.002037 -0.001023 -0.014414 0.000760
# 4 0.000327 0.000011 -0.001023 0.021136 -0.003058 0.000838
# 5 0.007785 0.002635 -0.014414 -0.003058 -0.035448 0.002315
# 6 -0.001887 -0.000623 0.000760 0.000838 0.002315 0.025058
#
#
# Mechanical properties :
#
#
# Convention : Reuss Voigt Hill
#
# Bulk Modulus (GPa) = 90.19727 91.95002 91.07364
# Shear Modulus (GPa) = 111.56229 33.28649 72.42439
#
# Velocity S-wave (km/s) = 7.41807 4.05197 5.97688
# Velocity P-wave (km/s) = 10.85632 8.20032 9.62042
#
# Compressibility (1/GPa) = 0.01108681
#
# Stress axis : x y z
#
# Youngs Moduli (GPa) = 145.93020 84.44857 490.89113
#
# Poissons Ratio (x) = 0.29427 -0.40015
# Poissons Ratio (y) = 0.50851 1.05678
# Poissons Ratio (z) = -0.11896 0.18180
#
# Static dielectric constant tensor:
#      x y z
#    x 3.901170 -0.012620 -0.017630 
#    y -0.012620 3.955520 -0.043260 
#    z -0.017630 -0.043260 3.928550 
# 
# 
# High freq. dielectric constant tensor:
#      x y z
#    x 1.803300 -0.002280 -0.001670 
#    y -0.002280 1.818050 -0.000580 
#    z -0.001670 -0.000580 1.815230 
# 
# From -- ./inp_files/217594.got.cif
#   From: 2010.06.25/outbox.cif.g09.slc.cpg/sg2_109_cif.got.tgz:217594.got - 2010.06.27 13:26:56.
