data_PCOD8030869
_publ_section_title
;
Structure prediction by ZEFSAII (Michael W. Deem and Ramdas Pophale) SiO2 
 PCOD8030869
Probable space group: P -1
;
_chemical_formula_sum "Si O2"
_cell_formula_units_Z 16
_cell_length_a 11.334885
_cell_length_b 8.017341
_cell_length_c 21.247790
_cell_angle_alpha 115.196319
_cell_angle_beta 37.056840
_cell_angle_gamma 140.300846
_cell_volume 648.241709
_symmetry_space_group_name_H-M "P -1"
_symmetry_group_IT_number 2
_symmetry_cell_setting 'triclinic'
loop_
_space_group_symop_operation_xyz
x,y,z
-x,-y,-z
loop_
_atom_site_type_symbol
_atom_site_label
_atom_site_fract_x
_atom_site_fract_y
_atom_site_fract_z
Si Si1 0.422113 0.371990 0.820300
Si Si2 0.790570 0.940502 0.815236
Si Si3 0.603284 0.373375 0.954703
Si Si4 0.277973 0.464800 0.543656
Si Si5 0.265396 0.969238 0.923000
Si Si6 0.440010 0.151970 0.283882
Si Si7 0.624815 0.697796 0.304494
Si Si8 0.813000 0.399718 0.282272
O O1 0.440423 0.260527 0.729847
O O2 0.705368 0.736060 0.762041
O O3 0.460388 0.253380 0.840643
O O4 0.096949 0.242228 0.949295
O O5 0.015268 0.000979 0.779552
O O6 0.972221 0.255681 0.764561
O O7 0.469330 0.734171 0.959182
O O8 0.983737 0.631161 0.825490
O O9 0.427208 0.092742 0.941995
O O10 0.500000 0.500000 0.000000
O O11 0.500000 0.500000 0.500000
O O12 0.408376 0.596829 0.439312
O O13 0.269852 0.652348 0.616125
O O14 0.923702 0.127571 0.628125
O O15 0.320343 0.803397 0.848463
O O16 0.573289 0.451653 0.262693
O O17 0.491158 0.159776 0.339059
#
# Coordination Sequence:
#
# PCOD8030869 Si02
#       8
#     2   2   2   2   2   2   2   2
#     4  11  24  42  65  95 139 176 216 271 330 397
#     4  11  22  41  64 100 133 170 219 274 331 390
#     4  12  23  43  68  99 139 177 216 266 333 400
#     4  12  23  44  68  99 133 171 223 275 332 384
#     4  11  24  42  65  98 133 180 217 266 337 398
#     4  11  24  42  69  98 131 172 220 275 330 392
#     4  11  25  39  68  99 126 178 219 272 331 384
#     4  11  25  42  69 100 133 174 220 274 330 391
#
# _framework density 24.68215
#
# number of rings (size 3 to 8) (size 9 to 14) (size 15 to 20)
#    0.000    0.750    6.250    2.250    1.750    1.500 
#    0.000    0.625    0.000    3.750    0.000    0.000 
#    0.000    0.000    0.000    0.000    0.000    0.000 
#
# Total GULP energy -198218.760561 kJ/mol
# GULP energy per Si atom -12388.672535 kJ/mol
# Density = 2.462597 g / cm^3
# Si number density = 24.682150 Si / 1000 Ang^3
#
#
#
# Elastic Constant Matrix: (Units=GPa)
#
#
# Indices 1 2 3 4 5 6 
#
# 1 87.1963 32.1374 33.9902 2.0919 -0.4438 32.4391
# 2 32.1374 64.6196 25.1193 4.2665 3.0510 36.3887
# 3 33.9902 25.1193 117.7975 23.6364 10.8405 15.8637
# 4 2.0919 4.2665 23.6364 30.5238 17.7516 2.5960
# 5 -0.4438 3.0510 10.8405 17.7516 44.9890 3.4560
# 6 32.4391 36.3887 15.8637 2.5960 3.4560 49.7178
#
#
#
# Elastic Compliance Matrix: (Units=1/GPa)
#
#
# Indices 1 2 3 4 5 6 
#
# 1 0.016841 -0.002536 -0.003764 0.002231 0.000989 -0.008117
# 2 -0.002536 0.027887 -0.002796 -0.000149 0.000189 -0.017869
# 3 -0.003764 -0.002796 0.011749 -0.009005 0.000785 0.001169
# 4 0.002231 -0.000149 -0.009005 0.049727 -0.017430 0.000142
# 5 0.000989 0.000189 0.000785 -0.017430 0.029078 -0.002145
# 6 -0.008117 -0.017869 0.001169 0.000142 -0.002145 0.038256
#
#
# Mechanical properties :
#
#
# Convention : Reuss Voigt Hill
#
# Bulk Modulus (GPa) = 26.12018 50.23411 38.17715
# Shear Modulus (GPa) = 24.45093 36.93722 30.69407
#
# Velocity S-wave (km/s) = 3.15085 3.87268 3.53026
# Velocity P-wave (km/s) = 4.88290 6.35558 5.66728
#
# Compressibility (1/GPa) = 0.03828458
#
# Stress axis : x y z
#
# Youngs Moduli (GPa) = 59.37735 35.85962 85.11608
#
# Poissons Ratio (x) = 0.09093 0.32040
# Poissons Ratio (y) = 0.15057 0.23797
# Poissons Ratio (z) = 0.22351 0.10026
#
# Static dielectric constant tensor:
#      x y z
#    x 4.914100 0.475170 0.092310 
#    y 0.475170 4.494930 0.315490 
#    z 0.092310 0.315490 4.658740 
# 
# 
# High freq. dielectric constant tensor:
#      x y z
#    x 1.985340 0.035740 0.010440 
#    y 0.035740 1.981580 0.012140 
#    z 0.010440 0.012140 1.971410 
# 
# From -- ./inp_files/594143.got.cif
#   From: 2010.06.25/outbox.cif.g09.slc.cpg/sg2_298_cif.got.tgz:594143.got - 2010.06.27 13:26:56.
