data_PCOD8030626
_publ_section_title
;
Structure prediction by ZEFSAII (Michael W. Deem and Ramdas Pophale) SiO2 
 PCOD8030626
Probable space group: P -1
;
_chemical_formula_sum "Si O2"
_cell_formula_units_Z 14
_cell_length_a 15.613854
_cell_length_b 15.383765
_cell_length_c 26.449970
_cell_angle_alpha 21.412451
_cell_angle_beta 160.206590
_cell_angle_gamma 161.251201
_cell_volume 643.152592
_symmetry_space_group_name_H-M "P -1"
_symmetry_group_IT_number 2
_symmetry_cell_setting 'triclinic'
loop_
_space_group_symop_operation_xyz
x,y,z
-x,-y,-z
loop_
_atom_site_type_symbol
_atom_site_label
_atom_site_fract_x
_atom_site_fract_y
_atom_site_fract_z
Si Si1 0.562773 0.818306 0.002592
Si Si2 0.620423 0.132735 0.658098
Si Si3 0.325931 0.332206 0.307224
Si Si4 0.266836 0.217022 0.493927
Si Si5 0.868201 0.452799 0.832757
Si Si6 0.693114 0.874737 0.156762
Si Si7 0.663259 0.508575 0.138106
O O1 0.758008 0.904545 0.116367
O O2 0.679130 0.723516 0.072303
O O3 0.218623 0.552227 0.970286
O O4 0.625405 0.126605 0.852784
O O5 0.521921 0.254514 0.492203
O O6 0.439116 0.088057 0.633857
O O7 0.982160 0.367653 0.743030
O O8 0.529100 0.810815 0.770279
O O9 0.233031 0.528847 0.177234
O O10 0.528927 0.536588 0.262718
O O11 0.021901 0.038182 0.278223
O O12 0.500000 0.500000 0.500000
O O13 0.120230 0.294548 0.327007
O O14 0.000000 0.000000 0.500000
O O15 0.500000 0.000000 0.000000
O O16 0.500000 0.500000 0.000000
#
# Coordination Sequence:
#
# PCOD8030626 Si02
#       7
#     2   2   2   2   2   2   2
#     4  12  25  40  67  98 137 169 237 265 328 402
#     4  11  26  48  67  96 137 179 231 272 340 407
#     4  11  22  42  69 101 137 173 206 284 353 397
#     4  11  24  39  67  97 128 167 224 282 345 394
#     4  11  22  39  63  99 134 167 210 286 337 401
#     4  12  21  39  69 106 138 170 215 277 351 402
#     4  12  28  48  69  91 135 194 231 276 323 396
#
# _framework density 21.767772999999998
#
# number of rings (size 3 to 8) (size 9 to 14) (size 15 to 20)
#    0.000    0.571    2.857    5.143    6.000    4.571 
#    0.000    4.286    0.000    0.000    0.000    0.000 
#    0.000    0.000    0.000    0.000    0.000    0.000 
#
# Total GULP energy -173584.075713 kJ/mol
# GULP energy per Si atom -12398.862551 kJ/mol
# Density = 2.171823 g / cm^3
# Si number density = 21.767773 Si / 1000 Ang^3
#
#
#
# Elastic Constant Matrix: (Units=GPa)
#
#
# Indices 1 2 3 4 5 6 
#
# 1 118.0694 27.7319 42.0130 1.0870 1.7815 -8.2824
# 2 27.7319 141.2113 43.4890 5.3094 -5.6584 9.0666
# 3 42.0130 43.4890 89.3868 9.5315 -3.5034 1.5766
# 4 1.0870 5.3094 9.5315 47.6414 -4.2404 -4.7377
# 5 1.7815 -5.6584 -3.5034 -4.2404 21.7170 -7.7568
# 6 -8.2824 9.0666 1.5766 -4.7377 -7.7568 41.7838
#
#
#
# Elastic Compliance Matrix: (Units=1/GPa)
#
#
# Indices 1 2 3 4 5 6 
#
# 1 0.010514 -0.000836 -0.004711 0.000965 -0.000793 0.002406
# 2 -0.000836 0.008535 -0.003659 -0.000279 0.001034 -0.001720
# 3 -0.004711 -0.003659 0.015515 -0.002566 0.001148 -0.000803
# 4 0.000965 -0.000279 -0.002566 0.022355 0.005172 0.003844
# 5 -0.000793 0.001034 0.001148 0.005172 0.051017 0.009632
# 6 0.002406 -0.001720 -0.000803 0.003844 0.009632 0.027037
#
#
# Mechanical properties :
#
#
# Convention : Reuss Voigt Hill
#
# Bulk Modulus (GPa) = 61.91581 63.90391 62.90986
# Shear Modulus (GPa) = 31.49221 37.92402 34.70811
#
# Velocity S-wave (km/s) = 3.80772 4.17851 3.99742
# Velocity P-wave (km/s) = 6.91645 7.25953 7.09006
#
# Compressibility (1/GPa) = 0.01615096
#
# Stress axis : x y z
#
# Youngs Moduli (GPa) = 95.10849 117.16543 64.45543
#
# Poissons Ratio (x) = 0.09800 0.30367
# Poissons Ratio (y) = 0.07955 0.23583
# Poissons Ratio (z) = 0.44808 0.42868
#
# Static dielectric constant tensor:
#      x y z
#    x 4.117110 0.055480 -0.047040 
#    y 0.055480 3.957720 0.056140 
#    z -0.047040 0.056140 3.713070 
# 
# 
# High freq. dielectric constant tensor:
#      x y z
#    x 1.856660 0.005680 -0.015590 
#    y 0.005680 1.877360 -0.004550 
#    z -0.015590 -0.004550 1.843800 
# 
# From -- ./inp_files/106610.got.cif
#   From: 2010.06.25/outbox.cif.g09.slc.cpg/sg2_54_cif.got.tgz:106610.got - 2010.06.27 13:26:56.
