data_PCOD8030349
_publ_section_title
;
Structure prediction by ZEFSAII (Michael W. Deem and Ramdas Pophale) SiO2 
 PCOD8030349
Probable space group: P -1
;
_chemical_formula_sum "Si O2"
_cell_formula_units_Z 16
_cell_length_a 8.763638
_cell_length_b 12.935673
_cell_length_c 17.851084
_cell_angle_alpha 43.003883
_cell_angle_beta 148.784157
_cell_angle_gamma 131.958585
_cell_volume 709.972133
_symmetry_space_group_name_H-M "P -1"
_symmetry_group_IT_number 2
_symmetry_cell_setting 'triclinic'
loop_
_space_group_symop_operation_xyz
x,y,z
-x,-y,-z
loop_
_atom_site_type_symbol
_atom_site_label
_atom_site_fract_x
_atom_site_fract_y
_atom_site_fract_z
Si Si1 0.886763 0.189651 0.507372
Si Si2 0.337878 0.123906 0.937638
Si Si3 0.238470 0.830691 0.262232
Si Si4 0.386769 0.359317 0.705810
Si Si5 0.539594 0.299556 0.434851
Si Si6 0.514248 0.160252 0.226268
Si Si7 0.139245 0.795685 0.071798
Si Si8 0.096415 0.861055 0.743965
O O1 0.692571 0.186365 0.504299
O O2 0.683377 0.235698 0.329572
O O3 0.166305 0.321442 0.562553
O O4 0.998097 0.029061 0.618445
O O5 0.265421 0.222701 0.783737
O O6 0.117197 0.167285 0.887484
O O7 0.680100 0.163733 0.081930
O O8 0.252259 0.940432 0.987999
O O9 0.349044 0.703036 0.430338
O O10 0.311493 0.822178 0.209849
O O11 0.410423 0.982592 0.290627
O O12 0.367840 0.525136 0.645174
O O13 0.729191 0.349303 0.832077
O O14 0.187211 0.263326 0.300947
O O15 0.739513 0.175606 0.243863
O O16 0.214407 0.241734 0.047303
#
# Coordination Sequence:
#
# PCOD8030349 Si02
#       8
#     2   2   2   2   2   2   2   2
#     4  12  25  44  70  99 137 181 227 278 335 398
#     4  11  22  42  73  96 137 173 230 279 329 399
#     4  11  21  44  72 101 138 169 229 284 334 394
#     4  12  27  46  67  99 139 187 224 269 342 407
#     4  12  29  44  65 102 145 179 221 277 340 408
#     4  11  23  43  71 105 134 166 233 290 327 394
#     4  11  23  44  73 107 127 180 228 283 334 394
#     4  12  24  44  71 104 130 177 227 287 334 392
#
# _framework density 22.536097000000002
#
# number of rings (size 3 to 8) (size 9 to 14) (size 15 to 20)
#    0.000    0.500    6.250    2.250    3.500    1.000 
#    0.000    0.625    0.000    0.000    0.000    0.000 
#    0.000    0.000    0.000    0.000    0.000    0.000 
#
# Total GULP energy -198332.216781 kJ/mol
# GULP energy per Si atom -12395.763549 kJ/mol
# Density = 2.248480 g / cm^3
# Si number density = 22.536097 Si / 1000 Ang^3
#
#
#
# Elastic Constant Matrix: (Units=GPa)
#
#
# Indices 1 2 3 4 5 6 
#
# 1 80.0218 26.9886 30.9894 5.8372 9.7470 4.5987
# 2 26.9886 70.1048 31.7748 13.4982 6.4919 1.1856
# 3 30.9894 31.7748 105.5393 26.2275 7.1336 4.7247
# 4 5.8372 13.4982 26.2275 30.1455 3.8897 2.3791
# 5 9.7470 6.4919 7.1336 3.8897 38.6455 12.3243
# 6 4.5987 1.1856 4.7247 2.3791 12.3243 19.7323
#
#
#
# Elastic Compliance Matrix: (Units=1/GPa)
#
#
# Indices 1 2 3 4 5 6 
#
# 1 0.015637 -0.004641 -0.003625 0.002612 -0.002324 -0.001361
# 2 -0.004641 0.018433 -0.003009 -0.004707 -0.001622 0.002275
# 3 -0.003625 -0.003009 0.013982 -0.010048 0.000255 -0.001270
# 4 0.002612 -0.004707 -0.010048 0.043911 -0.001758 -0.002116
# 5 -0.002324 -0.001622 0.000255 -0.001758 0.033232 -0.019966
# 6 -0.001361 0.002275 -0.001270 -0.002116 -0.019966 0.063888
#
#
# Mechanical properties :
#
#
# Convention : Reuss Voigt Hill
#
# Bulk Modulus (GPa) = 39.21448 48.35240 43.78344
# Shear Modulus (GPa) = 22.71341 28.76553 25.73947
#
# Velocity S-wave (km/s) = 3.17814 3.57658 3.38323
# Velocity P-wave (km/s) = 5.55931 6.20951 5.89338
#
# Compressibility (1/GPa) = 0.02550078
#
# Stress axis : x y z
#
# Youngs Moduli (GPa) = 63.95279 54.24999 71.51924
#
# Poissons Ratio (x) = 0.25179 0.25926
# Poissons Ratio (y) = 0.29682 0.21522
# Poissons Ratio (z) = 0.23183 0.16325
#
# Static dielectric constant tensor:
#      x y z
#    x 4.131550 -0.049200 0.269640 
#    y -0.049200 3.619190 0.163850 
#    z 0.269640 0.163850 4.292880 
# 
# 
# High freq. dielectric constant tensor:
#      x y z
#    x 1.898690 -0.006210 0.017610 
#    y -0.006210 1.846010 0.015390 
#    z 0.017610 0.015390 1.904240 
# 
# From -- ./inp_files/559824.got.cif
#   From: 2010.06.25/outbox.cif.g09.slc.cpg/sg2_280_cif.got.tgz:559824.got - 2010.06.27 13:26:56.
