data_PCOD8030622
_publ_section_title
;
Structure prediction by ZEFSAII (Michael W. Deem and Ramdas Pophale) SiO2 
 PCOD8030622
Probable space group: P -1
;
_chemical_formula_sum "Si O2"
_cell_formula_units_Z 16
_cell_length_a 12.255417
_cell_length_b 8.440179
_cell_length_c 7.602211
_cell_angle_alpha 87.499261
_cell_angle_beta 90.819081
_cell_angle_gamma 114.742416
_cell_volume 713.481219
_symmetry_space_group_name_H-M "P -1"
_symmetry_group_IT_number 2
_symmetry_cell_setting 'triclinic'
loop_
_space_group_symop_operation_xyz
x,y,z
-x,-y,-z
loop_
_atom_site_type_symbol
_atom_site_label
_atom_site_fract_x
_atom_site_fract_y
_atom_site_fract_z
Si Si1 0.090814 0.825271 0.100994
Si Si2 0.886129 0.504684 0.719799
Si Si3 0.457937 0.299209 0.545473
Si Si4 0.312833 0.072449 0.258658
Si Si5 0.598067 0.679990 0.065845
Si Si6 0.315750 0.765863 0.467695
Si Si7 0.148277 0.712509 0.757161
Si Si8 0.830883 0.619926 0.062552
O O1 0.095066 0.651150 0.181066
O O2 0.951573 0.792948 0.106093
O O3 0.170986 0.997552 0.207351
O O4 0.143153 0.841817 0.903238
O O5 0.786313 0.429376 0.568713
O O6 0.019558 0.639582 0.652516
O O7 0.832030 0.595864 0.853707
O O8 0.500000 0.500000 0.500000
O O9 0.340518 0.192039 0.428646
O O10 0.439895 0.261623 0.754501
O O11 0.559949 0.241361 0.479752
O O12 0.340924 0.903650 0.302569
O O13 0.389473 0.176615 0.088156
O O14 0.719497 0.659545 0.110841
O O15 0.500000 0.500000 0.000000
O O16 0.259058 0.828914 0.627294
O O17 0.176606 0.553193 0.833751
#
# Coordination Sequence:
#
# PCOD8030622 Si02
#       8
#     2   2   2   2   2   2   2   2
#     4   8  18  38  62  92 128 159 205 264 312 369
#     4   8  16  33  61  95 124 159 209 256 306 376
#     4  12  26  46  63  92 127 164 218 257 304 385
#     4  11  26  44  63  94 129 160 215 264 313 372
#     4  12  25  43  67  87 127 174 209 257 311 375
#     4  11  22  39  63  94 131 161 207 267 311 362
#     4   9  17  33  66  96 123 162 209 256 312 372
#     4   9  18  38  64  93 123 169 211 249 314 374
#
# _framework density 22.425259
#
# number of rings (size 3 to 8) (size 9 to 14) (size 15 to 20)
#    0.000    2.000    1.250    3.750    1.750    1.000 
#    0.000    0.625    0.000    0.000    0.000    0.000 
#    0.000    0.000    0.000    0.000    0.000    0.000 
#
# Total GULP energy -198317.986625 kJ/mol
# GULP energy per Si atom -12394.874164 kJ/mol
# Density = 2.237422 g / cm^3
# Si number density = 22.425259 Si / 1000 Ang^3
#
#
#
# Elastic Constant Matrix: (Units=GPa)
#
#
# Indices 1 2 3 4 5 6 
#
# 1 106.2891 39.2797 34.7453 8.2625 -6.4236 25.3312
# 2 39.2797 104.0320 43.5123 11.2574 9.2362 26.5510
# 3 34.7453 43.5123 113.0257 2.6359 -0.9366 19.9636
# 4 8.2625 11.2574 2.6359 43.4162 7.7788 13.0141
# 5 -6.4236 9.2362 -0.9366 7.7788 31.6253 2.2714
# 6 25.3312 26.5510 19.9636 13.0141 2.2714 28.2120
#
#
#
# Elastic Compliance Matrix: (Units=1/GPa)
#
#
# Indices 1 2 3 4 5 6 
#
# 1 0.013130 -0.002443 -0.001510 0.000164 0.003928 -0.008813
# 2 -0.002443 0.014553 -0.003310 0.000351 -0.004286 -0.008978
# 3 -0.001510 -0.003310 0.011325 0.001599 0.000915 -0.004355
# 4 0.000164 0.000351 0.001599 0.028099 -0.005921 -0.014096
# 5 0.003928 -0.004286 0.000915 -0.005921 0.035171 -0.000241
# 6 -0.008813 -0.008978 -0.004355 -0.014096 -0.000241 0.061412
#
#
# Mechanical properties :
#
#
# Convention : Reuss Voigt Hill
#
# Bulk Modulus (GPa) = 40.84563 62.04683 51.44623
# Shear Modulus (GPa) = 26.82742 34.37132 30.59937
#
# Velocity S-wave (km/s) = 3.46251 3.91923 3.69793
# Velocity P-wave (km/s) = 5.85141 6.94325 6.42058
#
# Compressibility (1/GPa) = 0.02448242
#
# Stress axis : x y z
#
# Youngs Moduli (GPa) = 76.16204 68.71505 88.29713
#
# Poissons Ratio (x) = 0.16787 0.13336
# Poissons Ratio (y) = 0.18606 0.29222
# Poissons Ratio (z) = 0.11503 0.22741
#
# Static dielectric constant tensor:
#      x y z
#    x 3.971130 0.451610 0.096380 
#    y 0.451610 4.217820 0.113870 
#    z 0.096380 0.113870 4.102480 
# 
# 
# High freq. dielectric constant tensor:
#      x y z
#    x 1.871550 0.024470 0.006870 
#    y 0.024470 1.877490 0.002250 
#    z 0.006870 0.002250 1.878380 
# 
# From -- ./inp_files/239043.got.cif
#   From: 2010.06.25/outbox.cif.g09.slc.cpg/sg2_120_cif.got.tgz:239043.got - 2010.06.27 13:26:56.
