data_PCOD8030097
_publ_section_title
;
Structure prediction by ZEFSAII (Michael W. Deem and Ramdas Pophale) SiO2 
 PCOD8030097
Probable space group: P -1
;
_chemical_formula_sum "Si O2"
_cell_formula_units_Z 16
_cell_length_a 18.966325
_cell_length_b 11.601900
_cell_length_c 9.531274
_cell_angle_alpha 139.738431
_cell_angle_beta 132.870401
_cell_angle_gamma 30.116539
_cell_volume 678.782019
_symmetry_space_group_name_H-M "P -1"
_symmetry_group_IT_number 2
_symmetry_cell_setting 'triclinic'
loop_
_space_group_symop_operation_xyz
x,y,z
-x,-y,-z
loop_
_atom_site_type_symbol
_atom_site_label
_atom_site_fract_x
_atom_site_fract_y
_atom_site_fract_z
Si Si1 0.450493 0.730755 0.000595
Si Si2 0.146802 0.731461 0.998937
Si Si3 0.234863 0.150494 0.295358
Si Si4 0.290164 0.464053 0.671666
Si Si5 0.949622 0.429495 0.077283
Si Si6 0.875271 0.055492 0.318837
Si Si7 0.295351 0.966660 0.752642
Si Si8 0.349527 0.788405 0.356171
O O1 0.554924 0.683074 0.207491
O O2 0.304319 0.907293 0.056262
O O3 0.510988 0.459456 0.772682
O O4 0.410140 0.890074 0.948908
O O5 0.246577 0.759578 0.200470
O O6 0.206751 0.540879 0.773188
O O7 0.131011 0.624095 0.009186
O O8 0.000000 0.000000 0.000000
O O9 0.292944 0.262436 0.420600
O O10 0.065140 0.372806 0.278080
O O11 0.281716 0.044626 0.418931
O O12 0.210930 0.712028 0.696395
O O13 0.832945 0.724733 0.145448
O O14 0.044439 0.227321 0.892264
O O15 0.765098 0.138453 0.364933
O O16 0.000000 0.000000 0.500000
O O17 0.376931 0.820550 0.581037
#
# Coordination Sequence:
#
# PCOD8030097 Si02
#       8
#     2   2   2   2   2   2   2   2
#     4  11  26  49  69  99 140 187 237 280 345 411
#     4  11  21  42  69 101 139 178 227 284 348 408
#     4  12  24  44  76 102 136 181 236 289 337 416
#     4  11  26  44  71 102 136 188 235 283 339 417
#     4  12  24  43  70 107 140 177 231 287 353 406
#     4  12  25  42  68 103 144 180 223 284 355 411
#     4  12  27  43  71 104 142 182 228 292 345 411
#     4  11  25  46  71 102 136 184 234 283 349 410
#
# _framework density 23.571632000000001
#
# number of rings (size 3 to 8) (size 9 to 14) (size 15 to 20)
#    0.000    0.500    3.750    4.500    5.250    1.000 
#    0.000    5.625    0.000    0.000    0.000    0.000 
#    0.000    0.000    0.000    0.000    0.000    0.000 
#
# Total GULP energy -198292.907363 kJ/mol
# GULP energy per Si atom -12393.306710 kJ/mol
# Density = 2.351798 g / cm^3
# Si number density = 23.571632 Si / 1000 Ang^3
#
#
#
# Elastic Constant Matrix: (Units=GPa)
#
#
# Indices 1 2 3 4 5 6 
#
# 1 65.1960 23.7095 23.1331 7.1988 4.4102 13.8299
# 2 23.7095 163.7790 42.6499 -5.7053 13.0376 6.4069
# 3 23.1331 42.6499 78.1874 -1.9092 0.2101 10.2601
# 4 7.1988 -5.7053 -1.9092 34.6463 2.2650 -3.2089
# 5 4.4102 13.0376 0.2101 2.2650 32.6059 -0.5436
# 6 13.8299 6.4069 10.2601 -3.2089 -0.5436 38.7631
#
#
#
# Elastic Compliance Matrix: (Units=1/GPa)
#
#
# Indices 1 2 3 4 5 6 
#
# 1 0.019308 -0.001493 -0.004233 -0.004928 -0.001744 -0.005954
# 2 -0.001493 0.007551 -0.003677 0.001573 -0.002897 0.000347
# 3 -0.004233 -0.003677 0.016341 0.000859 0.001843 -0.002110
# 4 -0.004928 0.001573 0.000859 0.030677 -0.002036 0.003782
# 5 -0.001744 -0.002897 0.001843 -0.002036 0.032208 0.000897
# 6 -0.005954 0.000347 -0.002110 0.003782 0.000897 0.028749
#
#
# Mechanical properties :
#
#
# Convention : Reuss Voigt Hill
#
# Bulk Modulus (GPa) = 40.99099 54.01639 47.50369
# Shear Modulus (GPa) = 30.90796 35.71439 33.31117
#
# Velocity S-wave (km/s) = 3.62503 3.89671 3.76332
# Velocity P-wave (km/s) = 5.91175 6.57353 6.25141
#
# Compressibility (1/GPa) = 0.02439561
#
# Stress axis : x y z
#
# Youngs Moduli (GPa) = 51.79102 132.42927 61.19700
#
# Poissons Ratio (x) = 0.19769 0.25903
# Poissons Ratio (y) = 0.07732 0.22501
# Poissons Ratio (z) = 0.21922 0.48691
#
# Static dielectric constant tensor:
#      x y z
#    x 3.851340 -0.134700 -0.166860 
#    y -0.134700 4.607500 -0.082520 
#    z -0.166860 -0.082520 4.327140 
# 
# 
# High freq. dielectric constant tensor:
#      x y z
#    x 1.929300 -0.002320 -0.011210 
#    y -0.002320 1.956160 -0.000690 
#    z -0.011210 -0.000690 1.927090 
# 
# From -- ./inp_files/346508.got.cif
#   From: 2010.06.25/outbox.cif.g09.slc.cpg/sg2_174_cif.got.tgz:346508.got - 2010.06.27 13:26:56.
