data_PCOD8030479
_publ_section_title
;
Structure prediction by ZEFSAII (Michael W. Deem and Ramdas Pophale) SiO2 
 PCOD8030479
Probable space group: P -1
;
_chemical_formula_sum "Si O2"
_cell_formula_units_Z 14
_cell_length_a 11.115185
_cell_length_b 11.618734
_cell_length_c 9.607341
_cell_angle_alpha 120.295412
_cell_angle_beta 50.981785
_cell_angle_gamma 93.634873
_cell_volume 770.271447
_symmetry_space_group_name_H-M "P -1"
_symmetry_group_IT_number 2
_symmetry_cell_setting 'triclinic'
loop_
_space_group_symop_operation_xyz
x,y,z
-x,-y,-z
loop_
_atom_site_type_symbol
_atom_site_label
_atom_site_fract_x
_atom_site_fract_y
_atom_site_fract_z
Si Si1 0.068668 0.120789 0.170437
Si Si2 0.299659 0.703163 0.483269
Si Si3 0.407634 0.938327 0.420278
Si Si4 0.941840 0.875504 0.137824
Si Si5 0.263272 0.644594 0.771467
Si Si6 0.568804 0.593834 0.691439
Si Si7 0.399095 0.125993 0.047004
O O1 0.209888 0.137477 0.175346
O O2 0.889177 0.249141 0.409461
O O3 0.122790 0.123114 0.971928
O O4 0.054106 0.970938 0.127544
O O5 0.400075 0.788908 0.389377
O O6 0.288037 0.739342 0.680285
O O7 0.395085 0.529603 0.290009
O O8 0.500000 0.000000 0.500000
O O9 0.221434 0.059899 0.606592
O O10 0.503135 0.905381 0.186986
O O11 0.065398 0.714613 0.998714
O O12 0.372974 0.653302 0.828982
O O13 0.320777 0.479256 0.572527
O O14 0.618115 0.721026 0.786710
O O15 0.500000 0.000000 0.000000
#
# Coordination Sequence:
#
# PCOD8030479 Si02
#       7
#     2   2   2   2   2   2   2
#     4   9  17  32  56  81 107 144 182 228 271 328
#     4   8  18  36  59  80 105 150 191 217 269 339
#     4  11  22  34  58  86 112 144 189 233 269 323
#     4   9  16  34  58  79 106 147 193 216 270 338
#     4   8  16  34  61  80 105 152 181 221 272 342
#     4   9  19  34  57  84 112 149 182 225 280 334
#     4  12  25  35  53  87 118 143 182 239 282 319
#
# _framework density 18.175409999999999
#
# number of rings (size 3 to 8) (size 9 to 14) (size 15 to 20)
#    0.857    1.714    1.429    1.714    2.000    1.143 
#    0.000    6.429    0.000    5.143    0.000    0.000 
#    0.000    0.000    0.000    0.000    0.000    0.000 
#
# Total GULP energy -173459.375057 kJ/mol
# GULP energy per Si atom -12389.955361 kJ/mol
# Density = 1.813404 g / cm^3
# Si number density = 18.175410 Si / 1000 Ang^3
#
#
#
# Elastic Constant Matrix: (Units=GPa)
#
#
# Indices 1 2 3 4 5 6 
#
# 1 147.2511 62.4896 47.5280 16.3262 -8.7708 5.1677
# 2 62.4896 95.0524 34.7855 13.1070 -3.8055 0.6184
# 3 47.5280 34.7855 56.3990 11.1765 -6.6364 1.7989
# 4 16.3262 13.1070 11.1765 28.0069 -2.5412 0.3327
# 5 -8.7708 -3.8055 -6.6364 -2.5412 27.5253 10.2426
# 6 5.1677 0.6184 1.7989 0.3327 10.2426 26.3454
#
#
#
# Elastic Compliance Matrix: (Units=1/GPa)
#
#
# Indices 1 2 3 4 5 6 
#
# 1 0.011105 -0.004889 -0.005657 -0.001690 0.002290 -0.002546
# 2 -0.004889 0.016029 -0.005472 -0.002621 -0.001486 0.001567
# 3 -0.005657 -0.005472 0.027393 -0.004639 0.004479 -0.002315
# 4 -0.001690 -0.002621 -0.004639 0.039944 0.001861 -0.000518
# 5 0.002290 -0.001486 0.004479 0.001861 0.044875 -0.018190
# 6 -0.002546 0.001567 -0.002315 -0.000518 -0.018190 0.045656
#
#
# Mechanical properties :
#
#
# Convention : Reuss Voigt Hill
#
# Bulk Modulus (GPa) = 44.46182 65.36764 54.91473
# Shear Modulus (GPa) = 22.26824 26.63549 24.45186
#
# Velocity S-wave (km/s) = 3.50406 3.83230 3.67185
# Velocity P-wave (km/s) = 6.39429 7.45821 6.94665
#
# Compressibility (1/GPa) = 0.02249121
#
# Stress axis : x y z
#
# Youngs Moduli (GPa) = 90.04929 62.38755 36.50548
#
# Poissons Ratio (x) = 0.30502 0.20652
# Poissons Ratio (y) = 0.44026 0.19974
# Poissons Ratio (z) = 0.50944 0.34135
#
# Static dielectric constant tensor:
#      x y z
#    x 3.222100 -0.067310 -0.171170 
#    y -0.067310 3.154620 0.204630 
#    z -0.171170 0.204630 3.351460 
# 
# 
# High freq. dielectric constant tensor:
#      x y z
#    x 1.706530 -0.009830 -0.018250 
#    y -0.009830 1.681340 0.023270 
#    z -0.018250 0.023270 1.686210 
# 
# From -- ./inp_files/259823.got.cif
#   From: 2010.06.25/outbox.cif.g09.slc.cpg/sg2_130_cif.got.tgz:259823.got - 2010.06.27 13:26:56.
