data_PCOD8030978
_publ_section_title
;
Structure prediction by ZEFSAII (Michael W. Deem and Ramdas Pophale) SiO2 
 PCOD8030978
Probable space group: P -1
;
_chemical_formula_sum "Si O2"
_cell_formula_units_Z 14
_cell_length_a 8.187974
_cell_length_b 22.069092
_cell_length_c 9.174148
_cell_angle_alpha 36.939726
_cell_angle_beta 74.227896
_cell_angle_gamma 48.184294
_cell_volume 603.323613
_symmetry_space_group_name_H-M "P -1"
_symmetry_group_IT_number 2
_symmetry_cell_setting 'triclinic'
loop_
_space_group_symop_operation_xyz
x,y,z
-x,-y,-z
loop_
_atom_site_type_symbol
_atom_site_label
_atom_site_fract_x
_atom_site_fract_y
_atom_site_fract_z
Si Si1 0.170000 0.376432 0.469405
Si Si2 0.479689 0.105808 0.695957
Si Si3 0.915526 0.044477 0.604857
Si Si4 0.497779 0.780218 0.023727
Si Si5 0.146187 0.275843 0.162169
Si Si6 0.641767 0.518742 0.338912
Si Si7 0.645062 0.374657 0.076876
O O1 0.369625 0.249703 0.539404
O O2 0.333616 0.330333 0.663165
O O3 0.962901 0.381293 0.550680
O O4 0.004680 0.547713 0.119070
O O5 0.773879 0.003836 0.760989
O O6 0.281992 0.175971 0.472109
O O7 0.500000 0.000000 0.000000
O O8 0.708801 0.226645 0.356664
O O9 0.000000 0.000000 0.500000
O O10 0.186537 0.940899 0.832386
O O11 0.497870 0.690793 0.077554
O O12 0.628048 0.817684 0.840220
O O13 0.929206 0.295435 0.121020
O O14 0.500000 0.500000 0.500000
O O15 0.589354 0.507846 0.209659
O O16 0.500000 0.500000 0.000000
#
# Coordination Sequence:
#
# PCOD8030978 Si02
#       7
#     2   2   2   2   2   2   2
#     4  11  24  45  71 107 146 188 248 307 365 428
#     4  12  28  46  71 106 150 195 239 308 374 433
#     4  12  25  50  74 103 150 196 243 300 370 440
#     4  11  24  44  75 106 142 194 243 304 363 439
#     4  11  23  47  72 103 145 193 248 296 367 438
#     4  11  22  41  70 102 142 186 242 294 356 436
#     4  12  25  43  74 106 138 191 244 298 359 434
#
# _framework density 23.204795000000001
#
# number of rings (size 3 to 8) (size 9 to 14) (size 15 to 20)
#    0.000    0.571    2.857    6.429    4.000    2.286 
#    2.571    0.000    0.000    0.000    0.000    0.000 
#    0.000    0.000    0.000    0.000    0.000    0.000 
#
# Total GULP energy -173547.509940 kJ/mol
# GULP energy per Si atom -12396.250710 kJ/mol
# Density = 2.315198 g / cm^3
# Si number density = 23.204795 Si / 1000 Ang^3
#
#
#
# Elastic Constant Matrix: (Units=GPa)
#
#
# Indices 1 2 3 4 5 6 
#
# 1 129.1828 37.7446 41.3096 6.9958 16.5929 -22.5582
# 2 37.7446 92.7798 36.0478 -2.3766 4.7451 -10.4906
# 3 41.3096 36.0478 122.8939 10.1896 18.7267 -9.0456
# 4 6.9958 -2.3766 10.1896 32.1820 -2.4561 0.9362
# 5 16.5929 4.7451 18.7267 -2.4561 45.1740 5.1366
# 6 -22.5582 -10.4906 -9.0456 0.9362 5.1366 53.5347
#
#
#
# Elastic Compliance Matrix: (Units=1/GPa)
#
#
# Indices 1 2 3 4 5 6 
#
# 1 0.010384 -0.003052 -0.001597 -0.002349 -0.003400 0.003875
# 2 -0.003052 0.013365 -0.003250 0.002749 0.001143 0.000626
# 3 -0.001597 -0.003250 0.010558 -0.003547 -0.003743 0.000895
# 4 -0.002349 0.002749 -0.003547 0.033281 0.004084 -0.002025
# 5 -0.003400 0.001143 -0.003743 0.004084 0.025535 -0.004363
# 6 0.003875 0.000626 0.000895 -0.002025 -0.004363 0.021040
#
#
# Mechanical properties :
#
#
# Convention : Reuss Voigt Hill
#
# Bulk Modulus (GPa) = 54.03087 63.89561 58.96324
# Shear Modulus (GPa) = 36.72901 41.49512 39.11207
#
# Velocity S-wave (km/s) = 3.98278 4.23331 4.10996
# Velocity P-wave (km/s) = 6.66971 7.17565 6.92730
#
# Compressibility (1/GPa) = 0.01850794
#
# Stress axis : x y z
#
# Youngs Moduli (GPa) = 96.30204 74.81959 94.71620
#
# Poissons Ratio (x) = 0.22835 0.15128
# Poissons Ratio (y) = 0.29391 0.30787
# Poissons Ratio (z) = 0.15381 0.24320
#
# Static dielectric constant tensor:
#      x y z
#    x 4.413000 -0.210380 -0.094270 
#    y -0.210380 4.265620 -0.231790 
#    z -0.094270 -0.231790 4.623830 
# 
# 
# High freq. dielectric constant tensor:
#      x y z
#    x 1.934860 -0.010610 0.013720 
#    y -0.010610 1.917820 -0.002300 
#    z 0.013720 -0.002300 1.911120 
# 
# From -- ./inp_files/190297.got.cif
#   From: 2010.06.25/outbox.cif.g09.slc.cpg/sg2_96_cif.got.tgz:190297.got - 2010.06.27 13:26:56.
