data_PCOD8030076
_publ_section_title
;
Structure prediction by ZEFSAII (Michael W. Deem and Ramdas Pophale) SiO2 
 PCOD8030076
Probable space group: P -1
;
_chemical_formula_sum "Si O2"
_cell_formula_units_Z 14
_cell_length_a 11.995823
_cell_length_b 9.171052
_cell_length_c 8.907184
_cell_angle_alpha 46.471285
_cell_angle_beta 68.817127
_cell_angle_gamma 83.736629
_cell_volume 648.151675
_symmetry_space_group_name_H-M "P -1"
_symmetry_group_IT_number 2
_symmetry_cell_setting 'triclinic'
loop_
_space_group_symop_operation_xyz
x,y,z
-x,-y,-z
loop_
_atom_site_type_symbol
_atom_site_label
_atom_site_fract_x
_atom_site_fract_y
_atom_site_fract_z
Si Si1 0.008123 0.489297 0.327796
Si Si2 0.810991 0.187278 0.121961
Si Si3 0.119735 0.118040 0.506939
Si Si4 0.788680 0.428464 0.261418
Si Si5 0.338890 0.904684 0.022014
Si Si6 0.548127 0.294070 0.639297
Si Si7 0.841401 0.902277 0.826259
O O1 0.110836 0.354588 0.342860
O O2 0.000000 0.500000 0.500000
O O3 0.884066 0.387841 0.372750
O O4 0.057863 0.721098 0.083341
O O5 0.812995 0.336853 0.155788
O O6 0.800833 0.950366 0.347158
O O7 0.707141 0.195644 0.043958
O O8 0.189651 0.075248 0.350869
O O9 0.987566 0.972059 0.706263
O O10 0.655533 0.306273 0.458751
O O11 0.797289 0.671139 0.070633
O O12 0.399836 0.737556 0.197223
O O13 0.227623 0.957520 0.137453
O O14 0.439387 0.104798 0.790370
O O15 0.500000 0.500000 0.500000
#
# Coordination Sequence:
#
# PCOD8030076 Si02
#       7
#     2   2   2   2   2   2   2
#     4  12  25  40  65 101 138 174 220 266 325 394
#     4  12  25  42  65 102 137 167 217 272 332 394
#     4  11  23  38  66  96 135 178 210 261 330 393
#     4  12  23  44  68  95 138 175 216 278 327 379
#     4  11  26  44  70  99 128 172 226 272 325 392
#     4  11  24  47  73  92 126 177 224 276 326 383
#     4  11  21  42  67  95 133 177 218 259 327 394
#
# _framework density 21.599882999999998
#
# number of rings (size 3 to 8) (size 9 to 14) (size 15 to 20)
#    0.000    0.571    4.286    5.571    2.000    2.857 
#    0.000    0.714    0.000    0.000    0.000    0.000 
#    0.000    0.000    0.000    0.000    0.000    0.000 
#
# Total GULP energy -173520.680065 kJ/mol
# GULP energy per Si atom -12394.334290 kJ/mol
# Density = 2.155072 g / cm^3
# Si number density = 21.599883 Si / 1000 Ang^3
#
#
#
# Elastic Constant Matrix: (Units=GPa)
#
#
# Indices 1 2 3 4 5 6 
#
# 1 103.8750 59.0514 48.2740 13.6614 17.3334 13.1844
# 2 59.0514 87.8675 32.0208 11.5531 25.2102 13.5771
# 3 48.2740 32.0208 125.3090 6.3194 10.9470 7.0154
# 4 13.6614 11.5531 6.3194 35.8719 -3.4361 13.7964
# 5 17.3334 25.2102 10.9470 -3.4361 43.7248 -2.0409
# 6 13.1844 13.5771 7.0154 13.7964 -2.0409 33.5160
#
#
#
# Elastic Compliance Matrix: (Units=1/GPa)
#
#
# Indices 1 2 3 4 5 6 
#
# 1 0.017578 -0.009641 -0.004061 -0.002483 -0.000643 -0.001176
# 2 -0.009641 0.021641 -0.000676 -0.002332 -0.008876 -0.004413
# 3 -0.004061 -0.000676 0.009765 0.000093 -0.000449 -0.000238
# 4 -0.002483 -0.002332 0.000093 0.034632 0.004463 -0.012082
# 5 -0.000643 -0.008876 -0.000449 0.004463 0.028886 0.003864
# 6 -0.001176 -0.004413 -0.000238 -0.012082 0.003864 0.037345
#
#
# Mechanical properties :
#
#
# Convention : Reuss Voigt Hill
#
# Bulk Modulus (GPa) = 49.43292 66.19376 57.81334
# Shear Modulus (GPa) = 26.97655 34.46959 30.72307
#
# Velocity S-wave (km/s) = 3.53784 3.99911 3.77553
# Velocity P-wave (km/s) = 6.29475 7.21358 6.76977
#
# Compressibility (1/GPa) = 0.02022943
#
# Stress axis : x y z
#
# Youngs Moduli (GPa) = 56.88946 46.20803 102.40278
#
# Poissons Ratio (x) = 0.44547 0.41585
# Poissons Ratio (y) = 0.54845 0.06923
# Poissons Ratio (z) = 0.23102 0.03124
#
# Static dielectric constant tensor:
#      x y z
#    x 3.988450 -0.017560 0.065010 
#    y -0.017560 3.845700 -0.113580 
#    z 0.065010 -0.113580 4.476190 
# 
# 
# High freq. dielectric constant tensor:
#      x y z
#    x 1.832840 -0.002780 0.018440 
#    y -0.002780 1.832910 -0.004010 
#    z 0.018440 -0.004010 1.882630 
# 
# From -- ./inp_files/206182.got.cif
#   From: 2010.06.25/outbox.cif.g09.slc.cpg/sg2_104_cif.got.tgz:206182.got - 2010.06.27 13:26:56.
