data_PCOD8030671
_publ_section_title
;
Structure prediction by ZEFSAII (Michael W. Deem and Ramdas Pophale) SiO2 
 PCOD8030671
Probable space group: P -1
;
_chemical_formula_sum "Si O2"
_cell_formula_units_Z 16
_cell_length_a 33.048259
_cell_length_b 15.584165
_cell_length_c 9.766271
_cell_angle_alpha 138.813141
_cell_angle_beta 33.341664
_cell_angle_gamma 162.618481
_cell_volume 794.689769
_symmetry_space_group_name_H-M "P -1"
_symmetry_group_IT_number 2
_symmetry_cell_setting 'triclinic'
loop_
_space_group_symop_operation_xyz
x,y,z
-x,-y,-z
loop_
_atom_site_type_symbol
_atom_site_label
_atom_site_fract_x
_atom_site_fract_y
_atom_site_fract_z
Si Si1 0.718117 0.297353 0.125727
Si Si2 0.401922 0.185705 0.759056
Si Si3 0.577077 0.759026 0.547373
Si Si4 0.071164 0.243919 0.147862
Si Si5 0.259017 0.146610 0.335799
Si Si6 0.365446 0.682976 0.054770
Si Si7 0.801619 0.158449 0.639651
Si Si8 0.354796 0.814722 0.505036
O O1 0.750198 0.384311 0.298992
O O2 0.552500 0.106082 0.314370
O O3 0.872138 0.581729 0.934312
O O4 0.696804 0.107995 0.946638
O O5 0.367994 0.167522 0.676169
O O6 0.598529 0.514866 0.641838
O O7 0.334930 0.933649 0.665899
O O8 0.291682 0.108292 0.067336
O O9 0.500000 0.500000 0.500000
O O10 0.744655 0.056187 0.519630
O O11 0.443924 0.664873 0.830231
O O12 0.218460 0.442235 0.072074
O O13 0.923320 0.082408 0.452406
O O14 0.000000 0.000000 0.000000
O O15 0.255880 0.062448 0.385186
O O16 0.288388 0.613544 0.332012
O O17 0.500000 0.000000 0.000000
O O18 0.000000 0.500000 0.500000
#
# Coordination Sequence:
#
# PCOD8030671 Si02
#       8
#     2   2   2   2   2   2   2   2
#     4  11  22  40  65  97 129 172 219 269 325 397
#     4  11  23  43  67  97 132 174 224 274 336 398
#     4  12  24  42  67  98 129 178 223 273 330 398
#     4  12  25  45  68  95 135 177 217 271 336 397
#     4  11  24  42  65  99 132 174 217 273 337 398
#     4  12  23  43  70  98 132 176 229 272 325 401
#     4  12  23  40  65  96 132 169 216 271 331 393
#     4  11  22  39  67  98 128 174 226 273 322 393
#
# _framework density 20.133644
#
# number of rings (size 3 to 8) (size 9 to 14) (size 15 to 20)
#    0.000    0.500    7.500    1.500    0.000    0.000 
#    4.500    1.875    0.000    0.000    0.000    0.000 
#    0.000    0.000    0.000    0.000    0.000    0.000 
#
# Total GULP energy -198430.139440 kJ/mol
# GULP energy per Si atom -12401.883715 kJ/mol
# Density = 2.008782 g / cm^3
# Si number density = 20.133644 Si / 1000 Ang^3
#
#
#
# Elastic Constant Matrix: (Units=GPa)
#
#
# Indices 1 2 3 4 5 6 
#
# 1 114.7035 56.0682 58.2468 10.0678 3.8272 19.6045
# 2 56.0682 101.0282 53.5970 6.2638 -4.1685 16.5259
# 3 58.2468 53.5970 127.4480 9.8438 9.4177 13.9848
# 4 10.0678 6.2638 9.8438 34.3611 1.1328 -0.4195
# 5 3.8272 -4.1685 9.4177 1.1328 39.5593 10.0312
# 6 19.6045 16.5259 13.9848 -0.4195 10.0312 35.6220
#
#
#
# Elastic Compliance Matrix: (Units=1/GPa)
#
#
# Indices 1 2 3 4 5 6 
#
# 1 0.013864 -0.004979 -0.003649 -0.002159 0.000061 -0.003930
# 2 -0.004979 0.015746 -0.004173 -0.000404 0.004188 -0.004110
# 3 -0.003649 -0.004173 0.011566 -0.001387 -0.002848 0.000189
# 4 -0.002159 -0.000404 -0.001387 0.030271 -0.001020 0.002564
# 5 0.000061 0.004188 -0.002848 -0.001020 0.028691 -0.008950
# 6 -0.003930 -0.004110 0.000189 0.002564 -0.008950 0.034619
#
#
# Mechanical properties :
#
#
# Convention : Reuss Voigt Hill
#
# Bulk Modulus (GPa) = 64.21342 75.44485 69.82913
# Shear Modulus (GPa) = 30.20234 33.59299 31.89766
#
# Velocity S-wave (km/s) = 3.87731 4.08916 3.98464
# Velocity P-wave (km/s) = 7.21162 7.73617 7.47850
#
# Compressibility (1/GPa) = 0.01557307
#
# Stress axis : x y z
#
# Youngs Moduli (GPa) = 72.12885 63.50882 86.46165
#
# Poissons Ratio (x) = 0.31622 0.31547
# Poissons Ratio (y) = 0.35915 0.36084
# Poissons Ratio (z) = 0.26318 0.26505
#
# Static dielectric constant tensor:
#      x y z
#    x 3.894600 -0.065020 0.165290 
#    y -0.065020 3.498440 0.239420 
#    z 0.165290 0.239420 3.973750 
# 
# 
# High freq. dielectric constant tensor:
#      x y z
#    x 1.797690 -0.002720 0.000240 
#    y -0.002720 1.772950 0.018790 
#    z 0.000240 0.018790 1.797590 
# 
# From -- ./inp_files/358807.got.cif
#   From: 2010.06.25/outbox.cif.g09.slc.cpg/sg2_180_cif.got.tgz:358807.got - 2010.06.27 13:26:56.
