data_PCOD8030623
_publ_section_title
;
Structure prediction by ZEFSAII (Michael W. Deem and Ramdas Pophale) SiO2 
 PCOD8030623
Probable space group: P -1
;
_chemical_formula_sum "Si O2"
_cell_formula_units_Z 10
_cell_length_a 11.387879
_cell_length_b 6.894775
_cell_length_c 9.870037
_cell_angle_alpha 50.471852
_cell_angle_beta 64.005292
_cell_angle_gamma 90.465442
_cell_volume 489.043431
_symmetry_space_group_name_H-M "P -1"
_symmetry_group_IT_number 2
_symmetry_cell_setting 'triclinic'
loop_
_space_group_symop_operation_xyz
x,y,z
-x,-y,-z
loop_
_atom_site_type_symbol
_atom_site_label
_atom_site_fract_x
_atom_site_fract_y
_atom_site_fract_z
Si Si1 0.221044 0.256969 0.741413
Si Si2 0.326493 0.131819 0.022770
Si Si3 0.851713 0.741940 0.714116
Si Si4 0.028264 0.646315 0.062672
Si Si5 0.345846 0.567487 0.279069
O O1 0.305721 0.204970 0.846989
O O2 0.333818 0.444921 0.490322
O O3 0.124535 0.416689 0.763610
O O4 0.118027 0.970798 0.850765
O O5 0.489512 0.315058 0.903457
O O6 0.221041 0.202826 0.140344
O O7 0.289902 0.808954 0.198511
O O8 0.881983 0.471205 0.837384
O O9 0.746850 0.679805 0.665820
O O10 0.000000 0.000000 0.500000
O O11 0.000000 0.500000 0.000000
#
# Coordination Sequence:
#
# PCOD8030623 Si02
#       5
#     2   2   2   2   2
#     4  11  23  41  67  92 127 168 210 261 314 373
#     4  11  24  45  65  92 133 167 209 263 313 379
#     4  12  24  41  68  95 129 167 211 265 317 369
#     4  11  22  39  63  95 129 160 210 263 313 370
#     4  11  25  43  65  96 127 170 213 255 318 379
#
# _framework density 20.448081999999999
#
# number of rings (size 3 to 8) (size 9 to 14) (size 15 to 20)
#    0.000    0.800    4.000    3.600    2.800    1.600 
#    0.000    1.000    0.000    0.000    0.000    0.000 
#    0.000    0.000    0.000    0.000    0.000    0.000 
#
# Total GULP energy -124056.806885 kJ/mol
# GULP energy per Si atom -12405.680689 kJ/mol
# Density = 2.040154 g / cm^3
# Si number density = 20.448082 Si / 1000 Ang^3
#
#
#
# Elastic Constant Matrix: (Units=GPa)
#
#
# Indices 1 2 3 4 5 6 
#
# 1 86.4421 34.7994 30.2898 -0.8465 5.6279 10.0451
# 2 34.7994 99.7620 38.9116 3.6007 -3.3092 12.7235
# 3 30.2898 38.9116 119.5398 4.1850 7.1654 5.1909
# 4 -0.8465 3.6007 4.1850 21.0903 4.2657 2.3349
# 5 5.6279 -3.3092 7.1654 4.2657 42.2350 -0.6512
# 6 10.0451 12.7235 5.1909 2.3349 -0.6512 44.9623
#
#
#
# Elastic Compliance Matrix: (Units=1/GPa)
#
#
# Indices 1 2 3 4 5 6 
#
# 1 0.014359 -0.004062 -0.002186 0.002351 -0.002128 -0.001959
# 2 -0.004062 0.013135 -0.003214 -0.001974 0.002279 -0.002303
# 3 -0.002186 -0.003214 0.010090 -0.001260 -0.001541 0.000276
# 4 0.002351 -0.001974 -0.001260 0.049439 -0.005285 -0.002465
# 5 -0.002128 0.002279 -0.001541 -0.005285 0.024944 0.000644
# 6 -0.001959 -0.002303 0.000276 -0.002465 0.000644 0.023436
#
#
# Mechanical properties :
#
#
# Convention : Reuss Voigt Hill
#
# Bulk Modulus (GPa) = 53.58875 57.08284 55.33579
# Shear Modulus (GPa) = 31.14388 35.10705 33.12547
#
# Velocity S-wave (km/s) = 3.90689 4.14803 4.02926
# Velocity P-wave (km/s) = 6.82758 7.13569 6.98333
#
# Compressibility (1/GPa) = 0.01866063
#
# Stress axis : x y z
#
# Youngs Moduli (GPa) = 69.64391 76.13363 99.10880
#
# Poissons Ratio (x) = 0.30923 0.21664
# Poissons Ratio (y) = 0.28287 0.31852
# Poissons Ratio (z) = 0.15223 0.24468
#
# Static dielectric constant tensor:
#      x y z
#    x 4.179950 -0.324100 0.178310 
#    y -0.324100 3.814880 -0.097980 
#    z 0.178310 -0.097980 3.662240 
# 
# 
# High freq. dielectric constant tensor:
#      x y z
#    x 1.810350 0.001340 0.003460 
#    y 0.001340 1.807080 0.000450 
#    z 0.003460 0.000450 1.800620 
# 
# From -- ./inp_files/15104.got.cif
#   From: 2010.06.25/outbox.cif.g09.slc.cpg/sg2_8_cif.got.tgz:15104.got - 2010.06.27 13:26:56.
