data_PCOD8030554
_publ_section_title
;
Structure prediction by ZEFSAII (Michael W. Deem and Ramdas Pophale) SiO2 
 PCOD8030554
Probable space group: P -1
;
_chemical_formula_sum "Si O2"
_cell_formula_units_Z 14
_cell_length_a 22.820111
_cell_length_b 10.715722
_cell_length_c 11.329942
_cell_angle_alpha 25.132949
_cell_angle_beta 34.226933
_cell_angle_gamma 42.356443
_cell_volume 661.335721
_symmetry_space_group_name_H-M "P -1"
_symmetry_group_IT_number 2
_symmetry_cell_setting 'triclinic'
loop_
_space_group_symop_operation_xyz
x,y,z
-x,-y,-z
loop_
_atom_site_type_symbol
_atom_site_label
_atom_site_fract_x
_atom_site_fract_y
_atom_site_fract_z
Si Si1 0.251299 0.594248 0.530483
Si Si2 0.381852 0.076025 0.782663
Si Si3 0.781029 0.384156 0.816710
Si Si4 0.560702 0.337000 0.145968
Si Si5 0.903993 0.091693 0.312682
Si Si6 0.134421 0.235843 0.837741
Si Si7 0.102018 0.540569 0.216202
O O1 0.288871 0.289865 0.781535
O O2 0.186966 0.758383 0.593940
O O3 0.181322 0.500848 0.614644
O O4 0.355681 0.792639 0.151098
O O5 0.492838 0.262987 0.442783
O O6 0.393280 0.965594 0.722649
O O7 0.666015 0.503309 0.875371
O O8 0.905705 0.186158 0.092618
O O9 0.802036 0.060824 0.005513
O O10 0.799541 0.389886 0.921493
O O11 0.500000 0.500000 0.000000
O O12 0.881298 0.743011 0.650264
O O13 0.013876 0.166061 0.130585
O O14 0.138386 0.373957 0.581843
O O15 0.000000 0.500000 0.500000
#
# Coordination Sequence:
#
# PCOD8030554 Si02
#       7
#     2   2   2   2   2   2   2
#     4  12  23  40  61  94 132 169 202 253 324 382
#     4  11  22  38  61  92 128 157 202 260 321 377
#     4  12  24  37  68  92 132 155 211 269 315 364
#     4  11  22  40  65  99 124 161 208 266 336 360
#     4  12  25  41  64  89 131 178 209 247 310 385
#     4  12  21  39  60  98 127 165 201 259 320 376
#     4  12  23  44  63  91 126 174 218 258 297 362
#
# _framework density 21.169277999999998
#
# number of rings (size 3 to 8) (size 9 to 14) (size 15 to 20)
#    0.000    0.286    7.143    2.571    2.000    0.000 
#    0.000    4.286    0.000    5.143    0.000    0.000 
#    0.000    0.000    0.000    0.000    0.000    0.000 
#
# Total GULP energy -173457.757301 kJ/mol
# GULP energy per Si atom -12389.839807 kJ/mol
# Density = 2.112110 g / cm^3
# Si number density = 21.169278 Si / 1000 Ang^3
#
#
#
# Elastic Constant Matrix: (Units=GPa)
#
#
# Indices 1 2 3 4 5 6 
#
# 1 70.8671 13.9464 15.5339 6.3631 -5.6836 -11.0442
# 2 13.9464 110.9686 26.7234 -0.6623 -10.2691 -7.0243
# 3 15.5339 26.7234 76.0871 5.7642 2.2552 -2.5197
# 4 6.3631 -0.6623 5.7642 33.7370 -5.2968 3.2061
# 5 -5.6836 -10.2691 2.2552 -5.2968 30.5268 -0.6985
# 6 -11.0442 -7.0243 -2.5197 3.2061 -0.6985 24.5953
#
#
#
# Elastic Compliance Matrix: (Units=1/GPa)
#
#
# Indices 1 2 3 4 5 6 
#
# 1 0.016478 -0.000717 -0.002725 -0.002935 0.002688 0.007374
# 2 -0.000717 0.010507 -0.003692 0.001383 0.003965 0.002233
# 3 -0.002725 -0.003692 0.015281 -0.002651 -0.003349 -0.000462
# 4 -0.002935 0.001383 -0.002651 0.032042 0.005555 -0.005214
# 5 0.002688 0.003965 -0.003349 0.005555 0.035856 0.002290
# 6 0.007374 0.002233 -0.000462 -0.005214 0.002290 0.045304
#
#
# Mechanical properties :
#
#
# Convention : Reuss Voigt Hill
#
# Bulk Modulus (GPa) = 35.71816 41.14781 38.43298
# Shear Modulus (GPa) = 27.92201 31.21975 29.57088
#
# Velocity S-wave (km/s) = 3.63573 3.84444 3.74154
# Velocity P-wave (km/s) = 5.87656 6.25987 6.07124
#
# Compressibility (1/GPa) = 0.02799697
#
# Stress axis : x y z
#
# Youngs Moduli (GPa) = 60.68821 95.17132 65.44110
#
# Poissons Ratio (x) = 0.06820 0.17836
# Poissons Ratio (y) = 0.04349 0.24164
# Poissons Ratio (z) = 0.16541 0.35141
#
# Static dielectric constant tensor:
#      x y z
#    x 3.663920 -0.228630 -0.091330 
#    y -0.228630 3.759850 0.078110 
#    z -0.091330 0.078110 4.147390 
# 
# 
# High freq. dielectric constant tensor:
#      x y z
#    x 1.801920 -0.024950 0.011000 
#    y -0.024950 1.820720 -0.000590 
#    z 0.011000 -0.000590 1.845930 
# 
# From -- ./inp_files/469091.got.cif
#   From: 2010.06.25/outbox.cif.g09.slc.cpg/sg2_235_cif.got.tgz:469091.got - 2010.06.27 13:26:56.
