data_PCOD8030027
_publ_section_title
;
Structure prediction by ZEFSAII (Michael W. Deem and Ramdas Pophale) SiO2 
 PCOD8030027
Probable space group: P -1
;
_chemical_formula_sum "Si O2"
_cell_formula_units_Z 16
_cell_length_a 14.176488
_cell_length_b 13.368725
_cell_length_c 10.993182
_cell_angle_alpha 125.418389
_cell_angle_beta 74.436314
_cell_angle_gamma 148.859509
_cell_volume 738.822091
_symmetry_space_group_name_H-M "P -1"
_symmetry_group_IT_number 2
_symmetry_cell_setting 'triclinic'
loop_
_space_group_symop_operation_xyz
x,y,z
-x,-y,-z
loop_
_atom_site_type_symbol
_atom_site_label
_atom_site_fract_x
_atom_site_fract_y
_atom_site_fract_z
Si Si1 0.895533 0.025476 0.177628
Si Si2 0.990285 0.762768 0.444550
Si Si3 0.615251 0.714152 0.445484
Si Si4 0.845050 0.319966 0.641093
Si Si5 0.521477 0.337331 0.294788
Si Si6 0.528605 0.138307 0.741046
Si Si7 0.298558 0.437531 0.157553
Si Si8 0.729147 0.052579 0.103570
O O1 0.954360 0.128554 0.364792
O O2 0.732159 0.938833 0.112136
O O3 0.113846 0.267066 0.195494
O O4 0.777563 0.762155 0.038121
O O5 0.047952 0.684830 0.351864
O O6 0.739289 0.503176 0.321806
O O7 0.126500 0.990918 0.457353
O O8 0.542613 0.495851 0.343449
O O9 0.547970 0.730213 0.588761
O O10 0.512418 0.646243 0.307421
O O11 0.692492 0.206797 0.719903
O O12 0.035800 0.624504 0.751981
O O13 0.695760 0.133672 0.444149
O O14 0.335480 0.058243 0.088357
O O15 0.654151 0.398507 0.833565
O O16 0.457682 0.069777 0.858718
#
# Coordination Sequence:
#
# PCOD8030027 Si02
#       8
#     2   2   2   2   2   2   2   2
#     4  11  23  39  72 105 133 164 219 279 331 387
#     4  12  25  44  70  95 130 183 218 265 324 404
#     4  11  23  44  67  96 134 174 216 269 335 393
#     4  11  25  42  67  99 133 173 222 275 321 381
#     4  11  27  44  65  96 137 174 216 273 330 387
#     4  11  24  41  71 101 131 173 216 278 330 384
#     4  11  21  41  71 104 135 164 217 280 331 388
#     4  12  24  43  66 100 133 174 222 271 325 390
#
# _framework density 21.656092999999998
#
# number of rings (size 3 to 8) (size 9 to 14) (size 15 to 20)
#    0.000    0.750    6.250    0.750    1.750    3.500 
#    0.000    1.250    0.000    0.000    0.000    0.000 
#    0.000    0.000    0.000    0.000    0.000    0.000 
#
# Total GULP energy -198463.782464 kJ/mol
# GULP energy per Si atom -12403.986404 kJ/mol
# Density = 2.160680 g / cm^3
# Si number density = 21.656093 Si / 1000 Ang^3
#
#
#
# Elastic Constant Matrix: (Units=GPa)
#
#
# Indices 1 2 3 4 5 6 
#
# 1 483.2383 215.3277 59.8116 44.5868 124.0429 98.5260
# 2 215.3277 184.7535 46.2864 40.8628 54.1419 55.9522
# 3 59.8116 46.2864 98.8292 21.9453 -5.6068 5.6770
# 4 44.5868 40.8628 21.9453 29.4442 14.4831 3.8792
# 5 124.0429 54.1419 -5.6068 14.4831 71.0951 21.3422
# 6 98.5260 55.9522 5.6770 3.8792 21.3422 43.0145
#
#
#
# Elastic Compliance Matrix: (Units=1/GPa)
#
#
# Indices 1 2 3 4 5 6 
#
# 1 0.008343 -0.003087 -0.003675 0.000421 -0.009616 -0.009876
# 2 -0.003087 0.017177 -0.001993 -0.015589 -0.000696 -0.013258
# 3 -0.003675 -0.001993 0.015372 -0.008381 0.009314 0.005116
# 4 0.000421 -0.015589 -0.008381 0.062626 -0.007891 0.018687
# 5 -0.009616 -0.000696 0.009314 -0.007891 0.031711 0.006681
# 6 -0.009876 -0.013258 0.005116 0.018687 0.006681 0.057439
#
#
# Mechanical properties :
#
#
# Convention : Reuss Voigt Hill
#
# Bulk Modulus (GPa) = 42.76900 156.63026 99.69963
# Shear Modulus (GPa) = 22.93886 58.40377 40.67131
#
# Velocity S-wave (km/s) = 3.25812 5.19878 4.33835
# Velocity P-wave (km/s) = 5.82630 10.41727 8.43995
#
# Compressibility (1/GPa) = 0.02338142
#
# Stress axis : x y z
#
# Youngs Moduli (GPa) = 119.86089 58.21789 65.05532
#
# Poissons Ratio (x) = 0.17972 0.23909
# Poissons Ratio (y) = 0.37001 0.12964
# Poissons Ratio (z) = 0.44051 0.11602
#
# Static dielectric constant tensor:
#      x y z
#    x 3.980730 0.274770 -0.214590 
#    y 0.274770 4.072300 0.018820 
#    z -0.214590 0.018820 3.875650 
# 
# 
# High freq. dielectric constant tensor:
#      x y z
#    x 1.844710 0.017510 -0.017310 
#    y 0.017510 1.866240 0.005080 
#    z -0.017310 0.005080 1.847760 
# 
# From -- ./inp_files/455878.got.cif
#   From: 2010.06.25/outbox.cif.g09.slc.cpg/sg2_228_cif.got.tgz:455878.got - 2010.06.27 13:26:56.
