data_PCOD8030558
_publ_section_title
;
Structure prediction by ZEFSAII (Michael W. Deem and Ramdas Pophale) SiO2 
 PCOD8030558
Probable space group: P -1
;
_chemical_formula_sum "Si O2"
_cell_formula_units_Z 16
_cell_length_a 18.241018
_cell_length_b 11.799888
_cell_length_c 24.384823
_cell_angle_alpha 31.058809
_cell_angle_beta 158.877917
_cell_angle_gamma 151.697480
_cell_volume 877.366229
_symmetry_space_group_name_H-M "P -1"
_symmetry_group_IT_number 2
_symmetry_cell_setting 'triclinic'
loop_
_space_group_symop_operation_xyz
x,y,z
-x,-y,-z
loop_
_atom_site_type_symbol
_atom_site_label
_atom_site_fract_x
_atom_site_fract_y
_atom_site_fract_z
Si Si1 0.041438 0.850718 0.639180
Si Si2 0.967879 0.509796 0.037499
Si Si3 0.170118 0.640887 0.361702
Si Si4 0.635000 0.404981 0.373792
Si Si5 0.332414 0.023822 0.472355
Si Si6 0.140677 0.071004 0.208704
Si Si7 0.469757 0.172633 0.864444
Si Si8 0.750390 0.696305 0.607700
O O1 0.994652 0.579308 0.700183
O O2 0.887367 0.824734 0.595672
O O3 0.000000 0.000000 0.500000
O O4 0.304189 0.000416 0.774139
O O5 0.128112 0.437574 0.216833
O O6 0.011772 0.786856 0.969217
O O7 0.705914 0.334762 0.934509
O O8 0.000000 0.500000 0.000000
O O9 0.194808 0.529071 0.483428
O O10 0.411072 0.780071 0.442084
O O11 0.047177 0.816990 0.214751
O O12 0.394896 0.218269 0.305748
O O13 0.631612 0.656377 0.247249
O O14 0.695479 0.256553 0.429935
O O15 0.156523 0.033974 0.300256
O O16 0.258929 0.084946 0.454210
O O17 0.500000 0.000000 0.000000
O O18 0.500000 0.500000 0.500000
#
# Coordination Sequence:
#
# PCOD8030558 Si02
#       8
#     2   2   2   2   2   2   2   2
#     4  12  24  38  59  84 123 160 188 239 294 350
#     4  11  22  38  62  88 115 154 194 246 292 336
#     4   9  16  33  57  87 112 153 194 235 283 343
#     4   8  16  31  58  83 112 152 197 235 281 341
#     4   9  16  33  57  88 115 144 195 247 277 337
#     4   8  16  31  59  85 112 148 198 237 282 338
#     4  11  22  39  57  87 119 154 203 231 285 355
#     4  12  24  37  59  94 120 147 197 244 296 345
#
# _framework density 18.236398000000001
#
# number of rings (size 3 to 8) (size 9 to 14) (size 15 to 20)
#    0.000    2.000    5.000    1.500    1.750    0.000 
#    0.000    2.500    2.750    0.750    0.000    0.000 
#    0.000    0.000    0.000    0.000    0.000    0.000 
#
# Total GULP energy -198276.332296 kJ/mol
# GULP energy per Si atom -12392.270769 kJ/mol
# Density = 1.819489 g / cm^3
# Si number density = 18.236398 Si / 1000 Ang^3
#
#
#
# Elastic Constant Matrix: (Units=GPa)
#
#
# Indices 1 2 3 4 5 6 
#
# 1 120.9740 52.8821 52.8933 -19.6479 2.1105 -19.1274
# 2 52.8821 117.3608 62.5636 -15.4735 4.1455 -28.6110
# 3 52.8933 62.5636 122.5008 -17.4261 -2.4484 -11.7716
# 4 -19.6479 -15.4735 -17.4261 37.3101 -2.8828 2.3008
# 5 2.1105 4.1455 -2.4484 -2.8828 25.0244 -6.6905
# 6 -19.1274 -28.6110 -11.7716 2.3008 -6.6905 35.1686
#
#
#
# Elastic Compliance Matrix: (Units=1/GPa)
#
#
# Indices 1 2 3 4 5 6 
#
# 1 0.011729 -0.002446 -0.002984 0.003600 0.000403 0.003232
# 2 -0.002446 0.014937 -0.005475 0.001787 -0.000238 0.008827
# 3 -0.002984 -0.005475 0.012454 0.002245 0.002198 -0.001638
# 4 0.003600 0.001787 0.002245 0.030612 0.003924 0.002907
# 5 0.000403 -0.000238 0.002198 0.003924 0.042953 0.008676
# 6 0.003232 0.008827 -0.001638 0.002907 0.008676 0.038285
#
#
# Mechanical properties :
#
#
# Convention : Reuss Voigt Hill
#
# Bulk Modulus (GPa) = 57.77106 77.50150 67.63628
# Shear Modulus (GPa) = 28.00308 32.33372 30.16840
#
# Velocity S-wave (km/s) = 3.92287 4.21531 4.07172
# Velocity P-wave (km/s) = 7.22955 8.14139 7.69898
#
# Compressibility (1/GPa) = 0.01730970
#
# Stress axis : x y z
#
# Youngs Moduli (GPa) = 85.25947 66.94573 80.29493
#
# Poissons Ratio (x) = 0.16373 0.23964
# Poissons Ratio (y) = 0.20852 0.43963
# Poissons Ratio (z) = 0.25446 0.36654
#
# Static dielectric constant tensor:
#      x y z
#    x 3.315930 -0.270320 0.123920 
#    y -0.270320 3.534060 -0.297480 
#    z 0.123920 -0.297480 3.471660 
# 
# 
# High freq. dielectric constant tensor:
#      x y z
#    x 1.694980 -0.017590 0.003710 
#    y -0.017590 1.707160 -0.017930 
#    z 0.003710 -0.017930 1.695540 
# 
# From -- ./inp_files/254490.got.cif
#   From: 2010.06.25/outbox.cif.g09.slc.cpg/sg2_128_cif.got.tgz:254490.got - 2010.06.27 13:26:56.
