data_PCOD8030110
_publ_section_title
;
Structure prediction by ZEFSAII (Michael W. Deem and Ramdas Pophale) SiO2 
 PCOD8030110
Probable space group: P -1
;
_chemical_formula_sum "Si O2"
_cell_formula_units_Z 16
_cell_length_a 11.094978
_cell_length_b 14.735046
_cell_length_c 14.693533
_cell_angle_alpha 151.515804
_cell_angle_beta 41.085872
_cell_angle_gamma 131.091513
_cell_volume 752.794843
_symmetry_space_group_name_H-M "P -1"
_symmetry_group_IT_number 2
_symmetry_cell_setting 'triclinic'
loop_
_space_group_symop_operation_xyz
x,y,z
-x,-y,-z
loop_
_atom_site_type_symbol
_atom_site_label
_atom_site_fract_x
_atom_site_fract_y
_atom_site_fract_z
Si Si1 0.760580 0.378802 0.822193
Si Si2 0.892124 0.989779 0.458536
Si Si3 0.016969 0.605494 0.987536
Si Si4 0.503506 0.910677 0.682174
Si Si5 0.104071 0.798665 0.751247
Si Si6 0.457358 0.332897 0.102418
Si Si7 0.403235 0.460789 0.613321
Si Si8 0.143165 0.513644 0.331733
O O1 0.735864 0.438301 0.783404
O O2 0.849235 0.557419 0.976915
O O3 0.896847 0.194256 0.587047
O O4 0.575508 0.345334 0.953237
O O5 0.677455 0.931796 0.534223
O O6 0.000000 0.000000 0.500000
O O7 0.008924 0.833556 0.198810
O O8 0.200345 0.534186 0.772763
O O9 0.000000 0.500000 0.000000
O O10 0.322829 0.825000 0.661997
O O11 0.579333 0.765881 0.587202
O O12 0.449648 0.110201 0.936423
O O13 0.072164 0.713667 0.592538
O O14 0.020164 0.638988 0.728390
O O15 0.000000 0.000000 0.000000
O O16 0.528850 0.441029 0.245600
O O17 0.261304 0.414949 0.258087
O O18 0.500000 0.500000 0.500000
#
# Coordination Sequence:
#
# PCOD8030110 Si02
#       8
#     2   2   2   2   2   2   2   2
#     4  11  24  40  69 101 131 171 227 279 339 400
#     4  11  21  42  69  98 130 175 223 278 340 396
#     4  12  21  42  68  92 133 178 217 278 336 395
#     4  11  22  42  70  93 131 178 219 278 339 396
#     4  11  24  45  67  93 137 185 223 273 337 400
#     4  11  22  45  68  94 134 174 220 284 341 395
#     4  12  26  42  67 100 133 177 228 276 339 408
#     4  11  25  43  68  98 132 180 229 276 332 407
#
# _framework density 21.254131000000001
#
# number of rings (size 3 to 8) (size 9 to 14) (size 15 to 20)
#    0.000    0.750    6.250    1.125    1.750    1.500 
#    0.000    1.250    0.000    0.000    0.000    0.000 
#    0.000    0.000    0.000    0.000    0.000    0.000 
#
# Total GULP energy -198253.697794 kJ/mol
# GULP energy per Si atom -12390.856112 kJ/mol
# Density = 2.120576 g / cm^3
# Si number density = 21.254131 Si / 1000 Ang^3
#
#
#
# Elastic Constant Matrix: (Units=GPa)
#
#
# Indices 1 2 3 4 5 6 
#
# 1 56.0097 20.9502 20.7634 4.3518 -4.8562 10.2105
# 2 20.9502 92.9269 43.8551 -3.3062 13.5140 1.5512
# 3 20.7634 43.8551 127.1460 17.8111 1.8007 -6.2595
# 4 4.3518 -3.3062 17.8111 45.9330 2.0548 0.6773
# 5 -4.8562 13.5140 1.8007 2.0548 30.6148 -6.5341
# 6 10.2105 1.5512 -6.2595 0.6773 -6.5341 38.9896
#
#
#
# Elastic Compliance Matrix: (Units=1/GPa)
#
#
# Indices 1 2 3 4 5 6 
#
# 1 0.021790 -0.004603 -0.002041 -0.001738 0.004649 -0.005042
# 2 -0.004603 0.015531 -0.005122 0.003917 -0.007894 -0.001626
# 3 -0.002041 -0.005122 0.010703 -0.004468 0.002228 0.002908
# 4 -0.001738 0.003917 -0.004468 0.024136 -0.003672 -0.001453
# 5 0.004649 -0.007894 0.002228 -0.003672 0.038267 0.005931
# 6 -0.005042 -0.001626 0.002908 -0.001453 0.005931 0.028519
#
#
# Mechanical properties :
#
#
# Convention : Reuss Voigt Hill
#
# Bulk Modulus (GPa) = 40.83256 49.69110 45.26183
# Shear Modulus (GPa) = 29.30136 35.80843 32.55489
#
# Velocity S-wave (km/s) = 3.71700 4.10905 3.91794
# Velocity P-wave (km/s) = 6.13798 6.77810 6.46597
#
# Compressibility (1/GPa) = 0.02449026
#
# Stress axis : x y z
#
# Youngs Moduli (GPa) = 45.89348 64.38854 93.43577
#
# Poissons Ratio (x) = 0.29637 0.19073
# Poissons Ratio (y) = 0.21124 0.47860
# Poissons Ratio (z) = 0.09368 0.32981
#
# Static dielectric constant tensor:
#      x y z
#    x 3.552820 0.518630 -0.209080 
#    y 0.518630 3.217090 0.601320 
#    z -0.209080 0.601320 4.055390 
# 
# 
# High freq. dielectric constant tensor:
#      x y z
#    x 1.818670 0.019860 -0.011160 
#    y 0.019860 1.827820 0.012860 
#    z -0.011160 0.012860 1.854710 
# 
# From -- ./inp_files/522590.got.cif
#   From: 2010.06.25/outbox.cif.g09.slc.cpg/sg2_262_cif.got.tgz:522590.got - 2010.06.27 13:26:56.
