data_PCOD8030693
_publ_section_title
;
Structure prediction by ZEFSAII (Michael W. Deem and Ramdas Pophale) SiO2 
 PCOD8030693
Probable space group: P -1
;
_chemical_formula_sum "Si O2"
_cell_formula_units_Z 14
_cell_length_a 28.706708
_cell_length_b 28.359265
_cell_length_c 15.412009
_cell_angle_alpha 17.029620
_cell_angle_beta 17.767748
_cell_angle_gamma 10.194879
_cell_volume 634.901662
_symmetry_space_group_name_H-M "P -1"
_symmetry_group_IT_number 2
_symmetry_cell_setting 'triclinic'
loop_
_space_group_symop_operation_xyz
x,y,z
-x,-y,-z
loop_
_atom_site_type_symbol
_atom_site_label
_atom_site_fract_x
_atom_site_fract_y
_atom_site_fract_z
Si Si1 0.500663 0.178103 0.719095
Si Si2 0.455379 0.398892 0.581787
Si Si3 0.044956 0.760082 0.412766
Si Si4 0.937951 0.898115 0.732025
Si Si5 0.089880 0.071866 0.823401
Si Si6 0.577461 0.607051 0.893429
Si Si7 0.238016 0.251808 0.578191
O O1 0.411898 0.297458 0.764848
O O2 0.293233 0.434752 0.568918
O O3 0.806926 0.971522 0.533154
O O4 0.500000 0.000000 0.000000
O O5 0.210901 0.597319 0.733430
O O6 0.455212 0.578854 0.224423
O O7 0.731329 0.127893 0.619523
O O8 0.931310 0.797228 0.455194
O O9 0.166564 0.832549 0.068459
O O10 0.000000 0.000000 0.500000
O O11 0.818884 0.858726 0.071086
O O12 0.798175 0.324980 0.940346
O O13 0.334152 0.904048 0.749345
O O14 0.730127 0.620292 0.643975
O O15 0.000000 0.500000 0.500000
O O16 0.500000 0.000000 0.500000
#
# Coordination Sequence:
#
# PCOD8030693 Si02
#       7
#     2   2   2   2   2   2   2
#     4  12  25  42  65  96 141 188 228 278 339 408
#     4  12  24  44  69  99 138 178 228 274 343 414
#     4  11  22  42  62  96 136 174 234 279 331 391
#     4  12  26  46  72 101 134 176 221 280 350 416
#     4  11  22  39  69  95 130 180 228 284 333 386
#     4  12  23  42  70 100 135 178 232 286 337 405
#     4  12  26  47  70 101 135 171 221 283 350 409
#
# _framework density 22.050659
#
# number of rings (size 3 to 8) (size 9 to 14) (size 15 to 20)
#    0.000    0.286    2.857    6.857    0.000    5.714 
#    0.000    0.000    0.000    0.000    0.000    0.000 
#    0.000    0.000    0.000    0.000    0.000    0.000 
#
# Total GULP energy -173582.865471 kJ/mol
# GULP energy per Si atom -12398.776105 kJ/mol
# Density = 2.200047 g / cm^3
# Si number density = 22.050659 Si / 1000 Ang^3
#
#
#
# Elastic Constant Matrix: (Units=GPa)
#
#
# Indices 1 2 3 4 5 6 
#
# 1 152.1337 60.7966 70.1228 -12.8175 -0.9585 -15.6539
# 2 60.7966 165.5875 34.1375 -9.8609 11.2254 -12.5847
# 3 70.1228 34.1375 107.4002 -5.5305 -15.9583 13.4584
# 4 -12.8175 -9.8609 -5.5305 36.0815 0.3506 7.5063
# 5 -0.9585 11.2254 -15.9583 0.3506 34.8718 0.3774
# 6 -15.6539 -12.5847 13.4584 7.5063 0.3774 52.2705
#
#
#
# Elastic Compliance Matrix: (Units=1/GPa)
#
#
# Indices 1 2 3 4 5 6 
#
# 1 0.011601 -0.002002 -0.007876 0.001386 -0.002707 0.004841
# 2 -0.002002 0.007519 -0.001728 0.000785 -0.003291 0.001567
# 3 -0.007876 -0.001728 0.017200 0.000822 0.008283 -0.007381
# 4 0.001386 0.000785 0.000822 0.029344 -0.000092 -0.003821
# 5 -0.002707 -0.003291 0.008283 -0.000092 0.033496 -0.003964
# 6 0.004841 0.001567 -0.007381 -0.003821 -0.003964 0.023436
#
#
# Mechanical properties :
#
#
# Convention : Reuss Voigt Hill
#
# Bulk Modulus (GPa) = 76.27903 83.91502 80.09702
# Shear Modulus (GPa) = 33.29420 41.98238 37.63829
#
# Velocity S-wave (km/s) = 3.88995 4.36811 4.13595
# Velocity P-wave (km/s) = 7.40563 7.97363 7.69487
#
# Compressibility (1/GPa) = 0.01310976
#
# Stress axis : x y z
#
# Youngs Moduli (GPa) = 86.19913 132.99213 58.13888
#
# Poissons Ratio (x) = 0.26623 0.45788
# Poissons Ratio (y) = 0.17255 0.10046
# Poissons Ratio (z) = 0.67887 0.22980
#
# Static dielectric constant tensor:
#      x y z
#    x 4.287870 -0.052370 0.129780 
#    y -0.052370 4.095220 -0.134390 
#    z 0.129780 -0.134390 3.706980 
# 
# 
# High freq. dielectric constant tensor:
#      x y z
#    x 1.884360 -0.004270 0.000160 
#    y -0.004270 1.892440 -0.004400 
#    z 0.000160 -0.004400 1.858720 
# 
# From -- ./inp_files/48243.got.cif
#   From: 2010.06.25/outbox.cif.g09.slc.cpg/sg2_25_cif.got.tgz:48243.got - 2010.06.27 13:26:56.
