data_PCOD8030819
_publ_section_title
;
Structure prediction by ZEFSAII (Michael W. Deem and Ramdas Pophale) SiO2 
 PCOD8030819
Probable space group: P -1
;
_chemical_formula_sum "Si O2"
_cell_formula_units_Z 16
_cell_length_a 17.454508
_cell_length_b 20.229291
_cell_length_c 11.279940
_cell_angle_alpha 148.002826
_cell_angle_beta 31.169426
_cell_angle_gamma 159.454233
_cell_volume 698.975931
_symmetry_space_group_name_H-M "P -1"
_symmetry_group_IT_number 2
_symmetry_cell_setting 'triclinic'
loop_
_space_group_symop_operation_xyz
x,y,z
-x,-y,-z
loop_
_atom_site_type_symbol
_atom_site_label
_atom_site_fract_x
_atom_site_fract_y
_atom_site_fract_z
Si Si1 0.341732 0.507951 0.491167
Si Si2 0.675418 0.948385 0.084971
Si Si3 0.785593 0.247081 0.533898
Si Si4 0.090335 0.112311 0.173575
Si Si5 0.779101 0.372452 0.362203
Si Si6 0.691915 0.039687 0.580337
Si Si7 0.098037 0.757359 0.174498
Si Si8 0.234838 0.081434 0.337522
O O1 0.318874 0.350039 0.232039
O O2 0.286480 0.554312 0.520688
O O3 0.592314 0.703353 0.508626
O O4 0.163646 0.410047 0.686182
O O5 0.417454 0.780063 0.228979
O O6 0.767242 0.149371 0.292136
O O7 0.851249 0.963819 0.933155
O O8 0.658917 0.912613 0.912710
O O9 0.767144 0.142113 0.511551
O O10 0.036738 0.472249 0.543956
O O11 0.874017 0.055413 0.415966
O O12 0.000000 0.000000 0.000000
O O13 0.560533 0.181151 0.433193
O O14 0.897973 0.346756 0.085360
O O15 0.718344 0.158089 0.832714
O O16 0.183390 0.941257 0.285238
O O17 0.000000 0.000000 0.500000
#
# Coordination Sequence:
#
# PCOD8030819 Si02
#       8
#     2   2   2   2   2   2   2   2
#     4  11  24  40  69  98 133 180 229 276 340 405
#     4  11  25  45  71  93 145 183 219 282 348 397
#     4  11  24  46  68 101 136 182 224 284 339 404
#     4  11  22  47  72  95 133 182 224 279 339 406
#     4  12  22  39  70 105 131 172 236 277 341 399
#     4  11  22  40  70 101 132 169 230 283 329 402
#     4  11  23  39  68  99 135 172 223 288 333 395
#     4  12  26  45  65 101 143 180 227 283 342 407
#
# _framework density 22.890630999999999
#
# number of rings (size 3 to 8) (size 9 to 14) (size 15 to 20)
#    0.000    0.750    5.000    3.750    1.750    3.000 
#    2.250    8.125    0.000    0.000    0.000    0.000 
#    0.000    0.000    0.000    0.000    0.000    0.000 
#
# Total GULP energy -198323.842196 kJ/mol
# GULP energy per Si atom -12395.240137 kJ/mol
# Density = 2.283853 g / cm^3
# Si number density = 22.890631 Si / 1000 Ang^3
#
#
#
# Elastic Constant Matrix: (Units=GPa)
#
#
# Indices 1 2 3 4 5 6 
#
# 1 62.0398 2.7111 5.9207 7.4352 3.4405 17.8488
# 2 2.7111 118.2263 2.6132 20.7341 6.8993 41.9561
# 3 5.9207 2.6132 63.0716 17.6578 7.8464 15.6969
# 4 7.4352 20.7341 17.6578 32.0729 14.2134 5.1332
# 5 3.4405 6.8993 7.8464 14.2134 35.5062 4.2727
# 6 17.8488 41.9561 15.6969 5.1332 4.2727 43.0408
#
#
#
# Elastic Compliance Matrix: (Units=1/GPa)
#
#
# Indices 1 2 3 4 5 6 
#
# 1 0.020987 0.006549 0.004125 -0.009526 0.001473 -0.015602
# 2 0.006549 0.018644 0.008229 -0.015840 0.002948 -0.022295
# 3 0.004125 0.008229 0.023951 -0.017585 0.001739 -0.016543
# 4 -0.009526 -0.015840 -0.017585 0.057875 -0.017768 0.020666
# 5 0.001473 0.002948 0.001739 -0.017768 0.034834 -0.005457
# 6 -0.015602 -0.022295 -0.016543 0.020666 -0.005457 0.055547
#
#
# Mechanical properties :
#
#
# Convention : Reuss Voigt Hill
#
# Bulk Modulus (GPa) = 9.86301 29.53641 19.69971
# Shear Modulus (GPa) = 24.05839 37.59684 30.82762
#
# Velocity S-wave (km/s) = 3.24545 4.05712 3.67377
# Velocity P-wave (km/s) = 4.28510 5.90578 5.15947
#
# Compressibility (1/GPa) = 0.10138896
#
# Stress axis : x y z
#
# Youngs Moduli (GPa) = 47.64759 53.63605 41.75229
#
# Poissons Ratio (x) = -0.35126 -0.17223
# Poissons Ratio (y) = -0.31204 -0.34359
# Poissons Ratio (z) = -0.19655 -0.44138
#
# Static dielectric constant tensor:
#      x y z
#    x 3.871220 0.008630 0.213460 
#    y 0.008630 4.222400 0.335150 
#    z 0.213460 0.335150 4.654030 
# 
# 
# High freq. dielectric constant tensor:
#      x y z
#    x 1.914070 0.014980 0.009300 
#    y 0.014980 1.905210 0.011730 
#    z 0.009300 0.011730 1.903930 
# 
# From -- ./inp_files/332693.got.cif
#   From: 2010.06.25/outbox.cif.g09.slc.cpg/sg2_167_cif.got.tgz:332693.got - 2010.06.27 13:26:56.
