data_PCOD8030165
_publ_section_title
;
Structure prediction by ZEFSAII (Michael W. Deem and Ramdas Pophale) SiO2 
 PCOD8030165
Probable space group: P -1
;
_chemical_formula_sum "Si O2"
_cell_formula_units_Z 16
_cell_length_a 8.252167
_cell_length_b 23.812101
_cell_length_c 17.208446
_cell_angle_alpha 163.317106
_cell_angle_beta 70.678563
_cell_angle_gamma 116.076232
_cell_volume 816.842243
_symmetry_space_group_name_H-M "P -1"
_symmetry_group_IT_number 2
_symmetry_cell_setting 'triclinic'
loop_
_space_group_symop_operation_xyz
x,y,z
-x,-y,-z
loop_
_atom_site_type_symbol
_atom_site_label
_atom_site_fract_x
_atom_site_fract_y
_atom_site_fract_z
Si Si1 0.004659 0.434671 0.324389
Si Si2 0.973325 0.047033 0.480432
Si Si3 0.707955 0.631111 0.386740
Si Si4 0.030845 0.517003 0.929000
Si Si5 0.969589 0.187654 0.295283
Si Si6 0.720265 0.964451 0.701974
Si Si7 0.301651 0.261239 0.007103
Si Si8 0.693944 0.101064 0.357137
O O1 0.038620 0.636605 0.530529
O O2 0.000000 0.500000 0.500000
O O3 0.173410 0.364361 0.200513
O O4 0.810128 0.223420 0.049169
O O5 0.156952 0.097106 0.462172
O O6 0.931982 0.242132 0.774048
O O7 0.000000 0.000000 0.500000
O O8 0.785600 0.859936 0.220932
O O9 0.776240 0.503076 0.145892
O O10 0.850990 0.699104 0.526267
O O11 0.708016 0.839870 0.619838
O O12 0.501678 0.467828 0.234252
O O13 0.845266 0.337569 0.676824
O O14 0.000000 0.500000 0.000000
O O15 0.767994 0.074332 0.224547
O O16 0.000000 0.000000 0.000000
O O17 0.509762 0.895149 0.609283
O O18 0.316746 0.091028 0.839484
#
# Coordination Sequence:
#
# PCOD8030165 Si02
#       8
#     2   2   2   2   2   2   2   2
#     4  11  23  43  68  91 126 159 201 251 309 367
#     4  11  25  39  62  88 127 164 212 251 305 362
#     4  11  24  40  65  91 128 159 209 253 306 363
#     4  11  21  43  60  88 125 168 204 257 303 356
#     4  11  23  43  68  93 122 162 199 251 311 368
#     4  11  24  42  61  95 124 163 205 257 303 364
#     4  11  24  42  61  95 124 163 205 257 303 364
#     4  11  24  40  65  91 128 159 209 253 306 363
#
# _framework density 19.587626
#
# number of rings (size 3 to 8) (size 9 to 14) (size 15 to 20)
#    0.000    1.000    2.500    5.250   10.500    3.000 
#    0.000    5.000    0.000    0.000    0.000    0.000 
#    0.000    0.000    0.000    0.000    0.000    0.000 
#
# Total GULP energy -198292.314055 kJ/mol
# GULP energy per Si atom -12393.269628 kJ/mol
# Density = 1.954304 g / cm^3
# Si number density = 19.587626 Si / 1000 Ang^3
#
#
#
# Elastic Constant Matrix: (Units=GPa)
#
#
# Indices 1 2 3 4 5 6 
#
# 1 86.4669 12.1006 4.6562 0.1626 0.2074 -4.6093
# 2 12.1006 92.4113 16.3844 -6.9276 4.6731 -20.2952
# 3 4.6562 16.3844 70.4986 -6.3750 -14.8214 4.6642
# 4 0.1626 -6.9276 -6.3750 28.4875 4.8315 -5.8368
# 5 0.2074 4.6731 -14.8214 4.8315 32.8507 12.2148
# 6 -4.6093 -20.2952 4.6642 -5.8368 12.2148 41.7282
#
#
#
# Elastic Compliance Matrix: (Units=1/GPa)
#
#
# Indices 1 2 3 4 5 6 
#
# 1 0.011823 -0.001220 -0.000687 -0.000246 -0.000511 0.000904
# 2 -0.001220 0.015760 -0.005978 0.006779 -0.010469 0.012212
# 3 -0.000687 -0.005978 0.018812 -0.001278 0.012891 -0.009038
# 4 -0.000246 0.006779 -0.001278 0.041182 -0.012352 0.012789
# 5 -0.000511 -0.010469 0.012891 -0.012352 0.047869 -0.022329
# 6 0.000904 0.012212 -0.009038 0.012789 -0.022329 0.039339
#
#
# Mechanical properties :
#
#
# Convention : Reuss Voigt Hill
#
# Bulk Modulus (GPa) = 32.65332 35.07324 33.86328
# Shear Modulus (GPa) = 24.90489 35.02898 29.96694
#
# Velocity S-wave (km/s) = 3.56962 4.23344 3.91563
# Velocity P-wave (km/s) = 5.80484 6.46844 6.14560
#
# Compressibility (1/GPa) = 0.03062476
#
# Stress axis : x y z
#
# Youngs Moduli (GPa) = 84.58248 63.45014 53.15773
#
# Poissons Ratio (x) = 0.07743 0.03651
# Poissons Ratio (y) = 0.10322 0.31778
# Poissons Ratio (z) = 0.05809 0.37931
#
# Static dielectric constant tensor:
#      x y z
#    x 3.607730 -0.109370 -0.054010 
#    y -0.109370 3.695780 0.048000 
#    z -0.054010 0.048000 3.762980 
# 
# 
# High freq. dielectric constant tensor:
#      x y z
#    x 1.773980 -0.006490 -0.011460 
#    y -0.006490 1.779450 0.002480 
#    z -0.011460 0.002480 1.773620 
# 
# From -- ./inp_files/343315.got.cif
#   From: 2010.06.25/outbox.cif.g09.slc.cpg/sg2_172_cif.got.tgz:343315.got - 2010.06.27 13:26:56.
