data_PCOD8030400
_publ_section_title
;
Structure prediction by ZEFSAII (Michael W. Deem and Ramdas Pophale) SiO2 
 PCOD8030400
Probable space group: P -1
;
_chemical_formula_sum "Si O2"
_cell_formula_units_Z 16
_cell_length_a 9.042802
_cell_length_b 13.523106
_cell_length_c 9.067548
_cell_angle_alpha 74.748413
_cell_angle_beta 115.207265
_cell_angle_gamma 137.654323
_cell_volume 673.353284
_symmetry_space_group_name_H-M "P -1"
_symmetry_group_IT_number 2
_symmetry_cell_setting 'triclinic'
loop_
_space_group_symop_operation_xyz
x,y,z
-x,-y,-z
loop_
_atom_site_type_symbol
_atom_site_label
_atom_site_fract_x
_atom_site_fract_y
_atom_site_fract_z
Si Si1 0.632945 0.333349 0.201459
Si Si2 0.921057 0.746690 0.717319
Si Si3 0.880712 0.825644 0.374266
Si Si4 0.363101 0.024718 0.339743
Si Si5 0.571583 0.274667 0.857832
Si Si6 0.115521 0.474433 0.323243
Si Si7 0.281141 0.881000 0.055086
Si Si8 0.400850 0.505981 0.675173
O O1 0.558757 0.415834 0.183500
O O2 0.915559 0.466020 0.280013
O O3 0.520601 0.196927 0.315360
O O4 0.553074 0.275147 0.024771
O O5 0.935623 0.845274 0.566085
O O6 0.033259 0.696976 0.705818
O O7 0.652544 0.591150 0.684239
O O8 0.052974 0.824945 0.896386
O O9 0.698733 0.837762 0.269108
O O10 0.759477 0.667665 0.318006
O O11 0.126054 0.955649 0.346185
O O12 0.289450 0.942729 0.186776
O O13 0.500000 0.000000 0.500000
O O14 0.734485 0.435625 0.795415
O O15 0.707975 0.235800 0.871051
O O16 0.285855 0.540537 0.508538
O O17 0.500000 0.000000 0.000000
#
# Coordination Sequence:
#
# PCOD8030400 Si02
#       8
#     2   2   2   2   2   2   2   2
#     4  12  27  43  68 106 146 180 237 296 347 413
#     4  11  22  47  72 103 140 185 230 295 344 420
#     4  11  25  47  74 105 144 184 234 289 351 422
#     4  12  28  49  71 103 144 189 236 287 351 425
#     4  12  25  43  72 103 139 182 237 286 350 410
#     4  11  21  45  69 104 140 185 232 290 349 416
#     4  12  26  47  71 100 143 190 234 286 355 414
#     4  11  24  43  72 104 142 182 236 290 355 407
#
# _framework density 23.761672000000001
#
# number of rings (size 3 to 8) (size 9 to 14) (size 15 to 20)
#    0.000    0.500    5.000    3.750    5.250    2.000 
#    0.000    1.875    0.000    0.000    0.000    0.000 
#    0.000    0.000    0.000    0.000    0.000    0.000 
#
# Total GULP energy -198360.372219 kJ/mol
# GULP energy per Si atom -12397.523264 kJ/mol
# Density = 2.370759 g / cm^3
# Si number density = 23.761672 Si / 1000 Ang^3
#
#
#
# Elastic Constant Matrix: (Units=GPa)
#
#
# Indices 1 2 3 4 5 6 
#
# 1 67.2090 10.5598 39.4096 3.2521 4.4716 16.5856
# 2 10.5598 70.2728 34.9376 -4.1333 2.6850 30.5587
# 3 39.4096 34.9376 120.0673 13.9696 15.4770 9.2476
# 4 3.2521 -4.1333 13.9696 35.0005 1.3332 -5.7888
# 5 4.4716 2.6850 15.4770 1.3332 40.4855 7.7651
# 6 16.5856 30.5587 9.2476 -5.7888 7.7651 45.9906
#
#
#
# Elastic Compliance Matrix: (Units=1/GPa)
#
#
# Indices 1 2 3 4 5 6 
#
# 1 0.020909 0.004808 -0.007821 0.000089 0.002185 -0.009520
# 2 0.004808 0.025161 -0.008466 0.002915 0.004220 -0.017096
# 3 -0.007821 -0.008466 0.014096 -0.004745 -0.004929 0.005846
# 4 0.000089 0.002915 -0.004745 0.031283 0.000021 0.002919
# 5 0.002185 0.004220 -0.004929 0.000021 0.027450 -0.007233
# 6 -0.009520 -0.017096 0.005846 0.002919 -0.007233 0.036949
#
#
# Mechanical properties :
#
#
# Convention : Reuss Voigt Hill
#
# Bulk Modulus (GPa) = 26.87522 47.48479 37.18001
# Shear Modulus (GPa) = 26.14941 35.80478 30.97709
#
# Velocity S-wave (km/s) = 3.32096 3.88600 3.61454
# Velocity P-wave (km/s) = 5.10293 6.33734 5.75333
#
# Compressibility (1/GPa) = 0.03720900
#
# Stress axis : x y z
#
# Youngs Moduli (GPa) = 47.82597 39.74361 70.94115
#
# Poissons Ratio (x) = -0.19109 0.55481
# Poissons Ratio (y) = -0.22994 0.60059
# Poissons Ratio (z) = 0.37403 0.33647
#
# Static dielectric constant tensor:
#      x y z
#    x 3.237840 0.440140 -0.404370 
#    y 0.440140 3.957060 0.255200 
#    z -0.404370 0.255200 3.402730 
# 
# 
# High freq. dielectric constant tensor:
#      x y z
#    x 1.948660 0.005750 0.007030 
#    y 0.005750 1.938380 -0.000410 
#    z 0.007030 -0.000410 1.947120 
# 
# From -- ./inp_files/207093.got.cif
#   From: 2010.06.25/outbox.cif.g09.slc.cpg/sg2_104_cif.got.tgz:207093.got - 2010.06.27 13:26:56.
