data_PCOD8030131
_publ_section_title
;
Structure prediction by ZEFSAII (Michael W. Deem and Ramdas Pophale) SiO2 
 PCOD8030131
Probable space group: P -1
;
_chemical_formula_sum "Si O2"
_cell_formula_units_Z 14
_cell_length_a 12.495027
_cell_length_b 14.715845
_cell_length_c 9.137923
_cell_angle_alpha 114.982655
_cell_angle_beta 54.848812
_cell_angle_gamma 151.611641
_cell_volume 637.686736
_symmetry_space_group_name_H-M "P -1"
_symmetry_group_IT_number 2
_symmetry_cell_setting 'triclinic'
loop_
_space_group_symop_operation_xyz
x,y,z
-x,-y,-z
loop_
_atom_site_type_symbol
_atom_site_label
_atom_site_fract_x
_atom_site_fract_y
_atom_site_fract_z
Si Si1 0.666889 0.189239 0.584306
Si Si2 0.254225 0.569011 0.789833
Si Si3 0.494726 0.510847 0.182618
Si Si4 0.055069 0.241934 0.815643
Si Si5 0.747917 0.771297 0.574997
Si Si6 0.485142 0.886126 0.015145
Si Si7 0.774322 0.458033 0.535086
O O1 0.590251 0.142869 0.780777
O O2 0.618254 0.265389 0.602182
O O3 0.963513 0.351742 0.452073
O O4 0.500000 0.000000 0.500000
O O5 0.055494 0.363275 0.885641
O O6 0.525513 0.694746 0.638537
O O7 0.157024 0.530843 0.677384
O O8 0.279241 0.682688 0.951847
O O9 0.793140 0.695471 0.118294
O O10 0.316915 0.307890 0.261799
O O11 0.396263 0.555483 0.333149
O O12 0.500000 0.500000 0.000000
O O13 0.222748 0.312063 0.595419
O O14 0.761875 0.011964 0.886050
O O15 0.000000 0.000000 0.500000
O O16 0.500000 0.000000 0.000000
#
# Coordination Sequence:
#
# PCOD8030131 Si02
#       7
#     2   2   2   2   2   2   2
#     4  11  28  46  66  97 138 182 228 282 342 420
#     4  11  22  43  70  97 133 174 229 284 338 404
#     4  11  25  42  70 103 138 181 225 285 352 406
#     4  11  23  44  69 102 135 178 227 279 346 411
#     4  11  21  42  71 102 136 178 228 283 343 412
#     4  12  27  43  69 103 133 177 236 282 336 408
#     4  11  24  46  70  94 137 184 222 278 357 400
#
# _framework density 21.954353999999999
#
# number of rings (size 3 to 8) (size 9 to 14) (size 15 to 20)
#    0.000    0.857    4.286    2.571    6.000    4.571 
#    0.000    1.429    0.000    0.000    0.000    0.000 
#    0.000    0.000    0.000    0.000    0.000    0.000 
#
# Total GULP energy -173596.177718 kJ/mol
# GULP energy per Si atom -12399.726980 kJ/mol
# Density = 2.190438 g / cm^3
# Si number density = 21.954354 Si / 1000 Ang^3
#
#
#
# Elastic Constant Matrix: (Units=GPa)
#
#
# Indices 1 2 3 4 5 6 
#
# 1 121.0156 33.5035 29.5716 11.2496 22.4710 -12.0743
# 2 33.5035 113.0764 18.2639 22.5051 14.2789 -2.6932
# 3 29.5716 18.2639 95.9371 26.1326 23.9468 -2.9480
# 4 11.2496 22.5051 26.1326 39.4904 4.6464 -2.2802
# 5 22.4710 14.2789 23.9468 4.6464 38.2432 5.7945
# 6 -12.0743 -2.6932 -2.9480 -2.2802 5.7945 33.8211
#
#
#
# Elastic Compliance Matrix: (Units=1/GPa)
#
#
# Indices 1 2 3 4 5 6 
#
# 1 0.010611 -0.002155 -0.001433 0.000019 -0.005199 0.004384
# 2 -0.002155 0.010839 0.000847 -0.005799 -0.002641 0.000229
# 3 -0.001433 0.000847 0.015287 -0.009130 -0.008191 0.001676
# 4 0.000019 -0.005799 -0.009130 0.034260 0.003643 0.000435
# 5 -0.005199 -0.002641 -0.008191 0.003643 0.036200 -0.008737
# 6 0.004384 0.000229 0.001676 0.000435 -0.008737 0.032823
#
#
# Mechanical properties :
#
#
# Convention : Reuss Voigt Hill
#
# Bulk Modulus (GPa) = 31.99604 54.74523 43.37064
# Shear Modulus (GPa) = 32.06749 38.89029 35.47889
#
# Velocity S-wave (km/s) = 3.82598 4.21339 4.02435
# Velocity P-wave (km/s) = 5.84150 6.97569 6.43363
#
# Compressibility (1/GPa) = 0.03125386
#
# Stress axis : x y z
#
# Youngs Moduli (GPa) = 94.23796 92.26361 65.41488
#
# Poissons Ratio (x) = 0.19886 0.09374
# Poissons Ratio (y) = 0.20311 -0.05540
# Poissons Ratio (z) = 0.13505 -0.07813
#
# Static dielectric constant tensor:
#      x y z
#    x 4.166020 0.126410 0.044460 
#    y 0.126410 4.229720 0.063690 
#    z 0.044460 0.063690 4.160790 
# 
# 
# High freq. dielectric constant tensor:
#      x y z
#    x 1.876510 0.003950 -0.007130 
#    y 0.003950 1.871450 -0.000450 
#    z -0.007130 -0.000450 1.862730 
# 
# From -- ./inp_files/188616.got.cif
#   From: 2010.06.25/outbox.cif.g09.slc.cpg/sg2_95_cif.got.tgz:188616.got - 2010.06.27 13:26:56.
