data_PCOD8030339
_publ_section_title
;
Structure prediction by ZEFSAII (Michael W. Deem and Ramdas Pophale) SiO2 
 PCOD8030339
Probable space group: P -1
;
_chemical_formula_sum "Si O2"
_cell_formula_units_Z 16
_cell_length_a 12.131229
_cell_length_b 30.891021
_cell_length_c 24.818783
_cell_angle_alpha 170.659229
_cell_angle_beta 151.278353
_cell_angle_gamma 28.597967
_cell_volume 715.804307
_symmetry_space_group_name_H-M "P -1"
_symmetry_group_IT_number 2
_symmetry_cell_setting 'triclinic'
loop_
_space_group_symop_operation_xyz
x,y,z
-x,-y,-z
loop_
_atom_site_type_symbol
_atom_site_label
_atom_site_fract_x
_atom_site_fract_y
_atom_site_fract_z
Si Si1 0.911399 0.567817 0.916792
Si Si2 0.851368 0.018678 0.187598
Si Si3 0.166216 0.680522 0.821638
Si Si4 0.527914 0.822968 0.627887
Si Si5 0.490064 0.767354 0.787303
Si Si6 0.015410 0.790952 0.343769
Si Si7 0.688235 0.276870 0.780056
Si Si8 0.545710 0.042478 0.795125
O O1 0.933941 0.242903 0.538707
O O2 0.641160 0.691695 0.944246
O O3 0.016996 0.747513 0.227079
O O4 0.076715 0.596513 0.972213
O O5 0.684391 0.214434 0.315397
O O6 0.736418 0.808106 0.916199
O O7 0.054453 0.849526 0.032243
O O8 0.391149 0.492125 0.711854
O O9 0.000000 0.500000 0.500000
O O10 0.246543 0.877899 0.053949
O O11 0.250203 0.891063 0.585538
O O12 0.651341 0.915353 0.740608
O O13 0.605437 0.983011 0.908565
O O14 0.500000 0.500000 0.500000
O O15 0.785384 0.009223 0.529210
O O16 0.000000 0.500000 0.000000
O O17 0.568521 0.188664 0.566752
O O18 0.500000 0.500000 0.000000
#
# Coordination Sequence:
#
# PCOD8030339 Si02
#       8
#     2   2   2   2   2   2   2   2
#     4  11  21  44  71  96 137 177 223 275 351 414
#     4  11  25  46  63 101 137 177 232 290 344 407
#     4  12  27  45  67  98 142 185 228 295 348 395
#     4  12  23  45  69 101 133 184 235 275 349 419
#     4  11  25  42  71  95 132 184 235 284 342 412
#     4  11  22  41  69 102 134 181 228 278 346 426
#     4  11  22  43  70 105 140 179 224 285 353 412
#     4  11  23  44  71  99 139 184 229 282 345 420
#
# _framework density 22.352478000000001
#
# number of rings (size 3 to 8) (size 9 to 14) (size 15 to 20)
#    0.000    0.750    3.750    5.250    3.500    1.500 
#    4.500    1.250    0.000    0.000    0.000    0.000 
#    0.000    0.000    0.000    0.000    0.000    0.000 
#
# Total GULP energy -198294.551999 kJ/mol
# GULP energy per Si atom -12393.409500 kJ/mol
# Density = 2.230160 g / cm^3
# Si number density = 22.352478 Si / 1000 Ang^3
#
#
#
# Elastic Constant Matrix: (Units=GPa)
#
#
# Indices 1 2 3 4 5 6 
#
# 1 131.6143 25.6354 44.6226 20.2515 14.8863 -11.2998
# 2 25.6354 67.5820 24.6740 16.8307 -3.3283 -3.8345
# 3 44.6226 24.6740 113.6360 18.5964 -2.5365 -13.1705
# 4 20.2515 16.8307 18.5964 40.7568 -1.8086 -0.1230
# 5 14.8863 -3.3283 -2.5365 -1.8086 51.7666 10.2458
# 6 -11.2998 -3.8345 -13.1705 -0.1230 10.2458 36.5413
#
#
#
# Elastic Compliance Matrix: (Units=1/GPa)
#
#
# Indices 1 2 3 4 5 6 
#
# 1 0.010104 -0.002085 -0.002753 -0.003066 -0.003873 0.002989
# 2 -0.002085 0.017750 -0.002141 -0.005253 0.001448 0.000023
# 3 -0.002753 -0.002141 0.011137 -0.002797 0.000553 0.002774
# 4 -0.003066 -0.005253 -0.002797 0.029586 0.002030 -0.002977
# 5 -0.003873 0.001448 0.000553 0.002030 0.022010 -0.007011
# 6 0.002989 0.000023 0.002774 -0.002977 -0.007011 0.031249
#
#
# Mechanical properties :
#
#
# Convention : Reuss Voigt Hill
#
# Bulk Modulus (GPa) = 39.94634 55.85513 47.90073
# Shear Modulus (GPa) = 34.68885 40.33962 37.51424
#
# Velocity S-wave (km/s) = 3.94369 4.25279 4.10115
# Velocity P-wave (km/s) = 6.21666 7.01124 6.62587
#
# Compressibility (1/GPa) = 0.02503359
#
# Stress axis : x y z
#
# Youngs Moduli (GPa) = 98.97051 56.33765 89.78682
#
# Poissons Ratio (x) = 0.11747 0.24720
# Poissons Ratio (y) = 0.20636 0.19221
# Poissons Ratio (z) = 0.27248 0.12061
#
# Static dielectric constant tensor:
#      x y z
#    x 4.316380 0.181910 0.134270 
#    y 0.181910 3.951500 0.196360 
#    z 0.134270 0.196360 4.079140 
# 
# 
# High freq. dielectric constant tensor:
#      x y z
#    x 1.880860 0.003310 0.002770 
#    y 0.003310 1.865610 0.000300 
#    z 0.002770 0.000300 1.894530 
# 
# From -- ./inp_files/519519.got.cif
#   From: 2010.06.25/outbox.cif.g09.slc.cpg/sg2_260_cif.got.tgz:519519.got - 2010.06.27 13:26:56.
