data_PCOD8030348
_publ_section_title
;
Structure prediction by ZEFSAII (Michael W. Deem and Ramdas Pophale) SiO2 
 PCOD8030348
Probable space group: P -1
;
_chemical_formula_sum "Si O2"
_cell_formula_units_Z 16
_cell_length_a 10.088073
_cell_length_b 9.502727
_cell_length_c 15.103520
_cell_angle_alpha 124.750655
_cell_angle_beta 63.385321
_cell_angle_gamma 72.352133
_cell_volume 690.839830
_symmetry_space_group_name_H-M "P -1"
_symmetry_group_IT_number 2
_symmetry_cell_setting 'triclinic'
loop_
_space_group_symop_operation_xyz
x,y,z
-x,-y,-z
loop_
_atom_site_type_symbol
_atom_site_label
_atom_site_fract_x
_atom_site_fract_y
_atom_site_fract_z
Si Si1 0.013867 0.107100 0.190438
Si Si2 0.822968 0.249175 0.704893
Si Si3 0.539203 0.052412 0.380067
Si Si4 0.660761 0.481619 0.292598
Si Si5 0.525172 0.779698 0.891226
Si Si6 0.449014 0.329566 0.796945
Si Si7 0.009009 0.772105 0.171580
Si Si8 0.373925 0.418654 0.406594
O O1 0.911628 0.220952 0.162538
O O2 0.880164 0.343079 0.388175
O O3 0.976154 0.944090 0.168442
O O4 0.280673 0.912824 0.034618
O O5 0.721648 0.518531 0.797969
O O6 0.617233 0.294372 0.794136
O O7 0.964251 0.154660 0.717299
O O8 0.000000 0.000000 0.500000
O O9 0.439467 0.947806 0.365498
O O10 0.802240 0.820016 0.249994
O O11 0.393921 0.274211 0.578712
O O12 0.523107 0.163721 0.331655
O O13 0.635697 0.482974 0.195074
O O14 0.478408 0.518332 0.408812
O O15 0.615473 0.674598 0.726717
O O16 0.500000 0.000000 0.000000
O O17 0.237117 0.465407 0.971478
#
# Coordination Sequence:
#
# PCOD8030348 Si02
#       8
#     2   2   2   2   2   2   2   2
#     4  11  23  43  75 101 135 186 233 294 357 422
#     4  12  27  47  70  95 146 197 233 288 362 433
#     4  11  24  41  71 106 139 177 235 302 349 425
#     4  11  21  44  72 101 137 180 235 288 365 423
#     4  12  29  46  71 107 141 189 249 295 348 436
#     4  12  26  41  68 107 138 185 234 296 358 420
#     4  12  23  42  69  98 138 183 236 282 357 428
#     4  11  22  45  75 102 139 183 236 294 362 423
#
# _framework density 23.160218
#
# number of rings (size 3 to 8) (size 9 to 14) (size 15 to 20)
#    0.000    0.500    5.000    3.375    3.500    4.500 
#    0.000    0.000    0.000    0.000    0.000    0.000 
#    0.000    0.000    0.000    0.000    0.000    0.000 
#
# Total GULP energy -198385.706454 kJ/mol
# GULP energy per Si atom -12399.106653 kJ/mol
# Density = 2.310750 g / cm^3
# Si number density = 23.160218 Si / 1000 Ang^3
#
#
#
# Elastic Constant Matrix: (Units=GPa)
#
#
# Indices 1 2 3 4 5 6 
#
# 1 66.4518 19.1892 7.6085 10.0177 10.3388 6.8822
# 2 19.1892 63.3256 16.5575 7.9255 3.0481 4.0038
# 3 7.6085 16.5575 103.6748 4.8682 3.8718 -1.3795
# 4 10.0177 7.9255 4.8682 40.2461 -0.2669 8.4429
# 5 10.3388 3.0481 3.8718 -0.2669 39.5116 8.8985
# 6 6.8822 4.0038 -1.3795 8.4429 8.8985 28.1201
#
#
#
# Elastic Compliance Matrix: (Units=1/GPa)
#
#
# Indices 1 2 3 4 5 6 
#
# 1 0.017650 -0.004594 -0.000286 -0.003168 -0.003922 -0.001487
# 2 -0.004594 0.018129 -0.002494 -0.001892 0.000283 -0.001101
# 3 -0.000286 -0.002494 0.010174 -0.001005 -0.001090 0.001571
# 4 -0.003168 -0.001892 -0.001005 0.027909 0.003149 -0.008381
# 5 -0.003922 0.000283 -0.001090 0.003149 0.028490 -0.009095
# 6 -0.001487 -0.001101 0.001571 -0.008381 -0.009095 0.041554
#
#
# Mechanical properties :
#
#
# Convention : Reuss Voigt Hill
#
# Bulk Modulus (GPa) = 32.04873 35.57363 33.81118
# Shear Modulus (GPa) = 29.57620 34.24870 31.91245
#
# Velocity S-wave (km/s) = 3.57743 3.84965 3.71603
# Velocity P-wave (km/s) = 5.56164 5.92899 5.74825
#
# Compressibility (1/GPa) = 0.03120248
#
# Stress axis : x y z
#
# Youngs Moduli (GPa) = 56.65792 55.16173 98.29236
#
# Poissons Ratio (x) = 0.25342 0.02812
# Poissons Ratio (y) = 0.26030 0.24519
# Poissons Ratio (z) = 0.01621 0.13760
#
# Static dielectric constant tensor:
#      x y z
#    x 4.214290 -0.192150 -0.004870 
#    y -0.192150 4.189170 0.078920 
#    z -0.004870 0.078920 4.331480 
# 
# 
# High freq. dielectric constant tensor:
#      x y z
#    x 1.902990 -0.006980 0.008490 
#    y -0.006980 1.915650 0.006350 
#    z 0.008490 0.006350 1.932790 
# 
# From -- ./inp_files/516074.got.cif
#   From: 2010.06.25/outbox.cif.g09.slc.cpg/sg2_259_cif.got.tgz:516074.got - 2010.06.27 13:26:56.
