data_PCOD8030946
_publ_section_title
;
Structure prediction by ZEFSAII (Michael W. Deem and Ramdas Pophale) SiO2 
 PCOD8030946
Probable space group: P -1
;
_chemical_formula_sum "Si O2"
_cell_formula_units_Z 16
_cell_length_a 22.826843
_cell_length_b 11.958987
_cell_length_c 10.131595
_cell_angle_alpha 47.328939
_cell_angle_beta 27.969967
_cell_angle_gamma 34.443566
_cell_volume 720.221830
_symmetry_space_group_name_H-M "P -1"
_symmetry_group_IT_number 2
_symmetry_cell_setting 'triclinic'
loop_
_space_group_symop_operation_xyz
x,y,z
-x,-y,-z
loop_
_atom_site_type_symbol
_atom_site_label
_atom_site_fract_x
_atom_site_fract_y
_atom_site_fract_z
Si Si1 0.502264 0.747589 0.434064
Si Si2 0.496081 0.919064 0.807360
Si Si3 0.597082 0.211371 0.119757
Si Si4 0.242256 0.633507 0.417554
Si Si5 0.942811 0.654773 0.374800
Si Si6 0.672834 0.098025 0.608942
Si Si7 0.189052 0.698921 0.760771
Si Si8 0.126280 0.440825 0.680196
O O1 0.381256 0.844166 0.724804
O O2 0.410464 0.777371 0.458998
O O3 0.636340 0.512474 0.379983
O O4 0.577229 0.857839 0.185252
O O5 0.391566 0.950640 0.861215
O O6 0.691262 0.780284 0.496714
O O7 0.462716 0.824049 0.068354
O O8 0.422175 0.424223 0.259832
O O9 0.745552 0.206677 0.791845
O O10 0.140378 0.715711 0.690861
O O11 0.151283 0.603126 0.512845
O O12 0.954832 0.543288 0.308725
O O13 0.000000 0.500000 0.500000
O O14 0.759812 0.865680 0.596242
O O15 0.052693 0.719696 0.099821
O O16 0.801251 0.128408 0.369012
O O17 0.000000 0.500000 0.000000
#
# Coordination Sequence:
#
# PCOD8030946 Si02
#       8
#     2   2   2   2   2   2   2   2
#     4  11  23  38  67 106 134 170 232 279 332 393
#     4  11  22  41  68  97 138 173 226 279 335 398
#     4   9  19  36  62  96 128 171 218 279 326 384
#     4   9  18  38  64  93 127 171 223 270 329 389
#     4  12  27  46  68  99 140 181 224 273 344 406
#     4  12  25  45  68 100 139 179 222 280 338 402
#     4  11  23  43  69  98 138 180 222 274 340 403
#     4  11  23  42  69  93 132 180 221 278 333 395
#
# _framework density 22.215378000000001
#
# number of rings (size 3 to 8) (size 9 to 14) (size 15 to 20)
#    0.000    1.250    3.750    2.250    3.500    1.000 
#    2.250    0.000    0.000    2.250    0.000    0.000 
#    0.000    0.000    0.000    0.000    0.000    0.000 
#
# Total GULP energy -198355.008148 kJ/mol
# GULP energy per Si atom -12397.188009 kJ/mol
# Density = 2.216481 g / cm^3
# Si number density = 22.215378 Si / 1000 Ang^3
#
#
#
# Elastic Constant Matrix: (Units=GPa)
#
#
# Indices 1 2 3 4 5 6 
#
# 1 125.6300 35.8621 41.3216 -2.5378 16.3385 14.8183
# 2 35.8621 56.9889 21.7620 -9.2288 4.0786 9.3368
# 3 41.3216 21.7620 133.6410 -11.9368 9.6737 -0.4612
# 4 -2.5378 -9.2288 -11.9368 29.5994 6.0789 -1.2234
# 5 16.3385 4.0786 9.6737 6.0789 37.3618 -10.9068
# 6 14.8183 9.3368 -0.4612 -1.2234 -10.9068 32.0327
#
#
#
# Elastic Compliance Matrix: (Units=1/GPa)
#
#
# Indices 1 2 3 4 5 6 
#
# 1 0.011611 -0.005151 -0.002440 -0.000713 -0.005458 -0.005791
# 2 -0.005151 0.023419 -0.001473 0.006563 -0.002465 -0.005053
# 3 -0.002440 -0.001473 0.008853 0.003201 -0.001174 0.001408
# 4 -0.000713 0.006563 0.003201 0.038660 -0.008374 -0.002912
# 5 -0.005458 -0.002465 -0.001174 -0.008374 0.035461 0.014981
# 6 -0.005791 -0.005053 0.001408 -0.002912 0.014981 0.040380
#
#
# Mechanical properties :
#
#
# Convention : Reuss Voigt Hill
#
# Bulk Modulus (GPa) = 38.82956 57.12790 47.97873
# Shear Modulus (GPa) = 27.01285 34.28640 30.64962
#
# Velocity S-wave (km/s) = 3.49083 3.93283 3.71840
# Velocity P-wave (km/s) = 5.81073 6.81133 6.33082
#
# Compressibility (1/GPa) = 0.02575357
#
# Stress axis : x y z
#
# Youngs Moduli (GPa) = 86.12286 42.70104 112.95794
#
# Poissons Ratio (x) = 0.21996 0.27561
# Poissons Ratio (y) = 0.44363 0.16644
# Poissons Ratio (z) = 0.21014 0.06292
#
# Static dielectric constant tensor:
#      x y z
#    x 4.181680 0.364980 0.126750 
#    y 0.364980 3.764810 -0.086280 
#    z 0.126750 -0.086280 4.121970 
# 
# 
# High freq. dielectric constant tensor:
#      x y z
#    x 1.879070 0.026750 0.007660 
#    y 0.026750 1.851240 -0.015130 
#    z 0.007660 -0.015130 1.880020 
# 
# From -- ./inp_files/263053.got.cif
#   From: 2010.06.25/outbox.cif.g09.slc.cpg/sg2_132_cif.got.tgz:263053.got - 2010.06.27 13:26:56.
