data_PCOD8030318
_publ_section_title
;
Structure prediction by ZEFSAII (Michael W. Deem and Ramdas Pophale) SiO2 
 PCOD8030318
Probable space group: P -1
;
_chemical_formula_sum "Si O2"
_cell_formula_units_Z 16
_cell_length_a 11.951926
_cell_length_b 9.533230
_cell_length_c 9.072657
_cell_angle_alpha 101.195162
_cell_angle_beta 121.183087
_cell_angle_gamma 57.752784
_cell_volume 743.138731
_symmetry_space_group_name_H-M "P -1"
_symmetry_group_IT_number 2
_symmetry_cell_setting 'triclinic'
loop_
_space_group_symop_operation_xyz
x,y,z
-x,-y,-z
loop_
_atom_site_type_symbol
_atom_site_label
_atom_site_fract_x
_atom_site_fract_y
_atom_site_fract_z
Si Si1 0.665083 0.628087 0.225428
Si Si2 0.696915 0.915427 0.337002
Si Si3 0.631116 0.914423 0.748685
Si Si4 0.197832 0.711898 0.918715
Si Si5 0.704613 0.308068 0.699568
Si Si6 0.345498 0.897129 0.943648
Si Si7 0.372892 0.380533 0.456921
Si Si8 0.140830 0.054732 0.291628
O O1 0.743672 0.736542 0.260916
O O2 0.759105 0.444921 0.186021
O O3 0.668581 0.611383 0.400084
O O4 0.496305 0.726071 0.061397
O O5 0.840760 0.892654 0.520882
O O6 0.553424 0.964962 0.360913
O O7 0.647214 0.062132 0.213648
O O8 0.676697 0.728302 0.697545
O O9 0.714927 0.979390 0.714542
O O10 0.678664 0.939846 0.950958
O O11 0.213976 0.854016 0.872651
O O12 0.018554 0.802342 0.855496
O O13 0.300694 0.646748 0.122294
O O14 0.551776 0.311915 0.545659
O O15 0.727218 0.434932 0.641587
O O16 0.849198 0.123148 0.732024
#
# Coordination Sequence:
#
# PCOD8030318 Si02
#       8
#     2   2   2   2   2   2   2   2
#     4  11  23  43  63  98 130 167 219 275 324 377
#     4  11  24  42  72  97 125 170 224 272 318 385
#     4  11  21  44  69  97 122 169 222 271 320 370
#     4  12  27  42  64  95 142 176 205 270 332 390
#     4  11  24  41  67 100 127 168 221 272 322 386
#     4  11  25  41  70  99 129 171 217 272 323 385
#     4  11  23  40  73  97 124 167 225 278 316 373
#     4  12  24  45  67  92 135 178 218 262 327 390
#
# _framework density 21.530298999999999
#
# number of rings (size 3 to 8) (size 9 to 14) (size 15 to 20)
#    0.000    0.750    5.000    3.375    5.250    1.000 
#    0.000    0.625    0.000    0.000    0.000    0.000 
#    0.000    0.000    0.000    0.000    0.000    0.000 
#
# Total GULP energy -198366.758611 kJ/mol
# GULP energy per Si atom -12397.922413 kJ/mol
# Density = 2.148130 g / cm^3
# Si number density = 21.530299 Si / 1000 Ang^3
#
#
#
# Elastic Constant Matrix: (Units=GPa)
#
#
# Indices 1 2 3 4 5 6 
#
# 1 58.0585 35.5267 30.3055 -11.6458 -2.1252 7.5387
# 2 35.5267 127.0194 41.5384 7.1384 4.0801 10.4192
# 3 30.3055 41.5384 75.9960 -2.6760 2.3646 -2.8844
# 4 -11.6458 7.1384 -2.6760 36.0844 10.8526 -6.6894
# 5 -2.1252 4.0801 2.3646 10.8526 13.4666 2.5101
# 6 7.5387 10.4192 -2.8844 -6.6894 2.5101 24.6469
#
#
#
# Elastic Compliance Matrix: (Units=1/GPa)
#
#
# Indices 1 2 3 4 5 6 
#
# 1 0.026591 -0.004898 -0.007931 0.007363 0.002110 -0.005207
# 2 -0.004898 0.011590 -0.004902 -0.006113 0.002603 -0.005899
# 3 -0.007931 -0.004902 0.019714 0.003875 -0.007966 0.008668
# 4 0.007363 -0.006113 0.003875 0.046254 -0.038152 0.017225
# 5 0.002110 0.002603 -0.007966 -0.038152 0.110473 -0.024284
# 6 -0.005207 -0.005899 0.008668 0.017225 -0.024284 0.052822
#
#
# Mechanical properties :
#
#
# Convention : Reuss Voigt Hill
#
# Bulk Modulus (GPa) = 44.57635 52.86836 48.72236
# Shear Modulus (GPa) = 16.10915 25.08646 20.59781
#
# Velocity S-wave (km/s) = 2.73831 3.41716 3.09639
# Velocity P-wave (km/s) = 5.54497 6.33861 5.95503
#
# Compressibility (1/GPa) = 0.02243342
#
# Stress axis : x y z
#
# Youngs Moduli (GPa) = 37.60617 86.28394 50.72648
#
# Poissons Ratio (x) = 0.42265 0.40230
# Poissons Ratio (y) = 0.18421 0.24864
# Poissons Ratio (z) = 0.29824 0.42292
#
# Static dielectric constant tensor:
#      x y z
#    x 3.649010 0.276220 -0.000770 
#    y 0.276220 3.947430 0.257200 
#    z -0.000770 0.257200 3.940100 
# 
# 
# High freq. dielectric constant tensor:
#      x y z
#    x 1.817600 0.022260 -0.005560 
#    y 0.022260 1.848070 0.017530 
#    z -0.005560 0.017530 1.851520 
# 
# From -- ./inp_files/244726.got.cif
#   From: 2010.06.25/outbox.cif.g09.slc.cpg/sg2_123_cif.got.tgz:244726.got - 2010.06.27 13:26:56.
