data_PCOD8030383
_publ_section_title
;
Structure prediction by ZEFSAII (Michael W. Deem and Ramdas Pophale) SiO2 
 PCOD8030383
Probable space group: P -1
;
_chemical_formula_sum "Si O2"
_cell_formula_units_Z 12
_cell_length_a 9.720393
_cell_length_b 16.049243
_cell_length_c 13.051113
_cell_angle_alpha 27.660015
_cell_angle_beta 34.011698
_cell_angle_gamma 45.195703
_cell_volume 525.272785
_symmetry_space_group_name_H-M "P -1"
_symmetry_group_IT_number 2
_symmetry_cell_setting 'triclinic'
loop_
_space_group_symop_operation_xyz
x,y,z
-x,-y,-z
loop_
_atom_site_type_symbol
_atom_site_label
_atom_site_fract_x
_atom_site_fract_y
_atom_site_fract_z
Si Si1 0.988964 0.252361 0.011416
Si Si2 0.193894 0.928494 0.035240
Si Si3 0.768752 0.362409 0.824965
Si Si4 0.491749 0.768562 0.370065
Si Si5 0.956929 0.137177 0.575543
Si Si6 0.722233 0.506687 0.041775
O O1 0.899452 0.400879 0.978458
O O2 0.942819 0.053309 0.307149
O O3 0.281261 0.301598 0.755580
O O4 0.836644 0.245998 0.006665
O O5 0.314712 0.769910 0.074545
O O6 0.053718 0.844907 0.314140
O O7 0.403434 0.090503 0.759814
O O8 0.000000 0.000000 0.000000
O O9 0.539991 0.474109 0.872136
O O10 0.000000 0.500000 0.500000
O O11 0.320467 0.865403 0.293066
O O12 0.328783 0.596187 0.707514
O O13 0.139111 0.294809 0.239806
#
# Coordination Sequence:
#
# PCOD8030383 Si02
#       6
#     2   2   2   2   2   2
#     4  11  24  47  73 104 146 185 242 296 355 421
#     4  11  21  44  78 100 139 192 234 292 360 413
#     4  12  23  45  72 107 145 182 240 300 356 419
#     4  11  25  50  71 105 150 189 236 294 359 426
#     4  11  26  48  72 109 144 189 242 293 355 429
#     4  12  27  44  73 106 145 192 237 295 357 425
#
# _framework density 22.845272000000001
#
# number of rings (size 3 to 8) (size 9 to 14) (size 15 to 20)
#    0.000    0.667    5.000    4.000    2.333    3.333 
#    6.000    0.000    0.000    0.000    0.000    0.000 
#    0.000    0.000    0.000    0.000    0.000    0.000 
#
# Total GULP energy -148830.060487 kJ/mol
# GULP energy per Si atom -12402.505041 kJ/mol
# Density = 2.279328 g / cm^3
# Si number density = 22.845272 Si / 1000 Ang^3
#
#
#
# Elastic Constant Matrix: (Units=GPa)
#
#
# Indices 1 2 3 4 5 6 
#
# 1 130.1550 49.1336 32.0515 -2.3811 2.0834 -25.9317
# 2 49.1336 125.6463 48.7244 -0.9628 3.0079 -24.8019
# 3 32.0515 48.7244 162.0689 -10.4978 -0.7133 0.4782
# 4 -2.3811 -0.9628 -10.4978 26.0091 -9.9269 1.1492
# 5 2.0834 3.0079 -0.7133 -9.9269 21.7859 -2.2080
# 6 -25.9317 -24.8019 0.4782 1.1492 -2.2080 34.2500
#
#
#
# Elastic Compliance Matrix: (Units=1/GPa)
#
#
# Indices 1 2 3 4 5 6 
#
# 1 0.010051 -0.002222 -0.001338 -0.000002 -0.000090 0.006014
# 2 -0.002222 0.011359 -0.003131 -0.001984 -0.001699 0.006544
# 3 -0.001338 -0.003131 0.007645 0.003844 0.002220 -0.003373
# 4 -0.000002 -0.001984 0.003844 0.048527 0.022341 -0.001680
# 5 -0.000090 -0.001699 0.002220 0.022341 0.056556 0.001567
# 6 0.006014 0.006544 -0.003373 -0.001680 0.001567 0.038693
#
#
# Mechanical properties :
#
#
# Convention : Reuss Voigt Hill
#
# Bulk Modulus (GPa) = 63.80503 75.29881 69.55192
# Shear Modulus (GPa) = 26.11812 35.60637 30.86225
#
# Velocity S-wave (km/s) = 3.38488 3.95218 3.67948
# Velocity P-wave (km/s) = 6.57772 7.33881 6.96867
#
# Compressibility (1/GPa) = 0.01567275
#
# Stress axis : x y z
#
# Youngs Moduli (GPa) = 99.49142 88.03421 130.80895
#
# Poissons Ratio (x) = 0.19565 0.17500
# Poissons Ratio (y) = 0.22112 0.40954
# Poissons Ratio (z) = 0.13311 0.27562
#
# Static dielectric constant tensor:
#      x y z
#    x 4.191400 -0.156770 0.131730 
#    y -0.156770 4.291170 -0.135700 
#    z 0.131730 -0.135700 4.136890 
# 
# 
# High freq. dielectric constant tensor:
#      x y z
#    x 1.901780 -0.019020 0.009280 
#    y -0.019020 1.905420 -0.008330 
#    z 0.009280 -0.008330 1.908620 
# 
# From -- ./inp_files/168625.got.cif
#   From: 2010.06.25/outbox.cif.g09.slc.cpg/sg2_85_cif.got.tgz:168625.got - 2010.06.27 13:26:56.
