data_PCOD8030416
_publ_section_title
;
Structure prediction by ZEFSAII (Michael W. Deem and Ramdas Pophale) SiO2 
 PCOD8030416
Probable space group: P -1
;
_chemical_formula_sum "Si O2"
_cell_formula_units_Z 16
_cell_length_a 9.515583
_cell_length_b 11.728643
_cell_length_c 18.203060
_cell_angle_alpha 130.293267
_cell_angle_beta 37.023723
_cell_angle_gamma 102.636264
_cell_volume 710.757179
_symmetry_space_group_name_H-M "P -1"
_symmetry_group_IT_number 2
_symmetry_cell_setting 'triclinic'
loop_
_space_group_symop_operation_xyz
x,y,z
-x,-y,-z
loop_
_atom_site_type_symbol
_atom_site_label
_atom_site_fract_x
_atom_site_fract_y
_atom_site_fract_z
Si Si1 0.207844 0.048327 0.460634
Si Si2 0.208220 0.622763 0.119133
Si Si3 0.451626 0.603113 0.726441
Si Si4 0.224403 0.239336 0.104963
Si Si5 0.319773 0.309734 0.465030
Si Si6 0.694488 0.209828 0.984315
Si Si7 0.820369 0.702947 0.015378
Si Si8 0.200704 0.803853 0.660578
O O1 0.230241 0.172537 0.442621
O O2 0.068877 0.167090 0.643725
O O3 0.000000 0.000000 0.500000
O O4 0.552314 0.844422 0.245778
O O5 0.298939 0.653427 0.016235
O O6 0.080155 0.510461 0.111734
O O7 0.500000 0.500000 0.000000
O O8 0.492897 0.715875 0.695456
O O9 0.686082 0.369236 0.516590
O O10 0.104603 0.690598 0.907328
O O11 0.501706 0.655415 0.806904
O O12 0.327268 0.192001 0.957794
O O13 0.994908 0.472252 0.307183
O O14 0.060624 0.153680 0.159277
O O15 0.518728 0.143312 0.993177
O O16 0.513818 0.262243 0.437727
O O17 0.041111 0.010601 0.773460
#
# Coordination Sequence:
#
# PCOD8030416 Si02
#       8
#     2   2   2   2   2   2   2   2
#     4  12  24  39  70 108 126 183 245 285 333 414
#     4  12  24  49  67  96 146 189 237 289 345 424
#     4  11  25  46  72 109 141 187 232 290 364 417
#     4  11  21  45  72 102 144 188 227 291 358 413
#     4  11  22  45  78 100 146 188 237 286 348 440
#     4  12  27  42  69 108 150 178 233 308 349 408
#     4  12  23  44  78  98 136 191 243 281 345 435
#     4  11  23  45  71 107 145 182 231 292 361 419
#
# _framework density 22.511205
#
# number of rings (size 3 to 8) (size 9 to 14) (size 15 to 20)
#    0.000    0.500    6.250    1.875    1.750    4.500 
#    6.750    4.375    0.000    0.000    0.000    0.000 
#    0.000    0.000    0.000    0.000    0.000    0.000 
#
# Total GULP energy -198444.654307 kJ/mol
# GULP energy per Si atom -12402.790894 kJ/mol
# Density = 2.245997 g / cm^3
# Si number density = 22.511205 Si / 1000 Ang^3
#
#
#
# Elastic Constant Matrix: (Units=GPa)
#
#
# Indices 1 2 3 4 5 6 
#
# 1 71.6604 26.5627 16.4106 -0.0981 2.2628 -5.3185
# 2 26.5627 116.1532 11.5170 -6.5544 -4.1290 8.9527
# 3 16.4106 11.5170 100.6346 -4.6741 8.1451 -7.3978
# 4 -0.0981 -6.5544 -4.6741 31.9203 4.1530 -8.5227
# 5 2.2628 -4.1290 8.1451 4.1530 30.0796 -5.3867
# 6 -5.3185 8.9527 -7.3978 -8.5227 -5.3867 36.8852
#
#
#
# Elastic Compliance Matrix: (Units=1/GPa)
#
#
# Indices 1 2 3 4 5 6 
#
# 1 0.015992 -0.003706 -0.001941 -0.000194 -0.000681 0.002672
# 2 -0.003706 0.009839 -0.000768 0.001027 0.001219 -0.002661
# 3 -0.001941 -0.000768 0.010844 0.002385 -0.002828 0.002220
# 4 -0.000194 0.001027 0.002385 0.034418 -0.003884 0.007587
# 5 -0.000681 0.001219 -0.002828 -0.003884 0.035357 0.003305
# 6 0.002672 -0.002661 0.002220 0.007587 0.003305 0.030823
#
#
# Mechanical properties :
#
#
# Convention : Reuss Voigt Hill
#
# Bulk Modulus (GPa) = 41.93729 44.15877 43.04803
# Shear Modulus (GPa) = 31.63465 35.37420 33.50443
#
# Velocity S-wave (km/s) = 3.75278 3.96839 3.86209
# Velocity P-wave (km/s) = 6.11946 6.37624 6.24917
#
# Compressibility (1/GPa) = 0.02384513
#
# Stress axis : x y z
#
# Youngs Moduli (GPa) = 62.52933 101.63211 92.21490
#
# Poissons Ratio (x) = 0.37664 0.17902
# Poissons Ratio (y) = 0.23173 0.07085
# Poissons Ratio (z) = 0.12139 0.07809
#
# Static dielectric constant tensor:
#      x y z
#    x 3.987100 0.035500 0.113370 
#    y 0.035500 4.270250 -0.079040 
#    z 0.113370 -0.079040 4.245920 
# 
# 
# High freq. dielectric constant tensor:
#      x y z
#    x 1.869260 0.016940 0.004310 
#    y 0.016940 1.892850 -0.006250 
#    z 0.004310 -0.006250 1.900750 
# 
# From -- ./inp_files/272200.got.cif
#   From: 2010.06.25/outbox.cif.g09.slc.cpg/sg2_137_cif.got.tgz:272200.got - 2010.06.27 13:26:56.
