data_PCOD8030979
_publ_section_title
;
Structure prediction by ZEFSAII (Michael W. Deem and Ramdas Pophale) SiO2 
 PCOD8030979
Probable space group: P -1
;
_chemical_formula_sum "Si O2"
_cell_formula_units_Z 12
_cell_length_a 6.767284
_cell_length_b 13.213023
_cell_length_c 15.412962
_cell_angle_alpha 39.065095
_cell_angle_beta 116.120237
_cell_angle_gamma 137.973642
_cell_volume 550.179686
_symmetry_space_group_name_H-M "P -1"
_symmetry_group_IT_number 2
_symmetry_cell_setting 'triclinic'
loop_
_space_group_symop_operation_xyz
x,y,z
-x,-y,-z
loop_
_atom_site_type_symbol
_atom_site_label
_atom_site_fract_x
_atom_site_fract_y
_atom_site_fract_z
Si Si1 0.209089 0.218479 0.278853
Si Si2 0.625497 0.479273 0.454417
Si Si3 0.084210 0.467330 0.786778
Si Si4 0.022866 0.227586 0.415451
Si Si5 0.114323 0.705709 0.944237
Si Si6 0.247189 0.803950 0.271058
O O1 0.577106 0.439595 0.214201
O O2 0.991488 0.184295 0.335016
O O3 0.088389 0.240378 0.153102
O O4 0.155242 0.999225 0.411469
O O5 0.500000 0.500000 0.500000
O O6 0.393535 0.402338 0.383349
O O7 0.623305 0.288773 0.597058
O O8 0.963410 0.720668 0.331132
O O9 0.115072 0.675543 0.643169
O O10 0.867807 0.287286 0.788431
O O11 0.923129 0.349169 0.925490
O O12 0.482979 0.923583 0.855897
O O13 0.000000 0.500000 0.000000
#
# Coordination Sequence:
#
# PCOD8030979 Si02
#       6
#     2   2   2   2   2   2
#     4  11  24  44  67  99 141 178 227 281 333 401
#     4  11  22  42  72 102 131 171 227 285 340 394
#     4  12  24  44  71 100 136 183 226 277 343 400
#     4  11  22  41  70 103 133 173 232 283 336 396
#     4  12  26  47  66 100 142 184 225 272 342 411
#     4  11  25  44  69 101 138 175 226 285 336 400
#
# _framework density 21.811053999999999
#
# number of rings (size 3 to 8) (size 9 to 14) (size 15 to 20)
#    0.000    0.667    6.667    1.500    0.000    1.333 
#    3.000    1.667    0.000    0.000    0.000    0.000 
#    0.000    0.000    0.000    0.000    0.000    0.000 
#
# Total GULP energy -148826.381159 kJ/mol
# GULP energy per Si atom -12402.198430 kJ/mol
# Density = 2.176141 g / cm^3
# Si number density = 21.811054 Si / 1000 Ang^3
#
#
#
# Elastic Constant Matrix: (Units=GPa)
#
#
# Indices 1 2 3 4 5 6 
#
# 1 93.3784 42.3353 38.3284 -4.5543 -14.6400 -1.8490
# 2 42.3353 109.0172 49.7636 -9.7334 -0.7385 -0.7311
# 3 38.3284 49.7636 117.1818 -5.8199 -7.9254 -2.9467
# 4 -4.5543 -9.7334 -5.8199 44.4982 6.8518 -2.2236
# 5 -14.6400 -0.7385 -7.9254 6.8518 28.7458 6.5190
# 6 -1.8490 -0.7311 -2.9467 -2.2236 6.5190 36.8636
#
#
#
# Elastic Compliance Matrix: (Units=1/GPa)
#
#
# Indices 1 2 3 4 5 6 
#
# 1 0.014927 -0.004719 -0.002460 -0.000985 0.007237 -0.000881
# 2 -0.004719 0.013096 -0.004147 0.002469 -0.003920 0.000534
# 3 -0.002460 -0.004147 0.011224 0.000080 0.001623 0.000409
# 4 -0.000985 0.002469 0.000080 0.024096 -0.006762 0.002655
# 5 0.007237 -0.003920 0.001623 -0.006762 0.042120 -0.007441
# 6 -0.000881 0.000534 0.000409 0.002655 -0.007441 0.028602
#
#
# Mechanical properties :
#
#
# Convention : Reuss Voigt Hill
#
# Bulk Modulus (GPa) = 60.25894 64.49245 62.37569
# Shear Modulus (GPa) = 30.81685 34.63152 32.72418
#
# Velocity S-wave (km/s) = 3.76293 3.98904 3.87764
# Velocity P-wave (km/s) = 6.82402 7.13088 6.97914
#
# Compressibility (1/GPa) = 0.01659505
#
# Stress axis : x y z
#
# Youngs Moduli (GPa) = 66.99050 76.36039 89.09793
#
# Poissons Ratio (x) = 0.36032 0.21920
# Poissons Ratio (y) = 0.31610 0.36949
# Poissons Ratio (z) = 0.16481 0.31667
#
# Static dielectric constant tensor:
#      x y z
#    x 3.752710 -0.051560 -0.012100 
#    y -0.051560 3.548240 0.027920 
#    z -0.012100 0.027920 3.999020 
# 
# 
# High freq. dielectric constant tensor:
#      x y z
#    x 1.854010 0.011370 -0.004870 
#    y 0.011370 1.865670 0.010880 
#    z -0.004870 0.010880 1.858120 
# 
# From -- ./inp_files/27977.got.cif
#   From: 2010.06.25/outbox.cif.g09.slc.cpg/sg2_14_cif.got.tgz:27977.got - 2010.06.27 13:26:56.
