data_PCOD8030118
_publ_section_title
;
Structure prediction by ZEFSAII (Michael W. Deem and Ramdas Pophale) SiO2 
 PCOD8030118
Probable space group: P -1
;
_chemical_formula_sum "Si O2"
_cell_formula_units_Z 14
_cell_length_a 12.247713
_cell_length_b 11.961840
_cell_length_c 10.985866
_cell_angle_alpha 73.841271
_cell_angle_beta 80.388829
_cell_angle_gamma 146.632936
_cell_volume 556.524705
_symmetry_space_group_name_H-M "P -1"
_symmetry_group_IT_number 2
_symmetry_cell_setting 'triclinic'
loop_
_space_group_symop_operation_xyz
x,y,z
-x,-y,-z
loop_
_atom_site_type_symbol
_atom_site_label
_atom_site_fract_x
_atom_site_fract_y
_atom_site_fract_z
Si Si1 0.213337 0.906169 0.556972
Si Si2 0.459893 0.732445 0.374873
Si Si3 0.612285 0.640647 0.290068
Si Si4 0.219655 0.939896 0.283062
Si Si5 0.002416 0.067603 0.353769
Si Si6 0.266667 0.200033 0.047569
Si Si7 0.712924 0.244234 0.779114
O O1 0.376222 0.102066 0.339048
O O2 0.022050 0.601584 0.666151
O O3 0.460426 0.135266 0.547807
O O4 0.975160 0.772794 0.681730
O O5 0.677041 0.837504 0.262831
O O6 0.481151 0.859104 0.237619
O O7 0.123617 0.349783 0.549935
O O8 0.339829 0.305938 0.516465
O O9 0.529543 0.569382 0.180086
O O10 0.914426 0.858049 0.175694
O O11 0.197358 0.783271 0.301640
O O12 0.366792 0.169048 0.086283
O O13 0.000000 0.000000 0.500000
O O14 0.268603 0.292158 0.137843
O O15 0.500000 0.000000 0.000000
#
# Coordination Sequence:
#
# PCOD8030118 Si02
#       7
#     2   2   2   2   2   2   2
#     4  11  23  40  69  97 120 175 221 265 327 385
#     4  11  21  42  70  93 130 171 219 269 321 389
#     4  11  23  39  65  98 134 175 210 266 329 384
#     4  11  23  43  66  92 130 173 217 268 327 384
#     4  12  21  40  64  95 137 169 215 267 321 392
#     4  11  22  40  65  96 131 174 213 261 331 382
#     4  11  26  46  64  91 133 170 217 277 326 383
#
# _framework density 25.156115
#
# number of rings (size 3 to 8) (size 9 to 14) (size 15 to 20)
#    0.000    0.857    4.286    4.714    0.000    3.429 
#    2.571    1.429    0.000    0.000    0.000    0.000 
#    0.000    0.000    0.000    0.000    0.000    0.000 
#
# Total GULP energy -173599.946810 kJ/mol
# GULP energy per Si atom -12399.996201 kJ/mol
# Density = 2.509886 g / cm^3
# Si number density = 25.156115 Si / 1000 Ang^3
#
#
#
# Elastic Constant Matrix: (Units=GPa)
#
#
# Indices 1 2 3 4 5 6 
#
# 1 120.8907 36.9614 38.4607 6.7343 23.4788 -16.4622
# 2 36.9614 147.9982 29.1903 31.9620 13.4837 0.0405
# 3 38.4607 29.1903 148.6919 10.8622 10.2021 3.0654
# 4 6.7343 31.9620 10.8622 35.8509 5.0263 3.6730
# 5 23.4788 13.4837 10.2021 5.0263 42.2126 10.2303
# 6 -16.4622 0.0405 3.0654 3.6730 10.2303 45.6935
#
#
#
# Elastic Compliance Matrix: (Units=1/GPa)
#
#
# Indices 1 2 3 4 5 6 
#
# 1 0.011704 -0.001979 -0.002338 0.000630 -0.006805 0.005848
# 2 -0.001979 0.009051 -0.000674 -0.007395 -0.000769 0.000091
# 3 -0.002338 -0.000674 0.007563 -0.001139 0.000136 -0.001288
# 4 0.000630 -0.007395 -0.001139 0.035130 -0.001360 -0.002210
# 5 -0.006805 -0.000769 0.000136 -0.001360 0.030049 -0.009078
# 6 0.005848 0.000091 -0.001288 -0.002210 -0.009078 0.026288
#
#
# Mechanical properties :
#
#
# Convention : Reuss Voigt Hill
#
# Bulk Modulus (GPa) = 54.54137 69.64509 62.09323
# Shear Modulus (GPa) = 36.79719 45.61597 41.20658
#
# Velocity S-wave (km/s) = 3.82875 4.26292 4.05165
# Velocity P-wave (km/s) = 6.42448 7.20939 6.82822
#
# Compressibility (1/GPa) = 0.01833470
#
# Stress axis : x y z
#
# Youngs Moduli (GPa) = 85.44144 110.48411 132.22511
#
# Poissons Ratio (x) = 0.21869 0.30920
# Poissons Ratio (y) = 0.16912 0.08909
# Poissons Ratio (z) = 0.19980 0.07444
#
# Static dielectric constant tensor:
#      x y z
#    x 4.944260 -0.649210 0.954600 
#    y -0.649210 5.740140 0.200830 
#    z 0.954600 0.200830 4.226370 
# 
# 
# High freq. dielectric constant tensor:
#      x y z
#    x 2.005980 0.013240 0.009930 
#    y 0.013240 2.038800 0.022250 
#    z 0.009930 0.022250 2.007650 
# 
# From -- ./inp_files/270879.got.cif
#   From: 2010.06.25/outbox.cif.g09.slc.cpg/sg2_136_cif.got.tgz:270879.got - 2010.06.27 13:26:56.
