data_PCOD8030272
_publ_section_title
;
Structure prediction by ZEFSAII (Michael W. Deem and Ramdas Pophale) SiO2 
 PCOD8030272
Probable space group: P -1
;
_chemical_formula_sum "Si O2"
_cell_formula_units_Z 14
_cell_length_a 9.057376
_cell_length_b 8.324290
_cell_length_c 17.423076
_cell_angle_alpha 126.912371
_cell_angle_beta 61.923975
_cell_angle_gamma 77.231768
_cell_volume 648.883418
_symmetry_space_group_name_H-M "P -1"
_symmetry_group_IT_number 2
_symmetry_cell_setting 'triclinic'
loop_
_space_group_symop_operation_xyz
x,y,z
-x,-y,-z
loop_
_atom_site_type_symbol
_atom_site_label
_atom_site_fract_x
_atom_site_fract_y
_atom_site_fract_z
Si Si1 0.225594 0.702435 0.402081
Si Si2 0.124184 0.345931 0.346065
Si Si3 0.575217 0.689024 0.243708
Si Si4 0.750456 0.707770 0.428409
Si Si5 0.448578 0.322693 0.931592
Si Si6 0.049038 0.359257 0.796573
Si Si7 0.360525 0.744095 0.539649
O O1 0.223546 0.467219 0.319956
O O2 0.478321 0.564775 0.267912
O O3 0.226384 0.731015 0.503157
O O4 0.000000 0.000000 0.500000
O O5 0.000000 0.500000 0.500000
O O6 0.930225 0.424541 0.356023
O O7 0.321611 0.008958 0.207470
O O8 0.615870 0.616677 0.123898
O O9 0.833737 0.537501 0.168800
O O10 0.374259 0.028011 0.407628
O O11 0.894130 0.701368 0.325481
O O12 0.553946 0.726362 0.444981
O O13 0.500000 0.500000 0.000000
O O14 0.232689 0.402048 0.052839
O O15 0.166694 0.056435 0.718108
O O16 0.500000 0.500000 0.500000
#
# Coordination Sequence:
#
# PCOD8030272 Si02
#       7
#     2   2   2   2   2   2   2
#     4  12  22  41  74 106 137 182 241 293 346 411
#     4  12  25  44  73 103 140 185 245 292 348 429
#     4  11  22  47  69  98 137 194 225 286 353 427
#     4  11  21  43  74 101 139 182 239 283 350 427
#     4  12  30  46  69 102 147 187 232 297 367 414
#     4  11  24  46  68 102 145 185 229 292 364 416
#     4  11  23  38  72 110 136 179 242 291 343 424
#
# _framework density 21.575524000000001
#
# number of rings (size 3 to 8) (size 9 to 14) (size 15 to 20)
#    0.000    0.571    5.714    2.143   10.000    0.571 
#    0.000    0.714    0.000    0.000    0.000    0.000 
#    0.000    0.000    0.000    0.000    0.000    0.000 
#
# Total GULP energy -173591.506940 kJ/mol
# GULP energy per Si atom -12399.393353 kJ/mol
# Density = 2.152642 g / cm^3
# Si number density = 21.575524 Si / 1000 Ang^3
#
#
#
# Elastic Constant Matrix: (Units=GPa)
#
#
# Indices 1 2 3 4 5 6 
#
# 1 127.1512 25.8810 47.8016 -0.0552 -3.6518 -8.3774
# 2 25.8810 83.6853 39.8537 9.7860 1.5306 -8.5999
# 3 47.8016 39.8537 125.5837 -1.3658 -11.1271 0.3696
# 4 -0.0552 9.7860 -1.3658 37.2319 -0.3747 1.0806
# 5 -3.6518 1.5306 -11.1271 -0.3747 33.7745 -3.6407
# 6 -8.3774 -8.5999 0.3696 1.0806 -3.6407 43.0722
#
#
#
# Elastic Compliance Matrix: (Units=1/GPa)
#
#
# Indices 1 2 3 4 5 6 
#
# 1 0.009427 -0.001264 -0.003171 0.000185 0.000209 0.001621
# 2 -0.001264 0.015382 -0.004642 -0.004318 -0.002110 0.002795
# 3 -0.003171 -0.004642 0.010962 0.001692 0.003347 -0.001397
# 4 0.000185 -0.004318 0.001692 0.028108 0.000927 -0.001467
# 5 0.000209 -0.002110 0.003347 0.000927 0.031076 0.002194
# 6 0.001621 0.002795 -0.001397 -0.001467 0.002194 0.024325
#
#
# Mechanical properties :
#
#
# Convention : Reuss Voigt Hill
#
# Bulk Modulus (GPa) = 56.76738 62.61030 59.68884
# Shear Modulus (GPa) = 34.89005 37.67465 36.28235
#
# Velocity S-wave (km/s) = 4.02570 4.18326 4.10523
# Velocity P-wave (km/s) = 6.92650 7.23982 7.08489
#
# Compressibility (1/GPa) = 0.01761575
#
# Stress axis : x y z
#
# Youngs Moduli (GPa) = 106.07705 65.01086 91.22129
#
# Poissons Ratio (x) = 0.08217 0.28931
# Poissons Ratio (y) = 0.13407 0.42349
# Poissons Ratio (z) = 0.33642 0.30181
#
# Static dielectric constant tensor:
#      x y z
#    x 4.392080 0.152830 0.047390 
#    y 0.152830 4.008690 -0.010070 
#    z 0.047390 -0.010070 3.994940 
# 
# 
# High freq. dielectric constant tensor:
#      x y z
#    x 1.873140 -0.001500 -0.009790 
#    y -0.001500 1.848670 -0.011120 
#    z -0.009790 -0.011120 1.818190 
# 
# From -- ./inp_files/158933.got.cif
#   From: 2010.06.25/outbox.cif.g09.slc.cpg/sg2_80_cif.got.tgz:158933.got - 2010.06.27 13:26:56.
