data_PCOD8030425
_publ_section_title
;
Structure prediction by ZEFSAII (Michael W. Deem and Ramdas Pophale) SiO2 
 PCOD8030425
Probable space group: P -1
;
_chemical_formula_sum "Si O2"
_cell_formula_units_Z 16
_cell_length_a 8.837366
_cell_length_b 15.287297
_cell_length_c 16.006583
_cell_angle_alpha 137.447472
_cell_angle_beta 32.509002
_cell_angle_gamma 137.591200
_cell_volume 744.018545
_symmetry_space_group_name_H-M "P -1"
_symmetry_group_IT_number 2
_symmetry_cell_setting 'triclinic'
loop_
_space_group_symop_operation_xyz
x,y,z
-x,-y,-z
loop_
_atom_site_type_symbol
_atom_site_label
_atom_site_fract_x
_atom_site_fract_y
_atom_site_fract_z
Si Si1 0.844387 0.705982 0.701846
Si Si2 0.683053 0.549795 0.831573
Si Si3 0.194905 0.174492 0.946031
Si Si4 0.505193 0.241465 0.508446
Si Si5 0.190775 0.272238 0.841733
Si Si6 0.435218 0.971652 0.783975
Si Si7 0.567094 0.120004 0.987036
Si Si8 0.292003 0.501527 0.519560
O O1 0.711769 0.586059 0.746061
O O2 0.773968 0.643238 0.598241
O O3 0.192296 0.767073 0.598533
O O4 0.719622 0.832093 0.859812
O O5 0.380715 0.422938 0.889406
O O6 0.974488 0.515474 0.704541
O O7 0.636240 0.671037 0.993160
O O8 0.197645 0.168443 0.840071
O O9 0.372366 0.075925 0.821859
O O10 0.865921 0.131466 0.108233
O O11 0.288183 0.225081 0.675857
O O12 0.391191 0.116275 0.407794
O O13 0.536964 0.379172 0.539885
O O14 0.841096 0.253822 0.979566
O O15 0.641955 0.057923 0.821863
O O16 0.500000 0.000000 0.000000
O O17 0.500000 0.500000 0.500000
#
# Coordination Sequence:
#
# PCOD8030425 Si02
#       8
#     2   2   2   2   2   2   2   2
#     4  11  21  45  74  94 136 190 223 270 346 424
#     4  11  21  46  69 101 136 180 228 281 342 407
#     4  11  22  42  71  98 133 179 233 278 335 415
#     4  11  23  46  72  97 139 179 228 282 340 411
#     4  12  26  43  67 106 142 173 228 296 343 388
#     4  11  22  45  70  94 130 191 233 264 340 417
#     4  12  27  44  68 101 140 183 231 282 339 409
#     4  11  23  40  71 105 136 179 227 277 344 410
#
# _framework density 21.504839
#
# number of rings (size 3 to 8) (size 9 to 14) (size 15 to 20)
#    0.000    0.750    7.500    1.875    3.500    1.500 
#    2.250    0.000    0.000    0.000    0.000    0.000 
#    0.000    0.000    0.000    0.000    0.000    0.000 
#
# Total GULP energy -198399.870401 kJ/mol
# GULP energy per Si atom -12399.991900 kJ/mol
# Density = 2.145589 g / cm^3
# Si number density = 21.504839 Si / 1000 Ang^3
#
#
#
# Elastic Constant Matrix: (Units=GPa)
#
#
# Indices 1 2 3 4 5 6 
#
# 1 126.5009 40.9072 26.4603 1.5731 0.2230 -2.6788
# 2 40.9072 86.8925 34.4564 5.3635 -6.8685 7.2707
# 3 26.4603 34.4564 66.9689 9.7744 5.1953 -8.9045
# 4 1.5731 5.3635 9.7744 31.4170 7.0479 5.3583
# 5 0.2230 -6.8685 5.1953 7.0479 41.0938 -0.6135
# 6 -2.6788 7.2707 -8.9045 5.3583 -0.6135 34.2229
#
#
#
# Elastic Compliance Matrix: (Units=1/GPa)
#
#
# Indices 1 2 3 4 5 6 
#
# 1 0.009565 -0.004048 -0.001602 0.000667 -0.000624 0.001076
# 2 -0.004048 0.017675 -0.008642 0.000051 0.003967 -0.006257
# 3 -0.001602 -0.008642 0.022260 -0.006113 -0.003076 0.008404
# 4 0.000667 0.000051 -0.006113 0.036179 -0.005536 -0.007313
# 5 -0.000624 0.003967 -0.003076 -0.005536 0.026334 -0.000353
# 6 0.001076 -0.006257 0.008404 -0.007313 -0.000353 0.033959
#
#
# Mechanical properties :
#
#
# Convention : Reuss Voigt Hill
#
# Bulk Modulus (GPa) = 47.81107 53.77890 50.79499
# Shear Modulus (GPa) = 27.54388 33.24930 30.39659
#
# Velocity S-wave (km/s) = 3.58274 3.93635 3.76370
# Velocity P-wave (km/s) = 6.27660 6.76180 6.52371
#
# Compressibility (1/GPa) = 0.02091566
#
# Stress axis : x y z
#
# Youngs Moduli (GPa) = 104.54892 56.57690 44.92351
#
# Poissons Ratio (x) = 0.22903 0.07198
# Poissons Ratio (y) = 0.42323 0.38822
# Poissons Ratio (z) = 0.16751 0.48892
#
# Static dielectric constant tensor:
#      x y z
#    x 4.089600 0.063890 0.181570 
#    y 0.063890 3.885400 0.062090 
#    z 0.181570 0.062090 3.806150 
# 
# 
# High freq. dielectric constant tensor:
#      x y z
#    x 1.859390 0.004900 0.015100 
#    y 0.004900 1.843620 0.010840 
#    z 0.015100 0.010840 1.824290 
# 
# From -- ./inp_files/278604.got.cif
#   From: 2010.06.25/outbox.cif.g09.slc.cpg/sg2_140_cif.got.tgz:278604.got - 2010.06.27 13:26:56.
