data_PCOD8030919
_publ_section_title
;
Structure prediction by ZEFSAII (Michael W. Deem and Ramdas Pophale) SiO2 
 PCOD8030919
Probable space group: P -1
;
_chemical_formula_sum "Si O2"
_cell_formula_units_Z 16
_cell_length_a 9.544439
_cell_length_b 9.653854
_cell_length_c 11.409897
_cell_angle_alpha 112.875634
_cell_angle_beta 57.664205
_cell_angle_gamma 122.271090
_cell_volume 743.203740
_symmetry_space_group_name_H-M "P -1"
_symmetry_group_IT_number 2
_symmetry_cell_setting 'triclinic'
loop_
_space_group_symop_operation_xyz
x,y,z
-x,-y,-z
loop_
_atom_site_type_symbol
_atom_site_label
_atom_site_fract_x
_atom_site_fract_y
_atom_site_fract_z
Si Si1 0.944402 0.703405 0.084181
Si Si2 0.067092 0.533083 0.788610
Si Si3 0.342719 0.312983 0.303937
Si Si4 0.985154 0.353301 0.539993
Si Si5 0.304806 0.973210 0.127205
Si Si6 0.451344 0.747084 0.590681
Si Si7 0.626273 0.117569 0.681623
Si Si8 0.557798 0.673877 0.264477
O O1 0.878558 0.551823 0.155193
O O2 0.775741 0.754753 0.171489
O O3 0.136556 0.852605 0.083083
O O4 0.966482 0.640143 0.923757
O O5 0.945953 0.395727 0.704785
O O6 0.237237 0.648660 0.672083
O O7 0.156992 0.312068 0.435712
O O8 0.451333 0.306644 0.368000
O O9 0.459811 0.474177 0.225354
O O10 0.295501 0.150590 0.192835
O O11 0.000000 0.500000 0.500000
O O12 0.800468 0.191264 0.539673
O O13 0.291537 0.892312 0.232488
O O14 0.500000 0.000000 0.000000
O O15 0.514166 0.703875 0.426104
O O16 0.492038 0.938953 0.636748
O O17 0.521012 0.237125 0.764780
#
# Coordination Sequence:
#
# PCOD8030919 Si02
#       8
#     2   2   2   2   2   2   2   2
#     4  11  24  41  71  97 133 177 233 268 338 408
#     4  11  22  43  68  96 131 185 222 278 331 417
#     4  11  23  39  70  98 132 179 232 276 333 405
#     4  12  23  42  66 103 138 176 225 284 344 399
#     4  11  26  48  68  96 138 181 227 278 341 414
#     4  11  22  41  67  95 141 178 228 278 342 402
#     4  11  25  41  67  97 142 176 221 287 350 390
#     4  12  23  42  65 107 131 178 228 288 336 408
#
# _framework density 21.528416
#
# number of rings (size 3 to 8) (size 9 to 14) (size 15 to 20)
#    0.000    0.750    5.000    3.000    3.500    1.000 
#    2.250    2.500    0.000    0.000    0.000    0.000 
#    0.000    0.000    0.000    0.000    0.000    0.000 
#
# Total GULP energy -198390.840448 kJ/mol
# GULP energy per Si atom -12399.427528 kJ/mol
# Density = 2.147942 g / cm^3
# Si number density = 21.528416 Si / 1000 Ang^3
#
#
#
# Elastic Constant Matrix: (Units=GPa)
#
#
# Indices 1 2 3 4 5 6 
#
# 1 70.6463 43.9216 22.1752 1.4519 -28.9828 0.3714
# 2 43.9216 141.0430 33.2535 10.3011 -19.3000 -0.1580
# 3 22.1752 33.2535 113.7694 16.4902 -26.0485 7.9013
# 4 1.4519 10.3011 16.4902 27.3869 11.3161 -5.7950
# 5 -28.9828 -19.3000 -26.0485 11.3161 28.6932 -5.8477
# 6 0.3714 -0.1580 7.9013 -5.7950 -5.8477 38.9300
#
#
#
# Elastic Compliance Matrix: (Units=1/GPa)
#
#
# Indices 1 2 3 4 5 6 
#
# 1 0.037843 -0.004212 0.011800 -0.031543 0.058823 0.001367
# 2 -0.004212 0.009272 -0.000560 -0.004219 0.003145 0.000036
# 3 0.011800 -0.000560 0.021080 -0.031209 0.042445 -0.002663
# 4 -0.031543 -0.004219 -0.031209 0.102069 -0.101962 0.006496
# 5 0.058823 0.003145 0.042445 -0.101962 0.175542 0.002027
# 6 0.001367 0.000036 -0.002663 0.006496 0.002027 0.027486
#
#
# Mechanical properties :
#
#
# Convention : Reuss Voigt Hill
#
# Bulk Modulus (GPa) = 12.15790 58.23994 35.19892
# Shear Modulus (GPa) = 12.93143 34.07591 23.50367
#
# Velocity S-wave (km/s) = 2.45351 3.98280 3.30775
# Velocity P-wave (km/s) = 3.69945 6.94706 5.56541
#
# Compressibility (1/GPa) = 0.08225108
#
# Stress axis : x y z
#
# Youngs Moduli (GPa) = 26.42483 107.84818 47.43782
#
# Poissons Ratio (x) = 0.45428 -0.55977
# Poissons Ratio (y) = 0.11131 0.02657
# Poissons Ratio (z) = -0.31181 0.06041
#
# Static dielectric constant tensor:
#      x y z
#    x 4.038660 0.040100 0.223230 
#    y 0.040100 4.202740 0.086590 
#    z 0.223230 0.086590 3.709150 
# 
# 
# High freq. dielectric constant tensor:
#      x y z
#    x 1.842840 0.008270 -0.009240 
#    y 0.008270 1.862740 -0.004840 
#    z -0.009240 -0.004840 1.839860 
# 
# From -- ./inp_files/209311.got.cif
#   From: 2010.06.25/outbox.cif.g09.slc.cpg/sg2_105_cif.got.tgz:209311.got - 2010.06.27 13:26:56.
