data_PCOD8030679
_publ_section_title
;
Structure prediction by ZEFSAII (Michael W. Deem and Ramdas Pophale) SiO2 
 PCOD8030679
Probable space group: P -1
;
_chemical_formula_sum "Si O2"
_cell_formula_units_Z 16
_cell_length_a 15.840967
_cell_length_b 14.285361
_cell_length_c 14.486593
_cell_angle_alpha 20.414642
_cell_angle_beta 135.918925
_cell_angle_gamma 136.592537
_cell_volume 776.106107
_symmetry_space_group_name_H-M "P -1"
_symmetry_group_IT_number 2
_symmetry_cell_setting 'triclinic'
loop_
_space_group_symop_operation_xyz
x,y,z
-x,-y,-z
loop_
_atom_site_type_symbol
_atom_site_label
_atom_site_fract_x
_atom_site_fract_y
_atom_site_fract_z
Si Si1 0.107596 0.097411 0.122340
Si Si2 0.913519 0.757385 0.507516
Si Si3 0.494910 0.429394 0.452550
Si Si4 0.343033 0.817327 0.879955
Si Si5 0.162141 0.704554 0.682223
Si Si6 0.178506 0.070957 0.997536
Si Si7 0.123465 0.670794 0.983483
Si Si8 0.259192 0.528572 0.508054
O O1 0.169699 0.931499 0.399062
O O2 0.180031 0.083165 0.097568
O O3 0.127929 0.408649 0.882923
O O4 0.961522 0.972591 0.110542
O O5 0.865606 0.656339 0.462759
O O6 0.057909 0.741087 0.641570
O O7 0.904356 0.070581 0.222570
O O8 0.832779 0.545355 0.713565
O O9 0.500000 0.500000 0.500000
O O10 0.631438 0.461950 0.487938
O O11 0.419263 0.124836 0.659283
O O12 0.431448 0.624543 0.160674
O O13 0.292237 0.746223 0.801754
O O14 0.228605 0.785758 0.887780
O O15 0.245125 0.832414 0.238123
O O16 0.266838 0.357315 0.766328
O O17 0.000000 0.500000 0.000000
#
# Coordination Sequence:
#
# PCOD8030679 Si02
#       8
#     2   2   2   2   2   2   2   2
#     4  11  22  40  64 104 140 162 205 269 346 390
#     4  12  23  38  60  97 127 168 208 263 329 379
#     4  12  27  48  67  92 129 179 226 275 303 371
#     4  12  26  43  66  92 127 178 221 261 335 377
#     4  12  23  40  65  96 139 165 205 267 334 402
#     4  11  22  39  68 101 133 171 210 268 329 401
#     4  12  24  37  59  90 132 164 206 265 317 396
#     4  12  23  42  68  93 130 171 226 266 317 382
#
# _framework density 20.615738
#
# number of rings (size 3 to 8) (size 9 to 14) (size 15 to 20)
#    0.000    0.250    3.750    6.750    1.750    2.000 
#    0.000    0.000    0.000   15.000    0.000    0.000 
#    0.000    0.000    0.000    0.000    0.000    0.000 
#
# Total GULP energy -198411.331239 kJ/mol
# GULP energy per Si atom -12400.708202 kJ/mol
# Density = 2.056882 g / cm^3
# Si number density = 20.615738 Si / 1000 Ang^3
#
#
#
# Elastic Constant Matrix: (Units=GPa)
#
#
# Indices 1 2 3 4 5 6 
#
# 1 121.6565 27.3714 40.1869 6.3381 -2.9213 0.4109
# 2 27.3714 69.5429 27.7229 3.2962 -1.2117 -1.0579
# 3 40.1869 27.7229 139.6909 3.0028 -9.5224 2.2785
# 4 6.3381 3.2962 3.0028 39.9626 -5.4830 -4.7005
# 5 -2.9213 -1.2117 -9.5224 -5.4830 60.0029 -1.9308
# 6 0.4109 -1.0579 2.2785 -4.7005 -1.9308 24.7540
#
#
#
# Elastic Compliance Matrix: (Units=1/GPa)
#
#
# Indices 1 2 3 4 5 6 
#
# 1 0.009648 -0.002879 -0.002177 -0.001172 -0.000051 -0.000309
# 2 -0.002879 0.016537 -0.002469 -0.000655 -0.000231 0.000839
# 3 -0.002177 -0.002469 0.008366 -0.000011 0.001147 -0.000752
# 4 -0.001172 -0.000655 -0.000011 0.026213 0.002489 0.005164
# 5 -0.000051 -0.000231 0.001147 0.002489 0.017123 0.001694
# 6 -0.000309 0.000839 -0.000752 0.005164 0.001694 0.041620
#
#
# Mechanical properties :
#
#
# Convention : Reuss Voigt Hill
#
# Bulk Modulus (GPa) = 51.28405 57.93920 54.61162
# Shear Modulus (GPa) = 35.44653 40.65120 38.04887
#
# Velocity S-wave (km/s) = 4.15105 4.44537 4.30073
# Velocity P-wave (km/s) = 6.92136 7.38335 7.15608
#
# Compressibility (1/GPa) = 0.01949924
#
# Stress axis : x y z
#
# Youngs Moduli (GPa) = 103.65033 60.47088 119.53606
#
# Poissons Ratio (x) = 0.17412 0.26027
# Poissons Ratio (y) = 0.29844 0.29512
# Poissons Ratio (z) = 0.22568 0.14930
#
# Static dielectric constant tensor:
#      x y z
#    x 4.181320 0.083880 -0.615570 
#    y 0.083880 3.800760 -0.165090 
#    z -0.615570 -0.165090 4.554650 
# 
# 
# High freq. dielectric constant tensor:
#      x y z
#    x 1.807160 -0.010120 -0.011960 
#    y -0.010120 1.797290 -0.006690 
#    z -0.011960 -0.006690 1.831840 
# 
# From -- ./inp_files/452716.got.cif
#   From: 2010.06.25/outbox.cif.g09.slc.cpg/sg2_227_cif.got.tgz:452716.got - 2010.06.27 13:26:56.
