data_PCOD8030254
_publ_section_title
;
Structure prediction by ZEFSAII (Michael W. Deem and Ramdas Pophale) SiO2 
 PCOD8030254
Probable space group: P -1
;
_chemical_formula_sum "Si O2"
_cell_formula_units_Z 16
_cell_length_a 11.264536
_cell_length_b 10.761574
_cell_length_c 8.599022
_cell_angle_alpha 109.323063
_cell_angle_beta 127.576983
_cell_angle_gamma 53.538333
_cell_volume 663.618483
_symmetry_space_group_name_H-M "P -1"
_symmetry_group_IT_number 2
_symmetry_cell_setting 'triclinic'
loop_
_space_group_symop_operation_xyz
x,y,z
-x,-y,-z
loop_
_atom_site_type_symbol
_atom_site_label
_atom_site_fract_x
_atom_site_fract_y
_atom_site_fract_z
Si Si1 0.486032 0.215909 0.362465
Si Si2 0.283684 0.588799 0.084005
Si Si3 0.912918 0.542486 0.277539
Si Si4 0.786288 0.461745 0.651462
Si Si5 0.127735 0.991045 0.869449
Si Si6 0.771751 0.091522 0.759212
Si Si7 0.338907 0.704492 0.717943
Si Si8 0.307538 0.146028 0.942172
O O1 0.403537 0.380707 0.450490
O O2 0.608538 0.093768 0.543254
O O3 0.619732 0.197597 0.327329
O O4 0.330384 0.203494 0.154454
O O5 0.197307 0.591780 0.181118
O O6 0.277403 0.747605 0.131598
O O7 0.481529 0.449394 0.153297
O O8 0.163918 0.568718 0.852331
O O9 0.000000 0.500000 0.500000
O O10 0.060774 0.506040 0.253128
O O11 0.756908 0.723309 0.191331
O O12 0.793099 0.337444 0.486021
O O13 0.243762 0.812307 0.834814
O O14 0.173695 0.019629 0.093917
O O15 0.924825 0.039574 0.730863
O O16 0.160482 0.100095 0.826257
O O17 0.500000 0.000000 0.000000
#
# Coordination Sequence:
#
# PCOD8030254 Si02
#       8
#     2   2   2   2   2   2   2   2
#     4  11  22  43  72 102 136 190 241 291 353 429
#     4  11  21  45  71  97 144 181 235 295 352 421
#     4  12  28  44  70 109 138 183 246 302 351 416
#     4  11  22  41  73 104 134 187 239 294 357 415
#     4  11  27  44  68 104 149 190 229 294 364 428
#     4  11  25  45  68 107 144 184 241 294 358 422
#     4  11  21  43  72 102 134 187 241 287 351 430
#     4  12  25  49  72 100 149 192 232 289 367 435
#
# _framework density 24.110237999999999
#
# number of rings (size 3 to 8) (size 9 to 14) (size 15 to 20)
#    0.000    0.750    6.250    1.875    3.500    4.500 
#    2.250    0.000    0.000    0.000    0.000    0.000 
#    0.000    0.000    0.000    0.000    0.000    0.000 
#
# Total GULP energy -198286.720821 kJ/mol
# GULP energy per Si atom -12392.920051 kJ/mol
# Density = 2.405536 g / cm^3
# Si number density = 24.110238 Si / 1000 Ang^3
#
#
#
# Elastic Constant Matrix: (Units=GPa)
#
#
# Indices 1 2 3 4 5 6 
#
# 1 40.0601 34.6300 16.8500 3.0411 -1.7905 -1.3391
# 2 34.6300 70.5920 34.9852 7.3490 -6.6998 -7.5355
# 3 16.8500 34.9852 135.9840 -9.4610 8.1965 -11.8275
# 4 3.0411 7.3490 -9.4610 37.0774 6.4886 -4.8710
# 5 -1.7905 -6.6998 8.1965 6.4886 22.1312 7.3336
# 6 -1.3391 -7.5355 -11.8275 -4.8710 7.3336 20.7550
#
#
#
# Elastic Compliance Matrix: (Units=1/GPa)
#
#
# Indices 1 2 3 4 5 6 
#
# 1 0.043934 -0.022303 0.000070 0.000597 -0.001942 -0.004397
# 2 -0.022303 0.030164 -0.006284 -0.007878 0.012018 -0.000163
# 3 0.000070 -0.006284 0.010997 0.007303 -0.011327 0.009706
# 4 0.000597 -0.007878 0.007303 0.036408 -0.021510 0.017485
# 5 -0.001942 0.012018 -0.011327 -0.021510 0.069740 -0.031907
# 6 -0.004397 -0.000163 0.009706 0.017485 -0.031907 0.068747
#
#
# Mechanical properties :
#
#
# Convention : Reuss Voigt Hill
#
# Bulk Modulus (GPa) = 35.63515 46.61847 41.12681
# Shear Modulus (GPa) = 15.31974 26.67078 20.99526
#
# Velocity S-wave (km/s) = 2.52346 3.32957 2.95414
# Velocity P-wave (km/s) = 4.82728 5.84456 5.36011
#
# Compressibility (1/GPa) = 0.02806218
#
# Stress axis : x y z
#
# Youngs Moduli (GPa) = 22.76161 33.15165 90.93612
#
# Poissons Ratio (x) = 0.73938 -0.00639
# Poissons Ratio (y) = 0.50765 0.57141
# Poissons Ratio (z) = -0.00160 0.20831
#
# Static dielectric constant tensor:
#      x y z
#    x 4.123800 -0.017190 0.071610 
#    y -0.017190 4.460410 0.074900 
#    z 0.071610 0.074900 4.461550 
# 
# 
# High freq. dielectric constant tensor:
#      x y z
#    x 1.943850 -0.011280 0.006610 
#    y -0.011280 1.952910 -0.002580 
#    z 0.006610 -0.002580 1.961670 
# 
# From -- ./inp_files/262826.got.cif
#   From: 2010.06.25/outbox.cif.g09.slc.cpg/sg2_132_cif.got.tgz:262826.got - 2010.06.27 13:26:56.
