data_PCOD8030316
_publ_section_title
;
Structure prediction by ZEFSAII (Michael W. Deem and Ramdas Pophale) SiO2 
 PCOD8030316
Probable space group: P -1
;
_chemical_formula_sum "Si O2"
_cell_formula_units_Z 16
_cell_length_a 25.517785
_cell_length_b 15.651002
_cell_length_c 19.140258
_cell_angle_alpha 29.389628
_cell_angle_beta 160.645200
_cell_angle_gamma 161.813573
_cell_volume 767.167473
_symmetry_space_group_name_H-M "P -1"
_symmetry_group_IT_number 2
_symmetry_cell_setting 'triclinic'
loop_
_space_group_symop_operation_xyz
x,y,z
-x,-y,-z
loop_
_atom_site_type_symbol
_atom_site_label
_atom_site_fract_x
_atom_site_fract_y
_atom_site_fract_z
Si Si1 0.516099 0.198171 0.918289
Si Si2 0.780778 0.745126 0.208899
Si Si3 0.954443 0.799429 0.535358
Si Si4 0.298590 0.615423 0.367400
Si Si5 0.178371 0.846401 0.994583
Si Si6 0.627900 0.221710 0.195187
Si Si7 0.220113 0.210710 0.185376
Si Si8 0.049269 0.822954 0.364961
O O1 0.678961 0.504429 0.874104
O O2 0.223524 0.994119 0.700850
O O3 0.655192 0.292472 0.098960
O O4 0.500000 0.000000 0.000000
O O5 0.986292 0.815997 0.370904
O O6 0.769060 0.674126 0.325658
O O7 0.500000 0.500000 0.000000
O O8 0.866949 0.017567 0.117600
O O9 0.833276 0.540162 0.613448
O O10 0.000000 0.000000 0.500000
O O11 0.340474 0.860731 0.241831
O O12 0.546049 0.709931 0.601805
O O13 0.110054 0.446420 0.183391
O O14 0.340572 0.007095 0.012615
O O15 0.807382 0.505712 0.260880
O O16 0.700424 0.081567 0.394723
O O17 0.100543 0.039405 0.229543
O O18 0.000000 0.000000 0.000000
#
# Coordination Sequence:
#
# PCOD8030316 Si02
#       8
#     2   2   2   2   2   2   2   2
#     4  12  25  43  70 104 136 179 235 292 341 414
#     4  12  25  42  68 103 135 180 230 288 347 408
#     4  12  23  45  72  97 135 188 235 278 344 424
#     4  11  24  42  74  99 131 185 238 281 342 424
#     4  11  22  44  70 102 133 178 235 285 345 415
#     4  11  21  44  69  96 134 192 227 276 352 426
#     4  12  25  44  69 103 142 186 234 284 357 423
#     4  11  25  42  68 100 145 179 228 291 355 419
#
# _framework density 20.855943
#
# number of rings (size 3 to 8) (size 9 to 14) (size 15 to 20)
#    0.000    0.500    7.500    0.750    1.750    1.000 
#    2.250    2.500    0.000    0.000    0.000    0.000 
#    0.000    0.000    0.000    0.000    0.000    0.000 
#
# Total GULP energy -198265.558769 kJ/mol
# GULP energy per Si atom -12391.597423 kJ/mol
# Density = 2.080847 g / cm^3
# Si number density = 20.855943 Si / 1000 Ang^3
#
#
#
# Elastic Constant Matrix: (Units=GPa)
#
#
# Indices 1 2 3 4 5 6 
#
# 1 113.4453 39.3012 39.4102 -12.5847 -3.4647 -6.1159
# 2 39.3012 83.5306 42.6706 -24.0443 5.8949 5.4920
# 3 39.4102 42.6706 115.3179 -1.9746 -3.3164 -9.2173
# 4 -12.5847 -24.0443 -1.9746 44.0455 6.2903 -0.2430
# 5 -3.4647 5.8949 -3.3164 6.2903 41.5045 -7.3336
# 6 -6.1159 5.4920 -9.2173 -0.2430 -7.3336 33.3193
#
#
#
# Elastic Compliance Matrix: (Units=1/GPa)
#
#
# Indices 1 2 3 4 5 6 
#
# 1 0.011295 -0.004525 -0.001910 0.000423 0.001846 0.002700
# 2 -0.004525 0.022185 -0.007317 0.011484 -0.007272 -0.008028
# 3 -0.001910 -0.007317 0.012456 -0.004445 0.003437 0.005025
# 4 0.000423 0.011484 -0.004445 0.029908 -0.007266 -0.004426
# 5 0.001846 -0.007272 0.003437 -0.007266 0.028183 0.008638
# 6 0.002700 -0.008028 0.005025 -0.004426 0.008638 0.035091
#
#
# Mechanical properties :
#
#
# Convention : Reuss Voigt Hill
#
# Bulk Modulus (GPa) = 54.24941 61.67311 57.96126
# Shear Modulus (GPa) = 28.94121 36.50133 32.72127
#
# Velocity S-wave (km/s) = 3.72919 4.18804 3.96525
# Velocity P-wave (km/s) = 6.67910 7.28158 6.98684
#
# Compressibility (1/GPa) = 0.01843338
#
# Stress axis : x y z
#
# Youngs Moduli (GPa) = 88.53852 45.07521 80.28177
#
# Poissons Ratio (x) = 0.20395 0.15330
# Poissons Ratio (y) = 0.40061 0.58742
# Poissons Ratio (z) = 0.16907 0.32981
#
# Static dielectric constant tensor:
#      x y z
#    x 3.706090 0.188340 -0.053480 
#    y 0.188340 3.695750 -0.123800 
#    z -0.053480 -0.123800 4.059730 
# 
# 
# High freq. dielectric constant tensor:
#      x y z
#    x 1.805380 0.004020 0.000000 
#    y 0.004020 1.819610 -0.006940 
#    z 0.000000 -0.006940 1.837810 
# 
# From -- ./inp_files/500915.got.cif
#   From: 2010.06.25/outbox.cif.g09.slc.cpg/sg2_251_cif.got.tgz:500915.got - 2010.06.27 13:26:56.
