data_PCOD8030989
_publ_section_title
;
Structure prediction by ZEFSAII (Michael W. Deem and Ramdas Pophale) SiO2 
 PCOD8030989
Probable space group: P -1
;
_chemical_formula_sum "Si O2"
_cell_formula_units_Z 16
_cell_length_a 8.786226
_cell_length_b 17.702459
_cell_length_c 8.548229
_cell_angle_alpha 38.869770
_cell_angle_beta 113.328370
_cell_angle_gamma 124.142915
_cell_volume 688.410525
_symmetry_space_group_name_H-M "P -1"
_symmetry_group_IT_number 2
_symmetry_cell_setting 'triclinic'
loop_
_space_group_symop_operation_xyz
x,y,z
-x,-y,-z
loop_
_atom_site_type_symbol
_atom_site_label
_atom_site_fract_x
_atom_site_fract_y
_atom_site_fract_z
Si Si1 0.154163 0.075650 0.068561
Si Si2 0.782766 0.302476 0.246876
Si Si3 0.841028 0.761092 0.916412
Si Si4 0.807524 0.105464 0.361069
Si Si5 0.189951 0.429782 0.302573
Si Si6 0.196265 0.502821 0.543225
Si Si7 0.581640 0.733827 0.370044
Si Si8 0.581877 0.852517 0.499284
O O1 0.084441 0.162461 0.011608
O O2 0.195627 0.971860 0.355761
O O3 0.343191 0.178730 0.896364
O O4 0.000000 0.000000 0.000000
O O5 0.748773 0.222058 0.197486
O O6 0.637319 0.214442 0.459786
O O7 0.979627 0.324629 0.358491
O O8 0.765128 0.439042 0.993891
O O9 0.658404 0.775537 0.772430
O O10 0.988498 0.830466 0.729011
O O11 0.789793 0.605238 0.159475
O O12 0.667054 0.009088 0.329388
O O13 0.222005 0.465958 0.438067
O O14 0.323098 0.365494 0.404608
O O15 0.360683 0.647978 0.412560
O O16 0.000000 0.500000 0.500000
O O17 0.632510 0.838255 0.365184
#
# Coordination Sequence:
#
# PCOD8030989 Si02
#       8
#     2   2   2   2   2   2   2   2
#     4  11  22  41  71 100 137 179 228 280 334 415
#     4  11  24  43  69 100 141 178 225 287 345 406
#     4  11  23  43  69  97 137 181 231 278 338 408
#     4  11  24  43  69 100 138 184 230 280 342 410
#     4  11  24  43  70 100 137 179 227 284 346 408
#     4  12  26  43  68 102 142 176 229 292 343 402
#     4  12  25  45  73 102 139 184 230 281 350 404
#     4  11  24  43  67 101 136 181 235 275 339 414
#
# _framework density 23.241942999999999
#
# number of rings (size 3 to 8) (size 9 to 14) (size 15 to 20)
#    0.000    0.750    1.250    7.500    3.500    4.000 
#    2.250    0.625    0.000    0.000    0.000    0.000 
#    0.000    0.000    0.000    0.000    0.000    0.000 
#
# Total GULP energy -198484.927204 kJ/mol
# GULP energy per Si atom -12405.307950 kJ/mol
# Density = 2.318904 g / cm^3
# Si number density = 23.241943 Si / 1000 Ang^3
#
#
#
# Elastic Constant Matrix: (Units=GPa)
#
#
# Indices 1 2 3 4 5 6 
#
# 1 101.4375 34.1275 14.3130 -3.9307 -21.1447 0.8272
# 2 34.1275 117.3955 34.2926 -4.2296 -10.4669 -15.6224
# 3 14.3130 34.2926 78.6911 -6.9386 -22.0858 8.1007
# 4 -3.9307 -4.2296 -6.9386 31.7001 -0.0649 -8.4104
# 5 -21.1447 -10.4669 -22.0858 -0.0649 29.4230 -4.2366
# 6 0.8272 -15.6224 8.1007 -8.4104 -4.2366 42.9518
#
#
#
# Elastic Compliance Matrix: (Units=1/GPa)
#
#
# Indices 1 2 3 4 5 6 
#
# 1 0.012762 -0.003514 0.002029 0.001387 0.009344 -0.000713
# 2 -0.003514 0.011743 -0.005361 0.001405 -0.001582 0.005469
# 3 0.002029 -0.005361 0.019036 0.002741 0.013309 -0.003730
# 4 0.001387 0.001405 0.002741 0.034416 0.004662 0.007166
# 5 0.009344 -0.001582 0.013309 0.004662 0.050518 0.002630
# 6 -0.000713 0.005469 -0.003730 0.007166 0.002630 0.027651
#
#
# Mechanical properties :
#
#
# Convention : Reuss Voigt Hill
#
# Bulk Modulus (GPa) = 33.50407 51.44336 42.47372
# Shear Modulus (GPa) = 27.81327 35.13440 31.47383
#
# Velocity S-wave (km/s) = 3.46307 3.89225 3.68391
# Velocity P-wave (km/s) = 5.51698 6.51010 6.03401
#
# Compressibility (1/GPa) = 0.02984712
#
# Stress axis : x y z
#
# Youngs Moduli (GPa) = 78.35914 85.15408 52.53105
#
# Poissons Ratio (x) = 0.29926 -0.10656
# Poissons Ratio (y) = 0.27538 0.28165
# Poissons Ratio (z) = -0.15896 0.45655
#
# Static dielectric constant tensor:
#      x y z
#    x 4.114320 -0.132470 -0.077780 
#    y -0.132470 4.428410 -0.215370 
#    z -0.077780 -0.215370 4.180120 
# 
# 
# High freq. dielectric constant tensor:
#      x y z
#    x 1.920700 -0.008830 -0.011790 
#    y -0.008830 1.930200 -0.011420 
#    z -0.011790 -0.011420 1.918010 
# 
# From -- ./inp_files/216534.got.cif
#   From: 2010.06.25/outbox.cif.g09.slc.cpg/sg2_109_cif.got.tgz:216534.got - 2010.06.27 13:26:56.
