data_PCOD8030511
_publ_section_title
;
Structure prediction by ZEFSAII (Michael W. Deem and Ramdas Pophale) SiO2 
 PCOD8030511
Probable space group: P -1
;
_chemical_formula_sum "Si O2"
_cell_formula_units_Z 16
_cell_length_a 14.258908
_cell_length_b 10.420333
_cell_length_c 11.280187
_cell_angle_alpha 118.451483
_cell_angle_beta 151.760329
_cell_angle_gamma 54.907383
_cell_volume 646.922351
_symmetry_space_group_name_H-M "P -1"
_symmetry_group_IT_number 2
_symmetry_cell_setting 'triclinic'
loop_
_space_group_symop_operation_xyz
x,y,z
-x,-y,-z
loop_
_atom_site_type_symbol
_atom_site_label
_atom_site_fract_x
_atom_site_fract_y
_atom_site_fract_z
Si Si1 0.900376 0.868624 0.822342
Si Si2 0.662978 0.779048 0.719712
Si Si3 0.962976 0.027427 0.609276
Si Si4 0.380488 0.039694 0.676954
Si Si5 0.623470 0.244901 0.020908
Si Si6 0.601381 0.494988 0.296626
Si Si7 0.106858 0.621632 0.232430
Si Si8 0.332841 0.615509 0.250666
O O1 0.723751 0.879459 0.730562
O O2 0.790462 0.881304 0.580176
O O3 0.091958 0.702878 0.977426
O O4 0.000000 0.000000 0.000000
O O5 0.470480 0.727528 0.442256
O O6 0.582896 0.890516 0.793087
O O7 0.876673 0.623446 0.927060
O O8 0.736492 0.011319 0.370077
O O9 0.948109 0.194357 0.717923
O O10 0.000000 0.000000 0.500000
O O11 0.152953 0.889384 0.828722
O O12 0.470179 0.169298 0.879822
O O13 0.505059 0.338014 0.813190
O O14 0.669379 0.356235 0.217198
O O15 0.814605 0.481502 0.604684
O O16 0.438171 0.477536 0.208825
O O17 0.308230 0.562429 0.335640
#
# Coordination Sequence:
#
# PCOD8030511 Si02
#       8
#     2   2   2   2   2   2   2   2
#     4  11  22  36  66 106 142 171 218 289 352 403
#     4  11  22  38  69 107 134 172 229 287 349 406
#     4  12  24  46  73 100 138 177 235 297 336 401
#     4  12  23  41  72 107 133 178 237 287 348 402
#     4  11  26  47  71  99 140 188 233 280 339 419
#     4  11  25  47  68  95 148 193 221 276 351 417
#     4  11  23  45  69 105 137 178 232 290 345 405
#     4  11  23  42  68 101 140 181 225 284 352 411
#
# _framework density 24.732489000000001
#
# number of rings (size 3 to 8) (size 9 to 14) (size 15 to 20)
#    0.000    0.750    5.000    3.000    1.750    1.000 
#    2.250   10.625    0.000    0.000    0.000    0.000 
#    0.000    0.000    0.000    0.000    0.000    0.000 
#
# Total GULP energy -198376.531728 kJ/mol
# GULP energy per Si atom -12398.533233 kJ/mol
# Density = 2.467620 g / cm^3
# Si number density = 24.732489 Si / 1000 Ang^3
#
#
#
# Elastic Constant Matrix: (Units=GPa)
#
#
# Indices 1 2 3 4 5 6 
#
# 1 149.0684 31.6042 41.3918 -3.9790 14.9687 -6.5844
# 2 31.6042 68.2167 18.7386 -13.3424 6.5904 -5.0440
# 3 41.3918 18.7386 118.6191 -11.4422 6.3671 5.0600
# 4 -3.9790 -13.3424 -11.4422 36.7659 8.9830 0.1589
# 5 14.9687 6.5904 6.3671 8.9830 47.6691 1.4452
# 6 -6.5844 -5.0440 5.0600 0.1589 1.4452 33.0970
#
#
#
# Elastic Compliance Matrix: (Units=1/GPa)
#
#
# Indices 1 2 3 4 5 6 
#
# 1 0.008252 -0.002956 -0.002434 -0.000501 -0.001813 0.001645
# 2 -0.002956 0.018064 -0.001150 0.006532 -0.002720 0.002428
# 3 -0.002434 -0.001150 0.009846 0.002592 -0.000816 -0.002142
# 4 -0.000501 0.006532 0.002592 0.032067 -0.007155 0.000658
# 5 -0.001813 -0.002720 -0.000816 -0.007155 0.023430 -0.001639
# 6 0.001645 0.002428 -0.002142 0.000658 -0.001639 0.031307
#
#
# Mechanical properties :
#
#
# Convention : Reuss Voigt Hill
#
# Bulk Modulus (GPa) = 43.31978 57.70817 50.51398
# Shear Modulus (GPa) = 34.78468 39.78436 37.28452
#
# Velocity S-wave (km/s) = 3.75432 4.01507 3.88688
# Velocity P-wave (km/s) = 6.02881 6.69910 6.37278
#
# Compressibility (1/GPa) = 0.02308415
#
# Stress axis : x y z
#
# Youngs Moduli (GPa) = 121.18096 55.35771 101.55966
#
# Poissons Ratio (x) = 0.16363 0.24718
# Poissons Ratio (y) = 0.35819 0.11676
# Poissons Ratio (z) = 0.29493 0.06365
#
# Static dielectric constant tensor:
#      x y z
#    x 3.827380 -0.116620 -1.404610 
#    y -0.116620 4.783120 -0.483650 
#    z -1.404610 -0.483650 1.561440 
# 
# 
# High freq. dielectric constant tensor:
#      x y z
#    x 1.981470 -0.003250 0.002730 
#    y -0.003250 1.997330 -0.018830 
#    z 0.002730 -0.018830 2.004760 
# 
# From -- ./inp_files/451703.got.cif
#   From: 2010.06.25/outbox.cif.g09.slc.cpg/sg2_226_cif.got.tgz:451703.got - 2010.06.27 13:26:56.
