data_PCOD8030617
_publ_section_title
;
Structure prediction by ZEFSAII (Michael W. Deem and Ramdas Pophale) SiO2 
 PCOD8030617
Probable space group: P -1
;
_chemical_formula_sum "Si O2"
_cell_formula_units_Z 16
_cell_length_a 14.967788
_cell_length_b 15.986996
_cell_length_c 7.840746
_cell_angle_alpha 87.865986
_cell_angle_beta 64.325178
_cell_angle_gamma 33.838973
_cell_volume 721.284217
_symmetry_space_group_name_H-M "P -1"
_symmetry_group_IT_number 2
_symmetry_cell_setting 'triclinic'
loop_
_space_group_symop_operation_xyz
x,y,z
-x,-y,-z
loop_
_atom_site_type_symbol
_atom_site_label
_atom_site_fract_x
_atom_site_fract_y
_atom_site_fract_z
Si Si1 0.762319 0.542949 0.958947
Si Si2 0.287837 0.597506 0.480115
Si Si3 0.086922 0.739352 0.284721
Si Si4 0.878634 0.602932 0.412322
Si Si5 0.825443 0.210912 0.110723
Si Si6 0.899829 0.418219 0.210304
Si Si7 0.395509 0.037276 0.855334
Si Si8 0.603533 0.041240 0.782375
O O1 0.754520 0.463320 0.865609
O O2 0.014411 0.394625 0.755673
O O3 0.718152 0.556029 0.193941
O O4 0.562982 0.755862 0.037026
O O5 0.195953 0.701797 0.364672
O O6 0.564959 0.381339 0.271491
O O7 0.176612 0.737693 0.712649
O O8 0.192275 0.576291 0.574312
O O9 0.086515 0.799641 0.117082
O O10 0.823222 0.913151 0.518130
O O11 0.934488 0.481791 0.259510
O O12 0.000000 0.500000 0.500000
O O13 0.601402 0.821460 0.635818
O O14 0.000000 0.000000 0.000000
O O15 0.157287 0.198267 0.940278
O O16 0.466091 0.081327 0.769991
O O17 0.325577 0.068805 0.106110
#
# Coordination Sequence:
#
# PCOD8030617 Si02
#       8
#     2   2   2   2   2   2   2   2
#     4  12  25  41  64 102 142 187 233 281 340 404
#     4  11  26  49  74 106 139 179 227 294 350 422
#     4  12  25  47  74 104 142 185 229 285 353 418
#     4  12  22  39  65  94 139 194 230 274 336 403
#     4  11  28  51  78 105 136 172 234 299 361 418
#     4  12  25  42  65 101 145 182 233 285 341 407
#     4  11  22  39  62  97 140 189 235 278 322 401
#     4  11  23  38  66  98 140 186 234 274 329 408
#
# _framework density 22.182655
#
# number of rings (size 3 to 8) (size 9 to 14) (size 15 to 20)
#    0.000    0.500    6.250    2.250    1.750    4.000 
#    0.000    0.000    0.000    0.000    0.000    0.000 
#    0.000    0.000    0.000    0.000    0.000    0.000 
#
# Total GULP energy -198412.353986 kJ/mol
# GULP energy per Si atom -12400.772124 kJ/mol
# Density = 2.213217 g / cm^3
# Si number density = 22.182655 Si / 1000 Ang^3
#
#
#
# Elastic Constant Matrix: (Units=GPa)
#
#
# Indices 1 2 3 4 5 6 
#
# 1 97.0364 48.7033 47.9885 -3.8632 -0.6426 -2.0260
# 2 48.7033 111.8303 62.0074 2.5111 1.2613 13.4718
# 3 47.9885 62.0074 128.6912 2.3075 -10.7825 2.9173
# 4 -3.8632 2.5111 2.3075 32.2364 -6.0563 3.9890
# 5 -0.6426 1.2613 -10.7825 -6.0563 37.9730 -3.6054
# 6 -2.0260 13.4718 2.9173 3.9890 -3.6054 29.9676
#
#
#
# Elastic Compliance Matrix: (Units=1/GPa)
#
#
# Indices 1 2 3 4 5 6 
#
# 1 0.014514 -0.005066 -0.003067 0.001976 0.000173 0.003315
# 2 -0.005066 0.015032 -0.005427 -0.001104 -0.002946 -0.006779
# 3 -0.003067 -0.005427 0.011799 -0.000310 0.003577 0.001555
# 4 0.001976 -0.001104 -0.000310 0.032670 0.004898 -0.003099
# 5 0.000173 -0.002946 0.003577 0.004898 0.028591 0.003776
# 6 0.003315 -0.006779 0.001555 -0.003099 0.003776 0.037356
#
#
# Mechanical properties :
#
#
# Convention : Reuss Voigt Hill
#
# Bulk Modulus (GPa) = 70.30108 72.77292 71.53700
# Shear Modulus (GPa) = 29.09932 31.95931 30.52932
#
# Velocity S-wave (km/s) = 3.62581 3.79982 3.71384
# Velocity P-wave (km/s) = 7.02064 7.22004 7.12104
#
# Compressibility (1/GPa) = 0.01422453
#
# Stress axis : x y z
#
# Youngs Moduli (GPa) = 68.89915 66.52302 84.74963
#
# Poissons Ratio (x) = 0.33699 0.25997
# Poissons Ratio (y) = 0.34903 0.45997
# Poissons Ratio (z) = 0.21134 0.36105
#
# Static dielectric constant tensor:
#      x y z
#    x 3.767840 -0.096470 -0.011740 
#    y -0.096470 3.908680 -0.074250 
#    z -0.011740 -0.074250 4.163360 
# 
# 
# High freq. dielectric constant tensor:
#      x y z
#    x 1.860690 -0.002280 -0.002520 
#    y -0.002280 1.877560 -0.003250 
#    z -0.002520 -0.003250 1.884030 
# 
# From -- ./inp_files/313285.got.cif
#   From: 2010.06.25/outbox.cif.g09.slc.cpg/sg2_157_cif.got.tgz:313285.got - 2010.06.27 13:26:56.
