data_PCOD8030968
_publ_section_title
;
Structure prediction by ZEFSAII (Michael W. Deem and Ramdas Pophale) SiO2 
 PCOD8030968
Probable space group: P -1
;
_chemical_formula_sum "Si O2"
_cell_formula_units_Z 16
_cell_length_a 9.166588
_cell_length_b 15.756856
_cell_length_c 20.008634
_cell_angle_alpha 152.026394
_cell_angle_beta 39.590500
_cell_angle_gamma 143.053004
_cell_volume 792.997457
_symmetry_space_group_name_H-M "P -1"
_symmetry_group_IT_number 2
_symmetry_cell_setting 'triclinic'
loop_
_space_group_symop_operation_xyz
x,y,z
-x,-y,-z
loop_
_atom_site_type_symbol
_atom_site_label
_atom_site_fract_x
_atom_site_fract_y
_atom_site_fract_z
Si Si1 0.992074 0.400034 0.502467
Si Si2 0.080022 0.639124 0.875822
Si Si3 0.411977 0.673508 0.138635
Si Si4 0.574403 0.879323 0.084276
Si Si5 0.462098 0.367158 0.356348
Si Si6 0.018455 0.272068 0.173175
Si Si7 0.318557 0.022894 0.635019
Si Si8 0.820863 0.081379 0.840059
O O1 0.000000 0.500000 0.500000
O O2 0.261297 0.397550 0.402981
O O3 0.947865 0.518503 0.662894
O O4 0.792584 0.177259 0.422451
O O5 0.293206 0.568130 0.729506
O O6 0.975961 0.713858 0.899706
O O7 0.885945 0.438477 0.837846
O O8 0.165649 0.818074 0.022868
O O9 0.512271 0.804404 0.129193
O O10 0.498115 0.810322 0.267091
O O11 0.500000 0.500000 0.000000
O O12 0.306977 0.819806 0.099350
O O13 0.752847 0.112125 0.182013
O O14 0.746191 0.774842 0.918205
O O15 0.500000 0.500000 0.500000
O O16 0.381941 0.139583 0.243868
O O17 0.095366 0.083696 0.726626
O O18 0.500000 0.000000 0.500000
#
# Coordination Sequence:
#
# PCOD8030968 Si02
#       8
#     2   2   2   2   2   2   2   2
#     4  11  24  41  66  97 133 165 224 272 327 387
#     4  12  23  42  68  94 130 175 220 264 328 392
#     4  12  24  45  65  94 136 177 216 261 335 399
#     4  11  24  40  68  98 136 164 224 271 326 384
#     4  11  23  41  67  96 131 168 217 273 330 382
#     4  11  22  41  69  98 130 179 214 270 332 392
#     4  11  25  45  70  92 131 178 217 265 332 397
#     4  11  24  42  69 100 128 168 225 277 317 386
#
# _framework density 20.176608999999999
#
# number of rings (size 3 to 8) (size 9 to 14) (size 15 to 20)
#    0.000    0.750    5.000    1.875    3.500    2.500 
#    2.250    0.625    0.000    0.000    0.000    0.000 
#    0.000    0.000    0.000    0.000    0.000    0.000 
#
# Total GULP energy -198301.339104 kJ/mol
# GULP energy per Si atom -12393.833694 kJ/mol
# Density = 2.013069 g / cm^3
# Si number density = 20.176609 Si / 1000 Ang^3
#
#
#
# Elastic Constant Matrix: (Units=GPa)
#
#
# Indices 1 2 3 4 5 6 
#
# 1 110.8803 45.3911 54.7331 -5.9068 -3.0762 -6.7952
# 2 45.3911 110.7854 48.2028 -6.7199 6.9017 8.7736
# 3 54.7331 48.2028 144.6042 -3.1550 8.4031 14.1415
# 4 -5.9068 -6.7199 -3.1550 40.2281 9.9297 -1.0628
# 5 -3.0762 6.9017 8.4031 9.9297 40.4598 -2.9095
# 6 -6.7952 8.7736 14.1415 -1.0628 -2.9095 33.3089
#
#
#
# Elastic Compliance Matrix: (Units=1/GPa)
#
#
# Indices 1 2 3 4 5 6 
#
# 1 0.013389 -0.004204 -0.004419 0.000334 0.003001 0.005988
# 2 -0.004204 0.012135 -0.001924 0.001831 -0.002685 -0.003413
# 3 -0.004419 -0.001924 0.009847 0.000284 -0.002466 -0.004782
# 4 0.000334 0.001831 0.000284 0.026951 -0.006981 -0.000285
# 5 0.003001 -0.002685 -0.002466 -0.006981 0.027957 0.004586
# 6 0.005988 -0.003413 -0.004782 -0.000285 0.004586 0.034564
#
#
# Mechanical properties :
#
#
# Convention : Reuss Voigt Hill
#
# Bulk Modulus (GPa) = 70.04684 73.65821 71.85253
# Shear Modulus (GPa) = 33.17933 37.32887 35.25410
#
# Velocity S-wave (km/s) = 4.05958 4.30595 4.18458
# Velocity P-wave (km/s) = 7.53431 7.82992 7.68353
#
# Compressibility (1/GPa) = 0.01427616
#
# Stress axis : x y z
#
# Youngs Moduli (GPa) = 74.68742 82.40822 101.55770
#
# Poissons Ratio (x) = 0.34644 0.44880
# Poissons Ratio (y) = 0.31398 0.19540
# Poissons Ratio (z) = 0.33006 0.15856
#
# Static dielectric constant tensor:
#      x y z
#    x 4.250430 0.371640 -0.353130 
#    y 0.371640 3.841820 0.017100 
#    z -0.353130 0.017100 3.893100 
# 
# 
# High freq. dielectric constant tensor:
#      x y z
#    x 1.791450 0.013130 -0.007160 
#    y 0.013130 1.789530 0.001170 
#    z -0.007160 0.001170 1.800280 
# 
# From -- ./inp_files/225973.got.cif
#   From: 2010.06.25/outbox.cif.g09.slc.cpg/sg2_113_cif.got.tgz:225973.got - 2010.06.27 13:26:56.
