data_PCOD8030346
_publ_section_title
;
Structure prediction by ZEFSAII (Michael W. Deem and Ramdas Pophale) SiO2 
 PCOD8030346
Probable space group: P -1
;
_chemical_formula_sum "Si O2"
_cell_formula_units_Z 16
_cell_length_a 8.899579
_cell_length_b 14.137930
_cell_length_c 12.313945
_cell_angle_alpha 79.045257
_cell_angle_beta 31.963510
_cell_angle_gamma 67.832231
_cell_volume 732.346940
_symmetry_space_group_name_H-M "P -1"
_symmetry_group_IT_number 2
_symmetry_cell_setting 'triclinic'
loop_
_space_group_symop_operation_xyz
x,y,z
-x,-y,-z
loop_
_atom_site_type_symbol
_atom_site_label
_atom_site_fract_x
_atom_site_fract_y
_atom_site_fract_z
Si Si1 0.870722 0.429754 0.030033
Si Si2 0.181463 0.831065 0.999215
Si Si3 0.827813 0.954486 0.369113
Si Si4 0.861161 0.796143 0.573535
Si Si5 0.845499 0.913082 0.778874
Si Si6 0.177314 0.764758 0.788766
Si Si7 0.125778 0.314202 0.695728
Si Si8 0.811396 0.430888 0.656660
O O1 0.819460 0.348308 0.160918
O O2 0.552030 0.497677 0.148914
O O3 0.000000 0.500000 0.000000
O O4 0.133323 0.370483 0.792123
O O5 0.551312 0.776399 0.779901
O O6 0.060393 0.845443 0.946030
O O7 0.069958 0.933333 0.123282
O O8 0.033817 0.764997 0.170693
O O9 0.863239 0.856871 0.447264
O O10 0.500000 0.000000 0.500000
O O11 0.894021 0.039603 0.382120
O O12 0.891801 0.863763 0.641200
O O13 0.118210 0.674940 0.436548
O O14 0.930535 0.816763 0.832782
O O15 0.500000 0.000000 0.000000
O O16 0.524334 0.748858 0.547649
O O17 0.899439 0.399824 0.733201
O O18 0.000000 0.500000 0.500000
#
# Coordination Sequence:
#
# PCOD8030346 Si02
#       8
#     2   2   2   2   2   2   2   2
#     4  11  27  43  70 108 143 186 234 298 365 423
#     4  11  21  44  72 100 134 184 237 292 346 419
#     4  12  26  46  74 101 138 195 240 291 358 426
#     4  12  26  46  70 107 147 179 244 302 352 425
#     4  12  28  47  71 105 148 192 230 300 370 420
#     4  11  25  47  69 103 146 184 241 295 349 436
#     4  11  22  45  71 101 141 185 237 291 352 423
#     4  12  23  46  74 104 139 192 239 292 358 428
#
# _framework density 21.847567000000002
#
# number of rings (size 3 to 8) (size 9 to 14) (size 15 to 20)
#    0.000    0.500    5.000    3.000    3.500    4.500 
#    2.250    0.000    0.000    0.000    0.000    0.000 
#    0.000    0.000    0.000    0.000    0.000    0.000 
#
# Total GULP energy -198305.508252 kJ/mol
# GULP energy per Si atom -12394.094266 kJ/mol
# Density = 2.179784 g / cm^3
# Si number density = 21.847567 Si / 1000 Ang^3
#
#
#
# Elastic Constant Matrix: (Units=GPa)
#
#
# Indices 1 2 3 4 5 6 
#
# 1 124.3029 45.4378 44.1044 -1.8882 7.6789 4.1639
# 2 45.4378 109.8814 39.6981 -2.1969 4.2810 -2.4022
# 3 44.1044 39.6981 106.7012 -7.7550 14.3066 -0.7324
# 4 -1.8882 -2.1969 -7.7550 28.3879 5.3889 -1.7604
# 5 7.6789 4.2810 14.3066 5.3889 37.2842 7.0954
# 6 4.1639 -2.4022 -0.7324 -1.7604 7.0954 54.6687
#
#
#
# Elastic Compliance Matrix: (Units=1/GPa)
#
#
# Indices 1 2 3 4 5 6 
#
# 1 0.010348 -0.003180 -0.003082 -0.000392 -0.000348 -0.000937
# 2 -0.003180 0.011505 -0.003028 -0.000184 0.000399 0.000649
# 3 -0.003082 -0.003028 0.012692 0.003973 -0.004653 0.001004
# 4 -0.000392 -0.000184 0.003973 0.037799 -0.007313 0.002241
# 5 -0.000348 0.000399 -0.004653 -0.007313 0.030491 -0.004211
# 6 -0.000937 0.000649 0.001004 0.002241 -0.004211 0.019024
#
#
# Mechanical properties :
#
#
# Convention : Reuss Voigt Hill
#
# Bulk Modulus (GPa) = 62.64268 66.59624 64.61946
# Shear Modulus (GPa) = 34.30273 38.17782 36.24027
#
# Velocity S-wave (km/s) = 3.96674 4.18480 4.07723
# Velocity P-wave (km/s) = 7.05088 7.34156 7.19769
#
# Compressibility (1/GPa) = 0.01596356
#
# Stress axis : x y z
#
# Youngs Moduli (GPa) = 96.63767 86.92013 78.78858
#
# Poissons Ratio (x) = 0.27642 0.24285
# Poissons Ratio (y) = 0.30733 0.23859
# Poissons Ratio (z) = 0.29786 0.26321
#
# Static dielectric constant tensor:
#      x y z
#    x 3.771140 -0.392130 -0.044930 
#    y -0.392130 3.371470 -0.502960 
#    z -0.044930 -0.502960 3.971360 
# 
# 
# High freq. dielectric constant tensor:
#      x y z
#    x 1.867510 0.006420 0.013180 
#    y 0.006420 1.868800 -0.001780 
#    z 0.013180 -0.001780 1.867730 
# 
# From -- ./inp_files/52462.got.cif
#   From: 2010.06.25/outbox.cif.g09.slc.cpg/sg2_27_cif.got.tgz:52462.got - 2010.06.27 13:26:56.
