data_PCOD8030501
_publ_section_title
;
Structure prediction by ZEFSAII (Michael W. Deem and Ramdas Pophale) SiO2 
 PCOD8030501
Probable space group: P -1
;
_chemical_formula_sum "Si O2"
_cell_formula_units_Z 14
_cell_length_a 9.981937
_cell_length_b 12.342084
_cell_length_c 9.652378
_cell_angle_alpha 103.568242
_cell_angle_beta 142.116124
_cell_angle_gamma 61.054402
_cell_volume 614.492279
_symmetry_space_group_name_H-M "P -1"
_symmetry_group_IT_number 2
_symmetry_cell_setting 'triclinic'
loop_
_space_group_symop_operation_xyz
x,y,z
-x,-y,-z
loop_
_atom_site_type_symbol
_atom_site_label
_atom_site_fract_x
_atom_site_fract_y
_atom_site_fract_z
Si Si1 0.107438 0.673396 0.951444
Si Si2 0.404858 0.837439 0.643560
Si Si3 0.772866 0.990110 0.213213
Si Si4 0.610174 0.211281 0.943162
Si Si5 0.541489 0.857871 0.482305
Si Si6 0.693836 0.621487 0.008756
Si Si7 0.944763 0.750371 0.129579
O O1 0.243238 0.523174 0.985361
O O2 0.814697 0.739997 0.703656
O O3 0.216741 0.735829 0.956954
O O4 0.147640 0.693350 0.153619
O O5 0.353765 0.845690 0.438583
O O6 0.186091 0.963670 0.585548
O O7 0.471764 0.703869 0.738134
O O8 0.664019 0.845993 0.869203
O O9 0.995354 0.843256 0.305302
O O10 0.500000 0.000000 0.000000
O O11 0.777089 0.086671 0.133697
O O12 0.505608 0.167027 0.718643
O O13 0.387549 0.321715 0.886330
O O14 0.500000 0.000000 0.500000
O O15 0.940473 0.633846 0.174893
#
# Coordination Sequence:
#
# PCOD8030501 Si02
#       7
#     2   2   2   2   2   2   2
#     4  11  22  38  59  90 119 151 200 240 283 352
#     4   7  16  31  57  78 107 155 191 224 286 347
#     4   9  14  32  57  82 106 155 194 223 289 349
#     4  11  22  36  63  89 116 154 192 245 297 335
#     4  11  23  36  59  89 123 149 188 249 303 333
#     4   9  19  37  63  81 116 166 193 227 294 351
#     4   8  16  29  60  81 104 154 195 226 279 344
#
# _framework density 22.783037
#
# number of rings (size 3 to 8) (size 9 to 14) (size 15 to 20)
#    0.857    1.714    1.429    3.429    0.000    2.857 
#    0.000    0.714    6.286    5.143    0.000    0.000 
#    0.000    0.000    0.000    0.000    0.000    0.000 
#
# Total GULP energy -173452.442228 kJ/mol
# GULP energy per Si atom -12389.460159 kJ/mol
# Density = 2.273118 g / cm^3
# Si number density = 22.783037 Si / 1000 Ang^3
#
#
#
# Elastic Constant Matrix: (Units=GPa)
#
#
# Indices 1 2 3 4 5 6 
#
# 1 174.4958 70.6137 36.3778 6.2317 -40.4056 -0.8139
# 2 70.6137 154.7249 30.7561 9.8865 -1.2811 -8.2238
# 3 36.3778 30.7561 42.5980 7.5503 -10.0220 -15.6673
# 4 6.2317 9.8865 7.5503 32.9514 -11.2426 -3.5983
# 5 -40.4056 -1.2811 -10.0220 -11.2426 13.4923 11.0003
# 6 -0.8139 -8.2238 -15.6673 -3.5983 11.0003 39.6309
#
#
#
# Elastic Compliance Matrix: (Units=1/GPa)
#
#
# Indices 1 2 3 4 5 6 
#
# 1 -0.012054 0.007382 -0.000716 -0.021060 -0.068161 0.018009
# 2 0.007382 0.003467 -0.006229 0.009481 0.034000 -0.010168
# 3 -0.000716 -0.006229 0.035545 0.000855 0.018000 0.007826
# 4 -0.021060 0.009481 0.000855 0.008987 -0.072688 0.022865
# 5 -0.068161 0.034000 0.018000 -0.072688 -0.231366 0.070391
# 6 0.018009 -0.010168 0.007826 0.022865 0.070391 0.009124
#
#
# Mechanical properties :
#
#
# Convention : Reuss Voigt Hill
#
# Bulk Modulus (GPa) = 35.92733 71.92377 53.92555
# Shear Modulus (GPa) = -28.10669 32.81967 2.35649
#
# Velocity S-wave (km/s) = -3.51617 3.79955 1.01812
# Velocity P-wave (km/s) = 0.82525 7.13346 5.01025
#
# Compressibility (1/GPa) = 0.02783396
#
# Stress axis : x y z
#
# Youngs Moduli (GPa) = -82.95739 288.40261 28.13299
#
# Poissons Ratio (x) = -2.12905 0.02014
# Poissons Ratio (y) = 0.61241 0.17523
# Poissons Ratio (z) = -0.05938 1.79636
#
# Static dielectric constant tensor:
#      x y z
#    x 4.728410 -0.309890 -0.261510 
#    y -0.309890 4.116060 0.281680 
#    z -0.261510 0.281680 3.895080 
# 
# 
# High freq. dielectric constant tensor:
#      x y z
#    x 1.929100 -0.010470 -0.008390 
#    y -0.010470 1.899270 0.017520 
#    z -0.008390 0.017520 1.873770 
# 
# From -- ./inp_files/188827.got.cif
#   From: 2010.06.25/outbox.cif.g09.slc.cpg/sg2_95_cif.got.tgz:188827.got - 2010.06.27 13:26:56.
