data_PCOD8030904
_publ_section_title
;
Structure prediction by ZEFSAII (Michael W. Deem and Ramdas Pophale) SiO2 
 PCOD8030904
Probable space group: P -1
;
_chemical_formula_sum "Si O2"
_cell_formula_units_Z 14
_cell_length_a 9.164184
_cell_length_b 9.018536
_cell_length_c 16.127907
_cell_angle_alpha 140.371470
_cell_angle_beta 123.054078
_cell_angle_gamma 78.461596
_cell_volume 649.385828
_symmetry_space_group_name_H-M "P -1"
_symmetry_group_IT_number 2
_symmetry_cell_setting 'triclinic'
loop_
_space_group_symop_operation_xyz
x,y,z
-x,-y,-z
loop_
_atom_site_type_symbol
_atom_site_label
_atom_site_fract_x
_atom_site_fract_y
_atom_site_fract_z
Si Si1 0.086567 0.149528 0.734782
Si Si2 0.973539 0.406262 0.543986
Si Si3 0.761597 0.004955 0.960241
Si Si4 0.818958 0.613980 0.719037
Si Si5 0.709538 0.214221 0.648127
Si Si6 0.689342 0.447555 0.161452
Si Si7 0.286594 0.357945 0.056178
O O1 0.208651 0.364717 0.800885
O O2 0.862797 0.090914 0.635561
O O3 0.117733 0.899022 0.611886
O O4 0.150690 0.228972 0.882188
O O5 0.832963 0.524823 0.591512
O O6 0.000000 0.500000 0.500000
O O7 0.173107 0.512583 0.700188
O O8 0.712811 0.806445 0.781433
O O9 0.748169 0.856421 0.977687
O O10 0.621821 0.152014 0.981876
O O11 0.971223 0.232290 0.110033
O O12 0.707842 0.357303 0.624487
O O13 0.763300 0.414138 0.826878
O O14 0.500000 0.000000 0.500000
O O15 0.505621 0.486590 0.150239
#
# Coordination Sequence:
#
# PCOD8030904 Si02
#       7
#     2   2   2   2   2   2   2
#     4  12  23  41  65  97 131 173 214 271 324 384
#     4  11  23  40  66  92 131 175 220 259 326 387
#     4   9  18  38  66  89 130 166 217 257 325 377
#     4   9  19  38  63  93 123 175 207 266 320 383
#     4  11  23  41  67  95 131 172 214 270 326 383
#     4  11  22  41  66  97 130 174 214 271 322 381
#     4  11  24  39  66  98 133 169 221 260 324 391
#
# _framework density 21.558831999999999
#
# number of rings (size 3 to 8) (size 9 to 14) (size 15 to 20)
#    0.000    1.429    2.857    4.286    2.000    0.000 
#    2.571    0.000    0.000    6.000    0.000    0.000 
#    0.000    0.000    0.000    0.000    0.000    0.000 
#
# Total GULP energy -173558.573972 kJ/mol
# GULP energy per Si atom -12397.040998 kJ/mol
# Density = 2.150976 g / cm^3
# Si number density = 21.558832 Si / 1000 Ang^3
#
#
#
# Elastic Constant Matrix: (Units=GPa)
#
#
# Indices 1 2 3 4 5 6 
#
# 1 106.0111 45.6812 38.7466 6.5374 -17.0835 24.6731
# 2 45.6812 102.4336 45.9646 23.4030 -17.8510 14.9304
# 3 38.7466 45.9646 98.0019 16.5164 -30.9407 9.1434
# 4 6.5374 23.4030 16.5164 27.2688 0.6691 0.1943
# 5 -17.0835 -17.8510 -30.9407 0.6691 53.3964 6.2680
# 6 24.6731 14.9304 9.1434 0.1943 6.2680 26.9368
#
#
#
# Elastic Compliance Matrix: (Units=1/GPa)
#
#
# Indices 1 2 3 4 5 6 
#
# 1 0.015103 -0.003515 -0.002088 0.000652 0.003857 -0.012080
# 2 -0.003515 0.016821 -0.002734 -0.011988 0.003765 -0.005966
# 3 -0.002088 -0.002734 0.016702 -0.007452 0.008683 -0.004208
# 4 0.000652 -0.011988 -0.007452 0.051488 -0.009999 0.010532
# 5 0.003857 0.003765 0.008683 -0.009999 0.028143 -0.015044
# 6 -0.012080 -0.005966 -0.004208 0.010532 -0.015044 0.056348
#
#
# Mechanical properties :
#
#
# Convention : Reuss Voigt Hill
#
# Bulk Modulus (GPa) = 31.29632 63.02572 47.16102
# Shear Modulus (GPa) = 23.59268 33.25735 28.42501
#
# Velocity S-wave (km/s) = 3.31167 3.93190 3.63504
# Velocity P-wave (km/s) = 5.40103 7.06476 6.28816
#
# Compressibility (1/GPa) = 0.03195264
#
# Stress axis : x y z
#
# Youngs Moduli (GPa) = 66.21038 59.44847 59.87427
#
# Poissons Ratio (x) = 0.20893 0.12502
# Poissons Ratio (y) = 0.23270 0.16371
# Poissons Ratio (z) = 0.13825 0.16255
#
# Static dielectric constant tensor:
#      x y z
#    x 4.336950 -0.150220 -0.510410 
#    y -0.150220 3.871680 0.358350 
#    z -0.510410 0.358350 3.983980 
# 
# 
# High freq. dielectric constant tensor:
#      x y z
#    x 1.860790 0.010820 -0.026920 
#    y 0.010820 1.837760 0.028680 
#    z -0.026920 0.028680 1.839970 
# 
# From -- ./inp_files/181497.got.cif
#   From: 2010.06.25/outbox.cif.g09.slc.cpg/sg2_91_cif.got.tgz:181497.got - 2010.06.27 13:26:56.
