data_PCOD8030804
_publ_section_title
;
Structure prediction by ZEFSAII (Michael W. Deem and Ramdas Pophale) SiO2 
 PCOD8030804
Probable space group: P -1
;
_chemical_formula_sum "Si O2"
_cell_formula_units_Z 14
_cell_length_a 6.724031
_cell_length_b 23.718629
_cell_length_c 14.603073
_cell_angle_alpha 18.064881
_cell_angle_beta 120.147412
_cell_angle_gamma 119.075982
_cell_volume 624.197331
_symmetry_space_group_name_H-M "P -1"
_symmetry_group_IT_number 2
_symmetry_cell_setting 'triclinic'
loop_
_space_group_symop_operation_xyz
x,y,z
-x,-y,-z
loop_
_atom_site_type_symbol
_atom_site_label
_atom_site_fract_x
_atom_site_fract_y
_atom_site_fract_z
Si Si1 0.627790 0.529088 0.172112
Si Si2 0.265239 0.534177 0.502865
Si Si3 0.536904 0.239886 0.939413
Si Si4 0.299983 0.882050 0.185305
Si Si5 0.846002 0.006035 0.826004
Si Si6 0.038521 0.795557 0.787650
Si Si7 0.137759 0.676712 0.791043
O O1 0.608381 0.501527 0.318370
O O2 0.636097 0.322873 0.454479
O O3 0.405473 0.631179 0.928696
O O4 0.849646 0.652982 0.004472
O O5 0.352105 0.395950 0.660836
O O6 0.327574 0.735219 0.165108
O O7 0.000000 0.500000 0.500000
O O8 0.709927 0.251321 0.046642
O O9 0.376890 0.058913 0.184337
O O10 0.238996 0.985988 0.102423
O O11 0.500000 0.000000 0.000000
O O12 0.070174 0.878103 0.073620
O O13 0.916520 0.195747 0.503837
O O14 0.043402 0.771329 0.716068
O O15 0.000000 0.000000 0.500000
O O16 0.000000 0.500000 0.000000
#
# Coordination Sequence:
#
# PCOD8030804 Si02
#       7
#     2   2   2   2   2   2   2
#     4  12  25  44  74 102 140 186 243 291 362 428
#     4  11  22  40  69 101 134 177 222 289 353 417
#     4  11  24  41  67 102 137 175 231 288 356 419
#     4  11  25  46  72 105 139 186 244 297 355 431
#     4  11  26  44  71 102 145 184 237 296 361 423
#     4  12  28  45  70 105 145 188 240 293 361 436
#     4  12  28  49  71 100 147 195 243 294 357 431
#
# _framework density 22.428805000000001
#
# number of rings (size 3 to 8) (size 9 to 14) (size 15 to 20)
#    0.000    0.571    2.857    4.286    4.000   10.286 
#    0.000    0.000    0.000    0.000    0.000    0.000 
#    0.000    0.000    0.000    0.000    0.000    0.000 
#
# Total GULP energy -173509.976643 kJ/mol
# GULP energy per Si atom -12393.569760 kJ/mol
# Density = 2.237776 g / cm^3
# Si number density = 22.428805 Si / 1000 Ang^3
#
#
#
# Elastic Constant Matrix: (Units=GPa)
#
#
# Indices 1 2 3 4 5 6 
#
# 1 114.0895 44.8258 31.6050 -7.9520 -5.4685 2.8460
# 2 44.8258 102.2281 12.4245 -2.4602 -5.1274 11.4099
# 3 31.6050 12.4245 89.4595 -7.6043 -4.4197 1.4618
# 4 -7.9520 -2.4602 -7.6043 46.1849 4.3874 -5.3375
# 5 -5.4685 -5.1274 -4.4197 4.3874 43.8752 1.9381
# 6 2.8460 11.4099 1.4618 -5.3375 1.9381 35.6329
#
#
#
# Elastic Compliance Matrix: (Units=1/GPa)
#
#
# Indices 1 2 3 4 5 6 
#
# 1 0.011641 -0.004748 -0.003341 0.001268 0.000393 0.000896
# 2 -0.004748 0.012315 0.000023 -0.000691 0.001083 -0.003728
# 3 -0.003341 0.000023 0.012511 0.001409 0.000709 -0.000081
# 4 0.001268 -0.000691 0.001409 0.022689 -0.002208 0.003581
# 5 0.000393 0.001083 0.000709 -0.002208 0.023348 -0.002008
# 6 0.000896 -0.003728 -0.000081 0.003581 -0.002008 0.029835
#
#
# Mechanical properties :
#
#
# Convention : Reuss Voigt Hill
#
# Bulk Modulus (GPa) = 49.17551 53.72083 51.44817
# Shear Modulus (GPa) = 36.96848 39.60006 38.28427
#
# Velocity S-wave (km/s) = 4.06428 4.20645 4.13598
# Velocity P-wave (km/s) = 6.63304 6.89899 6.76732
#
# Compressibility (1/GPa) = 0.02033532
#
# Stress axis : x y z
#
# Youngs Moduli (GPa) = 85.90435 81.20149 79.92688
#
# Poissons Ratio (x) = 0.38556 0.26700
# Poissons Ratio (y) = 0.40789 -0.00182
# Poissons Ratio (z) = 0.28697 -0.00185
#
# Static dielectric constant tensor:
#      x y z
#    x 6.361700 -1.649120 -1.289530 
#    y -1.649120 5.691900 1.175640 
#    z -1.289530 1.175640 4.944910 
# 
# 
# High freq. dielectric constant tensor:
#      x y z
#    x 1.904860 0.007490 -0.005760 
#    y 0.007490 1.886800 0.001120 
#    z -0.005760 0.001120 1.889500 
# 
# From -- ./inp_files/78704.got.cif
#   From: 2010.06.25/outbox.cif.g09.slc.cpg/sg2_40_cif.got.tgz:78704.got - 2010.06.27 13:26:56.
