data_PCOD8030055
_publ_section_title
;
Structure prediction by ZEFSAII (Michael W. Deem and Ramdas Pophale) SiO2 
 PCOD8030055
Probable space group: P -1
;
_chemical_formula_sum "Si O2"
_cell_formula_units_Z 16
_cell_length_a 15.344775
_cell_length_b 14.479454
_cell_length_c 14.345860
_cell_angle_alpha 29.083457
_cell_angle_beta 149.923580
_cell_angle_gamma 141.982953
_cell_volume 769.912000
_symmetry_space_group_name_H-M "P -1"
_symmetry_group_IT_number 2
_symmetry_cell_setting 'triclinic'
loop_
_space_group_symop_operation_xyz
x,y,z
-x,-y,-z
loop_
_atom_site_type_symbol
_atom_site_label
_atom_site_fract_x
_atom_site_fract_y
_atom_site_fract_z
Si Si1 0.267202 0.358321 0.049058
Si Si2 0.317986 0.954114 0.422899
Si Si3 0.599942 0.596129 0.214910
Si Si4 0.797598 0.453711 0.359339
Si Si5 0.733716 0.539524 0.585084
Si Si6 0.375983 0.294179 0.487643
Si Si7 0.875262 0.478452 0.065149
Si Si8 0.336894 0.881495 0.722584
O O1 0.446926 0.411390 0.229788
O O2 0.227069 0.145884 0.157614
O O3 0.291629 0.510240 0.853778
O O4 0.107797 0.387629 0.944583
O O5 0.231593 0.771828 0.445218
O O6 0.304047 0.906634 0.560975
O O7 0.500000 0.000000 0.500000
O O8 0.724272 0.589810 0.246828
O O9 0.723755 0.594978 0.419501
O O10 0.520854 0.796073 0.972474
O O11 0.000000 0.500000 0.500000
O O12 0.586047 0.357118 0.626658
O O13 0.690835 0.710993 0.462367
O O14 0.933361 0.498954 0.825459
O O15 0.339189 0.085157 0.594272
O O16 0.269190 0.451117 0.200229
O O17 0.811090 0.262327 0.233229
#
# Coordination Sequence:
#
# PCOD8030055 Si02
#       8
#     2   2   2   2   2   2   2   2
#     4  11  21  42  66  91 132 170 216 264 326 388
#     4  12  22  38  68  91 123 179 218 254 328 392
#     4  11  21  42  65  94 130 175 215 265 326 387
#     4  12  25  41  63  96 134 167 216 275 322 386
#     4  11  24  44  71  97 133 175 217 278 328 388
#     4  11  24  47  67  99 134 172 222 270 334 390
#     4  11  22  45  69  96 136 170 218 277 329 384
#     4  11  23  43  69  95 133 175 219 270 329 395
#
# _framework density 20.781594999999999
#
# number of rings (size 3 to 8) (size 9 to 14) (size 15 to 20)
#    0.000    0.750    7.500    2.250    0.000    1.500 
#    4.500    0.000    0.000    0.000    0.000    0.000 
#    0.000    0.000    0.000    0.000    0.000    0.000 
#
# Total GULP energy -198251.322087 kJ/mol
# GULP energy per Si atom -12390.707630 kJ/mol
# Density = 2.073429 g / cm^3
# Si number density = 20.781595 Si / 1000 Ang^3
#
#
#
# Elastic Constant Matrix: (Units=GPa)
#
#
# Indices 1 2 3 4 5 6 
#
# 1 121.3133 54.6017 33.4639 4.4546 25.2133 -4.9044
# 2 54.6017 104.7107 55.1691 -12.6059 15.0943 8.3413
# 3 33.4639 55.1691 76.8483 -7.5971 19.6979 6.1298
# 4 4.4546 -12.6059 -7.5971 36.1410 -0.9874 6.1817
# 5 25.2133 15.0943 19.6979 -0.9874 35.8647 5.9807
# 6 -4.9044 8.3413 6.1298 6.1817 5.9807 37.2884
#
#
#
# Elastic Compliance Matrix: (Units=1/GPa)
#
#
# Indices 1 2 3 4 5 6 
#
# 1 0.013321 -0.007037 0.000256 -0.005166 -0.007579 0.005356
# 2 -0.007037 0.019627 -0.010937 0.006402 0.003734 -0.005178
# 3 0.000256 -0.010937 0.022920 0.000769 -0.008126 -0.000112
# 4 -0.005166 0.006402 0.000769 0.032145 0.002735 -0.008006
# 5 -0.007579 0.003734 -0.008126 0.002735 0.037335 -0.006938
# 6 0.005356 -0.005178 -0.000112 -0.008006 -0.006938 0.031139
#
#
# Mechanical properties :
#
#
# Convention : Reuss Voigt Hill
#
# Bulk Modulus (GPa) = 48.94138 65.48241 57.21189
# Shear Modulus (GPa) = 25.15913 32.50133 28.83023
#
# Velocity S-wave (km/s) = 3.48321 3.95897 3.72868
# Velocity P-wave (km/s) = 6.30702 7.24404 6.79171
#
# Compressibility (1/GPa) = 0.02043261
#
# Stress axis : x y z
#
# Youngs Moduli (GPa) = 75.06682 50.94980 43.62935
#
# Poissons Ratio (x) = 0.35856 -0.01117
# Poissons Ratio (y) = 0.52828 0.47717
# Poissons Ratio (z) = -0.01922 0.55723
#
# Static dielectric constant tensor:
#      x y z
#    x 4.015040 -0.258770 0.121460 
#    y -0.258770 3.689710 -0.090000 
#    z 0.121460 -0.090000 3.688800 
# 
# 
# High freq. dielectric constant tensor:
#      x y z
#    x 1.839090 -0.011690 0.006700 
#    y -0.011690 1.798010 -0.005430 
#    z 0.006700 -0.005430 1.800660 
# 
# From -- ./inp_files/529822.got.cif
#   From: 2010.06.25/outbox.cif.g09.slc.cpg/sg2_265_cif.got.tgz:529822.got - 2010.06.27 13:26:56.
