data_PCOD8030932
_publ_section_title
;
Structure prediction by ZEFSAII (Michael W. Deem and Ramdas Pophale) SiO2 
 PCOD8030932
Probable space group: P -1
;
_chemical_formula_sum "Si O2"
_cell_formula_units_Z 16
_cell_length_a 16.290215
_cell_length_b 14.198934
_cell_length_c 11.626971
_cell_angle_alpha 32.370181
_cell_angle_beta 53.971529
_cell_angle_gamma 31.724874
_cell_volume 671.268450
_symmetry_space_group_name_H-M "P -1"
_symmetry_group_IT_number 2
_symmetry_cell_setting 'triclinic'
loop_
_space_group_symop_operation_xyz
x,y,z
-x,-y,-z
loop_
_atom_site_type_symbol
_atom_site_label
_atom_site_fract_x
_atom_site_fract_y
_atom_site_fract_z
Si Si1 0.005007 0.271809 0.406169
Si Si2 0.687220 0.293834 0.731059
Si Si3 0.761055 0.362902 0.189525
Si Si4 0.697440 0.773792 0.535268
Si Si5 0.099570 0.736811 0.277791
Si Si6 0.977761 0.365645 0.928655
Si Si7 0.363201 0.349597 0.766894
Si Si8 0.474067 0.652188 0.977351
O O1 0.020294 0.218686 0.588038
O O2 0.819716 0.478709 0.293589
O O3 0.044029 0.423179 0.199899
O O4 0.151945 0.952941 0.545418
O O5 0.823963 0.242261 0.714062
O O6 0.584654 0.546716 0.454628
O O7 0.555653 0.425895 0.805087
O O8 0.812563 0.953816 0.939322
O O9 0.633821 0.583590 0.173699
O O10 0.646726 0.525318 0.997172
O O11 0.913216 0.294860 0.132988
O O12 0.747722 0.588251 0.574606
O O13 0.852718 0.539235 0.741190
O O14 0.500000 0.000000 0.500000
O O15 0.691129 0.986833 0.281719
O O16 0.000000 0.000000 0.000000
O O17 0.500000 0.000000 0.000000
O O18 0.500000 0.500000 0.000000
#
# Coordination Sequence:
#
# PCOD8030932 Si02
#       8
#     2   2   2   2   2   2   2   2
#     4  11  26  46  74 108 145 195 255 305 378 447
#     4  11  26  46  72 107 149 197 252 306 380 445
#     4  12  26  51  75 109 153 197 252 315 373 443
#     4  12  24  40  69 107 151 196 244 300 373 447
#     4  11  22  41  68 100 150 194 241 305 366 447
#     4  12  25  45  77 111 148 201 247 304 378 448
#     4  11  28  51  79 106 151 196 254 322 376 438
#     4  12  28  44  74 114 154 193 247 309 378 449
#
# _framework density 23.835470999999998
#
# number of rings (size 3 to 8) (size 9 to 14) (size 15 to 20)
#    0.000    0.500    5.000    2.625    8.750    4.000 
#    0.000    0.000    0.000    0.000    0.000    0.000 
#    0.000    0.000    0.000    0.000    0.000    0.000 
#
# Total GULP energy -198341.053487 kJ/mol
# GULP energy per Si atom -12396.315843 kJ/mol
# Density = 2.378122 g / cm^3
# Si number density = 23.835471 Si / 1000 Ang^3
#
#
#
# Elastic Constant Matrix: (Units=GPa)
#
#
# Indices 1 2 3 4 5 6 
#
# 1 85.3007 29.0143 40.3203 -3.4678 -16.7701 21.0868
# 2 29.0143 127.1639 53.8783 -16.3590 -12.3977 30.4955
# 3 40.3203 53.8783 141.7140 -29.9279 -15.9673 22.0329
# 4 -3.4678 -16.3590 -29.9279 44.7804 4.2438 -7.4152
# 5 -16.7701 -12.3977 -15.9673 4.2438 46.4409 -6.1886
# 6 21.0868 30.4955 22.0329 -7.4152 -6.1886 39.7455
#
#
#
# Elastic Compliance Matrix: (Units=1/GPa)
#
#
# Indices 1 2 3 4 5 6 
#
# 1 0.015636 -0.000711 -0.003417 -0.002643 0.003755 -0.005764
# 2 -0.000711 0.010836 -0.002651 0.001037 0.000810 -0.006147
# 3 -0.003417 -0.002651 0.010436 0.005519 0.001042 -0.000746
# 4 -0.002643 0.001037 0.005519 0.026674 -0.000900 0.002384
# 5 0.003755 0.000810 0.001042 -0.000900 0.023587 0.000313
# 6 -0.005764 -0.006147 -0.000746 0.002384 0.000313 0.033842
#
#
# Mechanical properties :
#
#
# Convention : Reuss Voigt Hill
#
# Bulk Modulus (GPa) = 42.83047 66.73382 54.78215
# Shear Modulus (GPa) = 35.12382 41.59108 38.35745
#
# Velocity S-wave (km/s) = 3.84291 4.18176 4.01591
# Velocity P-wave (km/s) = 6.13994 7.16761 6.67358
#
# Compressibility (1/GPa) = 0.02334786
#
# Stress axis : x y z
#
# Youngs Moduli (GPa) = 63.95436 92.28364 95.82499
#
# Poissons Ratio (x) = 0.06565 0.32746
# Poissons Ratio (y) = 0.04550 0.25407
# Poissons Ratio (z) = 0.21855 0.24468
#
# Static dielectric constant tensor:
#      x y z
#    x 4.302230 -0.039380 -0.330620 
#    y -0.039380 4.273020 -0.126540 
#    z -0.330620 -0.126540 4.299270 
# 
# 
# High freq. dielectric constant tensor:
#      x y z
#    x 1.947670 0.007970 -0.007430 
#    y 0.007970 1.936670 -0.004430 
#    z -0.007430 -0.004430 1.961980 
# 
# From -- ./inp_files/399930.got.cif
#   From: 2010.06.25/outbox.cif.g09.slc.cpg/sg2_200_cif.got.tgz:399930.got - 2010.06.27 13:26:56.
