data_PCOD8030217
_publ_section_title
;
Structure prediction by ZEFSAII (Michael W. Deem and Ramdas Pophale) SiO2 
 PCOD8030217
Probable space group: P -1
;
_chemical_formula_sum "Si O2"
_cell_formula_units_Z 16
_cell_length_a 11.101906
_cell_length_b 9.267164
_cell_length_c 10.578380
_cell_angle_alpha 59.254866
_cell_angle_beta 125.001655
_cell_angle_gamma 88.643002
_cell_volume 684.171662
_symmetry_space_group_name_H-M "P -1"
_symmetry_group_IT_number 2
_symmetry_cell_setting 'triclinic'
loop_
_space_group_symop_operation_xyz
x,y,z
-x,-y,-z
loop_
_atom_site_type_symbol
_atom_site_label
_atom_site_fract_x
_atom_site_fract_y
_atom_site_fract_z
Si Si1 0.441077 0.543886 0.242741
Si Si2 0.679375 0.204293 0.418920
Si Si3 0.255206 0.567560 0.858382
Si Si4 0.558465 0.854013 0.208697
Si Si5 0.143079 0.194855 0.215520
Si Si6 0.067276 0.412984 0.441296
Si Si7 0.830855 0.479221 0.778305
Si Si8 0.391851 0.157189 0.172002
O O1 0.622287 0.364780 0.420233
O O2 0.478571 0.716747 0.199987
O O3 0.346596 0.521138 0.319999
O O4 0.317612 0.568938 0.037923
O O5 0.688519 0.304457 0.249499
O O6 0.531123 0.148136 0.355073
O O7 0.838938 0.007337 0.632239
O O8 0.058255 0.648171 0.681166
O O9 0.332073 0.345968 0.962771
O O10 0.755982 0.766509 0.363642
O O11 0.476691 0.962273 0.238053
O O12 0.500000 0.000000 0.000000
O O13 0.196926 0.310312 0.295676
O O14 0.238613 0.166308 0.154142
O O15 0.950633 0.319809 0.016807
O O16 0.098005 0.561108 0.304244
O O17 0.000000 0.500000 0.500000
#
# Coordination Sequence:
#
# PCOD8030217 Si02
#       8
#     2   2   2   2   2   2   2   2
#     4  11  24  45  72 107 142 186 243 293 347 424
#     4  11  22  38  72 110 139 182 243 296 344 418
#     4  11  22  47  77 100 145 190 239 290 349 426
#     4  12  27  45  71 106 147 188 232 293 364 421
#     4  11  22  42  71 108 141 182 240 296 355 418
#     4  12  26  46  70 101 143 191 232 287 364 424
#     4  11  23  45  72 100 142 190 237 294 356 426
#     4  11  21  43  70 103 147 185 235 291 359 422
#
# _framework density 23.385943000000001
#
# number of rings (size 3 to 8) (size 9 to 14) (size 15 to 20)
#    0.000    0.750    3.750    6.375    1.750    1.500 
#    2.250    5.625    0.000    0.000    0.000    0.000 
#    0.000    0.000    0.000    0.000    0.000    0.000 
#
# Total GULP energy -198256.992355 kJ/mol
# GULP energy per Si atom -12391.062022 kJ/mol
# Density = 2.333272 g / cm^3
# Si number density = 23.385943 Si / 1000 Ang^3
#
#
#
# Elastic Constant Matrix: (Units=GPa)
#
#
# Indices 1 2 3 4 5 6 
#
# 1 118.0911 42.2861 17.8593 -14.1429 0.0329 -11.1245
# 2 42.2861 110.6682 37.5795 -34.1497 1.9095 -2.8372
# 3 17.8593 37.5795 109.7590 -26.6567 1.5286 3.1009
# 4 -14.1429 -34.1497 -26.6567 28.6626 7.9898 -0.2745
# 5 0.0329 1.9095 1.5286 7.9898 41.6476 -1.3417
# 6 -11.1245 -2.8372 3.1009 -0.2745 -1.3417 34.4483
#
#
#
# Elastic Compliance Matrix: (Units=1/GPa)
#
#
# Indices 1 2 3 4 5 6 
#
# 1 0.010129 -0.003541 -0.000441 0.000341 0.000203 0.003030
# 2 -0.003541 0.016322 -0.000480 0.018442 -0.004259 0.000225
# 3 -0.000441 -0.000480 0.012146 0.011223 -0.002618 -0.001288
# 4 0.000341 0.018442 0.011223 0.071650 -0.014984 0.000606
# 5 0.000203 -0.004259 -0.002618 -0.014984 0.027205 0.000891
# 6 0.003030 0.000225 -0.001288 0.000606 0.000891 0.030181
#
#
# Mechanical properties :
#
#
# Convention : Reuss Voigt Hill
#
# Bulk Modulus (GPa) = 33.70219 59.32980 46.51599
# Shear Modulus (GPa) = 26.81692 37.00461 31.91076
#
# Velocity S-wave (km/s) = 3.38999 3.98218 3.69796
# Velocity P-wave (km/s) = 5.45575 6.82412 6.17794
#
# Compressibility (1/GPa) = 0.02967166
#
# Stress axis : x y z
#
# Youngs Moduli (GPa) = 98.72716 61.26602 82.33381
#
# Poissons Ratio (x) = 0.21694 0.03634
# Poissons Ratio (y) = 0.34959 0.03955
# Poissons Ratio (z) = 0.04357 0.02943
#
# Static dielectric constant tensor:
#      x y z
#    x 4.286640 -0.101350 0.065950 
#    y -0.101350 4.063960 -0.098400 
#    z 0.065950 -0.098400 4.413410 
# 
# 
# High freq. dielectric constant tensor:
#      x y z
#    x 1.938260 -0.004640 0.002130 
#    y -0.004640 1.904570 -0.008430 
#    z 0.002130 -0.008430 1.932690 
# 
# From -- ./inp_files/419210.got.cif
#   From: 2010.06.25/outbox.cif.g09.slc.cpg/sg2_210_cif.got.tgz:419210.got - 2010.06.27 13:26:56.
