data_PCOD8030852
_publ_section_title
;
Structure prediction by ZEFSAII (Michael W. Deem and Ramdas Pophale) SiO2 
 PCOD8030852
Probable space group: P -1
;
_chemical_formula_sum "Si O2"
_cell_formula_units_Z 14
_cell_length_a 5.576990
_cell_length_b 11.752532
_cell_length_c 11.453547
_cell_angle_alpha 70.820866
_cell_angle_beta 99.158999
_cell_angle_gamma 123.626837
_cell_volume 590.144435
_symmetry_space_group_name_H-M "P -1"
_symmetry_group_IT_number 2
_symmetry_cell_setting 'triclinic'
loop_
_space_group_symop_operation_xyz
x,y,z
-x,-y,-z
loop_
_atom_site_type_symbol
_atom_site_label
_atom_site_fract_x
_atom_site_fract_y
_atom_site_fract_z
Si Si1 0.778940 0.657087 0.458684
Si Si2 0.502305 0.066922 0.222021
Si Si3 0.413691 0.528664 0.105650
Si Si4 0.825020 0.910560 0.260920
Si Si5 0.442841 0.800713 0.060289
Si Si6 0.039482 0.380630 0.746418
Si Si7 0.945565 0.335007 0.291480
O O1 0.500000 0.500000 0.500000
O O2 0.682825 0.764301 0.373530
O O3 0.998371 0.657858 0.380420
O O4 0.943515 0.714201 0.574878
O O5 0.636774 0.207014 0.267435
O O6 0.689987 0.995121 0.281293
O O7 0.535100 0.095524 0.075251
O O8 0.171050 0.984255 0.265928
O O9 0.346230 0.651090 0.040290
O O10 0.653335 0.588168 0.203407
O O11 0.149093 0.376873 0.179788
O O12 0.500000 0.500000 0.000000
O O13 0.741795 0.877380 0.128797
O O14 0.198447 0.760152 0.153486
O O15 0.036612 0.521566 0.718557
#
# Coordination Sequence:
#
# PCOD8030852 Si02
#       7
#     2   2   2   2   2   2   2
#     4  12  24  49  78 105 141 189 254 311 368 430
#     4  12  29  47  74 108 156 201 240 298 374 447
#     4  11  22  40  74 109 144 178 245 308 365 428
#     4  12  28  48  73 110 145 200 252 295 367 451
#     4  11  24  46  73 108 146 192 247 307 366 430
#     4  11  22  43  75 110 140 186 251 306 364 430
#     4  11  26  44  70 111 147 198 239 303 373 430
#
# _framework density 23.723006000000002
#
# number of rings (size 3 to 8) (size 9 to 14) (size 15 to 20)
#    0.000    0.571    2.857    4.714    6.000    4.571 
#    0.000    0.000    0.000    0.000    0.000    0.000 
#    0.000    0.000    0.000    0.000    0.000    0.000 
#
# Total GULP energy -173576.167553 kJ/mol
# GULP energy per Si atom -12398.297682 kJ/mol
# Density = 2.366901 g / cm^3
# Si number density = 23.723006 Si / 1000 Ang^3
#
#
#
# Elastic Constant Matrix: (Units=GPa)
#
#
# Indices 1 2 3 4 5 6 
#
# 1 124.0865 40.1482 35.0933 -15.9501 -6.8798 6.2239
# 2 40.1482 89.4628 36.1391 -4.5688 0.8974 20.3900
# 3 35.0933 36.1391 111.8968 -11.2765 8.4318 -2.5274
# 4 -15.9501 -4.5688 -11.2765 40.5349 -2.6046 1.8756
# 5 -6.8798 0.8974 8.4318 -2.6046 37.8094 0.3997
# 6 6.2239 20.3900 -2.5274 1.8756 0.3997 39.4334
#
#
#
# Elastic Compliance Matrix: (Units=1/GPa)
#
#
# Indices 1 2 3 4 5 6 
#
# 1 0.010381 -0.003741 -0.001913 0.003300 0.002632 -0.000010
# 2 -0.003741 0.016465 -0.004372 -0.000457 -0.000042 -0.008181
# 3 -0.001913 -0.004372 0.011387 0.001598 -0.002708 0.003244
# 4 0.003300 -0.000457 0.001598 0.026565 0.002100 -0.001467
# 5 0.002632 -0.000042 -0.002708 0.002100 0.027687 -0.000948
# 6 -0.000010 -0.008181 0.003244 -0.001467 -0.000948 0.029878
#
#
# Mechanical properties :
#
#
# Convention : Reuss Voigt Hill
#
# Bulk Modulus (GPa) = 55.00605 60.91193 57.95899
# Shear Modulus (GPa) = 33.67549 37.82659 35.75104
#
# Velocity S-wave (km/s) = 3.77175 3.99746 3.88625
# Velocity P-wave (km/s) = 6.49656 6.85845 6.67996
#
# Compressibility (1/GPa) = 0.01817982
#
# Stress axis : x y z
#
# Youngs Moduli (GPa) = 96.32771 60.73668 87.81771
#
# Poissons Ratio (x) = 0.22724 0.16803
# Poissons Ratio (y) = 0.36040 0.38392
# Poissons Ratio (z) = 0.18431 0.26553
#
# Static dielectric constant tensor:
#      x y z
#    x 4.414740 0.072730 0.258410 
#    y 0.072730 4.358850 -0.011540 
#    z 0.258410 -0.011540 4.724640 
# 
# 
# High freq. dielectric constant tensor:
#      x y z
#    x 1.938870 0.000010 0.001100 
#    y 0.000010 1.949300 -0.003630 
#    z 0.001100 -0.003630 1.944400 
# 
# From -- ./inp_files/60732.got.cif
#   From: 2010.06.25/outbox.cif.g09.slc.cpg/sg2_31_cif.got.tgz:60732.got - 2010.06.27 13:26:56.
