data_PCOD8030593
_publ_section_title
;
Structure prediction by ZEFSAII (Michael W. Deem and Ramdas Pophale) SiO2 
 PCOD8030593
Probable space group: P -1
;
_chemical_formula_sum "Si O2"
_cell_formula_units_Z 14
_cell_length_a 16.241684
_cell_length_b 12.001186
_cell_length_c 12.433287
_cell_angle_alpha 34.178456
_cell_angle_beta 153.407231
_cell_angle_gamma 133.924472
_cell_volume 599.136195
_symmetry_space_group_name_H-M "P -1"
_symmetry_group_IT_number 2
_symmetry_cell_setting 'triclinic'
loop_
_space_group_symop_operation_xyz
x,y,z
-x,-y,-z
loop_
_atom_site_type_symbol
_atom_site_label
_atom_site_fract_x
_atom_site_fract_y
_atom_site_fract_z
Si Si1 0.690879 0.349970 0.622422
Si Si2 0.715451 0.397442 0.847888
Si Si3 0.755347 0.005041 0.340866
Si Si4 0.601004 0.935934 0.801693
Si Si5 0.083364 0.276458 0.077412
Si Si6 0.200951 0.070432 0.173314
Si Si7 0.382515 0.200605 0.839170
O O1 0.777454 0.299160 0.883254
O O2 0.577364 0.180075 0.588080
O O3 0.567270 0.576034 0.295188
O O4 0.863405 0.352913 0.739844
O O5 0.500000 0.500000 0.500000
O O6 0.827227 0.569995 0.870448
O O7 0.769362 0.224686 0.137953
O O8 0.901437 0.928319 0.668335
O O9 0.775863 0.839745 0.399108
O O10 0.556208 0.023714 0.154960
O O11 0.753115 0.850262 0.954937
O O12 0.388601 0.900753 0.555623
O O13 0.681062 0.824984 0.092410
O O14 0.185937 0.242959 0.108979
O O15 0.000000 0.000000 0.000000
#
# Coordination Sequence:
#
# PCOD8030593 Si02
#       7
#     2   2   2   2   2   2   2
#     4  12  24  41  68 104 141 173 223 285 344 405
#     4  12  22  39  67 101 138 178 220 275 348 408
#     4  11  22  38  68  99 142 178 218 275 343 415
#     4  11  24  46  75  95 135 187 225 280 344 400
#     4  12  25  43  66 101 142 175 227 287 334 406
#     4  11  24  48  73  95 133 187 233 279 334 401
#     4  11  22  40  67 105 134 176 224 273 343 415
#
# _framework density 23.366973999999999
#
# number of rings (size 3 to 8) (size 9 to 14) (size 15 to 20)
#    0.000    0.571    7.143    2.143    0.000    1.714 
#    0.000    5.000    0.000    0.000    0.000    0.000 
#    0.000    0.000    0.000    0.000    0.000    0.000 
#
# Total GULP energy -173487.428238 kJ/mol
# GULP energy per Si atom -12391.959160 kJ/mol
# Density = 2.331379 g / cm^3
# Si number density = 23.366974 Si / 1000 Ang^3
#
#
#
# Elastic Constant Matrix: (Units=GPa)
#
#
# Indices 1 2 3 4 5 6 
#
# 1 171.5747 24.6429 29.2852 3.1428 -9.4890 -16.9524
# 2 24.6429 74.0018 38.0320 -2.9184 -9.3461 5.6847
# 3 29.2852 38.0320 52.2104 0.7115 -0.0798 1.3551
# 4 3.1428 -2.9184 0.7115 37.1369 11.5357 1.8994
# 5 -9.4890 -9.3461 -0.0798 11.5357 39.7038 6.1677
# 6 -16.9524 5.6847 1.3551 1.8994 6.1677 33.8009
#
#
#
# Elastic Compliance Matrix: (Units=1/GPa)
#
#
# Indices 1 2 3 4 5 6 
#
# 1 0.006967 -0.000692 -0.003479 -0.001157 0.001275 0.003583
# 2 -0.000692 0.023347 -0.016496 0.000635 0.005845 -0.004714
# 3 -0.003479 -0.016496 0.033102 -0.000213 -0.004674 0.000567
# 4 -0.001157 0.000635 -0.000213 0.029812 -0.008669 -0.000772
# 5 0.001275 0.005845 -0.004674 -0.008669 0.030181 -0.005176
# 6 0.003583 -0.004714 0.000567 -0.000772 -0.005176 0.033140
#
#
# Mechanical properties :
#
#
# Convention : Reuss Voigt Hill
#
# Bulk Modulus (GPa) = 45.28577 53.52302 49.40440
# Shear Modulus (GPa) = 24.36133 35.85011 30.10572
#
# Velocity S-wave (km/s) = 3.23236 3.92116 3.59331
# Velocity P-wave (km/s) = 5.77522 6.59210 6.19714
#
# Compressibility (1/GPa) = 0.02208199
#
# Stress axis : x y z
#
# Youngs Moduli (GPa) = 143.52847 42.83239 30.20942
#
# Poissons Ratio (x) = 0.02963 0.10511
# Poissons Ratio (y) = 0.09929 0.49834
# Poissons Ratio (z) = 0.49938 0.70657
#
# Static dielectric constant tensor:
#      x y z
#    x 4.470900 0.074760 0.288040 
#    y 0.074760 3.524050 -0.316970 
#    z 0.288040 -0.316970 3.610830 
# 
# 
# High freq. dielectric constant tensor:
#      x y z
#    x 1.945860 -0.009960 0.006160 
#    y -0.009960 1.902360 0.008060 
#    z 0.006160 0.008060 1.901940 
# 
# From -- ./inp_files/424885.got.cif
#   From: 2010.06.25/outbox.cif.g09.slc.cpg/sg2_213_cif.got.tgz:424885.got - 2010.06.27 13:26:56.
