data_PCOD8030750
_publ_section_title
;
Structure prediction by ZEFSAII (Michael W. Deem and Ramdas Pophale) SiO2 
 PCOD8030750
Probable space group: P -1
;
_chemical_formula_sum "Si O2"
_cell_formula_units_Z 16
_cell_length_a 8.581582
_cell_length_b 15.586444
_cell_length_c 8.991356
_cell_angle_alpha 94.254577
_cell_angle_beta 110.409614
_cell_angle_gamma 43.788576
_cell_volume 750.188404
_symmetry_space_group_name_H-M "P -1"
_symmetry_group_IT_number 2
_symmetry_cell_setting 'triclinic'
loop_
_space_group_symop_operation_xyz
x,y,z
-x,-y,-z
loop_
_atom_site_type_symbol
_atom_site_label
_atom_site_fract_x
_atom_site_fract_y
_atom_site_fract_z
Si Si1 0.658346 0.851404 0.521824
Si Si2 0.499182 0.366389 0.219025
Si Si3 0.357596 0.232731 0.179479
Si Si4 0.087229 0.734238 0.449661
Si Si5 0.089174 0.021364 0.670829
Si Si6 0.892321 0.340609 0.873130
Si Si7 0.172266 0.801393 0.973489
Si Si8 0.731756 0.084186 0.794746
O O1 0.688155 0.793708 0.681043
O O2 0.521629 0.841132 0.360338
O O3 0.938145 0.750672 0.540174
O O4 0.500000 0.000000 0.500000
O O5 0.335198 0.344766 0.196564
O O6 0.642659 0.338675 0.413969
O O7 0.311044 0.512335 0.121312
O O8 0.708248 0.273649 0.150850
O O9 0.635465 0.107066 0.199698
O O10 0.165132 0.267264 0.002593
O O11 0.118835 0.659102 0.309952
O O12 0.911245 0.879416 0.358330
O O13 0.906387 0.076147 0.751222
O O14 0.000000 0.000000 0.500000
O O15 0.819867 0.277595 0.913633
O O16 0.325688 0.827909 0.078171
O O17 0.881547 0.939722 0.870536
#
# Coordination Sequence:
#
# PCOD8030750 Si02
#       8
#     2   2   2   2   2   2   2   2
#     4  12  23  40  68 100 139 166 214 271 347 398
#     4  12  25  49  69  90 136 189 221 263 334 399
#     4  12  25  42  70 101 131 174 222 273 334 392
#     4  12  25  43  70 100 131 174 225 275 333 396
#     4  12  19  41  71  97 132 170 213 273 342 395
#     4  12  28  45  66 100 135 176 230 276 314 396
#     4  11  24  41  71  96 135 174 224 270 339 389
#     4  11  22  40  66 106 134 169 214 283 335 399
#
# _framework density 21.327974999999999
#
# number of rings (size 3 to 8) (size 9 to 14) (size 15 to 20)
#    0.000    0.250    6.250    3.375    1.750    0.500 
#    0.000    0.625    0.000    0.000    0.000    0.000 
#    0.000    0.000    0.000    0.000    0.000    0.000 
#
# Total GULP energy -198442.708701 kJ/mol
# GULP energy per Si atom -12402.669294 kJ/mol
# Density = 2.127943 g / cm^3
# Si number density = 21.327975 Si / 1000 Ang^3
#
#
#
# Elastic Constant Matrix: (Units=GPa)
#
#
# Indices 1 2 3 4 5 6 
#
# 1 91.4932 29.1155 25.3944 2.4475 -2.0766 12.2079
# 2 29.1155 101.1092 28.0860 -5.0951 8.0409 14.3930
# 3 25.3944 28.0860 108.6164 10.3958 21.5693 0.2677
# 4 2.4475 -5.0951 10.3958 26.4567 1.7109 -1.8902
# 5 -2.0766 8.0409 21.5693 1.7109 45.7868 -5.8857
# 6 12.2079 14.3930 0.2677 -1.8902 -5.8857 22.2088
#
#
#
# Elastic Compliance Matrix: (Units=1/GPa)
#
#
# Indices 1 2 3 4 5 6 
#
# 1 0.013238 -0.002515 -0.002650 -0.001151 0.001656 -0.005274
# 2 -0.002515 0.012674 -0.002558 0.003312 -0.002171 -0.007094
# 3 -0.002650 -0.002558 0.011898 -0.004512 -0.004943 0.001277
# 4 -0.001151 0.003312 -0.004512 0.040445 0.000243 0.002048
# 5 0.001656 -0.002171 -0.004943 0.000243 0.025561 0.007351
# 6 -0.005274 -0.007094 0.001277 0.002048 0.007351 0.054631
#
#
# Mechanical properties :
#
#
# Convention : Reuss Voigt Hill
#
# Bulk Modulus (GPa) = 44.71373 51.82338 48.26856
# Shear Modulus (GPa) = 27.57127 33.46531 30.51829
#
# Velocity S-wave (km/s) = 3.59935 3.96546 3.78683
# Velocity P-wave (km/s) = 6.18742 6.73183 6.46536
#
# Compressibility (1/GPa) = 0.02236449
#
# Stress axis : x y z
#
# Youngs Moduli (GPa) = 75.54177 78.89962 84.04717
#
# Poissons Ratio (x) = 0.19840 0.22275
# Poissons Ratio (y) = 0.18996 0.21498
# Poissons Ratio (z) = 0.20021 0.20182
#
# Static dielectric constant tensor:
#      x y z
#    x 3.976080 0.076780 -0.108630 
#    y 0.076780 3.915490 0.267580 
#    z -0.108630 0.267580 4.221560 
# 
# 
# High freq. dielectric constant tensor:
#      x y z
#    x 1.841090 0.010230 -0.000110 
#    y 0.010230 1.823680 0.005110 
#    z -0.000110 0.005110 1.852320 
# 
# From -- ./inp_files/205386.got.cif
#   From: 2010.06.25/outbox.cif.g09.slc.cpg/sg2_103_cif.got.tgz:205386.got - 2010.06.27 13:26:56.
