data_PCOD8030190
_publ_section_title
;
Structure prediction by ZEFSAII (Michael W. Deem and Ramdas Pophale) SiO2 
 PCOD8030190
Probable space group: P -1
;
_chemical_formula_sum "Si O2"
_cell_formula_units_Z 16
_cell_length_a 7.771971
_cell_length_b 9.650986
_cell_length_c 13.654419
_cell_angle_alpha 90.486982
_cell_angle_beta 50.100357
_cell_angle_gamma 105.733723
_cell_volume 737.054567
_symmetry_space_group_name_H-M "P -1"
_symmetry_group_IT_number 2
_symmetry_cell_setting 'triclinic'
loop_
_space_group_symop_operation_xyz
x,y,z
-x,-y,-z
loop_
_atom_site_type_symbol
_atom_site_label
_atom_site_fract_x
_atom_site_fract_y
_atom_site_fract_z
Si Si1 0.983284 0.722440 0.284294
Si Si2 0.451754 0.190727 0.574566
Si Si3 0.553013 0.094727 0.338327
Si Si4 0.148304 0.008467 0.347928
Si Si5 0.181418 0.669799 0.023242
Si Si6 0.730466 0.716391 0.814196
Si Si7 0.038878 0.562417 0.594990
Si Si8 0.005501 0.332413 0.110067
O O1 0.166516 0.761534 0.125706
O O2 0.726398 0.720798 0.340356
O O3 0.937577 0.561829 0.342752
O O4 0.098817 0.845765 0.324135
O O5 0.392441 0.116112 0.487608
O O6 0.723458 0.294939 0.489164
O O7 0.390590 0.055799 0.672055
O O8 0.423498 0.082616 0.281342
O O9 0.785893 0.240581 0.258063
O O10 0.113905 0.116509 0.276238
O O11 0.000000 0.000000 0.500000
O O12 0.024903 0.501346 0.104475
O O13 0.450026 0.681738 0.899527
O O14 0.050702 0.724824 0.981817
O O15 0.770207 0.692827 0.916252
O O16 0.814002 0.605460 0.715198
O O17 0.000000 0.500000 0.500000
#
# Coordination Sequence:
#
# PCOD8030190 Si02
#       8
#     2   2   2   2   2   2   2   2
#     4  12  25  44  67 105 146 176 237 295 345 417
#     4  11  23  41  70  98 143 175 230 294 352 421
#     4  11  21  43  68 101 130 188 233 280 357 424
#     4  12  24  43  72 104 140 185 228 292 359 422
#     4  11  26  46  70 102 137 195 239 286 345 418
#     4  12  24  47  74 100 142 191 233 283 352 429
#     4  12  26  42  70 110 139 178 230 298 365 412
#     4  11  23  45  71  97 134 188 243 277 347 417
#
# _framework density 21.708027999999999
#
# number of rings (size 3 to 8) (size 9 to 14) (size 15 to 20)
#    0.000    0.500    5.000    3.750    0.000    2.500 
#    2.250    1.250    0.000    0.000    0.000    0.000 
#    0.000    0.000    0.000    0.000    0.000    0.000 
#
# Total GULP energy -198378.986967 kJ/mol
# GULP energy per Si atom -12398.686685 kJ/mol
# Density = 2.165862 g / cm^3
# Si number density = 21.708028 Si / 1000 Ang^3
#
#
#
# Elastic Constant Matrix: (Units=GPa)
#
#
# Indices 1 2 3 4 5 6 
#
# 1 124.7474 27.8872 48.5764 2.6454 16.3113 -1.2494
# 2 27.8872 96.2670 52.8917 -10.7754 -2.4236 -7.5750
# 3 48.5764 52.8917 112.2725 7.7156 4.2889 -4.8086
# 4 2.6454 -10.7754 7.7156 38.1755 -5.3992 5.6103
# 5 16.3113 -2.4236 4.2889 -5.3992 36.1914 -4.8155
# 6 -1.2494 -7.5750 -4.8086 5.6103 -4.8155 40.9001
#
#
#
# Elastic Compliance Matrix: (Units=1/GPa)
#
#
# Indices 1 2 3 4 5 6 
#
# 1 0.010332 -0.001234 -0.003690 -0.000847 -0.004530 -0.000764
# 2 -0.001234 0.015716 -0.007374 0.006295 0.003631 0.001570
# 3 -0.003690 -0.007374 0.014400 -0.005016 -0.001184 0.000763
# 4 -0.000847 0.006295 -0.005016 0.030258 0.005519 -0.002950
# 5 -0.004530 0.003631 -0.001184 0.005519 0.031322 0.003326
# 6 -0.000764 0.001570 0.000763 -0.002950 0.003326 0.025603
#
#
# Mechanical properties :
#
#
# Convention : Reuss Voigt Hill
#
# Bulk Modulus (GPa) = 63.08736 65.77748 64.43242
# Shear Modulus (GPa) = 31.74369 36.64886 34.19627
#
# Velocity S-wave (km/s) = 3.82815 4.11331 3.97329
# Velocity P-wave (km/s) = 6.97600 7.27501 7.12707
#
# Compressibility (1/GPa) = 0.01585104
#
# Stress axis : x y z
#
# Youngs Moduli (GPa) = 96.78967 63.62806 69.44489
#
# Poissons Ratio (x) = 0.07855 0.25626
# Poissons Ratio (y) = 0.11949 0.51208
# Poissons Ratio (z) = 0.35716 0.46919
#
# Static dielectric constant tensor:
#      x y z
#    x 4.206970 -0.052070 0.206290 
#    y -0.052070 3.875110 -0.116650 
#    z 0.206290 -0.116650 3.852190 
# 
# 
# High freq. dielectric constant tensor:
#      x y z
#    x 1.869160 -0.001490 0.009740 
#    y -0.001490 1.851410 -0.019810 
#    z 0.009740 -0.019810 1.844510 
# 
# From -- ./inp_files/495033.got.cif
#   From: 2010.06.25/outbox.cif.g09.slc.cpg/sg2_248_cif.got.tgz:495033.got - 2010.06.27 13:26:56.
