data_PCOD8030598
_publ_section_title
;
Structure prediction by ZEFSAII (Michael W. Deem and Ramdas Pophale) SiO2 
 PCOD8030598
Probable space group: P -1
;
_chemical_formula_sum "Si O2"
_cell_formula_units_Z 16
_cell_length_a 26.464736
_cell_length_b 25.924978
_cell_length_c 9.780901
_cell_angle_alpha 142.765633
_cell_angle_beta 141.526331
_cell_angle_gamma 11.205695
_cell_volume 788.973263
_symmetry_space_group_name_H-M "P -1"
_symmetry_group_IT_number 2
_symmetry_cell_setting 'triclinic'
loop_
_space_group_symop_operation_xyz
x,y,z
-x,-y,-z
loop_
_atom_site_type_symbol
_atom_site_label
_atom_site_fract_x
_atom_site_fract_y
_atom_site_fract_z
Si Si1 0.503106 0.194755 0.374867
Si Si2 0.464209 0.314972 0.839653
Si Si3 0.015615 0.908417 0.531030
Si Si4 0.001443 0.415013 0.914977
Si Si5 0.493141 0.193498 0.910078
Si Si6 0.005602 0.413033 0.233239
Si Si7 0.029045 0.088884 0.870683
Si Si8 0.515378 0.318689 0.423622
O O1 0.511422 0.230674 0.613713
O O2 0.499381 0.272988 0.421723
O O3 0.253658 0.384776 0.231521
O O4 0.754009 0.886618 0.238587
O O5 0.476858 0.221663 0.772223
O O6 0.181137 0.639762 0.933176
O O7 0.682682 0.166492 0.024518
O O8 0.277037 0.622063 0.559366
O O9 0.013123 0.870171 0.294498
O O10 0.994565 0.030596 0.739007
O O11 0.779145 0.109664 0.545929
O O12 0.013643 0.433783 0.137019
O O13 0.000000 0.500000 0.000000
O O14 0.245443 0.393200 0.865905
O O15 0.744768 0.890399 0.843094
O O16 0.507765 0.272674 0.171240
O O17 0.000000 0.500000 0.500000
#
# Coordination Sequence:
#
# PCOD8030598 Si02
#       8
#     2   2   2   2   2   2   2   2
#     4  12  27  44  66  92 131 170 213 253 313 386
#     4  12  25  41  65  95 130 168 211 263 311 370
#     4  11  22  38  69  95 127 167 209 264 322 365
#     4  12  26  46  66  92 131 170 206 256 322 383
#     4  12  23  42  68  92 131 162 218 263 305 369
#     4  12  26  43  67  99 126 161 213 267 313 370
#     4  11  22  41  62 100 130 161 212 267 314 371
#     4  12  21  43  65  95 122 174 212 257 307 379
#
# _framework density 20.279520999999999
#
# number of rings (size 3 to 8) (size 9 to 14) (size 15 to 20)
#    0.000    0.250    5.000    4.500    3.500    2.000 
#    0.000    3.750    0.000    0.000    0.000    0.000 
#    0.000    0.000    0.000    0.000    0.000    0.000 
#
# Total GULP energy -198509.511067 kJ/mol
# GULP energy per Si atom -12406.844442 kJ/mol
# Density = 2.023336 g / cm^3
# Si number density = 20.279521 Si / 1000 Ang^3
#
#
#
# Elastic Constant Matrix: (Units=GPa)
#
#
# Indices 1 2 3 4 5 6 
#
# 1 195.7359 93.7797 50.4095 52.5278 -2.6349 35.7366
# 2 93.7797 206.8805 26.6957 75.4530 0.8988 46.8893
# 3 50.4095 26.6957 86.9280 6.4250 -9.0007 2.7648
# 4 52.5278 75.4530 6.4250 94.6345 -6.0724 66.0384
# 5 -2.6349 0.8988 -9.0007 -6.0724 17.9355 -6.6482
# 6 35.7366 46.8893 2.7648 66.0384 -6.6482 87.7390
#
#
#
# Elastic Compliance Matrix: (Units=1/GPa)
#
#
# Indices 1 2 3 4 5 6 
#
# 1 0.007748 -0.002132 -0.003826 -0.002181 -0.001551 -0.000372
# 2 -0.002132 0.007875 -0.001081 -0.005787 -0.002902 0.000830
# 3 -0.003826 -0.001081 0.014697 0.001914 0.007821 0.000825
# 4 -0.002181 -0.005787 0.001914 0.028589 0.004205 -0.017279
# 5 -0.001551 -0.002902 0.007821 0.004205 0.062316 0.003493
# 6 -0.000372 0.000830 0.000825 -0.017279 0.003493 0.024349
#
#
# Mechanical properties :
#
#
# Convention : Reuss Voigt Hill
#
# Bulk Modulus (GPa) = 61.57144 92.36822 76.96983
# Shear Modulus (GPa) = 30.29082 61.30578 45.79830
#
# Velocity S-wave (km/s) = 3.86899 5.50418 4.75737
# Velocity P-wave (km/s) = 7.09831 9.27583 8.25915
#
# Compressibility (1/GPa) = 0.01624130
#
# Stress axis : x y z
#
# Youngs Moduli (GPa) = 129.06487 126.98513 68.04309
#
# Poissons Ratio (x) = 0.27074 0.26033
# Poissons Ratio (y) = 0.27517 0.07357
# Poissons Ratio (z) = 0.49379 0.13729
#
# Static dielectric constant tensor:
#      x y z
#    x 3.646100 -0.243860 -0.140710 
#    y -0.243860 3.659510 -0.219210 
#    z -0.140710 -0.219210 3.598250 
# 
# 
# High freq. dielectric constant tensor:
#      x y z
#    x 1.810640 -0.002380 0.003850 
#    y -0.002380 1.818100 0.000680 
#    z 0.003850 0.000680 1.784230 
# 
# From -- ./inp_files/226421.got.cif
#   From: 2010.06.25/outbox.cif.g09.slc.cpg/sg2_114_cif.got.tgz:226421.got - 2010.06.27 13:26:56.
