data_PCOD8030533
_publ_section_title
;
Structure prediction by ZEFSAII (Michael W. Deem and Ramdas Pophale) SiO2 
 PCOD8030533
Probable space group: P -1
;
_chemical_formula_sum "Si O2"
_cell_formula_units_Z 14
_cell_length_a 15.441974
_cell_length_b 14.317868
_cell_length_c 9.667968
_cell_angle_alpha 136.497279
_cell_angle_beta 137.946366
_cell_angle_gamma 29.868323
_cell_volume 691.459463
_symmetry_space_group_name_H-M "P -1"
_symmetry_group_IT_number 2
_symmetry_cell_setting 'triclinic'
loop_
_space_group_symop_operation_xyz
x,y,z
-x,-y,-z
loop_
_atom_site_type_symbol
_atom_site_label
_atom_site_fract_x
_atom_site_fract_y
_atom_site_fract_z
Si Si1 0.549555 0.120185 0.350076
Si Si2 0.246049 0.944982 0.221955
Si Si3 0.499487 0.312608 0.000498
Si Si4 0.855090 0.260276 0.989016
Si Si5 0.388222 0.525194 0.523626
Si Si6 0.959716 0.169275 0.709794
Si Si7 0.341125 0.013234 0.966638
O O1 0.688451 0.009949 0.525498
O O2 0.468707 0.330369 0.475159
O O3 0.661470 0.000965 0.216712
O O4 0.385870 0.133871 0.191872
O O5 0.400362 0.832751 0.165667
O O6 0.219805 0.808505 0.085232
O O7 0.055432 0.154624 0.168541
O O8 0.288125 0.506970 0.919976
O O9 0.610763 0.364239 0.234126
O O10 0.504961 0.201659 0.015179
O O11 0.866281 0.204481 0.783233
O O12 0.500000 0.500000 0.500000
O O13 0.182564 0.644180 0.356405
O O14 0.000000 0.000000 0.500000
O O15 0.139236 0.125807 0.903287
#
# Coordination Sequence:
#
# PCOD8030533 Si02
#       7
#     2   2   2   2   2   2   2
#     4  11  24  43  62  92 132 166 206 266 323 373
#     4  11  23  40  64  95 132 163 206 272 318 365
#     4  12  22  41  66  96 122 170 213 256 314 382
#     4  11  22  37  64  97 127 157 219 263 308 376
#     4  12  20  37  68  92 121 165 214 261 314 366
#     4  12  20  37  65  95 125 164 217 263 310 372
#     4  11  24  42  65  92 127 170 210 261 322 374
#
# _framework density 20.247031
#
# number of rings (size 3 to 8) (size 9 to 14) (size 15 to 20)
#    0.000    0.571    7.143    1.286    0.000    2.286 
#    0.000    0.714    0.000    0.000    0.000    0.000 
#    0.000    0.000    0.000    0.000    0.000    0.000 
#
# Total GULP energy -173643.598441 kJ/mol
# GULP energy per Si atom -12403.114174 kJ/mol
# Density = 2.020095 g / cm^3
# Si number density = 20.247031 Si / 1000 Ang^3
#
#
#
# Elastic Constant Matrix: (Units=GPa)
#
#
# Indices 1 2 3 4 5 6 
#
# 1 70.3248 34.3537 38.2225 -1.2972 -0.0161 -3.4660
# 2 34.3537 132.1819 45.6931 -29.0615 -5.3246 -1.2544
# 3 38.2225 45.6931 111.3461 -13.5984 -11.5804 7.9851
# 4 -1.2972 -29.0615 -13.5984 28.0234 7.6899 -2.3675
# 5 -0.0161 -5.3246 -11.5804 7.6899 34.7675 3.6847
# 6 -3.4660 -1.2544 7.9851 -2.3675 3.6847 27.5489
#
#
#
# Elastic Compliance Matrix: (Units=1/GPa)
#
#
# Indices 1 2 3 4 5 6 
#
# 1 0.019762 -0.004289 -0.006189 -0.005702 -0.001855 0.003843
# 2 -0.004289 0.012029 -0.002346 0.011782 -0.001752 0.001935
# 3 -0.006189 -0.002346 0.013111 0.002097 0.004076 -0.005051
# 4 -0.005702 0.011782 0.002097 0.051665 -0.009448 0.004915
# 5 -0.001855 -0.001752 0.004076 -0.009448 0.032648 -0.006673
# 6 0.003843 0.001935 -0.005051 0.004915 -0.006673 0.039650
#
#
# Mechanical properties :
#
#
# Convention : Reuss Voigt Hill
#
# Bulk Modulus (GPa) = 51.93657 61.15458 56.54557
# Shear Modulus (GPa) = 24.88426 31.10687 27.99556
#
# Velocity S-wave (km/s) = 3.50956 3.92390 3.72250
# Velocity P-wave (km/s) = 6.49075 7.12735 6.81649
#
# Compressibility (1/GPa) = 0.01925425
#
# Stress axis : x y z
#
# Youngs Moduli (GPa) = 50.60129 83.13074 76.27407
#
# Poissons Ratio (x) = 0.35652 0.47205
# Poissons Ratio (y) = 0.21701 0.17896
# Poissons Ratio (z) = 0.31317 0.19505
#
# Static dielectric constant tensor:
#      x y z
#    x 3.741820 0.033960 -0.067660 
#    y 0.033960 3.974020 -0.369390 
#    z -0.067660 -0.369390 3.744370 
# 
# 
# High freq. dielectric constant tensor:
#      x y z
#    x 1.784250 0.004420 -0.018560 
#    y 0.004420 1.793970 -0.018440 
#    z -0.018560 -0.018440 1.782680 
# 
# From -- ./inp_files/225669.got.cif
#   From: 2010.06.25/outbox.cif.g09.slc.cpg/sg2_113_cif.got.tgz:225669.got - 2010.06.27 13:26:56.
