data_PCOD8030030
_publ_section_title
;
Structure prediction by ZEFSAII (Michael W. Deem and Ramdas Pophale) SiO2 
 PCOD8030030
Probable space group: P -1
;
_chemical_formula_sum "Si O2"
_cell_formula_units_Z 14
_cell_length_a 13.382902
_cell_length_b 22.933570
_cell_length_c 8.956800
_cell_angle_alpha 139.884474
_cell_angle_beta 57.933765
_cell_angle_gamma 153.566700
_cell_volume 665.383982
_symmetry_space_group_name_H-M "P -1"
_symmetry_group_IT_number 2
_symmetry_cell_setting 'triclinic'
loop_
_space_group_symop_operation_xyz
x,y,z
-x,-y,-z
loop_
_atom_site_type_symbol
_atom_site_label
_atom_site_fract_x
_atom_site_fract_y
_atom_site_fract_z
Si Si1 0.603974 0.307291 0.339775
Si Si2 0.490144 0.118609 0.325410
Si Si3 0.022161 0.686734 0.968945
Si Si4 0.022648 0.514658 0.831893
Si Si5 0.366411 0.448614 0.858746
Si Si6 0.151713 0.133270 0.285424
Si Si7 0.231487 0.122100 0.657080
O O1 0.554294 0.177584 0.213093
O O2 0.725422 0.370689 0.203186
O O3 0.327884 0.171005 0.278166
O O4 0.812295 0.508520 0.664669
O O5 0.370314 0.131591 0.495534
O O6 0.758562 0.284822 0.529296
O O7 0.293777 0.899234 0.080927
O O8 0.063402 0.642538 0.981549
O O9 0.917101 0.705317 0.167998
O O10 0.000000 0.500000 0.000000
O O11 0.333905 0.349288 0.561116
O O12 0.500000 0.500000 0.000000
O O13 0.547117 0.650371 0.040031
O O14 0.907364 0.996821 0.312655
O O15 0.000000 0.000000 0.000000
O O16 0.000000 0.000000 0.500000
#
# Coordination Sequence:
#
# PCOD8030030 Si02
#       7
#     2   2   2   2   2   2   2
#     4  11  24  43  66  97 137 175 226 283 327 399
#     4  11  21  41  71  98 124 171 234 278 324 398
#     4  11  21  41  74 100 123 177 235 275 326 399
#     4  11  27  45  64  94 140 178 219 281 343 398
#     4  12  20  39  70 100 131 174 225 270 331 400
#     4  12  27  40  64 105 145 175 215 282 345 405
#     4  12  20  39  70  98 130 176 224 274 328 398
#
# _framework density 21.040482000000001
#
# number of rings (size 3 to 8) (size 9 to 14) (size 15 to 20)
#    0.000    0.571    8.571    1.714    2.000    3.429 
#    0.000    1.429    0.000    0.000    0.000    0.000 
#    0.000    0.000    0.000    0.000    0.000    0.000 
#
# Total GULP energy -173536.763680 kJ/mol
# GULP energy per Si atom -12395.483120 kJ/mol
# Density = 2.099259 g / cm^3
# Si number density = 21.040482 Si / 1000 Ang^3
#
#
#
# Elastic Constant Matrix: (Units=GPa)
#
#
# Indices 1 2 3 4 5 6 
#
# 1 65.3785 23.6542 34.6953 1.5283 1.9094 -13.3617
# 2 23.6542 112.6477 29.6886 3.5018 6.4961 -12.0849
# 3 34.6953 29.6886 112.8141 6.5223 0.9650 -21.3546
# 4 1.5283 3.5018 6.5223 48.1457 -4.5472 -3.6788
# 5 1.9094 6.4961 0.9650 -4.5472 28.0694 -0.5542
# 6 -13.3617 -12.0849 -21.3546 -3.6788 -0.5542 32.1635
#
#
#
# Elastic Compliance Matrix: (Units=1/GPa)
#
#
# Indices 1 2 3 4 5 6 
#
# 1 0.019457 -0.002419 -0.004579 0.000455 -0.000450 0.004178
# 2 -0.002419 0.010115 -0.001554 -0.000527 -0.002175 0.001667
# 3 -0.004579 -0.001554 0.011715 -0.000911 0.000223 0.005192
# 4 0.000455 -0.000527 -0.000911 0.021405 0.003627 0.001897
# 5 -0.000450 -0.002175 0.000223 0.003627 0.036744 0.000192
# 6 0.004178 0.001667 0.005192 0.001897 0.000192 0.037120
#
#
# Mechanical properties :
#
#
# Convention : Reuss Voigt Hill
#
# Bulk Modulus (GPa) = 41.34892 51.87962 46.61427
# Shear Modulus (GPa) = 30.91758 35.19586 33.05672
#
# Velocity S-wave (km/s) = 3.83748 4.09439 3.96801
# Velocity P-wave (km/s) = 6.27134 6.86022 6.57238
#
# Compressibility (1/GPa) = 0.02418443
#
# Stress axis : x y z
#
# Youngs Moduli (GPa) = 51.39504 98.86111 85.36316
#
# Poissons Ratio (x) = 0.23913 0.39087
# Poissons Ratio (y) = 0.12432 0.13261
# Poissons Ratio (z) = 0.23533 0.15358
#
# Static dielectric constant tensor:
#      x y z
#    x 3.982200 0.087090 -0.179780 
#    y 0.087090 3.827630 0.156510 
#    z -0.179780 0.156510 3.837460 
# 
# 
# High freq. dielectric constant tensor:
#      x y z
#    x 1.813200 0.016500 -0.018150 
#    y 0.016500 1.844180 0.008330 
#    z -0.018150 0.008330 1.817920 
# 
# From -- ./inp_files/222553.got.cif
#   From: 2010.06.25/outbox.cif.g09.slc.cpg/sg2_112_cif.got.tgz:222553.got - 2010.06.27 13:26:56.
