data_PCOD8030136
_publ_section_title
;
Structure prediction by ZEFSAII (Michael W. Deem and Ramdas Pophale) SiO2 
 PCOD8030136
Probable space group: P -1
;
_chemical_formula_sum "Si O2"
_cell_formula_units_Z 14
_cell_length_a 8.954671
_cell_length_b 9.230560
_cell_length_c 20.747795
_cell_angle_alpha 30.321782
_cell_angle_beta 49.195503
_cell_angle_gamma 47.225098
_cell_volume 624.964270
_symmetry_space_group_name_H-M "P -1"
_symmetry_group_IT_number 2
_symmetry_cell_setting 'triclinic'
loop_
_space_group_symop_operation_xyz
x,y,z
-x,-y,-z
loop_
_atom_site_type_symbol
_atom_site_label
_atom_site_fract_x
_atom_site_fract_y
_atom_site_fract_z
Si Si1 0.643304 0.187569 0.860861
Si Si2 0.555617 0.810027 0.358212
Si Si3 0.087037 0.270516 0.505814
Si Si4 0.023102 0.602938 0.266287
Si Si5 0.627141 0.139976 0.331351
Si Si6 0.043916 0.253660 0.137488
Si Si7 0.843222 0.811063 0.732822
O O1 0.504871 0.517769 0.752073
O O2 0.824764 0.184995 0.863731
O O3 0.755036 0.024683 0.827983
O O4 0.500000 0.000000 0.000000
O O5 0.500000 0.500000 0.500000
O O6 0.782064 0.770469 0.280585
O O7 0.525613 0.961312 0.379099
O O8 0.402165 0.054111 0.261107
O O9 0.000000 0.500000 0.500000
O O10 0.123793 0.420283 0.371918
O O11 0.314449 0.043865 0.546971
O O12 0.921520 0.100655 0.602008
O O13 0.042082 0.402078 0.275143
O O14 0.850290 0.127803 0.243819
O O15 0.098272 0.374404 0.145241
O O16 0.000000 0.500000 0.000000
#
# Coordination Sequence:
#
# PCOD8030136 Si02
#       7
#     2   2   2   2   2   2   2
#     4  12  25  45  75 102 136 192 247 294 355 418
#     4  12  23  42  70 106 151 185 224 289 366 428
#     4  11  21  42  71 105 146 192 232 285 353 434
#     4  12  24  43  70 105 151 183 235 295 352 429
#     4  11  23  43  72 105 143 187 241 290 354 424
#     4  11  24  49  75  97 139 187 249 303 341 426
#     4  11  25  42  69 109 140 184 233 291 370 422
#
# _framework density 22.40128
#
# number of rings (size 3 to 8) (size 9 to 14) (size 15 to 20)
#    0.000    0.571    7.143    1.286    0.000    2.857 
#    0.000    3.571    0.000    0.000    0.000    0.000 
#    0.000    0.000    0.000    0.000    0.000    0.000 
#
# Total GULP energy -173553.440867 kJ/mol
# GULP energy per Si atom -12396.674348 kJ/mol
# Density = 2.235029 g / cm^3
# Si number density = 22.401280 Si / 1000 Ang^3
#
#
#
# Elastic Constant Matrix: (Units=GPa)
#
#
# Indices 1 2 3 4 5 6 
#
# 1 157.4557 59.9212 51.6126 -0.3670 8.6690 4.7851
# 2 59.9212 153.1164 28.6384 -10.6347 9.5246 5.4874
# 3 51.6126 28.6384 54.5069 -8.4083 11.9463 4.8598
# 4 -0.3670 -10.6347 -8.4083 28.5659 -3.1056 0.2606
# 5 8.6690 9.5246 11.9463 -3.1056 47.9027 4.1010
# 6 4.7851 5.4874 4.8598 0.2606 4.1010 58.1070
#
#
#
# Elastic Compliance Matrix: (Units=1/GPa)
#
#
# Indices 1 2 3 4 5 6 
#
# 1 0.010253 -0.002609 -0.009027 -0.003424 0.000682 0.000124
# 2 -0.002609 0.008000 -0.001168 0.002537 -0.000628 -0.000410
# 3 -0.009027 -0.001168 0.029909 0.007724 -0.004978 -0.001331
# 4 -0.003424 0.002537 0.007724 0.038269 0.000741 -0.000827
# 5 0.000682 -0.000628 -0.004978 0.000741 0.022266 -0.001155
# 6 0.000124 -0.000410 -0.001331 -0.000827 -0.001155 0.017435
#
#
# Mechanical properties :
#
#
# Convention : Reuss Voigt Hill
#
# Bulk Modulus (GPa) = 44.33486 71.71370 58.02428
# Shear Modulus (GPa) = 31.39589 41.90893 36.65241
#
# Velocity S-wave (km/s) = 3.74775 4.33000 4.04935
# Velocity P-wave (km/s) = 6.20981 7.55521 6.91531
#
# Compressibility (1/GPa) = 0.02255561
#
# Stress axis : x y z
#
# Youngs Moduli (GPa) = 97.52774 124.99569 33.43524
#
# Poissons Ratio (x) = 0.32611 0.30182
# Poissons Ratio (y) = 0.25444 0.03904
# Poissons Ratio (z) = 0.88037 0.14594
#
# Static dielectric constant tensor:
#      x y z
#    x 4.534260 -0.102880 0.034150 
#    y -0.102880 4.199430 -0.003140 
#    z 0.034150 -0.003140 4.210160 
# 
# 
# High freq. dielectric constant tensor:
#      x y z
#    x 1.901730 -0.010670 -0.011360 
#    y -0.010670 1.898150 -0.002190 
#    z -0.011360 -0.002190 1.866520 
# 
# From -- ./inp_files/203530.got.cif
#   From: 2010.06.25/outbox.cif.g09.slc.cpg/sg2_102_cif.got.tgz:203530.got - 2010.06.27 13:26:56.
