data_PCOD8030717
_publ_section_title
;
Structure prediction by ZEFSAII (Michael W. Deem and Ramdas Pophale) SiO2 
 PCOD8030717
Probable space group: P -1
;
_chemical_formula_sum "Si O2"
_cell_formula_units_Z 14
_cell_length_a 12.114913
_cell_length_b 15.323184
_cell_length_c 15.096816
_cell_angle_alpha 141.837129
_cell_angle_beta 27.868573
_cell_angle_gamma 151.435240
_cell_volume 625.791397
_symmetry_space_group_name_H-M "P -1"
_symmetry_group_IT_number 2
_symmetry_cell_setting 'triclinic'
loop_
_space_group_symop_operation_xyz
x,y,z
-x,-y,-z
loop_
_atom_site_type_symbol
_atom_site_label
_atom_site_fract_x
_atom_site_fract_y
_atom_site_fract_z
Si Si1 0.281897 0.718975 0.470742
Si Si2 0.591528 0.932452 0.078956
Si Si3 0.726323 0.453671 0.045588
Si Si4 0.634928 0.425355 0.286656
Si Si5 0.160479 0.202890 0.788086
Si Si6 0.782377 0.994454 0.716666
Si Si7 0.708399 0.977257 0.222020
O O1 0.528289 0.769096 0.411565
O O2 0.463974 0.792875 0.306205
O O3 0.000000 0.500000 0.500000
O O4 0.173105 0.837254 0.663095
O O5 0.531742 0.960860 0.244419
O O6 0.391133 0.942829 0.158023
O O7 0.536619 0.744123 0.963459
O O8 0.948713 0.072129 0.914057
O O9 0.647133 0.479414 0.220395
O O10 0.754647 0.605900 0.090678
O O11 0.027704 0.473655 0.837508
O O12 0.500000 0.500000 0.500000
O O13 0.457082 0.210227 0.242314
O O14 0.980679 0.130897 0.765202
O O15 0.000000 0.000000 0.500000
O O16 0.000000 0.000000 0.000000
#
# Coordination Sequence:
#
# PCOD8030717 Si02
#       7
#     2   2   2   2   2   2   2
#     4  11  28  51  78 108 143 187 253 312 363 438
#     4  12  24  45  72 102 147 190 233 295 365 434
#     4  11  24  40  65  99 140 182 233 292 347 415
#     4  11  22  40  62  98 142 188 239 278 344 429
#     4  12  24  45  72 101 143 188 237 297 363 433
#     4  12  23  42  67 100 148 190 229 291 359 428
#     4  11  26  50  78 107 145 192 246 305 373 433
#
# _framework density 22.371672
#
# number of rings (size 3 to 8) (size 9 to 14) (size 15 to 20)
#    0.000    0.571    4.286    4.714    2.000    1.714 
#    7.714    0.000    0.000    0.000    0.000    0.000 
#    0.000    0.000    0.000    0.000    0.000    0.000 
#
# Total GULP energy -173561.265446 kJ/mol
# GULP energy per Si atom -12397.233246 kJ/mol
# Density = 2.232075 g / cm^3
# Si number density = 22.371672 Si / 1000 Ang^3
#
#
#
# Elastic Constant Matrix: (Units=GPa)
#
#
# Indices 1 2 3 4 5 6 
#
# 1 95.1612 41.8781 33.5691 -8.7178 -1.9534 8.0233
# 2 41.8781 201.1713 51.3991 0.1708 13.2634 -9.7610
# 3 33.5691 51.3991 156.5733 -2.6581 -14.7496 -15.6667
# 4 -8.7178 0.1708 -2.6581 37.4173 -3.2543 0.8114
# 5 -1.9534 13.2634 -14.7496 -3.2543 85.4532 33.4815
# 6 8.0233 -9.7610 -15.6667 0.8114 33.4815 37.4150
#
#
#
# Elastic Compliance Matrix: (Units=1/GPa)
#
#
# Indices 1 2 3 4 5 6 
#
# 1 0.013684 -0.002866 -0.002393 0.003518 0.003609 -0.007990
# 2 -0.002866 0.006328 -0.001323 -0.001156 -0.003080 0.004493
# 3 -0.002393 -0.001323 0.007673 -0.000056 0.000228 0.003178
# 4 0.003518 -0.001156 -0.000056 0.027906 0.003038 -0.004403
# 5 0.003609 -0.003080 0.000228 0.003038 0.020057 -0.019496
# 6 -0.007990 0.004493 0.003178 -0.004403 -0.019496 0.048486
#
#
# Mechanical properties :
#
#
# Convention : Reuss Voigt Hill
#
# Bulk Modulus (GPa) = 68.86673 78.51093 73.68883
# Shear Modulus (GPa) = 35.17743 53.79440 44.48592
#
# Velocity S-wave (km/s) = 3.96966 4.90897 4.46409
# Velocity P-wave (km/s) = 7.20144 8.20370 7.71886
#
# Compressibility (1/GPa) = 0.01452080
#
# Stress axis : x y z
#
# Youngs Moduli (GPa) = 73.07901 158.03834 130.33386
#
# Poissons Ratio (x) = 0.45292 0.31186
# Poissons Ratio (y) = 0.20943 0.17243
# Poissons Ratio (z) = 0.17486 0.20908
#
# Static dielectric constant tensor:
#      x y z
#    x 4.145540 -0.150580 0.072400 
#    y -0.150580 4.301880 -0.153340 
#    z 0.072400 -0.153340 3.934630 
# 
# 
# High freq. dielectric constant tensor:
#      x y z
#    x 1.875630 -0.011470 -0.000760 
#    y -0.011470 1.900770 -0.002590 
#    z -0.000760 -0.002590 1.886980 
# 
# From -- ./inp_files/520996.got.cif
#   From: 2010.06.25/outbox.cif.g09.slc.cpg/sg2_261_cif.got.tgz:520996.got - 2010.06.27 13:26:56.
