data_PCOD8030770
_publ_section_title
;
Structure prediction by ZEFSAII (Michael W. Deem and Ramdas Pophale) SiO2 
 PCOD8030770
Probable space group: P -1
;
_chemical_formula_sum "Si O2"
_cell_formula_units_Z 12
_cell_length_a 11.675194
_cell_length_b 9.053876
_cell_length_c 9.120444
_cell_angle_alpha 91.295551
_cell_angle_beta 73.632322
_cell_angle_gamma 38.231910
_cell_volume 521.887238
_symmetry_space_group_name_H-M "P -1"
_symmetry_group_IT_number 2
_symmetry_cell_setting 'triclinic'
loop_
_space_group_symop_operation_xyz
x,y,z
-x,-y,-z
loop_
_atom_site_type_symbol
_atom_site_label
_atom_site_fract_x
_atom_site_fract_y
_atom_site_fract_z
Si Si1 0.801263 0.608049 0.802830
Si Si2 0.871979 0.331060 0.531449
Si Si3 0.356971 0.932692 0.036930
Si Si4 0.925320 0.864584 0.109761
Si Si5 0.685885 0.232928 0.694957
Si Si6 0.229290 0.665228 0.750415
O O1 0.819275 0.545942 0.622779
O O2 0.003827 0.335119 0.808752
O O3 0.797063 0.789287 0.822983
O O4 0.592794 0.751875 0.954234
O O5 0.733136 0.359538 0.682175
O O6 0.811673 0.382842 0.384474
O O7 0.119379 0.046612 0.461174
O O8 0.339055 0.797345 0.129357
O O9 0.281554 0.979904 0.899642
O O10 0.864742 0.073783 0.226150
O O11 0.115505 0.698484 0.924445
O O12 0.479244 0.409978 0.678852
#
# Coordination Sequence:
#
# PCOD8030770 Si02
#       6
#     2   2   2   2   2   2
#     4  11  25  43  66  92 128 166 212 255 310 373
#     4  11  24  41  63  97 128 162 206 263 314 365
#     4  11  24  43  66  93 125 170 211 253 309 377
#     4  11  22  40  67  93 124 167 210 257 307 374
#     4  11  22  41  65  94 128 160 209 259 312 369
#     4  11  23  39  66  97 125 161 211 259 314 367
#
# _framework density 22.993473999999999
#
# number of rings (size 3 to 8) (size 9 to 14) (size 15 to 20)
#    0.000    1.000    3.333    4.000    2.333    3.333 
#    0.000    0.833    0.000    0.000    0.000    0.000 
#    0.000    0.000    0.000    0.000    0.000    0.000 
#
# Total GULP energy -148846.576781 kJ/mol
# GULP energy per Si atom -12403.881398 kJ/mol
# Density = 2.294114 g / cm^3
# Si number density = 22.993474 Si / 1000 Ang^3
#
#
#
# Elastic Constant Matrix: (Units=GPa)
#
#
# Indices 1 2 3 4 5 6 
#
# 1 63.1704 25.7789 24.1887 -2.7386 12.1250 -14.6571
# 2 25.7789 92.2693 26.0275 -6.9897 12.6802 -25.1313
# 3 24.1887 26.0275 70.0405 -7.6960 27.8474 -8.3605
# 4 -2.7386 -6.9897 -7.6960 21.6328 -1.4297 1.7531
# 5 12.1250 12.6802 27.8474 -1.4297 50.8201 9.1866
# 6 -14.6571 -25.1313 -8.3605 1.7531 9.1866 38.1794
#
#
#
# Elastic Compliance Matrix: (Units=1/GPa)
#
#
# Indices 1 2 3 4 5 6 
#
# 1 0.020434 -0.002483 -0.004260 -0.000419 -0.003022 0.006024
# 2 -0.002483 0.015429 -0.001857 0.002976 -0.003891 0.009596
# 3 -0.004260 -0.001857 0.022053 0.005605 -0.011246 0.004421
# 4 -0.000419 0.002976 0.005605 0.048843 -0.002594 0.001407
# 5 -0.003022 -0.003891 -0.011246 -0.002594 0.029854 -0.013248
# 6 0.006024 0.009596 0.004421 0.001407 -0.013248 0.038912
#
#
# Mechanical properties :
#
#
# Convention : Reuss Voigt Hill
#
# Bulk Modulus (GPa) = 24.55923 41.94115 33.25019
# Shear Modulus (GPa) = 24.23693 32.09214 28.16453
#
# Velocity S-wave (km/s) = 3.25018 3.73997 3.50364
# Velocity P-wave (km/s) = 4.97886 6.07700 5.55513
#
# Compressibility (1/GPa) = 0.04071788
#
# Stress axis : x y z
#
# Youngs Moduli (GPa) = 48.93753 64.81293 45.34452
#
# Poissons Ratio (x) = 0.16094 0.19315
# Poissons Ratio (y) = 0.12152 0.08419
# Poissons Ratio (z) = 0.20845 0.12034
#
# Static dielectric constant tensor:
#      x y z
#    x 4.142670 -0.049980 -0.030690 
#    y -0.049980 4.155290 0.176790 
#    z -0.030690 0.176790 3.964390 
# 
# 
# High freq. dielectric constant tensor:
#      x y z
#    x 1.904290 -0.015420 0.002920 
#    y -0.015420 1.905710 0.009960 
#    z 0.002920 0.009960 1.906080 
# 
# From -- ./inp_files/152116.got.cif
#   From: 2010.06.25/outbox.cif.g09.slc.cpg/sg2_77_cif.got.tgz:152116.got - 2010.06.27 13:26:56.
