data_PCOD8030252
_publ_section_title
;
Structure prediction by ZEFSAII (Michael W. Deem and Ramdas Pophale) SiO2 
 PCOD8030252
Probable space group: P -1
;
_chemical_formula_sum "Si O2"
_cell_formula_units_Z 16
_cell_length_a 15.752058
_cell_length_b 16.461516
_cell_length_c 12.128278
_cell_angle_alpha 54.566852
_cell_angle_beta 143.196908
_cell_angle_gamma 153.311027
_cell_volume 730.810881
_symmetry_space_group_name_H-M "P -1"
_symmetry_group_IT_number 2
_symmetry_cell_setting 'triclinic'
loop_
_space_group_symop_operation_xyz
x,y,z
-x,-y,-z
loop_
_atom_site_type_symbol
_atom_site_label
_atom_site_fract_x
_atom_site_fract_y
_atom_site_fract_z
Si Si1 0.221131 0.703491 0.317484
Si Si2 0.815166 0.768263 0.310633
Si Si3 0.164634 0.870588 0.419850
Si Si4 0.152115 0.657689 0.934113
Si Si5 0.830190 0.097415 0.234484
Si Si6 0.126714 0.977680 0.893491
Si Si7 0.306929 0.741678 0.623726
Si Si8 0.873422 0.681854 0.030127
O O1 0.377532 0.794415 0.527404
O O2 0.992963 0.475141 0.225281
O O3 0.052337 0.705111 0.134516
O O4 0.523270 0.881039 0.419509
O O5 0.957326 0.960803 0.268697
O O6 0.917625 0.745983 0.350534
O O7 0.923450 0.808466 0.513327
O O8 0.461066 0.558796 0.107073
O O9 0.267324 0.820977 0.582034
O O10 0.027807 0.805670 0.208220
O O11 0.086719 0.734341 0.813065
O O12 0.000000 0.500000 0.000000
O O13 0.509513 0.869357 0.132122
O O14 0.863261 0.082123 0.157385
O O15 0.449324 0.175230 0.129899
O O16 0.884636 0.784207 0.880070
O O17 0.000000 0.500000 0.500000
#
# Coordination Sequence:
#
# PCOD8030252 Si02
#       8
#     2   2   2   2   2   2   2   2
#     4  11  21  43  72 102 133 177 238 285 343 409
#     4  12  28  43  67 104 147 182 227 287 358 409
#     4  11  23  45  68 103 143 173 235 295 340 411
#     4  11  24  43  73 105 138 181 238 291 347 402
#     4  11  27  45  67 102 142 184 236 291 334 423
#     4  12  24  46  70  96 141 190 230 279 350 417
#     4  11  22  39  73 101 131 181 231 283 343 409
#     4  11  23  45  70 102 141 185 226 288 349 420
#
# _framework density 21.89349
#
# number of rings (size 3 to 8) (size 9 to 14) (size 15 to 20)
#    0.000    0.750    2.500    6.000    5.250    3.000 
#    0.000    0.000    0.000    0.000    0.000    0.000 
#    0.000    0.000    0.000    0.000    0.000    0.000 
#
# Total GULP energy -198347.593110 kJ/mol
# GULP energy per Si atom -12396.724569 kJ/mol
# Density = 2.184366 g / cm^3
# Si number density = 21.893490 Si / 1000 Ang^3
#
#
#
# Elastic Constant Matrix: (Units=GPa)
#
#
# Indices 1 2 3 4 5 6 
#
# 1 79.8071 17.8960 28.8975 5.3191 -2.6929 1.4879
# 2 17.8960 116.1013 39.6102 4.5986 -3.8940 2.4655
# 3 28.8975 39.6102 101.6530 3.4020 1.8624 -4.0980
# 4 5.3191 4.5986 3.4020 35.4054 2.6478 -1.2810
# 5 -2.6929 -3.8940 1.8624 2.6478 25.8397 6.6173
# 6 1.4879 2.4655 -4.0980 -1.2810 6.6173 35.1706
#
#
#
# Elastic Compliance Matrix: (Units=1/GPa)
#
#
# Indices 1 2 3 4 5 6 
#
# 1 0.014307 -0.000718 -0.003824 -0.001910 0.002236 -0.001491
# 2 -0.000718 0.010184 -0.003834 -0.001073 0.002254 -0.001593
# 3 -0.003824 -0.003834 0.012555 0.000139 -0.002502 0.002369
# 4 -0.001910 -0.001073 0.000139 0.029015 -0.003844 0.001952
# 5 0.002236 0.002254 -0.002502 -0.003844 0.042048 -0.008595
# 6 -0.001491 -0.001593 0.002369 0.001952 -0.008595 0.030572
#
#
# Mechanical properties :
#
#
# Convention : Reuss Voigt Hill
#
# Bulk Modulus (GPa) = 49.27806 52.26318 50.77062
# Shear Modulus (GPa) = 30.82664 33.36034 32.09349
#
# Velocity S-wave (km/s) = 3.75644 3.90777 3.83285
# Velocity P-wave (km/s) = 6.43206 6.65464 6.54430
#
# Compressibility (1/GPa) = 0.02029301
#
# Stress axis : x y z
#
# Youngs Moduli (GPa) = 69.89821 98.19592 79.64908
#
# Poissons Ratio (x) = 0.07052 0.30460
# Poissons Ratio (y) = 0.05020 0.30535
# Poissons Ratio (z) = 0.26731 0.37645
#
# Static dielectric constant tensor:
#      x y z
#    x 3.878580 -0.010990 -0.048430 
#    y -0.010990 4.031370 0.100900 
#    z -0.048430 0.100900 3.936250 
# 
# 
# High freq. dielectric constant tensor:
#      x y z
#    x 1.859510 0.004850 -0.008370 
#    y 0.004850 1.873260 0.007840 
#    z -0.008370 0.007840 1.867420 
# 
# From -- ./inp_files/455635.got.cif
#   From: 2010.06.25/outbox.cif.g09.slc.cpg/sg2_228_cif.got.tgz:455635.got - 2010.06.27 13:26:56.
