data_PCOD8030134
_publ_section_title
;
Structure prediction by ZEFSAII (Michael W. Deem and Ramdas Pophale) SiO2 
 PCOD8030134
Probable space group: P -1
;
_chemical_formula_sum "Si O2"
_cell_formula_units_Z 14
_cell_length_a 9.395504
_cell_length_b 11.695917
_cell_length_c 14.139130
_cell_angle_alpha 146.750767
_cell_angle_beta 116.361080
_cell_angle_gamma 48.337509
_cell_volume 612.215106
_symmetry_space_group_name_H-M "P -1"
_symmetry_group_IT_number 2
_symmetry_cell_setting 'triclinic'
loop_
_space_group_symop_operation_xyz
x,y,z
-x,-y,-z
loop_
_atom_site_type_symbol
_atom_site_label
_atom_site_fract_x
_atom_site_fract_y
_atom_site_fract_z
Si Si1 0.724779 0.394627 0.653939
Si Si2 0.716050 0.425787 0.001627
Si Si3 0.675829 0.491079 0.403805
Si Si4 0.092385 0.989958 0.721434
Si Si5 0.727617 0.694360 0.019400
Si Si6 0.931776 0.285537 0.160646
Si Si7 0.665409 0.798935 0.777934
O O1 0.537755 0.396358 0.626040
O O2 0.888368 0.134796 0.462418
O O3 0.627926 0.647294 0.735702
O O4 0.819115 0.430083 0.800368
O O5 0.500000 0.500000 0.000000
O O6 0.710949 0.639450 0.085359
O O7 0.788660 0.426148 0.127212
O O8 0.868477 0.142976 0.800621
O O9 0.761217 0.236597 0.317854
O O10 0.820603 0.447703 0.333254
O O11 0.648767 0.722171 0.614788
O O12 0.141744 0.199094 0.876327
O O13 0.507492 0.895662 0.051134
O O14 0.122323 0.273292 0.187668
O O15 0.000000 0.000000 0.000000
#
# Coordination Sequence:
#
# PCOD8030134 Si02
#       7
#     2   2   2   2   2   2   2
#     4  11  22  41  73 107 134 177 228 284 338 402
#     4  12  27  46  66  98 141 185 227 279 342 406
#     4  11  21  42  71 105 137 169 234 289 329 404
#     4  11  23  44  69 102 138 176 229 282 336 404
#     4  12  24  43  72 102 144 176 221 282 349 408
#     4  12  24  43  70  96 133 185 236 277 334 404
#     4  11  22  41  71 106 135 176 230 284 342 399
#
# _framework density 22.867781000000001
#
# number of rings (size 3 to 8) (size 9 to 14) (size 15 to 20)
#    0.000    0.571    4.286    5.571    0.000    0.571 
#    0.000    2.143    0.000    0.000    0.000    0.000 
#    0.000    0.000    0.000    0.000    0.000    0.000 
#
# Total GULP energy -173611.149931 kJ/mol
# GULP energy per Si atom -12400.796424 kJ/mol
# Density = 2.281573 g / cm^3
# Si number density = 22.867781 Si / 1000 Ang^3
#
#
#
# Elastic Constant Matrix: (Units=GPa)
#
#
# Indices 1 2 3 4 5 6 
#
# 1 115.9587 43.3026 41.6349 -9.3274 -16.6950 -27.2565
# 2 43.3026 54.6224 27.0922 -21.1834 17.8878 5.5195
# 3 41.6349 27.0922 114.8103 -18.7955 -0.8427 -1.8688
# 4 -9.3274 -21.1834 -18.7955 38.6896 -0.2974 -0.5952
# 5 -16.6950 17.8878 -0.8427 -0.2974 24.8974 -11.0562
# 6 -27.2565 5.5195 -1.8688 -0.5952 -11.0562 39.1687
#
#
#
# Elastic Compliance Matrix: (Units=1/GPa)
#
#
# Indices 1 2 3 4 5 6 
#
# 1 -0.010751 0.027882 -0.001445 0.011356 -0.036787 -0.021691
# 2 0.027882 -0.027211 -0.004164 -0.009185 0.055067 0.038443
# 3 -0.001445 -0.004164 0.010677 0.002595 0.002827 0.000928
# 4 0.011356 -0.009185 0.002595 0.025225 0.021622 0.015807
# 5 -0.036787 0.055067 0.002827 0.021622 -0.043812 -0.045262
# 6 -0.021691 0.038443 0.000928 0.015807 -0.045262 -0.007472
#
#
# Mechanical properties :
#
#
# Convention : Reuss Voigt Hill
#
# Bulk Modulus (GPa) = 57.93025 56.60563 57.26794
# Shear Modulus (GPa) = -54.26706 32.10859 -11.07923
#
# Velocity S-wave (km/s) = -4.87671 3.75119 -2.20350
# Velocity P-wave (km/s) = 2.51437 6.60069 4.31550
#
# Compressibility (1/GPa) = 0.01726214
#
# Stress axis : x y z
#
# Youngs Moduli (GPa) = -93.01603 -36.74928 93.65783
#
# Poissons Ratio (x) = 1.02465 0.13531
# Poissons Ratio (y) = 2.59349 0.38997
# Poissons Ratio (z) = -0.13439 -0.15301
#
# Static dielectric constant tensor:
#      x y z
#    x 4.383570 0.204680 -0.583790 
#    y 0.204680 4.066020 0.024780 
#    z -0.583790 0.024780 4.300560 
# 
# 
# High freq. dielectric constant tensor:
#      x y z
#    x 1.909260 -0.001360 -0.014360 
#    y -0.001360 1.904950 -0.004550 
#    z -0.014360 -0.004550 1.903960 
# 
# From -- ./inp_files/180270.got.cif
#   From: 2010.06.25/outbox.cif.g09.slc.cpg/sg2_91_cif.got.tgz:180270.got - 2010.06.27 13:26:56.
