data_PCOD8030082
_publ_section_title
;
Structure prediction by ZEFSAII (Michael W. Deem and Ramdas Pophale) SiO2 
 PCOD8030082
Probable space group: P -1
;
_chemical_formula_sum "Si O2"
_cell_formula_units_Z 16
_cell_length_a 19.737695
_cell_length_b 10.993649
_cell_length_c 16.515148
_cell_angle_alpha 33.624405
_cell_angle_beta 21.465997
_cell_angle_gamma 42.209589
_cell_volume 715.755408
_symmetry_space_group_name_H-M "P -1"
_symmetry_group_IT_number 2
_symmetry_cell_setting 'triclinic'
loop_
_space_group_symop_operation_xyz
x,y,z
-x,-y,-z
loop_
_atom_site_type_symbol
_atom_site_label
_atom_site_fract_x
_atom_site_fract_y
_atom_site_fract_z
Si Si1 0.000236 0.026370 0.629948
Si Si2 0.497528 0.612670 0.808543
Si Si3 0.887871 0.451953 0.803578
Si Si4 0.449679 0.172857 0.209783
Si Si5 0.870981 0.689032 0.251156
Si Si6 0.702789 0.249643 0.608578
Si Si7 0.989661 0.904107 0.240411
Si Si8 0.631307 0.944977 0.005036
O O1 0.924893 0.016231 0.811372
O O2 0.041169 0.285179 0.417578
O O3 0.184732 0.915201 0.474481
O O4 0.839389 0.894932 0.821789
O O5 0.459663 0.786026 0.824585
O O6 0.697426 0.698120 0.498450
O O7 0.337799 0.595686 0.927084
O O8 0.500430 0.382345 0.978138
O O9 0.974337 0.340507 0.691428
O O10 0.948395 0.350047 0.876394
O O11 0.229652 0.101056 0.503790
O O12 0.538618 0.979808 0.175279
O O13 0.819759 0.497421 0.346250
O O14 0.920106 0.924798 0.022777
O O15 0.505027 0.254554 0.778846
O O16 0.653482 0.163591 0.801948
#
# Coordination Sequence:
#
# PCOD8030082 Si02
#       8
#     2   2   2   2   2   2   2   2
#     4  12  24  43  72 103 126 176 233 275 321 393
#     4  11  23  40  71  97 132 177 224 273 325 396
#     4  12  24  43  72  99 132 178 225 272 327 401
#     4  11  21  42  68 101 131 173 225 277 330 382
#     4  12  27  46  65 100 144 177 212 273 344 396
#     4  11  24  42  70  97 133 175 226 276 327 387
#     4  12  26  45  67 101 143 173 213 279 343 393
#     4  11  22  41  69  99 128 173 227 285 315 385
#
# _framework density 22.354005000000001
#
# number of rings (size 3 to 8) (size 9 to 14) (size 15 to 20)
#    0.000    0.500    6.250    1.875    3.500    1.000 
#    2.250    0.625    0.000    0.000    0.000    0.000 
#    0.000    0.000    0.000    0.000    0.000    0.000 
#
# Total GULP energy -198393.921209 kJ/mol
# GULP energy per Si atom -12399.620076 kJ/mol
# Density = 2.230313 g / cm^3
# Si number density = 22.354005 Si / 1000 Ang^3
#
#
#
# Elastic Constant Matrix: (Units=GPa)
#
#
# Indices 1 2 3 4 5 6 
#
# 1 115.5251 9.7202 37.5742 -3.8262 -33.3173 -0.4881
# 2 9.7202 60.9300 15.1960 -0.0960 -2.3937 18.9798
# 3 37.5742 15.1960 109.2308 3.9981 -13.2508 -7.2858
# 4 -3.8262 -0.0960 3.9981 24.0842 -0.2426 -2.1568
# 5 -33.3173 -2.3937 -13.2508 -0.2426 56.4766 11.4179
# 6 -0.4881 18.9798 -7.2858 -2.1568 11.4179 37.1196
#
#
#
# Elastic Compliance Matrix: (Units=1/GPa)
#
#
# Indices 1 2 3 4 5 6 
#
# 1 0.011768 0.000020 -0.003494 0.002297 0.006628 -0.002447
# 2 0.000020 0.021218 -0.003452 -0.000419 0.002596 -0.012349
# 3 -0.003494 -0.003452 0.011125 -0.002070 -0.000396 0.003904
# 4 0.002297 -0.000419 -0.002070 0.042424 0.000606 0.002117
# 5 0.006628 0.002596 -0.000396 0.000606 0.023348 -0.008464
# 6 -0.002447 -0.012349 0.003904 0.002117 -0.008464 0.036715
#
#
# Mechanical properties :
#
#
# Convention : Reuss Voigt Hill
#
# Bulk Modulus (GPa) = 33.04766 45.62964 39.33865
# Shear Modulus (GPa) = 29.31919 38.41580 33.86750
#
# Velocity S-wave (km/s) = 3.62551 4.15000 3.89659
# Velocity P-wave (km/s) = 5.68697 6.58938 6.15474
#
# Compressibility (1/GPa) = 0.03025933
#
# Stress axis : x y z
#
# Youngs Moduli (GPa) = 84.97521 47.12932 89.88484
#
# Poissons Ratio (x) = -0.00095 0.31407
# Poissons Ratio (y) = -0.00172 0.31030
# Poissons Ratio (z) = 0.29692 0.16270
#
# Static dielectric constant tensor:
#      x y z
#    x 31.451940 -6.331810 23.144320 
#    y -6.331810 5.383220 -5.490440 
#    z 23.144320 -5.490440 24.149740 
# 
# 
# High freq. dielectric constant tensor:
#      x y z
#    x 1.894620 0.020690 -0.023510 
#    y 0.020690 1.861000 0.021600 
#    z -0.023510 0.021600 1.871720 
# 
# From -- ./inp_files/307725.got.cif
#   From: 2010.06.25/outbox.cif.g09.slc.cpg/sg2_154_cif.got.tgz:307725.got - 2010.06.27 13:26:56.
