data_PCOD8030189
_publ_section_title
;
Structure prediction by ZEFSAII (Michael W. Deem and Ramdas Pophale) SiO2 
 PCOD8030189
Probable space group: P -1
;
_chemical_formula_sum "Si O2"
_cell_formula_units_Z 14
_cell_length_a 8.489259
_cell_length_b 11.496454
_cell_length_c 13.997690
_cell_angle_alpha 142.159836
_cell_angle_beta 127.285186
_cell_angle_gamma 67.408799
_cell_volume 654.239317
_symmetry_space_group_name_H-M "P -1"
_symmetry_group_IT_number 2
_symmetry_cell_setting 'triclinic'
loop_
_space_group_symop_operation_xyz
x,y,z
-x,-y,-z
loop_
_atom_site_type_symbol
_atom_site_label
_atom_site_fract_x
_atom_site_fract_y
_atom_site_fract_z
Si Si1 0.507969 0.453190 0.758115
Si Si2 0.900848 0.101990 0.446778
Si Si3 0.145126 0.188892 0.140697
Si Si4 0.704325 0.238133 0.837835
Si Si5 0.858680 0.477548 0.228037
Si Si6 0.470296 0.163595 0.391991
Si Si7 0.868202 0.792714 0.074901
O O1 0.531555 0.289650 0.739200
O O2 0.301939 0.532481 0.751211
O O3 0.495757 0.358949 0.588726
O O4 0.699861 0.625511 0.949311
O O5 0.685028 0.125579 0.418449
O O6 0.046954 0.303048 0.614427
O O7 0.000000 0.000000 0.500000
O O8 0.874043 0.986423 0.262772
O O9 0.357757 0.206650 0.282522
O O10 0.183742 0.173904 0.032598
O O11 0.039578 0.367035 0.246581
O O12 0.000000 0.000000 0.000000
O O13 0.650641 0.017612 0.710840
O O14 0.728522 0.383423 0.029490
O O15 0.914134 0.267152 0.875478
#
# Coordination Sequence:
#
# PCOD8030189 Si02
#       7
#     2   2   2   2   2   2   2
#     4  12  24  40  68 104 130 173 228 270 347 395
#     4  12  25  44  69 106 138 171 223 276 335 401
#     4  11  25  49  68  91 138 176 232 274 325 396
#     4  11  21  43  67  98 137 175 217 284 334 394
#     4  11  24  42  68  97 135 177 220 276 331 392
#     4  12  24  43  70  95 137 181 219 277 330 392
#     4  11  24  42  68  98 136 179 218 277 333 390
#
# _framework density 21.398897999999999
#
# number of rings (size 3 to 8) (size 9 to 14) (size 15 to 20)
#    0.000    0.571    2.857    7.286    0.000    3.429 
#    0.000    0.000    0.000    0.000    0.000    0.000 
#    0.000    0.000    0.000    0.000    0.000    0.000 
#
# Total GULP energy -173678.902481 kJ/mol
# GULP energy per Si atom -12405.635892 kJ/mol
# Density = 2.135019 g / cm^3
# Si number density = 21.398898 Si / 1000 Ang^3
#
#
#
# Elastic Constant Matrix: (Units=GPa)
#
#
# Indices 1 2 3 4 5 6 
#
# 1 163.1993 7.1522 51.6256 2.5079 -11.9994 -14.1719
# 2 7.1522 133.1698 -7.2651 -15.6114 -6.6147 -25.8900
# 3 51.6256 -7.2651 128.2629 8.3051 -14.9579 0.2029
# 4 2.5079 -15.6114 8.3051 41.2428 4.2725 8.4090
# 5 -11.9994 -6.6147 -14.9579 4.2725 44.1787 2.3410
# 6 -14.1719 -25.8900 0.2029 8.4090 2.3410 36.7512
#
#
#
# Elastic Compliance Matrix: (Units=1/GPa)
#
#
# Indices 1 2 3 4 5 6 
#
# 1 0.007350 -0.000001 -0.002816 -0.000573 0.000944 0.002920
# 2 -0.000001 0.008943 0.000485 0.002006 0.001003 0.005774
# 3 -0.002816 0.000485 0.009380 -0.001693 0.002678 -0.000579
# 4 -0.000573 0.002006 -0.001693 0.026629 -0.002754 -0.004716
# 5 0.000944 0.001003 0.002678 -0.002754 0.024207 0.000144
# 6 0.002920 0.005774 -0.000579 -0.004716 0.000144 0.033477
#
#
# Mechanical properties :
#
#
# Convention : Reuss Voigt Hill
#
# Bulk Modulus (GPa) = 47.59725 58.62859 53.11292
# Shear Modulus (GPa) = 41.10019 49.30916 45.20468
#
# Velocity S-wave (km/s) = 4.38730 4.80550 4.60116
# Velocity P-wave (km/s) = 6.92500 7.63203 7.28710
#
# Compressibility (1/GPa) = 0.02100962
#
# Stress axis : x y z
#
# Youngs Moduli (GPa) = 136.05320 111.81498 106.60703
#
# Poissons Ratio (x) = 0.00011 0.30020
# Poissons Ratio (y) = 0.00014 -0.05169
# Poissons Ratio (z) = 0.38311 -0.05422
#
# Static dielectric constant tensor:
#      x y z
#    x 3.920570 -0.235310 0.256660 
#    y -0.235310 3.561700 0.471750 
#    z 0.256660 0.471750 3.606800 
# 
# 
# High freq. dielectric constant tensor:
#      x y z
#    x 1.852940 -0.005950 0.002100 
#    y -0.005950 1.836180 0.001870 
#    z 0.002100 0.001870 1.857240 
# 
# From -- ./inp_files/177008.got.cif
#   From: 2010.06.25/outbox.cif.g09.slc.cpg/sg2_89_cif.got.tgz:177008.got - 2010.06.27 13:26:56.
