data_PCOD8030774
_publ_section_title
;
Structure prediction by ZEFSAII (Michael W. Deem and Ramdas Pophale) SiO2 
 PCOD8030774
Probable space group: P -1
;
_chemical_formula_sum "Si O2"
_cell_formula_units_Z 16
_cell_length_a 12.610029
_cell_length_b 8.275664
_cell_length_c 13.140904
_cell_angle_alpha 70.057332
_cell_angle_beta 44.182757
_cell_angle_gamma 49.129408
_cell_volume 701.031604
_symmetry_space_group_name_H-M "P -1"
_symmetry_group_IT_number 2
_symmetry_cell_setting 'triclinic'
loop_
_space_group_symop_operation_xyz
x,y,z
-x,-y,-z
loop_
_atom_site_type_symbol
_atom_site_label
_atom_site_fract_x
_atom_site_fract_y
_atom_site_fract_z
Si Si1 0.209514 0.750926 0.214973
Si Si2 0.805549 0.929027 0.401984
Si Si3 0.462113 0.021855 0.141781
Si Si4 0.074107 0.117620 0.362446
Si Si5 0.631629 0.279241 0.296702
Si Si6 0.418465 0.292843 0.708616
Si Si7 0.434410 0.694610 0.886235
Si Si8 0.239600 0.394816 0.604809
O O1 0.366720 0.549449 0.224170
O O2 0.004129 0.797304 0.358826
O O3 0.182830 0.967338 0.219751
O O4 0.292799 0.683661 0.057889
O O5 0.821504 0.743037 0.368303
O O6 0.810031 0.087018 0.285284
O O7 0.621747 0.076036 0.571041
O O8 0.240059 0.118073 0.300893
O O9 0.497985 0.179699 0.133669
O O10 0.613101 0.784669 0.145947
O O11 0.500000 0.000000 0.000000
O O12 0.895106 0.359434 0.398328
O O13 0.000000 0.000000 0.500000
O O14 0.569889 0.514725 0.316162
O O15 0.682912 0.206693 0.159497
O O16 0.457995 0.273921 0.445342
O O17 0.242896 0.384788 0.728873
#
# Coordination Sequence:
#
# PCOD8030774 Si02
#       8
#     2   2   2   2   2   2   2   2
#     4  11  23  40  61  91 130 172 215 265 320 386
#     4  11  22  41  67  97 130 165 221 274 322 386
#     4  12  24  43  65  95 133 173 217 266 327 388
#     4  12  24  42  69 101 132 169 221 273 326 385
#     4  11  22  40  67  95 130 171 214 268 330 390
#     4  11  23  41  68  97 128 174 216 271 332 385
#     4  11  24  41  63  89 132 174 216 258 327 392
#     4  11  22  41  67  99 132 166 217 275 327 386
#
# _framework density 22.823509999999999
#
# number of rings (size 3 to 8) (size 9 to 14) (size 15 to 20)
#    0.000    0.750    1.250    9.750    1.750    0.500 
#    0.000    4.375    0.000    0.000    0.000    0.000 
#    0.000    0.000    0.000    0.000    0.000    0.000 
#
# Total GULP energy -198337.103590 kJ/mol
# GULP energy per Si atom -12396.068974 kJ/mol
# Density = 2.277156 g / cm^3
# Si number density = 22.823510 Si / 1000 Ang^3
#
#
#
# Elastic Constant Matrix: (Units=GPa)
#
#
# Indices 1 2 3 4 5 6 
#
# 1 88.7633 24.2591 13.2225 -0.3324 8.6009 15.9555
# 2 24.2591 123.5439 33.9304 -9.0921 9.1972 0.3517
# 3 13.2225 33.9304 54.6585 -10.9937 12.6135 -0.8124
# 4 -0.3324 -9.0921 -10.9937 33.8525 -5.4166 5.4367
# 5 8.6009 9.1972 12.6135 -5.4166 42.7580 -2.7197
# 6 15.9555 0.3517 -0.8124 5.4367 -2.7197 39.7076
#
#
#
# Elastic Compliance Matrix: (Units=1/GPa)
#
#
# Indices 1 2 3 4 5 6 
#
# 1 0.013239 -0.002009 -0.001623 -0.000409 -0.002149 -0.005426
# 2 -0.002009 0.010086 -0.005614 0.000790 0.000022 0.000496
# 3 -0.001623 -0.005614 0.024447 0.005606 -0.004962 0.000094
# 4 -0.000409 0.000790 0.005606 0.032558 0.002126 -0.004040
# 5 -0.002149 0.000022 -0.004962 0.002126 0.025690 0.002230
# 6 -0.005426 0.000496 0.000094 -0.004040 0.002230 0.028068
#
#
# Mechanical properties :
#
#
# Convention : Reuss Voigt Hill
#
# Bulk Modulus (GPa) = 34.15176 45.53219 39.84198
# Shear Modulus (GPa) = 30.80013 36.30055 33.55034
#
# Velocity S-wave (km/s) = 3.67753 3.99242 3.83820
# Velocity P-wave (km/s) = 5.74701 6.42227 6.09400
#
# Compressibility (1/GPa) = 0.02928107
#
# Stress axis : x y z
#
# Youngs Moduli (GPa) = 75.53624 99.15195 40.90501
#
# Poissons Ratio (x) = 0.19915 0.06637
# Poissons Ratio (y) = 0.15172 0.22963
# Poissons Ratio (z) = 0.12257 0.55662
#
# Static dielectric constant tensor:
#      x y z
#    x 4.392510 -0.188680 0.293740 
#    y -0.188680 4.304710 -0.150670 
#    z 0.293740 -0.150670 4.044300 
# 
# 
# High freq. dielectric constant tensor:
#      x y z
#    x 1.915790 0.000680 0.017780 
#    y 0.000680 1.909920 -0.011830 
#    z 0.017780 -0.011830 1.882190 
# 
# From -- ./inp_files/419287.got.cif
#   From: 2010.06.25/outbox.cif.g09.slc.cpg/sg2_210_cif.got.tgz:419287.got - 2010.06.27 13:26:56.
