data_PCOD8030300
_publ_section_title
;
Structure prediction by ZEFSAII (Michael W. Deem and Ramdas Pophale) SiO2 
 PCOD8030300
Probable space group: P -1
;
_chemical_formula_sum "Si O2"
_cell_formula_units_Z 16
_cell_length_a 8.952433
_cell_length_b 27.224595
_cell_length_c 27.523481
_cell_angle_alpha 169.751719
_cell_angle_beta 36.525026
_cell_angle_gamma 144.289756
_cell_volume 695.943984
_symmetry_space_group_name_H-M "P -1"
_symmetry_group_IT_number 2
_symmetry_cell_setting 'triclinic'
loop_
_space_group_symop_operation_xyz
x,y,z
-x,-y,-z
loop_
_atom_site_type_symbol
_atom_site_label
_atom_site_fract_x
_atom_site_fract_y
_atom_site_fract_z
Si Si1 0.391131 0.736931 0.070933
Si Si2 0.544775 0.543696 0.369662
Si Si3 0.826411 0.769107 0.424524
Si Si4 0.080318 0.546030 0.733754
Si Si5 0.047485 0.943434 0.782017
Si Si6 0.394862 0.857298 0.339299
Si Si7 0.549501 0.447318 0.832924
Si Si8 0.193842 0.976858 0.884271
O O1 0.386378 0.470508 0.777899
O O2 0.359580 0.602273 0.001870
O O3 0.657789 0.950976 0.205271
O O4 0.177835 0.916376 0.287529
O O5 0.762961 0.736979 0.467224
O O6 0.422074 0.252104 0.090880
O O7 0.673631 0.486529 0.331131
O O8 0.318547 0.707323 0.599116
O O9 0.101688 0.708251 0.279631
O O10 0.832407 0.488132 0.776841
O O11 0.046532 0.357376 0.510747
O O12 0.127468 0.859070 0.004252
O O13 0.028292 0.930293 0.832569
O O14 0.500000 0.000000 0.500000
O O15 0.432277 0.114673 0.541388
O O16 0.550954 0.614294 0.046463
O O17 0.000000 0.000000 0.000000
#
# Coordination Sequence:
#
# PCOD8030300 Si02
#       8
#     2   2   2   2   2   2   2   2
#     4  11  22  39  65  93 125 171 225 275 326 391
#     4  12  24  46  69 105 134 173 236 274 325 415
#     4  12  23  39  65  92 125 174 224 277 325 391
#     4  11  24  41  74  98 134 185 225 277 326 395
#     4  11  21  44  68 100 135 176 223 268 341 405
#     4  12  26  41  59  88 133 179 220 281 343 384
#     4  11  24  42  62  91 135 171 227 275 337 387
#     4  12  26  46  74 103 138 176 216 277 344 407
#
# _framework density 22.990355999999998
#
# number of rings (size 3 to 8) (size 9 to 14) (size 15 to 20)
#    0.000    0.500    2.500    7.500    0.000    5.000 
#    0.000    3.750    0.000    0.000    0.000    0.000 
#    0.000    0.000    0.000    0.000    0.000    0.000 
#
# Total GULP energy -198425.427248 kJ/mol
# GULP energy per Si atom -12401.589203 kJ/mol
# Density = 2.293803 g / cm^3
# Si number density = 22.990356 Si / 1000 Ang^3
#
#
#
# Elastic Constant Matrix: (Units=GPa)
#
#
# Indices 1 2 3 4 5 6 
#
# 1 111.5981 19.1740 23.4893 -12.7508 -6.1148 -10.2405
# 2 19.1740 70.2373 10.2240 -11.6456 -1.9516 -12.7911
# 3 23.4893 10.2240 116.5696 -12.2090 0.6252 1.0219
# 4 -12.7508 -11.6456 -12.2090 28.3954 -3.2247 8.0342
# 5 -6.1148 -1.9516 0.6252 -3.2247 42.0693 -4.6151
# 6 -10.2405 -12.7911 1.0219 8.0342 -4.6151 17.7406
#
#
#
# Elastic Compliance Matrix: (Units=1/GPa)
#
#
# Indices 1 2 3 4 5 6 
#
# 1 0.010367 -0.001276 -0.001791 0.002278 0.002164 0.004699
# 2 -0.001276 0.017311 -0.001028 0.003243 0.002075 0.010875
# 3 -0.001791 -0.001028 0.009489 0.003999 -0.000613 -0.004292
# 4 0.002278 0.003243 0.003999 0.044047 0.002044 -0.015992
# 5 0.002164 0.002075 -0.000613 0.002044 0.025272 0.008429
# 6 0.004699 0.010875 -0.004292 -0.015992 0.008429 0.076604
#
#
# Mechanical properties :
#
#
# Convention : Reuss Voigt Hill
#
# Bulk Modulus (GPa) = 34.50937 44.90884 39.70910
# Shear Modulus (GPa) = 24.88318 34.00890 29.44604
#
# Velocity S-wave (km/s) = 3.29345 3.85030 3.58271
# Velocity P-wave (km/s) = 5.43188 6.27237 5.86719
#
# Compressibility (1/GPa) = 0.02897764
#
# Stress axis : x y z
#
# Youngs Moduli (GPa) = 96.45966 57.76579 105.38024
#
# Poissons Ratio (x) = 0.07369 0.18877
# Poissons Ratio (y) = 0.12306 0.10833
# Poissons Ratio (z) = 0.17279 0.05938
#
# Static dielectric constant tensor:
#      x y z
#    x 4.058060 -0.488290 -0.385570 
#    y -0.488290 3.551230 -0.172090 
#    z -0.385570 -0.172090 4.120450 
# 
# 
# High freq. dielectric constant tensor:
#      x y z
#    x 1.911040 -0.017600 -0.002330 
#    y -0.017600 1.884420 0.000630 
#    z -0.002330 0.000630 1.930240 
# 
# From -- ./inp_files/223939.got.cif
#   From: 2010.06.25/outbox.cif.g09.slc.cpg/sg2_112_cif.got.tgz:223939.got - 2010.06.27 13:26:56.
