data_PCOD8030876
_publ_section_title
;
Structure prediction by ZEFSAII (Michael W. Deem and Ramdas Pophale) SiO2 
 PCOD8030876
Probable space group: P -1
;
_chemical_formula_sum "Si O2"
_cell_formula_units_Z 16
_cell_length_a 19.554727
_cell_length_b 12.678509
_cell_length_c 16.412198
_cell_angle_alpha 154.984369
_cell_angle_beta 153.373991
_cell_angle_gamma 41.665462
_cell_volume 727.197548
_symmetry_space_group_name_H-M "P -1"
_symmetry_group_IT_number 2
_symmetry_cell_setting 'triclinic'
loop_
_space_group_symop_operation_xyz
x,y,z
-x,-y,-z
loop_
_atom_site_type_symbol
_atom_site_label
_atom_site_fract_x
_atom_site_fract_y
_atom_site_fract_z
Si Si1 0.592205 0.290447 0.268417
Si Si2 0.208488 0.957707 0.470938
Si Si3 0.662175 0.448417 0.621968
Si Si4 0.836226 0.385918 0.451611
Si Si5 0.372488 0.385690 0.711635
Si Si6 0.612967 0.479838 0.896666
Si Si7 0.951478 0.929264 0.305266
Si Si8 0.157347 0.822970 0.140174
O O1 0.693962 0.473197 0.576804
O O2 0.726716 0.297271 0.351752
O O3 0.457883 0.410225 0.178166
O O4 0.500000 0.000000 0.000000
O O5 0.354020 0.844179 0.566876
O O6 0.133121 0.825730 0.213311
O O7 0.087525 0.860544 0.350398
O O8 0.275667 0.274997 0.758654
O O9 0.500000 0.500000 0.500000
O O10 0.801331 0.666028 0.970406
O O11 0.717113 0.402975 0.262177
O O12 0.915981 0.155644 0.370220
O O13 0.979246 0.669397 0.807864
O O14 0.468301 0.315013 0.687475
O O15 0.226452 0.124443 0.396070
O O16 0.500000 0.500000 0.000000
O O17 0.714886 0.311950 0.849652
O O18 0.000000 0.000000 0.500000
#
# Coordination Sequence:
#
# PCOD8030876 Si02
#       8
#     2   2   2   2   2   2   2   2
#     4  11  22  41  64  97 143 182 230 289 345 419
#     4  12  24  43  69 101 141 183 235 286 349 421
#     4  12  25  38  67 102 136 187 236 281 345 420
#     4  11  25  43  71 102 139 185 236 289 352 421
#     4  11  25  47  74 103 138 182 236 304 358 418
#     4  11  24  44  71 102 138 185 230 292 358 421
#     4  12  26  45  67 104 149 188 230 283 358 426
#     4  12  24  47  72 100 136 181 242 293 356 415
#
# _framework density 22.002274
#
# number of rings (size 3 to 8) (size 9 to 14) (size 15 to 20)
#    0.000    0.500    3.750    4.875    3.500    1.000 
#    0.000    3.750    0.000    0.000    0.000    0.000 
#    0.000    0.000    0.000    0.000    0.000    0.000 
#
# Total GULP energy -198340.108370 kJ/mol
# GULP energy per Si atom -12396.256773 kJ/mol
# Density = 2.195220 g / cm^3
# Si number density = 22.002274 Si / 1000 Ang^3
#
#
#
# Elastic Constant Matrix: (Units=GPa)
#
#
# Indices 1 2 3 4 5 6 
#
# 1 116.3809 45.9591 37.2032 -4.4997 2.4241 6.6969
# 2 45.9591 120.0135 24.0467 -5.7534 -6.1615 3.8781
# 3 37.2032 24.0467 97.5650 0.5280 5.8296 8.5492
# 4 -4.4997 -5.7534 0.5280 36.0503 6.5366 -2.0670
# 5 2.4241 -6.1615 5.8296 6.5366 45.6828 -1.9149
# 6 6.6969 3.8781 8.5492 -2.0670 -1.9149 33.5418
#
#
#
# Elastic Compliance Matrix: (Units=1/GPa)
#
#
# Indices 1 2 3 4 5 6 
#
# 1 0.011156 -0.003589 -0.003239 0.000964 -0.000841 -0.000976
# 2 -0.003589 0.010073 -0.001214 0.000892 0.001577 0.000006
# 3 -0.003239 -0.001214 0.012092 -0.000634 -0.001546 -0.002422
# 4 0.000964 0.000892 -0.000634 0.028801 -0.003912 0.001417
# 5 -0.000841 0.001577 -0.001546 -0.003912 0.022965 0.001450
# 6 -0.000976 0.000006 -0.002422 0.001417 0.001450 0.030795
#
#
# Mechanical properties :
#
#
# Convention : Reuss Voigt Hill
#
# Bulk Modulus (GPa) = 58.01070 60.93084 59.47077
# Shear Modulus (GPa) = 36.30765 38.17168 37.23966
#
# Velocity S-wave (km/s) = 4.06664 4.16973 4.11851
# Velocity P-wave (km/s) = 6.96227 7.13689 7.05012
#
# Compressibility (1/GPa) = 0.01723820
#
# Stress axis : x y z
#
# Youngs Moduli (GPa) = 89.63824 99.27124 82.70013
#
# Poissons Ratio (x) = 0.35625 0.26786
# Poissons Ratio (y) = 0.32168 0.10039
# Poissons Ratio (z) = 0.29033 0.12051
#
# Static dielectric constant tensor:
#      x y z
#    x 4.086680 -0.028080 0.029990 
#    y -0.028080 4.125200 -0.051450 
#    z 0.029990 -0.051450 4.033340 
# 
# 
# High freq. dielectric constant tensor:
#      x y z
#    x 1.871910 -0.001000 0.005410 
#    y -0.001000 1.870220 -0.005330 
#    z 0.005410 -0.005330 1.870230 
# 
# From -- ./inp_files/505591.got.cif
#   From: 2010.06.25/outbox.cif.g09.slc.cpg/sg2_253_cif.got.tgz:505591.got - 2010.06.27 13:26:56.
