data_PCOD8030549
_publ_section_title
;
Structure prediction by ZEFSAII (Michael W. Deem and Ramdas Pophale) SiO2 
 PCOD8030549
Probable space group: P -1
;
_chemical_formula_sum "Si O2"
_cell_formula_units_Z 16
_cell_length_a 11.690712
_cell_length_b 13.501901
_cell_length_c 12.172666
_cell_angle_alpha 111.908373
_cell_angle_beta 106.848171
_cell_angle_gamma 132.849690
_cell_volume 785.610051
_symmetry_space_group_name_H-M "P -1"
_symmetry_group_IT_number 2
_symmetry_cell_setting 'triclinic'
loop_
_space_group_symop_operation_xyz
x,y,z
-x,-y,-z
loop_
_atom_site_type_symbol
_atom_site_label
_atom_site_fract_x
_atom_site_fract_y
_atom_site_fract_z
Si Si1 0.876674 0.239695 0.899865
Si Si2 0.679767 0.869912 0.101309
Si Si3 0.388298 0.746570 0.168125
Si Si4 0.399386 0.369882 0.305556
Si Si5 0.145064 0.956319 0.012218
Si Si6 0.162599 0.165415 0.488854
Si Si7 0.774433 0.026134 0.584826
Si Si8 0.688360 0.595187 0.177448
O O1 0.745314 0.247629 0.892734
O O2 0.861382 0.160196 0.974287
O O3 0.705737 0.041090 0.679110
O O4 0.175105 0.493732 0.049428
O O5 0.525114 0.820397 0.123508
O O6 0.488475 0.628475 0.897188
O O7 0.907375 0.988362 0.276584
O O8 0.785908 0.016444 0.084896
O O9 0.609334 0.937673 0.400228
O O10 0.500000 0.500000 0.500000
O O11 0.622284 0.573266 0.365160
O O12 0.347760 0.200996 0.225720
O O13 0.138219 0.218594 0.130185
O O14 0.149035 0.180042 0.623055
O O15 0.275098 0.139154 0.477728
O O16 0.081544 0.291157 0.765374
O O17 0.500000 0.500000 0.000000
#
# Coordination Sequence:
#
# PCOD8030549 Si02
#       8
#     2   2   2   2   2   2   2   2
#     4  11  26  45  66  93 126 170 221 272 313 371
#     4  12  23  42  65  95 133 168 211 263 319 391
#     4  11  25  46  68  90 124 173 224 268 315 366
#     4  11  22  38  60  92 135 165 198 251 322 394
#     4  11  25  40  64  95 132 170 206 259 324 385
#     4  12  23  37  63 100 132 168 204 256 334 386
#     4  12  23  39  68  95 129 167 213 268 317 386
#     4  12  23  36  60 100 134 163 209 262 324 381
#
# _framework density 20.366337000000001
#
# number of rings (size 3 to 8) (size 9 to 14) (size 15 to 20)
#    0.000    0.500    6.250    3.000    3.500    0.500 
#    0.000    0.000    0.000    1.500    0.000    0.000 
#    0.000    0.000    0.000    0.000    0.000    0.000 
#
# Total GULP energy -198324.411873 kJ/mol
# GULP energy per Si atom -12395.275742 kJ/mol
# Density = 2.031998 g / cm^3
# Si number density = 20.366337 Si / 1000 Ang^3
#
#
#
# Elastic Constant Matrix: (Units=GPa)
#
#
# Indices 1 2 3 4 5 6 
#
# 1 71.8323 36.2065 29.9457 -3.2917 -3.8428 -1.6494
# 2 36.2065 102.3714 36.8474 -6.9746 1.6617 -14.0697
# 3 29.9457 36.8474 113.1372 -2.9821 -7.4342 -4.0017
# 4 -3.2917 -6.9746 -2.9821 36.1749 4.4181 -2.2687
# 5 -3.8428 1.6617 -7.4342 4.4181 35.4317 -0.7926
# 6 -1.6494 -14.0697 -4.0017 -2.2687 -0.7926 29.0658
#
#
#
# Elastic Compliance Matrix: (Units=1/GPa)
#
#
# Indices 1 2 3 4 5 6 
#
# 1 0.018006 -0.005633 -0.002902 -0.000007 0.001563 -0.002063
# 2 -0.005633 0.013842 -0.002867 0.002554 -0.002043 0.006130
# 3 -0.002902 -0.002867 0.010671 -0.000194 0.002082 -0.000042
# 4 -0.000007 0.002554 -0.000194 0.028778 -0.003675 0.003355
# 5 0.001563 -0.002043 0.002082 -0.003675 0.029382 -0.000099
# 6 -0.002063 0.006130 -0.000042 0.003355 -0.000099 0.037508
#
#
# Mechanical properties :
#
#
# Convention : Reuss Voigt Hill
#
# Bulk Modulus (GPa) = 50.72316 54.81558 52.76937
# Shear Modulus (GPa) = 29.83926 32.42391 31.13159
#
# Velocity S-wave (km/s) = 3.83185 3.99436 3.91395
# Velocity P-wave (km/s) = 6.67360 6.94597 6.81114
#
# Compressibility (1/GPa) = 0.01971486
#
# Stress axis : x y z
#
# Youngs Moduli (GPa) = 55.53587 72.24161 93.71237
#
# Poissons Ratio (x) = 0.40696 0.27193
# Poissons Ratio (y) = 0.31285 0.26871
# Poissons Ratio (z) = 0.16115 0.20714
#
# Static dielectric constant tensor:
#      x y z
#    x 3.619380 0.258190 -0.157990 
#    y 0.258190 4.174400 0.277940 
#    z -0.157990 0.277940 3.865730 
# 
# 
# High freq. dielectric constant tensor:
#      x y z
#    x 1.783140 0.010990 -0.017460 
#    y 0.010990 1.801580 0.013520 
#    z -0.017460 0.013520 1.815690 
# 
# From -- ./inp_files/81433.got.cif
#   From: 2010.06.25/outbox.cif.g09.slc.cpg/sg2_41_cif.got.tgz:81433.got - 2010.06.27 13:26:56.
