data_PCOD8030375
_publ_section_title
;
Structure prediction by ZEFSAII (Michael W. Deem and Ramdas Pophale) SiO2 
 PCOD8030375
Probable space group: P -1
;
_chemical_formula_sum "Si O2"
_cell_formula_units_Z 16
_cell_length_a 11.656994
_cell_length_b 9.569715
_cell_length_c 18.378692
_cell_angle_alpha 143.263886
_cell_angle_beta 131.540580
_cell_angle_gamma 74.950655
_cell_volume 729.355934
_symmetry_space_group_name_H-M "P -1"
_symmetry_group_IT_number 2
_symmetry_cell_setting 'triclinic'
loop_
_space_group_symop_operation_xyz
x,y,z
-x,-y,-z
loop_
_atom_site_type_symbol
_atom_site_label
_atom_site_fract_x
_atom_site_fract_y
_atom_site_fract_z
Si Si1 0.019536 0.688471 0.263807
Si Si2 0.947354 0.696906 0.685822
Si Si3 0.799046 0.747141 0.505470
Si Si4 0.643152 0.160642 0.433975
Si Si5 0.604795 0.357438 0.993903
Si Si6 0.325832 0.736761 0.862050
Si Si7 0.532694 0.263973 0.575861
Si Si8 0.042850 0.192458 0.026597
O O1 0.206603 0.862866 0.467876
O O2 0.959969 0.375889 0.079550
O O3 0.833301 0.615132 0.195052
O O4 0.064773 0.904680 0.307090
O O5 0.907125 0.663482 0.568740
O O6 0.770044 0.420456 0.538730
O O7 0.148055 0.748995 0.806359
O O8 0.953056 0.972026 0.829007
O O9 0.751031 0.570046 0.336435
O O10 0.612997 0.667449 0.436096
O O11 0.525115 0.204730 0.461469
O O12 0.475511 0.875344 0.201694
O O13 0.500000 0.500000 0.000000
O O14 0.566275 0.214500 0.996742
O O15 0.500000 0.000000 0.000000
O O16 0.736281 0.571993 0.804320
O O17 0.500000 0.000000 0.500000
O O18 0.000000 0.000000 0.000000
#
# Coordination Sequence:
#
# PCOD8030375 Si02
#       8
#     2   2   2   2   2   2   2   2
#     4  11  25  48  71 111 152 186 244 313 365 438
#     4  12  26  45  74 105 147 200 242 309 366 444
#     4  12  27  44  74 108 149 198 241 309 375 435
#     4  11  24  48  73 108 145 190 250 294 374 435
#     4  12  28  44  79 106 140 198 249 304 364 447
#     4  12  27  50  70 105 152 192 249 307 369 444
#     4  11  23  45  73 107 151 189 243 311 369 436
#     4  11  21  44  74 102 145 193 238 300 374 425
#
# _framework density 21.937163999999999
#
# number of rings (size 3 to 8) (size 9 to 14) (size 15 to 20)
#    0.000    0.500    6.250    2.625    5.250    4.000 
#    0.000    0.000    0.000    0.000    0.000    0.000 
#    0.000    0.000    0.000    0.000    0.000    0.000 
#
# Total GULP energy -198360.476910 kJ/mol
# GULP energy per Si atom -12397.529807 kJ/mol
# Density = 2.188723 g / cm^3
# Si number density = 21.937164 Si / 1000 Ang^3
#
#
#
# Elastic Constant Matrix: (Units=GPa)
#
#
# Indices 1 2 3 4 5 6 
#
# 1 106.4898 34.0783 23.3310 -2.6530 5.0481 0.2244
# 2 34.0783 116.2063 19.8121 3.3308 6.8058 5.3318
# 3 23.3310 19.8121 73.0716 0.8317 0.0871 5.6654
# 4 -2.6530 3.3308 0.8317 45.5997 10.8884 3.8686
# 5 5.0481 6.8058 0.0871 10.8884 40.9041 4.5718
# 6 0.2244 5.3318 5.6654 3.8686 4.5718 37.7073
#
#
#
# Elastic Compliance Matrix: (Units=1/GPa)
#
#
# Indices 1 2 3 4 5 6 
#
# 1 0.010972 -0.002727 -0.002836 0.001129 -0.001283 0.000786
# 2 -0.002727 0.009816 -0.001711 -0.000514 -0.001052 -0.000934
# 3 -0.002836 -0.001711 0.015221 -0.000362 0.000934 -0.002104
# 4 0.001129 -0.000514 -0.000362 0.023646 -0.006173 -0.001557
# 5 -0.001283 -0.001052 0.000934 -0.006173 0.026711 -0.002589
# 6 0.000786 -0.000934 -0.002104 -0.001557 -0.002589 0.027437
#
#
# Mechanical properties :
#
#
# Convention : Reuss Voigt Hill
#
# Bulk Modulus (GPa) = 46.59855 50.02338 48.31096
# Shear Modulus (GPa) = 36.89871 39.41197 38.15534
#
# Velocity S-wave (km/s) = 4.10569 4.24321 4.17502
# Velocity P-wave (km/s) = 6.61540 6.84536 6.73136
#
# Compressibility (1/GPa) = 0.02145990
#
# Stress axis : x y z
#
# Youngs Moduli (GPa) = 91.14109 101.87294 65.69957
#
# Poissons Ratio (x) = 0.27785 0.18633
# Poissons Ratio (y) = 0.24858 0.11242
# Poissons Ratio (z) = 0.25848 0.17431
#
# Static dielectric constant tensor:
#      x y z
#    x 4.138880 0.105990 -0.006680 
#    y 0.105990 3.953180 0.019210 
#    z -0.006680 0.019210 3.884190 
# 
# 
# High freq. dielectric constant tensor:
#      x y z
#    x 1.877550 0.008190 0.004060 
#    y 0.008190 1.865320 0.007960 
#    z 0.004060 0.007960 1.867670 
# 
# From -- ./inp_files/567057.got.cif
#   From: 2010.06.25/outbox.cif.g09.slc.cpg/sg2_284_cif.got.tgz:567057.got - 2010.06.27 13:26:56.
