data_PCOD8030665
_publ_section_title
;
Structure prediction by ZEFSAII (Michael W. Deem and Ramdas Pophale) SiO2 
 PCOD8030665
Probable space group: P -1
;
_chemical_formula_sum "Si O2"
_cell_formula_units_Z 16
_cell_length_a 12.372013
_cell_length_b 10.558784
_cell_length_c 11.930712
_cell_angle_alpha 109.431423
_cell_angle_beta 100.926505
_cell_angle_gamma 139.010062
_cell_volume 676.558573
_symmetry_space_group_name_H-M "P -1"
_symmetry_group_IT_number 2
_symmetry_cell_setting 'triclinic'
loop_
_space_group_symop_operation_xyz
x,y,z
-x,-y,-z
loop_
_atom_site_type_symbol
_atom_site_label
_atom_site_fract_x
_atom_site_fract_y
_atom_site_fract_z
Si Si1 0.180044 0.418278 0.629094
Si Si2 0.215070 0.667315 0.897044
Si Si3 0.113747 0.854935 0.852905
Si Si4 0.412715 0.898960 0.711702
Si Si5 0.283028 0.046059 0.697399
Si Si6 0.391107 0.578346 0.318498
Si Si7 0.272432 0.937336 0.300943
Si Si8 0.613981 0.730001 0.770258
O O1 0.243548 0.566851 0.796858
O O2 0.241177 0.585525 0.587873
O O3 0.338211 0.455394 0.663536
O O4 0.907454 0.088415 0.461585
O O5 0.162174 0.747950 0.843088
O O6 0.998093 0.394520 0.851512
O O7 0.455807 0.939554 0.094473
O O8 0.834786 0.579211 0.734585
O O9 0.228342 0.032094 0.810286
O O10 0.235981 0.078561 0.034474
O O11 0.259102 0.859287 0.633445
O O12 0.604032 0.071258 0.705874
O O13 0.541247 0.356630 0.783818
O O14 0.346814 0.379509 0.294780
O O15 0.623487 0.893179 0.513194
O O16 0.302253 0.079188 0.252331
#
# Coordination Sequence:
#
# PCOD8030665 Si02
#       8
#     2   2   2   2   2   2   2   2
#     4  11  22  42  68 100 136 178 223 284 346 406
#     4  12  22  41  70 105 135 174 227 288 354 408
#     4  12  25  46  74 102 140 180 228 291 347 407
#     4  11  22  39  67 101 141 172 221 285 354 406
#     4  12  26  42  71 107 140 181 224 288 351 410
#     4  12  28  48  67 102 142 188 234 278 336 410
#     4  11  24  42  70 100 135 184 228 286 342 407
#     4  11  26  49  69  96 139 191 234 278 334 410
#
# _framework density 23.649097999999999
#
# number of rings (size 3 to 8) (size 9 to 14) (size 15 to 20)
#    0.000    0.500    5.000    4.875    3.500    2.000 
#    2.250    0.000    0.000    0.000    0.000    0.000 
#    0.000    0.000    0.000    0.000    0.000    0.000 
#
# Total GULP energy -198303.336392 kJ/mol
# GULP energy per Si atom -12393.958525 kJ/mol
# Density = 2.359527 g / cm^3
# Si number density = 23.649098 Si / 1000 Ang^3
#
#
#
# Elastic Constant Matrix: (Units=GPa)
#
#
# Indices 1 2 3 4 5 6 
#
# 1 74.6322 5.4961 10.3589 -4.4819 10.4799 12.4062
# 2 5.4961 106.4344 14.7615 -7.8264 8.3214 32.3660
# 3 10.3589 14.7615 74.7096 -9.7791 7.8309 2.2330
# 4 -4.4819 -7.8264 -9.7791 23.7261 12.0692 -1.3563
# 5 10.4799 8.3214 7.8309 12.0692 20.6619 7.0293
# 6 12.4062 32.3660 2.2330 -1.3563 7.0293 29.6206
#
#
#
# Elastic Compliance Matrix: (Units=1/GPa)
#
#
# Indices 1 2 3 4 5 6 
#
# 1 0.016872 0.002993 0.000181 0.011029 -0.014060 -0.006510
# 2 0.002993 0.015338 -0.001442 0.007017 -0.005729 -0.016224
# 3 0.000181 -0.001442 0.017286 0.015497 -0.016778 0.004888
# 4 0.011029 0.007017 0.015497 0.087843 -0.067876 0.006674
# 5 -0.014060 -0.005729 -0.016778 -0.067876 0.109150 -0.015597
# 6 -0.006510 -0.016224 0.004888 0.006674 -0.015597 0.057854
#
#
# Mechanical properties :
#
#
# Convention : Reuss Voigt Hill
#
# Bulk Modulus (GPa) = 18.88146 35.22325 27.05235
# Shear Modulus (GPa) = 15.69702 29.81237 22.75469
#
# Velocity S-wave (km/s) = 2.57912 3.55436 3.10527
# Velocity P-wave (km/s) = 4.10737 5.63659 4.93161
#
# Compressibility (1/GPa) = 0.05296201
#
# Stress axis : x y z
#
# Youngs Moduli (GPa) = 59.26919 65.19548 57.85035
#
# Poissons Ratio (x) = -0.19516 -0.01047
# Poissons Ratio (y) = -0.17742 0.08341
# Poissons Ratio (z) = -0.01073 0.09400
#
# Static dielectric constant tensor:
#      x y z
#    x 4.259580 0.406460 0.130850 
#    y 0.406460 4.543890 0.037300 
#    z 0.130850 0.037300 4.110900 
# 
# 
# High freq. dielectric constant tensor:
#      x y z
#    x 1.936840 0.027360 0.007260 
#    y 0.027360 1.945470 0.001520 
#    z 0.007260 0.001520 1.925640 
# 
# From -- ./inp_files/314604.got.cif
#   From: 2010.06.25/outbox.cif.g09.slc.cpg/sg2_158_cif.got.tgz:314604.got - 2010.06.27 13:26:56.
