data_PCOD8030149
_publ_section_title
;
Structure prediction by ZEFSAII (Michael W. Deem and Ramdas Pophale) SiO2 
 PCOD8030149
Probable space group: P -1
;
_chemical_formula_sum "Si O2"
_cell_formula_units_Z 16
_cell_length_a 6.706606
_cell_length_b 8.716502
_cell_length_c 16.830566
_cell_angle_alpha 59.783766
_cell_angle_beta 73.226804
_cell_angle_gamma 57.385788
_cell_volume 715.940986
_symmetry_space_group_name_H-M "P -1"
_symmetry_group_IT_number 2
_symmetry_cell_setting 'triclinic'
loop_
_space_group_symop_operation_xyz
x,y,z
-x,-y,-z
loop_
_atom_site_type_symbol
_atom_site_label
_atom_site_fract_x
_atom_site_fract_y
_atom_site_fract_z
Si Si1 0.958209 0.022904 0.091252
Si Si2 0.449976 0.680126 0.162629
Si Si3 0.785417 0.582508 0.691329
Si Si4 0.462840 0.643999 0.583436
Si Si5 0.345827 0.801060 0.385461
Si Si6 0.011362 0.779843 0.709154
Si Si7 0.154317 0.582008 0.916285
Si Si8 0.277551 0.227801 0.756731
O O1 0.830351 0.256478 0.069287
O O2 0.219442 0.898916 0.132194
O O3 0.780039 0.940462 0.157939
O O4 0.000000 0.000000 0.000000
O O5 0.377479 0.506214 0.230718
O O6 0.631081 0.682099 0.206621
O O7 0.590725 0.613430 0.079589
O O8 0.656993 0.686926 0.595817
O O9 0.800744 0.747725 0.702698
O O10 0.050498 0.405821 0.694314
O O11 0.365181 0.789550 0.481354
O O12 0.607470 0.409609 0.602682
O O13 0.247883 0.676063 0.656805
O O14 0.531725 0.866441 0.310582
O O15 0.085912 0.977572 0.343505
O O16 0.048688 0.693158 0.815974
O O17 0.000000 0.500000 0.000000
#
# Coordination Sequence:
#
# PCOD8030149 Si02
#       8
#     2   2   2   2   2   2   2   2
#     4  11  28  44  71 104 133 181 233 280 347 419
#     4  11  23  47  67  94 145 178 221 292 338 400
#     4  11  21  42  72  93 138 186 220 283 344 401
#     4  11  24  47  66 101 142 183 232 288 344 405
#     4  11  24  43  71  99 140 186 228 290 347 403
#     4  12  25  45  68 100 141 182 230 286 345 412
#     4  12  26  45  72 102 136 181 228 283 346 406
#     4  11  22  45  68 100 137 184 229 282 344 402
#
# _framework density 22.348210999999999
#
# number of rings (size 3 to 8) (size 9 to 14) (size 15 to 20)
#    0.000    0.750    5.000    1.875    5.250    4.500 
#    0.000    0.000    0.000    0.000    0.000    0.000 
#    0.000    0.000    0.000    0.000    0.000    0.000 
#
# Total GULP energy -198345.158142 kJ/mol
# GULP energy per Si atom -12396.572384 kJ/mol
# Density = 2.229735 g / cm^3
# Si number density = 22.348211 Si / 1000 Ang^3
#
#
#
# Elastic Constant Matrix: (Units=GPa)
#
#
# Indices 1 2 3 4 5 6 
#
# 1 110.7835 22.8158 29.6526 12.6090 -1.2619 11.2411
# 2 22.8158 90.1047 27.9540 7.6768 -9.6947 5.3919
# 3 29.6526 27.9540 124.1019 15.3774 4.3503 8.2717
# 4 12.6090 7.6768 15.3774 34.8192 1.2250 1.3285
# 5 -1.2619 -9.6947 4.3503 1.2250 28.0127 2.8328
# 6 11.2411 5.3919 8.2717 1.3285 2.8328 25.4913
#
#
#
# Elastic Compliance Matrix: (Units=1/GPa)
#
#
# Indices 1 2 3 4 5 6 
#
# 1 0.010468 -0.001648 -0.001583 -0.002610 0.000634 -0.003688
# 2 -0.001648 0.013031 -0.002441 -0.001310 0.005047 -0.001730
# 3 -0.001583 -0.002441 0.009527 -0.002965 -0.002115 -0.001487
# 4 -0.002610 -0.001310 -0.002965 0.031283 -0.001573 0.000934
# 5 0.000634 0.005047 -0.002115 -0.001573 0.038360 -0.004841
# 6 -0.003688 -0.001730 -0.001487 0.000934 -0.004841 0.042193
#
#
# Mechanical properties :
#
#
# Convention : Reuss Voigt Hill
#
# Bulk Modulus (GPa) = 46.12169 53.98165 50.05167
# Shear Modulus (GPa) = 30.59355 33.96917 32.28136
#
# Velocity S-wave (km/s) = 3.70394 3.90294 3.80474
# Velocity P-wave (km/s) = 6.24298 6.67217 6.46114
#
# Compressibility (1/GPa) = 0.02168177
#
# Stress axis : x y z
#
# Youngs Moduli (GPa) = 95.52626 76.74081 104.96985
#
# Poissons Ratio (x) = 0.12649 0.16617
# Poissons Ratio (y) = 0.15746 0.25620
# Poissons Ratio (z) = 0.15122 0.18730
#
# Static dielectric constant tensor:
#      x y z
#    x 4.431730 -0.124700 0.103600 
#    y -0.124700 4.390060 0.012800 
#    z 0.103600 0.012800 4.206670 
# 
# 
# High freq. dielectric constant tensor:
#      x y z
#    x 1.878370 -0.007070 0.001720 
#    y -0.007070 1.889800 0.002510 
#    z 0.001720 0.002510 1.883260 
# 
# From -- ./inp_files/141657.got.cif
#   From: 2010.06.25/outbox.cif.g09.slc.cpg/sg2_71_cif.got.tgz:141657.got - 2010.06.27 13:26:56.
