data_PCOD8030357
_publ_section_title
;
Structure prediction by ZEFSAII (Michael W. Deem and Ramdas Pophale) SiO2 
 PCOD8030357
Probable space group: P -1
;
_chemical_formula_sum "Si O2"
_cell_formula_units_Z 14
_cell_length_a 11.963233
_cell_length_b 9.648433
_cell_length_c 19.439076
_cell_angle_alpha 30.166697
_cell_angle_beta 137.951957
_cell_angle_gamma 117.948048
_cell_volume 647.310983
_symmetry_space_group_name_H-M "P -1"
_symmetry_group_IT_number 2
_symmetry_cell_setting 'triclinic'
loop_
_space_group_symop_operation_xyz
x,y,z
-x,-y,-z
loop_
_atom_site_type_symbol
_atom_site_label
_atom_site_fract_x
_atom_site_fract_y
_atom_site_fract_z
Si Si1 0.665232 0.287018 0.721479
Si Si2 0.012289 0.705842 0.069939
Si Si3 0.460613 0.623611 0.005871
Si Si4 0.069206 0.799781 0.803277
Si Si5 0.764498 0.475776 0.318986
Si Si6 0.621454 0.675979 0.317200
Si Si7 0.967734 0.873891 0.215432
O O1 0.500000 0.500000 0.500000
O O2 0.811162 0.426590 0.736918
O O3 0.566582 0.302119 0.743433
O O4 0.797386 0.914424 0.916325
O O5 0.035571 0.404914 0.167398
O O6 0.055490 0.945348 0.943355
O O7 0.288729 0.574093 0.974828
O O8 0.382053 0.997485 0.814110
O O9 0.500000 0.500000 0.000000
O O10 0.650248 0.429504 0.223991
O O11 0.076067 0.866188 0.857487
O O12 0.957965 0.133971 0.567040
O O13 0.629372 0.595778 0.274029
O O14 0.820869 0.740347 0.210789
O O15 0.811395 0.410495 0.556768
#
# Coordination Sequence:
#
# PCOD8030357 Si02
#       7
#     2   2   2   2   2   2   2
#     4  11  24  44  67  96 137 181 225 265 331 410
#     4  11  25  42  67  99 136 179 213 277 344 381
#     4  12  25  41  67 102 134 173 224 282 331 389
#     4  11  24  43  63 102 136 166 226 281 327 394
#     4  11  24  45  72  96 131 183 224 269 339 391
#     4  11  21  44  72  95 130 180 228 271 323 407
#     4  11  21  45  71  95 133 179 223 272 332 400
#
# _framework density 21.627936999999999
#
# number of rings (size 3 to 8) (size 9 to 14) (size 15 to 20)
#    0.000    0.857    4.286    3.429    2.000    4.000 
#    0.000    1.429    0.000    0.000    0.000    0.000 
#    0.000    0.000    0.000    0.000    0.000    0.000 
#
# Total GULP energy -173602.913447 kJ/mol
# GULP energy per Si atom -12400.208103 kJ/mol
# Density = 2.157871 g / cm^3
# Si number density = 21.627937 Si / 1000 Ang^3
#
#
#
# Elastic Constant Matrix: (Units=GPa)
#
#
# Indices 1 2 3 4 5 6 
#
# 1 104.1824 24.8666 26.1428 15.3034 12.2338 2.0035
# 2 24.8666 123.1540 32.4678 21.7384 1.9854 0.2376
# 3 26.1428 32.4678 53.9236 14.4548 9.4381 4.3074
# 4 15.3034 21.7384 14.4548 28.7873 9.0337 -3.8950
# 5 12.2338 1.9854 9.4381 9.0337 30.1722 -3.6493
# 6 2.0035 0.2376 4.3074 -3.8950 -3.6493 31.8642
#
#
#
# Elastic Compliance Matrix: (Units=1/GPa)
#
#
# Indices 1 2 3 4 5 6 
#
# 1 0.011489 -0.000760 -0.003799 -0.002910 -0.002653 -0.000863
# 2 -0.000760 0.010588 -0.004936 -0.006017 0.002986 0.000243
# 3 -0.003799 -0.004936 0.026360 -0.006557 -0.004981 -0.004660
# 4 -0.002910 -0.006017 -0.006557 0.048067 -0.010059 0.005838
# 5 -0.002653 0.002986 -0.004981 -0.010059 0.039084 0.004064
# 6 -0.000863 0.000243 -0.004660 0.005838 0.004064 0.033245
#
#
# Mechanical properties :
#
#
# Convention : Reuss Voigt Hill
#
# Bulk Modulus (GPa) = 33.95871 49.80161 41.88016
# Shear Modulus (GPa) = 25.29880 31.35025 28.32452
#
# Velocity S-wave (km/s) = 3.42384 3.81139 3.62280
# Velocity P-wave (km/s) = 5.60050 6.51502 6.07499
#
# Compressibility (1/GPa) = 0.02944752
#
# Stress axis : x y z
#
# Youngs Moduli (GPa) = 87.04088 94.44489 37.93630
#
# Poissons Ratio (x) = 0.07179 0.14412
# Poissons Ratio (y) = 0.06616 0.18724
# Poissons Ratio (z) = 0.33066 0.46616
#
# Static dielectric constant tensor:
#      x y z
#    x 3.199500 1.433440 -0.582880 
#    y 1.433440 1.571110 1.275620 
#    z -0.582880 1.275620 3.290500 
# 
# 
# High freq. dielectric constant tensor:
#      x y z
#    x 1.857400 -0.003880 0.012780 
#    y -0.003880 1.854590 0.012790 
#    z 0.012780 0.012790 1.848850 
# 
# From -- ./inp_files/418316.got.cif
#   From: 2010.06.25/outbox.cif.g09.slc.cpg/sg2_210_cif.got.tgz:418316.got - 2010.06.27 13:26:56.
