data_PCOD8030156
_publ_section_title
;
Structure prediction by ZEFSAII (Michael W. Deem and Ramdas Pophale) SiO2 
 PCOD8030156
Probable space group: P -1
;
_chemical_formula_sum "Si O2"
_cell_formula_units_Z 14
_cell_length_a 9.728046
_cell_length_b 10.790573
_cell_length_c 15.016120
_cell_angle_alpha 60.885927
_cell_angle_beta 149.319315
_cell_angle_gamma 127.776033
_cell_volume 632.542422
_symmetry_space_group_name_H-M "P -1"
_symmetry_group_IT_number 2
_symmetry_cell_setting 'triclinic'
loop_
_space_group_symop_operation_xyz
x,y,z
-x,-y,-z
loop_
_atom_site_type_symbol
_atom_site_label
_atom_site_fract_x
_atom_site_fract_y
_atom_site_fract_z
Si Si1 0.256612 0.633887 0.149321
Si Si2 0.875854 0.767603 0.369343
Si Si3 0.812770 0.337723 0.702845
Si Si4 0.863301 0.860567 0.608964
Si Si5 0.096962 0.668079 0.680349
Si Si6 0.262678 0.231018 0.912634
Si Si7 0.231197 0.918671 0.948952
O O1 0.581351 0.649185 0.300163
O O2 0.164870 0.584925 0.215864
O O3 0.284683 0.808122 0.087212
O O4 0.000000 0.500000 0.000000
O O5 0.803464 0.722779 0.240301
O O6 0.130157 0.726090 0.573994
O O7 0.961779 0.950782 0.370148
O O8 0.488752 0.192667 0.563668
O O9 0.871333 0.482612 0.618660
O O10 0.054036 0.268377 0.850726
O O11 0.963187 0.775814 0.617473
O O12 0.943173 0.812812 0.766326
O O13 0.397689 0.680100 0.892568
O O14 0.175916 0.046501 0.931089
O O15 0.500000 0.000000 0.000000
#
# Coordination Sequence:
#
# PCOD8030156 Si02
#       7
#     2   2   2   2   2   2   2
#     4  12  24  42  69 106 132 174 230 284 330 401
#     4  11  24  43  75  94 132 186 230 266 336 414
#     4  12  28  41  66 105 143 163 225 298 333 382
#     4  11  22  43  69 101 130 174 234 279 322 409
#     4  12  23  44  72  94 135 189 222 271 339 407
#     4  11  25  48  67 100 140 177 226 279 339 401
#     4  11  21  42  73  93 131 186 222 270 333 408
#
# _framework density 22.132905000000001
#
# number of rings (size 3 to 8) (size 9 to 14) (size 15 to 20)
#    0.000    0.571    5.714    3.000    4.000    3.429 
#    2.571    0.000    0.000    0.000    0.000    0.000 
#    0.000    0.000    0.000    0.000    0.000    0.000 
#
# Total GULP energy -173499.472806 kJ/mol
# GULP energy per Si atom -12392.819486 kJ/mol
# Density = 2.208253 g / cm^3
# Si number density = 22.132905 Si / 1000 Ang^3
#
#
#
# Elastic Constant Matrix: (Units=GPa)
#
#
# Indices 1 2 3 4 5 6 
#
# 1 45.5053 -4.5613 33.2976 13.5352 8.1116 2.0836
# 2 -4.5613 60.1517 26.2148 10.8598 2.9125 6.7517
# 3 33.2976 26.2148 132.4923 13.1115 -6.5813 9.3803
# 4 13.5352 10.8598 13.1115 37.4532 4.3918 -9.0807
# 5 8.1116 2.9125 -6.5813 4.3918 41.6508 -3.6764
# 6 2.0836 6.7517 9.3803 -9.0807 -3.6764 19.6863
#
#
#
# Elastic Compliance Matrix: (Units=1/GPa)
#
#
# Indices 1 2 3 4 5 6 
#
# 1 0.036797 0.011476 -0.009630 -0.015083 -0.008948 -0.011870
# 2 0.011476 0.023769 -0.005766 -0.011581 -0.004721 -0.012842
# 3 -0.009630 -0.005766 0.011378 0.000337 0.003905 -0.001540
# 4 -0.015083 -0.011581 0.000337 0.041190 0.001639 0.024713
# 5 -0.008948 -0.004721 0.003905 0.001639 0.027102 0.006522
# 6 -0.011870 -0.012842 -0.001540 0.024713 0.006522 0.069808
#
#
# Mechanical properties :
#
#
# Convention : Reuss Voigt Hill
#
# Bulk Modulus (GPa) = 15.59979 38.67237 27.13608
# Shear Modulus (GPa) = 20.89848 31.97129 26.43489
#
# Velocity S-wave (km/s) = 3.07616 3.80480 3.45972
# Velocity P-wave (km/s) = 4.43628 6.06735 5.31476
#
# Compressibility (1/GPa) = 0.06410342
#
# Stress axis : x y z
#
# Youngs Moduli (GPa) = 27.17621 42.07243 87.88749
#
# Poissons Ratio (x) = -0.48281 0.84633
# Poissons Ratio (y) = -0.31187 0.50677
# Poissons Ratio (z) = 0.26170 0.24259
#
# Static dielectric constant tensor:
#      x y z
#    x 3.878580 0.137020 -0.292520 
#    y 0.137020 4.132610 -0.077760 
#    z -0.292520 -0.077760 4.447680 
# 
# 
# High freq. dielectric constant tensor:
#      x y z
#    x 1.845160 -0.003140 -0.018330 
#    y -0.003140 1.875660 -0.000580 
#    z -0.018330 -0.000580 1.891280 
# 
# From -- ./inp_files/159598.got.cif
#   From: 2010.06.25/outbox.cif.g09.slc.cpg/sg2_80_cif.got.tgz:159598.got - 2010.06.27 13:26:56.
