data_PCOD8030041
_publ_section_title
;
Structure prediction by ZEFSAII (Michael W. Deem and Ramdas Pophale) SiO2 
 PCOD8030041
Probable space group: P -1
;
_chemical_formula_sum "Si O2"
_cell_formula_units_Z 16
_cell_length_a 6.070460
_cell_length_b 22.707210
_cell_length_c 9.071628
_cell_angle_alpha 50.495233
_cell_angle_beta 128.083812
_cell_angle_gamma 101.181281
_cell_volume 717.723597
_symmetry_space_group_name_H-M "P -1"
_symmetry_group_IT_number 2
_symmetry_cell_setting 'triclinic'
loop_
_space_group_symop_operation_xyz
x,y,z
-x,-y,-z
loop_
_atom_site_type_symbol
_atom_site_label
_atom_site_fract_x
_atom_site_fract_y
_atom_site_fract_z
Si Si1 0.779128 0.589096 0.294245
Si Si2 0.088352 0.859700 0.786219
Si Si3 0.688734 0.597480 0.581669
Si Si4 0.750494 0.836680 0.112333
Si Si5 0.095861 0.718585 0.216384
Si Si6 0.178395 0.025576 0.260474
Si Si7 0.796890 0.923530 0.262945
Si Si8 0.659573 0.453811 0.995307
O O1 0.643470 0.598262 0.386828
O O2 0.510273 0.605050 0.042179
O O3 0.000000 0.500000 0.500000
O O4 0.943316 0.652297 0.221892
O O5 0.048772 0.931375 0.772189
O O6 0.861231 0.890593 0.508645
O O7 0.435108 0.833300 0.927476
O O8 0.003972 0.787154 0.943938
O O9 0.450449 0.675953 0.430539
O O10 0.657598 0.516402 0.765383
O O11 0.011762 0.602794 0.739799
O O12 0.772212 0.846270 0.282604
O O13 0.994946 0.756728 0.275647
O O14 0.828121 0.915492 0.969890
O O15 0.500000 0.000000 0.500000
O O16 0.077281 0.950787 0.284465
O O17 0.500000 0.000000 0.000000
O O18 0.500000 0.500000 0.000000
#
# Coordination Sequence:
#
# PCOD8030041 Si02
#       8
#     2   2   2   2   2   2   2   2
#     4  12  23  45  77 101 134 187 242 288 350 423
#     4  11  24  45  66 102 145 181 226 295 358 419
#     4  11  23  44  72 101 140 179 231 296 355 413
#     4  11  24  45  67 101 145 180 232 287 355 426
#     4  11  26  46  69  95 148 192 226 292 364 418
#     4  11  21  41  75 100 134 176 231 292 340 414
#     4  12  23  43  79 104 132 186 239 288 345 416
#     4  11  23  41  74 112 134 170 242 300 347 413
#
# _framework density 22.292705999999999
#
# number of rings (size 3 to 8) (size 9 to 14) (size 15 to 20)
#    0.000    0.750    5.000    2.625    0.000    0.000 
#    0.000   12.500    0.000    0.000    0.000    0.000 
#    0.000    0.000    0.000    0.000    0.000    0.000 
#
# Total GULP energy -198404.533508 kJ/mol
# GULP energy per Si atom -12400.283344 kJ/mol
# Density = 2.224197 g / cm^3
# Si number density = 22.292706 Si / 1000 Ang^3
#
#
#
# Elastic Constant Matrix: (Units=GPa)
#
#
# Indices 1 2 3 4 5 6 
#
# 1 115.0137 56.3579 44.8929 4.6839 16.4567 -4.0367
# 2 56.3579 135.7181 62.8960 8.9182 12.5932 2.7417
# 3 44.8929 62.8960 93.5984 13.8200 12.2516 -0.5541
# 4 4.6839 8.9182 13.8200 38.8936 0.2800 1.2224
# 5 16.4567 12.5932 12.2516 0.2800 51.0738 -4.6137
# 6 -4.0367 2.7417 -0.5541 1.2224 -4.6137 43.2039
#
#
#
# Elastic Compliance Matrix: (Units=1/GPa)
#
#
# Indices 1 2 3 4 5 6 
#
# 1 0.011908 -0.003270 -0.003296 0.000470 -0.002149 0.001035
# 2 -0.003270 0.011676 -0.006223 -0.000032 -0.000438 -0.001172
# 3 -0.003296 -0.006223 0.017282 -0.004314 -0.001501 0.000270
# 4 0.000470 -0.000032 -0.004314 0.027212 0.000679 -0.000707
# 5 -0.002149 -0.000438 -0.001501 0.000679 0.020919 0.002022
# 6 0.001035 -0.001172 0.000270 -0.000707 0.002022 0.023557
#
#
# Mechanical properties :
#
#
# Convention : Reuss Voigt Hill
#
# Bulk Modulus (GPa) = 65.40818 74.73596 70.07207
# Shear Modulus (GPa) = 34.90945 38.64649 36.77797
#
# Velocity S-wave (km/s) = 3.96151 4.16816 4.06615
# Velocity P-wave (km/s) = 7.09430 7.53408 7.31750
#
# Compressibility (1/GPa) = 0.01528861
#
# Stress axis : x y z
#
# Youngs Moduli (GPa) = 83.97628 85.64390 57.86509
#
# Poissons Ratio (x) = 0.28003 0.19074
# Poissons Ratio (y) = 0.27458 0.36008
# Poissons Ratio (z) = 0.27681 0.53293
#
# Static dielectric constant tensor:
#      x y z
#    x 4.142100 0.063870 0.015100 
#    y 0.063870 4.171510 0.022690 
#    z 0.015100 0.022690 4.046720 
# 
# 
# High freq. dielectric constant tensor:
#      x y z
#    x 1.896400 0.000460 0.001970 
#    y 0.000460 1.872000 0.004340 
#    z 0.001970 0.004340 1.869980 
# 
# From -- ./inp_files/142559.got.cif
#   From: 2010.06.25/outbox.cif.g09.slc.cpg/sg2_72_cif.got.tgz:142559.got - 2010.06.27 13:26:56.
