data_PCOD8030480
_publ_section_title
;
Structure prediction by ZEFSAII (Michael W. Deem and Ramdas Pophale) SiO2 
 PCOD8030480
Probable space group: P -1
;
_chemical_formula_sum "Si O2"
_cell_formula_units_Z 14
_cell_length_a 23.930326
_cell_length_b 11.852938
_cell_length_c 9.486776
_cell_angle_alpha 138.024400
_cell_angle_beta 145.509209
_cell_angle_gamma 27.605234
_cell_volume 705.207974
_symmetry_space_group_name_H-M "P -1"
_symmetry_group_IT_number 2
_symmetry_cell_setting 'triclinic'
loop_
_space_group_symop_operation_xyz
x,y,z
-x,-y,-z
loop_
_atom_site_type_symbol
_atom_site_label
_atom_site_fract_x
_atom_site_fract_y
_atom_site_fract_z
Si Si1 0.958964 0.146094 0.820870
Si Si2 0.297700 0.735295 0.698168
Si Si3 0.707422 0.888122 0.950168
Si Si4 0.898273 0.466222 0.755424
Si Si5 0.560034 0.607839 0.072462
Si Si6 0.195230 0.580206 0.768960
Si Si7 0.119069 0.479133 0.781916
O O1 0.811801 0.220790 0.593197
O O2 0.971078 0.223753 0.767132
O O3 0.961776 0.273369 0.072593
O O4 0.094146 0.860805 0.855638
O O5 0.322491 0.584040 0.743644
O O6 0.231504 0.998316 0.852770
O O7 0.450939 0.583777 0.798893
O O8 0.769520 0.754359 0.104939
O O9 0.750937 0.703100 0.747230
O O10 0.535034 0.113872 0.815636
O O11 0.866655 0.451860 0.518224
O O12 0.000000 0.500000 0.000000
O O13 0.646328 0.546098 0.053319
O O14 0.207409 0.444290 0.802260
O O15 0.000000 0.500000 0.500000
#
# Coordination Sequence:
#
# PCOD8030480 Si02
#       7
#     2   2   2   2   2   2   2
#     4  11  22  39  66  86 119 164 202 251 302 358
#     4   9  18  41  63  89 121 162 199 241 312 353
#     4   9  21  40  62  82 134 157 194 245 319 345
#     4  11  22  34  60  97 119 155 204 263 293 339
#     4   9  21  37  65  92 122 159 200 253 298 359
#     4  12  23  38  63  95 119 157 218 238 298 369
#     4  11  24  43  60  88 125 165 197 253 312 353
#
# _framework density 19.852298999999999
#
# number of rings (size 3 to 8) (size 9 to 14) (size 15 to 20)
#    0.857    0.857    1.429    4.286    2.000    1.143 
#    0.000    0.714    0.000    0.000    0.000    0.000 
#    0.000    0.000    0.000    0.000    0.000    0.000 
#
# Total GULP energy -173558.809737 kJ/mol
# GULP energy per Si atom -12397.057838 kJ/mol
# Density = 1.980711 g / cm^3
# Si number density = 19.852299 Si / 1000 Ang^3
#
#
#
# Elastic Constant Matrix: (Units=GPa)
#
#
# Indices 1 2 3 4 5 6 
#
# 1 98.5339 36.4303 2.5061 4.3498 -5.9403 2.4002
# 2 36.4303 107.4228 15.4064 16.7683 -7.8095 7.7693
# 3 2.5061 15.4064 67.4950 18.4951 -5.7331 -4.2383
# 4 4.3498 16.7683 18.4951 17.1133 -2.6296 5.4345
# 5 -5.9403 -7.8095 -5.7331 -2.6296 33.9365 -7.9527
# 6 2.4002 7.7693 -4.2383 5.4345 -7.9527 32.2764
#
#
#
# Elastic Compliance Matrix: (Units=1/GPa)
#
#
# Indices 1 2 3 4 5 6 
#
# 1 0.011679 -0.004049 0.000475 0.000563 0.001330 0.000402
# 2 -0.004049 0.012521 0.000522 -0.011482 0.001278 -0.000396
# 3 0.000475 0.000522 0.023158 -0.027761 0.003964 0.008531
# 4 0.000563 -0.011482 -0.027761 0.105185 -0.003661 -0.019536
# 5 0.001330 0.001278 0.003964 -0.003661 0.032423 0.008719
# 6 0.000402 -0.000396 0.008531 -0.019536 0.008719 0.037606
#
#
# Mechanical properties :
#
#
# Convention : Reuss Voigt Hill
#
# Bulk Modulus (GPa) = 24.23984 42.45968 33.34976
# Shear Modulus (GPa) = 20.62465 31.27250 25.94858
#
# Velocity S-wave (km/s) = 3.22670 3.97326 3.61928
# Velocity P-wave (km/s) = 5.11065 6.51792 5.85671
#
# Compressibility (1/GPa) = 0.04125441
#
# Stress axis : x y z
#
# Youngs Moduli (GPa) = 85.62134 79.86520 43.18074
#
# Poissons Ratio (x) = 0.32338 -0.02049
# Poissons Ratio (y) = 0.34668 -0.02255
# Poissons Ratio (z) = -0.04063 -0.04171
#
# Static dielectric constant tensor:
#      x y z
#    x 3.701330 0.084900 0.092590 
#    y 0.084900 3.674300 0.119290 
#    z 0.092590 0.119290 3.422910 
# 
# 
# High freq. dielectric constant tensor:
#      x y z
#    x 1.775020 0.008440 0.015550 
#    y 0.008440 1.776960 0.006350 
#    z 0.015550 0.006350 1.759660 
# 
# From -- ./inp_files/353273.got.cif
#   From: 2010.06.25/outbox.cif.g09.slc.cpg/sg2_177_cif.got.tgz:353273.got - 2010.06.27 13:26:56.
