data_PCOD8030831
_publ_section_title
;
Structure prediction by ZEFSAII (Michael W. Deem and Ramdas Pophale) SiO2 
 PCOD8030831
Probable space group: P -1
;
_chemical_formula_sum "Si O2"
_cell_formula_units_Z 16
_cell_length_a 10.368897
_cell_length_b 11.708024
_cell_length_c 14.466467
_cell_angle_alpha 30.021508
_cell_angle_beta 107.393790
_cell_angle_gamma 118.707659
_cell_volume 742.797035
_symmetry_space_group_name_H-M "P -1"
_symmetry_group_IT_number 2
_symmetry_cell_setting 'triclinic'
loop_
_space_group_symop_operation_xyz
x,y,z
-x,-y,-z
loop_
_atom_site_type_symbol
_atom_site_label
_atom_site_fract_x
_atom_site_fract_y
_atom_site_fract_z
Si Si1 0.568411 0.198390 0.747211
Si Si2 0.269875 0.052582 0.705137
Si Si3 0.109903 0.664619 0.640405
Si Si4 0.262030 0.176579 0.411053
Si Si5 0.465547 0.318369 0.832099
Si Si6 0.093116 0.503543 0.107759
Si Si7 0.122708 0.365038 0.539337
Si Si8 0.137022 0.265918 0.810592
O O1 0.549160 0.321235 0.752475
O O2 0.742653 0.348742 0.648458
O O3 0.454264 0.223679 0.629626
O O4 0.532429 0.903581 0.949527
O O5 0.211515 0.040837 0.596090
O O6 0.185686 0.162946 0.675451
O O7 0.238939 0.783008 0.935559
O O8 0.180651 0.482316 0.747940
O O9 0.001251 0.518884 0.804724
O O10 0.017878 0.699958 0.511508
O O11 0.244124 0.947554 0.498662
O O12 0.434760 0.405918 0.289468
O O13 0.145959 0.282057 0.278287
O O14 0.291382 0.255617 0.824291
O O15 0.000000 0.500000 0.000000
O O16 0.072527 0.340935 0.652497
O O17 0.000000 0.000000 0.000000
#
# Coordination Sequence:
#
# PCOD8030831 Si02
#       8
#     2   2   2   2   2   2   2   2
#     4  11  22  40  71 105 131 176 228 303 346 385
#     4  12  21  38  69 103 135 169 223 291 354 387
#     4  12  26  43  66  99 144 187 227 276 347 421
#     4  12  24  44  67 103 135 178 233 288 346 396
#     4  11  23  42  69 100 141 175 235 288 342 409
#     4  12  23  41  67 104 142 178 228 290 342 409
#     4  12  23  43  71 101 137 179 235 285 346 410
#     4  12  27  46  68 100 140 190 230 278 345 425
#
# _framework density 21.540205
#
# number of rings (size 3 to 8) (size 9 to 14) (size 15 to 20)
#    0.000    0.250    6.250    4.125    1.750    0.500 
#    0.000    0.000    0.000    3.000    0.000    0.000 
#    0.000    0.000    0.000    0.000    0.000    0.000 
#
# Total GULP energy -198399.907461 kJ/mol
# GULP energy per Si atom -12399.994216 kJ/mol
# Density = 2.149118 g / cm^3
# Si number density = 21.540205 Si / 1000 Ang^3
#
#
#
# Elastic Constant Matrix: (Units=GPa)
#
#
# Indices 1 2 3 4 5 6 
#
# 1 50.4823 27.9443 28.8464 -0.8192 -10.4705 4.8744
# 2 27.9443 129.7588 59.8810 -7.2647 -5.1370 0.8089
# 3 28.8464 59.8810 131.4966 -6.1632 -7.9812 -2.6602
# 4 -0.8192 -7.2647 -6.1632 45.6067 2.9332 2.5488
# 5 -10.4705 -5.1370 -7.9812 2.9332 35.8866 -1.6423
# 6 4.8744 0.8089 -2.6602 2.5488 -1.6423 35.3197
#
#
#
# Elastic Compliance Matrix: (Units=1/GPa)
#
#
# Indices 1 2 3 4 5 6 
#
# 1 0.025454 -0.003558 -0.003705 -0.000808 0.006005 -0.003373
# 2 -0.003558 0.010314 -0.003900 0.001094 -0.000525 -0.000142
# 3 -0.003705 -0.003900 0.010289 0.000584 0.000664 0.001364
# 4 -0.000808 0.001094 0.000584 0.022372 -0.001850 -0.001570
# 5 0.006005 -0.000525 0.000664 -0.001850 0.029876 0.000756
# 6 -0.003373 -0.000142 0.001364 -0.001570 0.000756 0.029033
#
#
# Mechanical properties :
#
#
# Convention : Reuss Voigt Hill
#
# Bulk Modulus (GPa) = 42.14030 60.56457 51.35243
# Shear Modulus (GPa) = 31.73140 36.36700 34.04920
#
# Velocity S-wave (km/s) = 3.84229 4.11339 3.98015
# Velocity P-wave (km/s) = 6.26820 7.12306 6.70926
#
# Compressibility (1/GPa) = 0.02373025
#
# Stress axis : x y z
#
# Youngs Moduli (GPa) = 39.28693 96.95715 97.19504
#
# Poissons Ratio (x) = 0.34500 0.36011
# Poissons Ratio (y) = 0.13979 0.37902
# Poissons Ratio (z) = 0.14556 0.37810
#
# Static dielectric constant tensor:
#      x y z
#    x 3.692400 0.103000 0.042710 
#    y 0.103000 4.033670 -0.126580 
#    z 0.042710 -0.126580 4.282260 
# 
# 
# High freq. dielectric constant tensor:
#      x y z
#    x 1.825350 0.016530 0.007740 
#    y 0.016530 1.850280 -0.004310 
#    z 0.007740 -0.004310 1.868220 
# 
# From -- ./inp_files/451707.got.cif
#   From: 2010.06.25/outbox.cif.g09.slc.cpg/sg2_226_cif.got.tgz:451707.got - 2010.06.27 13:26:56.
