data_PCOD8030911
_publ_section_title
;
Structure prediction by ZEFSAII (Michael W. Deem and Ramdas Pophale) SiO2 
 PCOD8030911
Probable space group: P -1
;
_chemical_formula_sum "Si O2"
_cell_formula_units_Z 16
_cell_length_a 5.305804
_cell_length_b 14.451275
_cell_length_c 14.167102
_cell_angle_alpha 140.534352
_cell_angle_beta 83.003116
_cell_angle_gamma 95.376112
_cell_volume 685.308934
_symmetry_space_group_name_H-M "P -1"
_symmetry_group_IT_number 2
_symmetry_cell_setting 'triclinic'
loop_
_space_group_symop_operation_xyz
x,y,z
-x,-y,-z
loop_
_atom_site_type_symbol
_atom_site_label
_atom_site_fract_x
_atom_site_fract_y
_atom_site_fract_z
Si Si1 0.761764 0.095453 0.164013
Si Si2 0.922044 0.182779 0.038910
Si Si3 0.973903 0.638187 0.546628
Si Si4 0.420895 0.366446 0.714770
Si Si5 0.558819 0.871046 0.323733
Si Si6 0.896380 0.079394 0.753907
Si Si7 0.382493 0.191644 0.403603
Si Si8 0.917951 0.495466 0.748149
O O1 0.697121 0.149815 0.101611
O O2 0.542055 0.089102 0.246490
O O3 0.959513 0.214958 0.286763
O O4 0.863139 0.931626 0.029286
O O5 0.032367 0.344800 0.169953
O O6 0.836964 0.161918 0.919275
O O7 0.687929 0.664478 0.541515
O O8 0.000000 0.500000 0.500000
O O9 0.134192 0.610103 0.422172
O O10 0.393737 0.282994 0.749002
O O11 0.504294 0.244869 0.537656
O O12 0.650380 0.484450 0.808139
O O13 0.154654 0.443560 0.761090
O O14 0.311043 0.855904 0.257551
O O15 0.813749 0.901068 0.276346
O O16 0.500000 0.000000 0.500000
O O17 0.861422 0.906195 0.633357
#
# Coordination Sequence:
#
# PCOD8030911 Si02
#       8
#     2   2   2   2   2   2   2   2
#     4  11  23  46  68 104 148 192 246 286 350 423
#     4  11  26  46  70 104 151 197 233 290 360 438
#     4  11  22  41  67 103 143 189 243 293 338 417
#     4  11  25  44  74 106 140 180 241 311 362 414
#     4  12  26  45  76 110 139 180 244 310 365 419
#     4  12  26  45  71 109 143 185 237 298 362 426
#     4  11  24  40  73 106 143 183 242 299 353 416
#     4  11  25  45  71 105 147 191 239 292 362 424
#
# _framework density 23.347132999999999
#
# number of rings (size 3 to 8) (size 9 to 14) (size 15 to 20)
#    0.000    0.750    5.000    1.875    3.500    4.000 
#    2.250    3.750    0.000    0.000    0.000    0.000 
#    0.000    0.000    0.000    0.000    0.000    0.000 
#
# Total GULP energy -198209.235211 kJ/mol
# GULP energy per Si atom -12388.077201 kJ/mol
# Density = 2.329399 g / cm^3
# Si number density = 23.347133 Si / 1000 Ang^3
#
#
#
# Elastic Constant Matrix: (Units=GPa)
#
#
# Indices 1 2 3 4 5 6 
#
# 1 99.0172 46.0713 8.4847 -7.5974 -4.0278 3.4419
# 2 46.0713 152.4207 26.5118 3.4090 -9.5759 -10.9804
# 3 8.4847 26.5118 78.3586 -7.3146 -1.3710 -6.2015
# 4 -7.5974 3.4090 -7.3146 41.3911 -9.2542 4.8259
# 5 -4.0278 -9.5759 -1.3710 -9.2542 12.6923 -4.2780
# 6 3.4419 -10.9804 -6.2015 4.8259 -4.2780 39.7155
#
#
#
# Elastic Compliance Matrix: (Units=1/GPa)
#
#
# Indices 1 2 3 4 5 6 
#
# 1 0.012320 -0.003809 0.000156 0.003500 0.002858 -0.002214
# 2 -0.003809 0.008694 -0.002280 -0.000961 0.005442 0.003081
# 3 0.000156 -0.002280 0.013964 0.003093 0.002578 0.001438
# 4 0.003500 -0.000961 0.003093 0.030640 0.022597 -0.001375
# 5 0.002858 0.005442 0.002578 0.022597 0.103964 0.010112
# 6 -0.002214 0.003081 0.001438 -0.001375 0.010112 0.027704
#
#
# Mechanical properties :
#
#
# Convention : Reuss Voigt Hill
#
# Bulk Modulus (GPa) = 43.26634 54.65913 48.96273
# Shear Modulus (GPa) = 23.05682 35.34169 29.19925
#
# Velocity S-wave (km/s) = 3.14596 3.89491 3.54030
# Velocity P-wave (km/s) = 5.63632 6.60980 6.14238
#
# Compressibility (1/GPa) = 0.02311266
#
# Stress axis : x y z
#
# Youngs Moduli (GPa) = 81.16872 115.02103 71.61332
#
# Poissons Ratio (x) = 0.43815 -0.01119
# Poissons Ratio (y) = 0.30919 0.16326
# Poissons Ratio (z) = -0.01269 0.26221
#
# Static dielectric constant tensor:
#      x y z
#    x 4.056800 0.060960 0.038510 
#    y 0.060960 4.655550 -0.164940 
#    z 0.038510 -0.164940 4.247810 
# 
# 
# High freq. dielectric constant tensor:
#      x y z
#    x 1.909740 -0.002190 0.003380 
#    y -0.002190 1.945010 -0.003710 
#    z 0.003380 -0.003710 1.919540 
# 
# From -- ./inp_files/484481.got.cif
#   From: 2010.06.25/outbox.cif.g09.slc.cpg/sg2_243_cif.got.tgz:484481.got - 2010.06.27 13:26:56.
