data_PCOD8030397
_publ_section_title
;
Structure prediction by ZEFSAII (Michael W. Deem and Ramdas Pophale) SiO2 
 PCOD8030397
Probable space group: P -1
;
_chemical_formula_sum "Si O2"
_cell_formula_units_Z 16
_cell_length_a 9.293094
_cell_length_b 21.443173
_cell_length_c 11.822166
_cell_angle_alpha 30.007195
_cell_angle_beta 53.279248
_cell_angle_gamma 41.040192
_cell_volume 762.554568
_symmetry_space_group_name_H-M "P -1"
_symmetry_group_IT_number 2
_symmetry_cell_setting 'triclinic'
loop_
_space_group_symop_operation_xyz
x,y,z
-x,-y,-z
loop_
_atom_site_type_symbol
_atom_site_label
_atom_site_fract_x
_atom_site_fract_y
_atom_site_fract_z
Si Si1 0.186592 0.711292 0.596507
Si Si2 0.136674 0.702099 0.024354
Si Si3 0.074852 0.092445 0.386728
Si Si4 0.752899 0.854703 0.136822
Si Si5 0.441685 0.080703 0.518484
Si Si6 0.372942 0.366003 0.404857
Si Si7 0.597329 0.627695 0.888271
Si Si8 0.069282 0.111606 0.770976
O O1 0.391567 0.719547 0.509057
O O2 0.985528 0.860988 0.525838
O O3 0.119890 0.741667 0.447041
O O4 0.239744 0.546386 0.865931
O O5 0.213127 0.531399 0.279356
O O6 0.921883 0.826905 0.002992
O O7 0.347966 0.709171 0.928372
O O8 0.051868 0.741132 0.874016
O O9 0.336587 0.990075 0.402239
O O10 0.000000 0.000000 0.500000
O O11 0.744810 0.712471 0.386228
O O12 0.883996 0.850889 0.188752
O O13 0.500000 0.000000 0.000000
O O14 0.321796 0.266979 0.275404
O O15 0.299968 0.032470 0.721205
O O16 0.500000 0.000000 0.500000
O O17 0.406458 0.377910 0.237258
O O18 0.000000 0.000000 0.000000
#
# Coordination Sequence:
#
# PCOD8030397 Si02
#       8
#     2   2   2   2   2   2   2   2
#     4  11  23  44  71 101 136 181 222 289 350 400
#     4  11  23  40  71 100 133 175 232 282 342 404
#     4  12  22  38  71 105 129 173 229 290 333 397
#     4  12  27  44  69  98 139 184 230 281 345 416
#     4  12  25  42  68 102 134 177 236 283 339 405
#     4  11  21  45  69 102 133 178 233 283 341 412
#     4  11  22  44  72 102 136 177 235 286 343 408
#     4  12  28  46  65  97 144 184 224 281 352 404
#
# _framework density 20.982105000000001
#
# number of rings (size 3 to 8) (size 9 to 14) (size 15 to 20)
#    0.000    0.500    6.250    2.625    5.250    0.500 
#    2.250    2.500    0.000    0.000    0.000    0.000 
#    0.000    0.000    0.000    0.000    0.000    0.000 
#
# Total GULP energy -198240.935296 kJ/mol
# GULP energy per Si atom -12390.058456 kJ/mol
# Density = 2.093435 g / cm^3
# Si number density = 20.982105 Si / 1000 Ang^3
#
#
#
# Elastic Constant Matrix: (Units=GPa)
#
#
# Indices 1 2 3 4 5 6 
#
# 1 120.2748 30.9530 46.7455 3.4869 8.2598 0.6464
# 2 30.9530 106.7584 27.4572 6.9628 -4.3558 -7.4953
# 3 46.7455 27.4572 96.2892 10.2213 -2.7797 -7.6674
# 4 3.4869 6.9628 10.2213 26.3530 -6.7887 -2.9160
# 5 8.2598 -4.3558 -2.7797 -6.7887 42.7804 1.9782
# 6 0.6464 -7.4953 -7.6674 -2.9160 1.9782 36.3223
#
#
#
# Elastic Compliance Matrix: (Units=1/GPa)
#
#
# Indices 1 2 3 4 5 6 
#
# 1 0.010955 -0.002133 -0.004926 0.000199 -0.002551 -0.001520
# 2 -0.002133 0.010677 -0.001691 -0.001414 0.001086 0.001712
# 3 -0.004926 -0.001691 0.013872 -0.003775 0.000974 0.002311
# 4 0.000199 -0.001414 -0.003775 0.041534 0.006075 0.001911
# 5 -0.002551 0.001086 0.000974 0.006075 0.025024 -0.000400
# 6 -0.001520 0.001712 0.002311 0.001911 -0.000400 0.028575
#
#
# Mechanical properties :
#
#
# Convention : Reuss Voigt Hill
#
# Bulk Modulus (GPa) = 55.54539 59.29267 57.41903
# Shear Modulus (GPa) = 32.43820 35.63558 34.03689
#
# Velocity S-wave (km/s) = 3.93618 4.12561 4.03201
# Velocity P-wave (km/s) = 6.86937 7.14243 7.00723
#
# Compressibility (1/GPa) = 0.01800329
#
# Stress axis : x y z
#
# Youngs Moduli (GPa) = 91.27951 93.65850 72.08782
#
# Poissons Ratio (x) = 0.19979 0.35511
# Poissons Ratio (y) = 0.19472 0.12192
# Poissons Ratio (z) = 0.44965 0.15840
#
# Static dielectric constant tensor:
#      x y z
#    x 4.429440 0.052860 0.526680 
#    y 0.052860 3.921280 0.045230 
#    z 0.526680 0.045230 4.343200 
# 
# 
# High freq. dielectric constant tensor:
#      x y z
#    x 1.830820 -0.008040 -0.002390 
#    y -0.008040 1.818550 -0.000260 
#    z -0.002390 -0.000260 1.829200 
# 
# From -- ./inp_files/184403.got.cif
#   From: 2010.06.25/outbox.cif.g09.slc.cpg/sg2_93_cif.got.tgz:184403.got - 2010.06.27 13:26:56.
