data_PCOD8030568
_publ_section_title
;
Structure prediction by ZEFSAII (Michael W. Deem and Ramdas Pophale) SiO2 
 PCOD8030568
Probable space group: P -1
;
_chemical_formula_sum "Si O2"
_cell_formula_units_Z 16
_cell_length_a 11.251930
_cell_length_b 9.921041
_cell_length_c 14.712312
_cell_angle_alpha 70.493140
_cell_angle_beta 128.167790
_cell_angle_gamma 68.096143
_cell_volume 758.846182
_symmetry_space_group_name_H-M "P -1"
_symmetry_group_IT_number 2
_symmetry_cell_setting 'triclinic'
loop_
_space_group_symop_operation_xyz
x,y,z
-x,-y,-z
loop_
_atom_site_type_symbol
_atom_site_label
_atom_site_fract_x
_atom_site_fract_y
_atom_site_fract_z
Si Si1 0.438960 0.380905 0.012404
Si Si2 0.044654 0.054695 0.597355
Si Si3 0.453549 0.876165 0.041085
Si Si4 0.811132 0.518811 0.430141
Si Si5 0.753199 0.137809 0.595624
Si Si6 0.104375 0.687242 0.301411
Si Si7 0.997748 0.682132 0.873663
Si Si8 0.222040 0.458423 0.221261
O O1 0.668896 0.125907 0.220288
O O2 0.500000 0.500000 0.000000
O O3 0.392452 0.344098 0.900879
O O4 0.211129 0.525819 0.936442
O O5 0.891682 0.313111 0.465490
O O6 0.960964 0.015226 0.648609
O O7 0.000000 0.000000 0.500000
O O8 0.552535 0.766988 0.213844
O O9 0.500000 0.000000 0.000000
O O10 0.167124 0.060431 0.859349
O O11 0.798594 0.501181 0.536863
O O12 0.000000 0.500000 0.500000
O O13 0.729139 0.292958 0.616805
O O14 0.504251 0.288066 0.392269
O O15 0.827427 0.945623 0.731385
O O16 0.102601 0.619171 0.217014
O O17 0.825642 0.675401 0.771662
O O18 0.104301 0.608720 0.041418
#
# Coordination Sequence:
#
# PCOD8030568 Si02
#       8
#     2   2   2   2   2   2   2   2
#     4  12  21  41  67  99 137 170 215 282 340 395
#     4  11  22  38  63  99 134 172 218 272 337 395
#     4  12  22  40  65  96 137 173 215 277 336 404
#     4  11  23  39  63  97 134 173 217 269 339 398
#     4  11  23  44  65  96 135 173 233 275 329 402
#     4  11  24  44  65 100 133 178 228 275 336 402
#     4  11  25  44  68 100 132 181 228 274 341 395
#     4  11  26  45  68  94 137 181 229 279 324 403
#
# _framework density 21.084643
#
# number of rings (size 3 to 8) (size 9 to 14) (size 15 to 20)
#    0.000    0.750    5.000    3.000    0.000    4.500 
#    0.000    2.500    0.000    0.000    0.000    0.000 
#    0.000    0.000    0.000    0.000    0.000    0.000 
#
# Total GULP energy -198399.823675 kJ/mol
# GULP energy per Si atom -12399.988980 kJ/mol
# Density = 2.103665 g / cm^3
# Si number density = 21.084643 Si / 1000 Ang^3
#
#
#
# Elastic Constant Matrix: (Units=GPa)
#
#
# Indices 1 2 3 4 5 6 
#
# 1 76.1862 52.5386 40.5112 8.9438 -8.8786 15.7788
# 2 52.5386 123.0146 38.9153 17.8029 -17.8621 4.8369
# 3 40.5112 38.9153 126.4612 12.9593 -11.8024 12.9866
# 4 8.9438 17.8029 12.9593 33.5279 5.6158 -3.1347
# 5 -8.8786 -17.8621 -11.8024 5.6158 37.4912 1.7277
# 6 15.7788 4.8369 12.9866 -3.1347 1.7277 44.1996
#
#
#
# Elastic Compliance Matrix: (Units=1/GPa)
#
#
# Indices 1 2 3 4 5 6 
#
# 1 0.021887 -0.007640 -0.003884 -0.000959 0.000738 -0.005933
# 2 -0.007640 0.013065 -0.000649 -0.005397 0.004978 0.000911
# 3 -0.003884 -0.000649 0.010091 -0.003108 0.002497 -0.001825
# 4 -0.000959 -0.005397 -0.003108 0.036173 -0.009416 0.004780
# 5 0.000738 0.004978 0.002497 -0.009416 0.031574 -0.003444
# 6 -0.005933 0.000911 -0.001825 0.004780 -0.003444 0.025653
#
#
# Mechanical properties :
#
#
# Convention : Reuss Voigt Hill
#
# Bulk Modulus (GPa) = 48.31625 65.51026 56.91326
# Shear Modulus (GPa) = 29.46586 35.95686 32.71136
#
# Velocity S-wave (km/s) = 3.74238 4.13408 3.94309
# Velocity P-wave (km/s) = 6.45283 7.34337 6.91245
#
# Compressibility (1/GPa) = 0.02069697
#
# Stress axis : x y z
#
# Youngs Moduli (GPa) = 45.68967 76.53770 99.10250
#
# Poissons Ratio (x) = 0.58474 0.38491
# Poissons Ratio (y) = 0.34906 0.06432
# Poissons Ratio (z) = 0.17746 0.04968
#
# Static dielectric constant tensor:
#      x y z
#    x 3.802010 0.084460 0.141930 
#    y 0.084460 3.980390 0.242110 
#    z 0.141930 0.242110 3.472810 
# 
# 
# High freq. dielectric constant tensor:
#      x y z
#    x 1.823460 0.011440 -0.000820 
#    y 0.011440 1.837240 0.008730 
#    z -0.000820 0.008730 1.838330 
# 
# From -- ./inp_files/428738.got.cif
#   From: 2010.06.25/outbox.cif.g09.slc.cpg/sg2_215_cif.got.tgz:428738.got - 2010.06.27 13:26:56.
