data_PCOD8030455
_publ_section_title
;
Structure prediction by ZEFSAII (Michael W. Deem and Ramdas Pophale) SiO2 
 PCOD8030455
Probable space group: P -1
;
_chemical_formula_sum "Si O2"
_cell_formula_units_Z 16
_cell_length_a 14.933461
_cell_length_b 16.791263
_cell_length_c 11.900060
_cell_angle_alpha 46.929926
_cell_angle_beta 149.684858
_cell_angle_gamma 150.578695
_cell_volume 710.616373
_symmetry_space_group_name_H-M "P -1"
_symmetry_group_IT_number 2
_symmetry_cell_setting 'triclinic'
loop_
_space_group_symop_operation_xyz
x,y,z
-x,-y,-z
loop_
_atom_site_type_symbol
_atom_site_label
_atom_site_fract_x
_atom_site_fract_y
_atom_site_fract_z
Si Si1 0.876189 0.605712 0.544609
Si Si2 0.275736 0.222788 0.800569
Si Si3 0.747165 0.924369 0.867258
Si Si4 0.329927 0.716734 0.421066
Si Si5 0.467630 0.392283 0.481778
Si Si6 0.079987 0.818598 0.023823
Si Si7 0.506526 0.873187 0.993901
Si Si8 0.337128 0.105800 0.621122
O O1 0.698331 0.633218 0.301793
O O2 0.789249 0.460836 0.513348
O O3 0.772390 0.519034 0.638165
O O4 0.203071 0.778167 0.727444
O O5 0.473434 0.245260 0.909132
O O6 0.331358 0.203277 0.003329
O O7 0.973879 0.061068 0.583148
O O8 0.501651 0.830313 0.606644
O O9 0.824117 0.074467 0.863634
O O10 0.000000 0.000000 0.000000
O O11 0.090314 0.693844 0.175322
O O12 0.499678 0.812558 0.397615
O O13 0.500000 0.500000 0.500000
O O14 0.368800 0.238462 0.586973
O O15 0.239655 0.308399 0.220263
O O16 0.273788 0.948994 0.005001
O O17 0.553404 0.918067 0.135258
#
# Coordination Sequence:
#
# PCOD8030455 Si02
#       8
#     2   2   2   2   2   2   2   2
#     4  11  27  43  66 106 141 177 223 285 348 397
#     4  11  23  44  71  98 137 180 232 280 333 408
#     4  11  21  46  72  96 130 185 235 279 335 402
#     4  11  25  42  68 102 137 178 232 281 340 402
#     4  11  24  41  67 101 142 183 219 279 349 401
#     4  11  25  45  71 102 134 183 232 276 337 418
#     4  11  25  42  71 102 138 180 228 279 338 411
#     4  11  22  43  67 101 136 182 228 273 341 413
#
# _framework density 22.515664999999998
#
# number of rings (size 3 to 8) (size 9 to 14) (size 15 to 20)
#    0.000    1.000    3.750    3.000    7.000    2.500 
#    0.000    2.500    0.000    0.000    0.000    0.000 
#    0.000    0.000    0.000    0.000    0.000    0.000 
#
# Total GULP energy -198211.466102 kJ/mol
# GULP energy per Si atom -12388.216631 kJ/mol
# Density = 2.246442 g / cm^3
# Si number density = 22.515665 Si / 1000 Ang^3
#
#
#
# Elastic Constant Matrix: (Units=GPa)
#
#
# Indices 1 2 3 4 5 6 
#
# 1 78.6742 27.7495 37.1364 -3.3331 -22.3980 -1.1525
# 2 27.7495 84.2883 0.9283 -15.6578 4.8472 -12.8410
# 3 37.1364 0.9283 51.2242 -13.8906 6.2495 19.3283
# 4 -3.3331 -15.6578 -13.8906 39.9162 -3.6833 15.1676
# 5 -22.3980 4.8472 6.2495 -3.6833 43.0138 -4.0315
# 6 -1.1525 -12.8410 19.3283 15.1676 -4.0315 28.7636
#
#
#
# Elastic Compliance Matrix: (Units=1/GPa)
#
#
# Indices 1 2 3 4 5 6 
#
# 1 -0.037626 0.011336 0.079365 0.058098 -0.035428 -0.085380
# 2 0.011336 0.009809 -0.025594 -0.015116 0.010167 0.031428
# 3 0.079365 -0.025594 -0.113532 -0.082843 0.064937 0.120831
# 4 0.058098 -0.015116 -0.082843 -0.028062 0.048415 0.072831
# 5 -0.035428 0.010167 0.064937 0.048415 -0.007929 -0.067158
# 6 -0.085380 0.031428 0.120831 0.072831 -0.067158 -0.083638
#
#
# Mechanical properties :
#
#
# Convention : Reuss Voigt Hill
#
# Bulk Modulus (GPa) = -89.80717 38.42392 -25.69163
# Shear Modulus (GPa) = -12.66133 32.23022 9.78444
#
# Velocity S-wave (km/s) = -2.37393 3.78757 2.08688
# Velocity P-wave (km/s) = 6.89109 6.01914 2.37247
#
# Compressibility (1/GPa) = -0.01113497
#
# Stress axis : x y z
#
# Youngs Moduli (GPa) = -26.57754 101.94632 -8.80807
#
# Poissons Ratio (x) = -1.15564 0.69905
# Poissons Ratio (y) = 0.30128 -0.22543
# Poissons Ratio (z) = 2.10933 2.60922
#
# Static dielectric constant tensor:
#      x y z
#    x 3.604790 -0.259560 0.397880 
#    y -0.259560 4.272330 -0.358130 
#    z 0.397880 -0.358130 3.981570 
# 
# 
# High freq. dielectric constant tensor:
#      x y z
#    x 1.893550 -0.014810 0.010660 
#    y -0.014810 1.891500 -0.008390 
#    z 0.010660 -0.008390 1.883350 
# 
# From -- ./inp_files/456955.got.cif
#   From: 2010.06.25/outbox.cif.g09.slc.cpg/sg2_229_cif.got.tgz:456955.got - 2010.06.27 13:26:56.
