data_PCOD8030364
_publ_section_title
;
Structure prediction by ZEFSAII (Michael W. Deem and Ramdas Pophale) SiO2 
 PCOD8030364
Probable space group: P -1
;
_chemical_formula_sum "Si O2"
_cell_formula_units_Z 14
_cell_length_a 12.289766
_cell_length_b 9.128496
_cell_length_c 8.836089
_cell_angle_alpha 72.926330
_cell_angle_beta 119.926269
_cell_angle_gamma 63.501302
_cell_volume 573.866156
_symmetry_space_group_name_H-M "P -1"
_symmetry_group_IT_number 2
_symmetry_cell_setting 'triclinic'
loop_
_space_group_symop_operation_xyz
x,y,z
-x,-y,-z
loop_
_atom_site_type_symbol
_atom_site_label
_atom_site_fract_x
_atom_site_fract_y
_atom_site_fract_z
Si Si1 0.035578 0.279694 0.425479
Si Si2 0.593125 0.081548 0.063300
Si Si3 0.734145 0.935253 0.883643
Si Si4 0.286364 0.552724 0.655018
Si Si5 0.226403 0.429536 0.092082
Si Si6 0.456518 0.652701 0.561298
Si Si7 0.112200 0.526780 0.306342
O O1 0.908506 0.296203 0.447772
O O2 0.042462 0.458529 0.397821
O O3 0.948401 0.339165 0.179420
O O4 0.244404 0.047051 0.662216
O O5 0.442527 0.338173 0.930472
O O6 0.500000 0.000000 0.000000
O O7 0.665389 0.063535 0.954581
O O8 0.697349 0.783035 0.885752
O O9 0.645872 0.105966 0.635287
O O10 0.946917 0.783854 0.077629
O O11 0.335906 0.681543 0.602564
O O12 0.278150 0.469659 0.514025
O O13 0.363567 0.449253 0.199474
O O14 0.177370 0.400276 0.230495
O O15 0.500000 0.500000 0.500000
#
# Coordination Sequence:
#
# PCOD8030364 Si02
#       7
#     2   2   2   2   2   2   2
#     4  11  24  44  69 106 141 177 232 296 342 407
#     4  12  22  39  74 105 135 183 230 282 353 413
#     4  11  23  42  72 105 131 184 241 278 347 414
#     4  12  24  44  71 100 144 184 233 283 344 419
#     4  11  25  46  72 103 140 179 236 294 341 408
#     4  12  25  46  69  98 145 187 232 283 345 419
#     4  11  21  44  73 102 137 179 233 295 339 411
#
# _framework density 24.395934
#
# number of rings (size 3 to 8) (size 9 to 14) (size 15 to 20)
#    0.000    0.571    5.714    4.286    0.000    1.143 
#   10.286    0.714    0.000    0.000    0.000    0.000 
#    0.000    0.000    0.000    0.000    0.000    0.000 
#
# Total GULP energy -173468.782009 kJ/mol
# GULP energy per Si atom -12390.627286 kJ/mol
# Density = 2.434041 g / cm^3
# Si number density = 24.395934 Si / 1000 Ang^3
#
#
#
# Elastic Constant Matrix: (Units=GPa)
#
#
# Indices 1 2 3 4 5 6 
#
# 1 139.7396 6.9479 45.6180 4.5495 7.0915 23.1166
# 2 6.9479 34.3742 20.3914 7.0833 9.4425 11.7471
# 3 45.6180 20.3914 178.3111 2.8435 25.7416 22.6662
# 4 4.5495 7.0833 2.8435 27.4341 -5.7675 2.1205
# 5 7.0915 9.4425 25.7416 -5.7675 42.6632 0.5263
# 6 23.1166 11.7471 22.6662 2.1205 0.5263 28.6246
#
#
#
# Elastic Compliance Matrix: (Units=1/GPa)
#
#
# Indices 1 2 3 4 5 6 
#
# 1 0.008723 0.001968 -0.001429 -0.001539 -0.001150 -0.006585
# 2 0.001968 0.039934 -0.001500 -0.011278 -0.009590 -0.015778
# 3 -0.001429 -0.001500 0.007189 -0.000627 -0.003805 -0.003806
# 4 -0.001539 -0.011278 -0.000627 0.041262 0.008669 0.003152
# 5 -0.001150 -0.009590 -0.003805 0.008669 0.029139 0.006700
# 6 -0.006585 -0.015778 -0.003806 0.003152 0.006700 0.049385
#
#
# Mechanical properties :
#
#
# Convention : Reuss Voigt Hill
#
# Bulk Modulus (GPa) = 18.54481 55.37106 36.95794
# Shear Modulus (GPa) = 25.57175 38.37557 31.97366
#
# Velocity S-wave (km/s) = 3.24110 3.97045 3.62417
# Velocity P-wave (km/s) = 4.65020 6.61554 5.71795
#
# Compressibility (1/GPa) = 0.05392343
#
# Stress axis : x y z
#
# Youngs Moduli (GPa) = 114.64405 25.04106 139.11102
#
# Poissons Ratio (x) = -0.04929 0.19878
# Poissons Ratio (y) = -0.22565 0.20872
# Poissons Ratio (z) = 0.16382 0.03757
#
# Static dielectric constant tensor:
#      x y z
#    x 4.527090 -0.069840 0.114420 
#    y -0.069840 3.851620 0.089700 
#    z 0.114420 0.089700 4.768050 
# 
# 
# High freq. dielectric constant tensor:
#      x y z
#    x 1.977470 -0.004150 0.005440 
#    y -0.004150 1.919920 0.009620 
#    z 0.005440 0.009620 1.993080 
# 
# From -- ./inp_files/243152.got.cif
#   From: 2010.06.25/outbox.cif.g09.slc.cpg/sg2_122_cif.got.tgz:243152.got - 2010.06.27 13:26:56.
