data_PCOD8030881
_publ_section_title
;
Structure prediction by ZEFSAII (Michael W. Deem and Ramdas Pophale) SiO2 
 PCOD8030881
Probable space group: P -1
;
_chemical_formula_sum "Si O2"
_cell_formula_units_Z 16
_cell_length_a 11.116368
_cell_length_b 10.837432
_cell_length_c 18.574556
_cell_angle_alpha 75.148311
_cell_angle_beta 29.541775
_cell_angle_gamma 57.158825
_cell_volume 791.699298
_symmetry_space_group_name_H-M "P -1"
_symmetry_group_IT_number 2
_symmetry_cell_setting 'triclinic'
loop_
_space_group_symop_operation_xyz
x,y,z
-x,-y,-z
loop_
_atom_site_type_symbol
_atom_site_label
_atom_site_fract_x
_atom_site_fract_y
_atom_site_fract_z
Si Si1 0.677981 0.900343 0.821093
Si Si2 0.337798 0.409591 0.301052
Si Si3 0.802052 0.745295 0.170461
Si Si4 0.567600 0.501529 0.047110
Si Si5 0.247527 0.544006 0.840397
Si Si6 0.716834 0.738023 0.966659
Si Si7 0.793206 0.187550 0.545794
Si Si8 0.321458 0.946247 0.873339
O O1 0.804803 0.769103 0.839502
O O2 0.361105 0.946246 0.939621
O O3 0.978443 0.803221 0.622729
O O4 0.574704 0.078098 0.873063
O O5 0.313960 0.514947 0.229048
O O6 0.623757 0.360922 0.213657
O O7 0.395651 0.246367 0.269471
O O8 0.000000 0.500000 0.500000
O O9 0.503175 0.767576 0.355358
O O10 0.627277 0.930992 0.202574
O O11 0.067649 0.685490 0.101824
O O12 0.986574 0.595488 0.032736
O O13 0.500000 0.500000 0.000000
O O14 0.569830 0.649258 0.044461
O O15 0.585683 0.341822 0.690658
O O16 0.054689 0.622858 0.853554
O O17 0.000000 0.000000 0.500000
O O18 0.000000 0.000000 0.000000
#
# Coordination Sequence:
#
# PCOD8030881 Si02
#       8
#     2   2   2   2   2   2   2   2
#     4  11  25  39  63  97 125 169 208 275 321 371
#     4  11  25  39  65  98 128 166 210 269 316 371
#     4  11  23  39  69  92 121 171 212 261 318 388
#     4  11  24  43  67  90 127 174 211 259 324 396
#     4  11  22  41  65  92 126 169 212 262 316 389
#     4  11  23  43  65  89 129 168 218 254 326 394
#     4  12  23  38  64  97 129 153 217 275 320 369
#     4  12  20  40  63  91 128 164 220 253 315 386
#
# _framework density 20.209692
#
# number of rings (size 3 to 8) (size 9 to 14) (size 15 to 20)
#    0.000    0.750    6.250    1.875    5.250    0.500 
#    2.250    0.000    0.000    1.500    0.000    0.000 
#    0.000    0.000    0.000    0.000    0.000    0.000 
#
# Total GULP energy -198233.087496 kJ/mol
# GULP energy per Si atom -12389.567969 kJ/mol
# Density = 2.016369 g / cm^3
# Si number density = 20.209692 Si / 1000 Ang^3
#
#
#
# Elastic Constant Matrix: (Units=GPa)
#
#
# Indices 1 2 3 4 5 6 
#
# 1 154.2898 51.2672 43.4825 -9.7164 3.6158 -18.8662
# 2 51.2672 128.6892 47.1492 10.9708 17.4465 -1.9662
# 3 43.4825 47.1492 115.6367 -15.8467 0.5608 -4.0231
# 4 -9.7164 10.9708 -15.8467 26.4189 7.4275 6.6313
# 5 3.6158 17.4465 0.5608 7.4275 22.6796 6.9525
# 6 -18.8662 -1.9662 -4.0231 6.6313 6.9525 35.4235
#
#
#
# Elastic Compliance Matrix: (Units=1/GPa)
#
#
# Indices 1 2 3 4 5 6 
#
# 1 0.008546 -0.002851 -0.001528 0.002771 -0.001248 0.003946
# 2 -0.002851 0.012281 -0.004882 -0.007496 -0.006832 0.001353
# 3 -0.001528 -0.004882 0.012376 0.008937 0.001257 -0.001599
# 4 0.002771 -0.007496 0.008937 0.051583 -0.010071 -0.005605
# 5 -0.001248 -0.006832 0.001257 -0.010071 0.055874 -0.009982
# 6 0.003946 0.001353 -0.001599 -0.005605 -0.009982 0.033233
#
#
# Mechanical properties :
#
#
# Convention : Reuss Voigt Hill
#
# Bulk Modulus (GPa) = 68.12011 75.82372 71.97191
# Shear Modulus (GPa) = 25.34092 34.01885 29.67988
#
# Velocity S-wave (km/s) = 3.54489 4.10725 3.83638
# Velocity P-wave (km/s) = 7.10878 7.75194 7.43732
#
# Compressibility (1/GPa) = 0.01467995
#
# Stress axis : x y z
#
# Youngs Moduli (GPa) = 117.02001 81.42442 80.80201
#
# Poissons Ratio (x) = 0.23217 0.12344
# Poissons Ratio (y) = 0.33367 0.39451
# Poissons Ratio (z) = 0.17876 0.39754
#
# Static dielectric constant tensor:
#      x y z
#    x 3.392650 -0.581990 -0.157500 
#    y -0.581990 3.005820 0.062500 
#    z -0.157500 0.062500 3.681620 
# 
# 
# High freq. dielectric constant tensor:
#      x y z
#    x 1.797260 0.018690 -0.012270 
#    y 0.018690 1.803010 0.009200 
#    z -0.012270 0.009200 1.772340 
# 
# From -- ./inp_files/568708.got.cif
#   From: 2010.06.25/outbox.cif.g09.slc.cpg/sg2_285_cif.got.tgz:568708.got - 2010.06.27 13:26:56.
