data_PCOD8030920
_publ_section_title
;
Structure prediction by ZEFSAII (Michael W. Deem and Ramdas Pophale) SiO2 
 PCOD8030920
Probable space group: P -1
;
_chemical_formula_sum "Si O2"
_cell_formula_units_Z 16
_cell_length_a 9.336972
_cell_length_b 21.593147
_cell_length_c 18.055163
_cell_angle_alpha 26.788695
_cell_angle_beta 36.948778
_cell_angle_gamma 28.972644
_cell_volume 791.939952
_symmetry_space_group_name_H-M "P -1"
_symmetry_group_IT_number 2
_symmetry_cell_setting 'triclinic'
loop_
_space_group_symop_operation_xyz
x,y,z
-x,-y,-z
loop_
_atom_site_type_symbol
_atom_site_label
_atom_site_fract_x
_atom_site_fract_y
_atom_site_fract_z
Si Si1 0.745106 0.826437 0.539461
Si Si2 0.433896 0.625352 0.460320
Si Si3 0.666487 0.551627 0.927603
Si Si4 0.685995 0.756482 0.984641
Si Si5 0.669927 0.820325 0.087741
Si Si6 0.248485 0.031052 0.763185
Si Si7 0.254491 0.663438 0.254540
Si Si8 0.198507 0.750595 0.024614
O O1 0.713583 0.675125 0.729086
O O2 0.684832 0.876000 0.424688
O O3 0.088178 0.751313 0.493766
O O4 0.500000 0.000000 0.500000
O O5 0.500000 0.500000 0.500000
O O6 0.546921 0.729756 0.274257
O O7 0.646521 0.513461 0.560803
O O8 0.963371 0.378558 0.019050
O O9 0.500000 0.500000 0.000000
O O10 0.518295 0.642541 0.969707
O O11 0.600948 0.849754 0.998605
O O12 0.548934 0.653505 0.144953
O O13 0.555672 0.896101 0.823705
O O14 0.010786 0.735845 0.055269
O O15 0.500000 0.000000 0.000000
O O16 0.008253 0.169134 0.772819
O O17 0.116693 0.937330 0.879365
O O18 0.171441 0.668285 0.197983
#
# Coordination Sequence:
#
# PCOD8030920 Si02
#       8
#     2   2   2   2   2   2   2   2
#     4  12  24  43  67 100 134 180 227 273 330 409
#     4  12  23  41  69  99 131 181 226 275 331 401
#     4  12  25  43  67  95 140 179 218 272 340 405
#     4  11  22  41  67  96 132 182 218 269 342 400
#     4  12  23  40  66  96 133 173 223 274 333 393
#     4  11  23  42  69 101 136 171 229 283 328 396
#     4  11  22  41  68 102 133 171 229 283 330 389
#     4  11  24  40  64 102 134 173 219 278 336 393
#
# _framework density 20.203551999999998
#
# number of rings (size 3 to 8) (size 9 to 14) (size 15 to 20)
#    0.000    0.500    6.250    3.750    0.000    3.500 
#    0.000    1.875    0.000    0.000    0.000    0.000 
#    0.000    0.000    0.000    0.000    0.000    0.000 
#
# Total GULP energy -198312.732251 kJ/mol
# GULP energy per Si atom -12394.545766 kJ/mol
# Density = 2.015757 g / cm^3
# Si number density = 20.203552 Si / 1000 Ang^3
#
#
#
# Elastic Constant Matrix: (Units=GPa)
#
#
# Indices 1 2 3 4 5 6 
#
# 1 76.8631 13.7842 43.6779 -3.7277 12.2126 -10.6423
# 2 13.7842 117.2491 41.7860 -0.3048 5.0648 -10.2159
# 3 43.6779 41.7860 134.8078 -6.0652 20.5925 -1.7169
# 4 -3.7277 -0.3048 -6.0652 29.2782 0.6097 7.6649
# 5 12.2126 5.0648 20.5925 0.6097 37.8391 1.7352
# 6 -10.6423 -10.2159 -1.7169 7.6649 1.7352 35.5983
#
#
#
# Elastic Compliance Matrix: (Units=1/GPa)
#
#
# Indices 1 2 3 4 5 6 
#
# 1 0.017031 0.000402 -0.005128 -0.000174 -0.002993 0.005143
# 2 0.000402 0.009896 -0.003248 -0.001329 0.000193 0.003080
# 3 -0.005128 -0.003248 0.010718 0.002197 -0.003676 -0.002242
# 4 -0.000174 -0.001329 0.002197 0.036740 -0.001179 -0.008181
# 5 -0.002993 0.000193 -0.003676 -0.001179 0.029488 -0.002200
# 6 0.005143 0.003080 -0.002242 -0.008181 -0.002200 0.032273
#
#
# Mechanical properties :
#
#
# Convention : Reuss Voigt Hill
#
# Bulk Modulus (GPa) = 46.08760 58.60179 52.34469
# Shear Modulus (GPa) = 31.38224 35.85458 33.61841
#
# Velocity S-wave (km/s) = 3.94547 4.21725 4.08362
# Velocity P-wave (km/s) = 6.60430 7.26514 6.94259
#
# Compressibility (1/GPa) = 0.02169781
#
# Stress axis : x y z
#
# Youngs Moduli (GPa) = 58.71582 101.05526 93.30212
#
# Poissons Ratio (x) = -0.04065 0.47845
# Poissons Ratio (y) = -0.02362 0.30302
# Poissons Ratio (z) = 0.30109 0.32820
#
# Static dielectric constant tensor:
#      x y z
#    x 3.753200 0.019270 0.247710 
#    y 0.019270 3.830940 0.031640 
#    z 0.247710 0.031640 3.780780 
# 
# 
# High freq. dielectric constant tensor:
#      x y z
#    x 1.784890 -0.000630 0.015940 
#    y -0.000630 1.806690 -0.002440 
#    z 0.015940 -0.002440 1.789520 
# 
# From -- ./inp_files/562646.got.cif
#   From: 2010.06.25/outbox.cif.g09.slc.cpg/sg2_282_cif.got.tgz:562646.got - 2010.06.27 13:26:56.
