data_PCOD8030234
_publ_section_title
;
Structure prediction by ZEFSAII (Michael W. Deem and Ramdas Pophale) SiO2 
 PCOD8030234
Probable space group: P -1
;
_chemical_formula_sum "Si O2"
_cell_formula_units_Z 16
_cell_length_a 12.470773
_cell_length_b 9.312334
_cell_length_c 18.853039
_cell_angle_alpha 120.519836
_cell_angle_beta 25.931025
_cell_angle_gamma 129.948494
_cell_volume 717.977229
_symmetry_space_group_name_H-M "P -1"
_symmetry_group_IT_number 2
_symmetry_cell_setting 'triclinic'
loop_
_space_group_symop_operation_xyz
x,y,z
-x,-y,-z
loop_
_atom_site_type_symbol
_atom_site_label
_atom_site_fract_x
_atom_site_fract_y
_atom_site_fract_z
Si Si1 0.198432 0.236375 0.181028
Si Si2 0.370574 0.976661 0.463745
Si Si3 0.703615 0.929035 0.620988
Si Si4 0.630312 0.588126 0.091578
Si Si5 0.432158 0.476982 0.451839
Si Si6 0.691082 0.755096 0.244431
Si Si7 0.671879 0.923668 0.057543
Si Si8 0.926151 0.366997 0.262435
O O1 0.366422 0.379675 0.180211
O O2 0.904083 0.060740 0.338056
O O3 0.141712 0.351691 0.182666
O O4 0.383962 0.157124 0.010511
O O5 0.450890 0.815793 0.396322
O O6 0.279497 0.954942 0.430692
O O7 0.619162 0.182747 0.389916
O O8 0.576709 0.708856 0.621417
O O9 0.495981 0.960192 0.804606
O O10 0.000000 0.000000 0.500000
O O11 0.641575 0.605390 0.173731
O O12 0.590546 0.758258 0.123274
O O13 0.916283 0.589249 0.896239
O O14 0.500000 0.500000 0.500000
O O15 0.659449 0.652689 0.313054
O O16 0.126573 0.467035 0.631028
O O17 0.993714 0.938668 0.099343
#
# Coordination Sequence:
#
# PCOD8030234 Si02
#       8
#     2   2   2   2   2   2   2   2
#     4  11  24  39  74 111 140 174 242 303 352 403
#     4  12  22  45  75 106 136 190 248 287 351 425
#     4  12  30  46  67  99 155 189 226 292 371 423
#     4  11  24  40  72 112 141 176 237 313 350 398
#     4  12  28  46  68 103 142 187 229 293 359 431
#     4  12  24  44  79 105 138 182 250 299 342 423
#     4  11  23  46  72 104 141 190 237 291 355 424
#     4  11  21  43  71 101 138 185 238 291 347 420
#
# _framework density 22.284828999999998
#
# number of rings (size 3 to 8) (size 9 to 14) (size 15 to 20)
#    0.000    0.500    6.250    3.750    5.250    1.000 
#    0.000    0.625    0.000    0.000    0.000    0.000 
#    0.000    0.000    0.000    0.000    0.000    0.000 
#
# Total GULP energy -198373.078390 kJ/mol
# GULP energy per Si atom -12398.317399 kJ/mol
# Density = 2.223411 g / cm^3
# Si number density = 22.284829 Si / 1000 Ang^3
#
#
#
# Elastic Constant Matrix: (Units=GPa)
#
#
# Indices 1 2 3 4 5 6 
#
# 1 97.4232 38.0908 23.0872 -5.9118 14.5728 5.1751
# 2 38.0908 96.9851 51.1104 16.7910 -5.0696 4.5808
# 3 23.0872 51.1104 132.5088 20.4274 6.7981 -7.2638
# 4 -5.9118 16.7910 20.4274 42.1729 3.2850 1.3496
# 5 14.5728 -5.0696 6.7981 3.2850 28.1808 0.3429
# 6 5.1751 4.5808 -7.2638 1.3496 0.3429 31.8857
#
#
#
# Elastic Compliance Matrix: (Units=1/GPa)
#
#
# Indices 1 2 3 4 5 6 
#
# 1 0.015049 -0.007175 -0.000366 0.005949 -0.009658 -0.001643
# 2 -0.007175 0.017456 -0.005126 -0.006085 0.008825 -0.002349
# 3 -0.000366 -0.005126 0.010369 -0.002910 -0.002935 0.003313
# 4 0.005949 -0.006085 -0.002910 0.028970 -0.006823 -0.001907
# 5 -0.009658 0.008825 -0.002935 -0.006823 0.043577 -0.000549
# 6 -0.001643 -0.002349 0.003313 -0.001907 -0.000549 0.032807
#
#
# Mechanical properties :
#
#
# Convention : Reuss Voigt Hill
#
# Bulk Modulus (GPa) = 57.01517 61.27709 59.14613
# Shear Modulus (GPa) = 27.86913 34.75647 31.31280
#
# Velocity S-wave (km/s) = 3.54020 3.95352 3.75256
# Velocity P-wave (km/s) = 6.50776 6.95682 6.73604
#
# Compressibility (1/GPa) = 0.01753919
#
# Stress axis : x y z
#
# Youngs Moduli (GPa) = 66.44786 57.28686 96.44526
#
# Poissons Ratio (x) = 0.41102 0.03533
# Poissons Ratio (y) = 0.47674 0.49442
# Poissons Ratio (z) = 0.02434 0.29368
#
# Static dielectric constant tensor:
#      x y z
#    x 3.922340 -0.179820 0.069270 
#    y -0.179820 3.572320 0.275010 
#    z 0.069270 0.275010 4.306130 
# 
# 
# High freq. dielectric constant tensor:
#      x y z
#    x 1.864370 0.013490 0.012640 
#    y 0.013490 1.872440 0.015580 
#    z 0.012640 0.015580 1.892630 
# 
# From -- ./inp_files/566840.got.cif
#   From: 2010.06.25/outbox.cif.g09.slc.cpg/sg2_284_cif.got.tgz:566840.got - 2010.06.27 13:26:56.
