data_PCOD8030814
_publ_section_title
;
Structure prediction by ZEFSAII (Michael W. Deem and Ramdas Pophale) SiO2 
 PCOD8030814
Probable space group: P -1
;
_chemical_formula_sum "Si O2"
_cell_formula_units_Z 16
_cell_length_a 9.901034
_cell_length_b 8.524283
_cell_length_c 11.782487
_cell_angle_alpha 75.298233
_cell_angle_beta 62.634683
_cell_angle_gamma 113.155233
_cell_volume 687.478284
_symmetry_space_group_name_H-M "P -1"
_symmetry_group_IT_number 2
_symmetry_cell_setting 'triclinic'
loop_
_space_group_symop_operation_xyz
x,y,z
-x,-y,-z
loop_
_atom_site_type_symbol
_atom_site_label
_atom_site_fract_x
_atom_site_fract_y
_atom_site_fract_z
Si Si1 0.919619 0.699918 0.478914
Si Si2 0.419825 0.883390 0.437422
Si Si3 0.124702 0.752107 0.050703
Si Si4 0.010267 0.544043 0.659997
Si Si5 0.177091 0.046623 0.166099
Si Si6 0.494867 0.392830 0.634197
Si Si7 0.768798 0.628892 0.073302
Si Si8 0.486591 0.820793 0.830852
O O1 0.029618 0.627407 0.381447
O O2 0.694814 0.555499 0.585735
O O3 0.954887 0.683557 0.601987
O O4 0.018903 0.927572 0.350341
O O5 0.227980 0.674094 0.584649
O O6 0.543501 0.819653 0.342710
O O7 0.500000 0.000000 0.500000
O O8 0.380930 0.012022 0.346214
O O9 0.100627 0.564871 0.161443
O O10 0.962735 0.667975 0.033375
O O11 0.115474 0.896889 0.112207
O O12 0.332908 0.866206 0.899036
O O13 0.386259 0.136063 0.116039
O O14 0.180502 0.230358 0.081932
O O15 0.500000 0.500000 0.500000
O O16 0.322731 0.327731 0.796112
O O17 0.612656 0.401231 0.137685
#
# Coordination Sequence:
#
# PCOD8030814 Si02
#       8
#     2   2   2   2   2   2   2   2
#     4   9  19  37  65  91 124 166 212 266 321 387
#     4  11  22  40  69  97 129 171 221 273 319 399
#     4  11  24  42  71  95 128 179 229 270 326 397
#     4   9  18  37  62  94 124 157 216 270 313 378
#     4  11  23  43  68  99 134 170 221 278 337 392
#     4  11  23  41  67  97 132 175 215 269 341 390
#     4  12  26  45  64  97 140 177 217 276 336 396
#     4  12  25  43  66 100 132 177 226 273 330 391
#
# _framework density 23.273461999999999
#
# number of rings (size 3 to 8) (size 9 to 14) (size 15 to 20)
#    0.000    1.250    1.250    6.000    3.500    1.000 
#    0.000    1.875    0.000    0.000    0.000    0.000 
#    0.000    0.000    0.000    0.000    0.000    0.000 
#
# Total GULP energy -198340.851421 kJ/mol
# GULP energy per Si atom -12396.303214 kJ/mol
# Density = 2.322049 g / cm^3
# Si number density = 23.273462 Si / 1000 Ang^3
#
#
#
# Elastic Constant Matrix: (Units=GPa)
#
#
# Indices 1 2 3 4 5 6 
#
# 1 126.9772 22.2089 46.4724 -4.8169 18.3453 11.8916
# 2 22.2089 83.3199 14.7532 -20.2170 13.3208 4.2763
# 3 46.4724 14.7532 88.7820 -22.2639 23.1792 -3.5957
# 4 -4.8169 -20.2170 -22.2639 28.6892 -8.7180 4.1961
# 5 18.3453 13.3208 23.1792 -8.7180 47.5362 -6.7465
# 6 11.8916 4.2763 -3.5957 4.1961 -6.7465 29.2407
#
#
#
# Elastic Compliance Matrix: (Units=1/GPa)
#
#
# Indices 1 2 3 4 5 6 
#
# 1 0.011157 -0.002403 -0.006237 -0.004603 -0.002114 -0.004780
# 2 -0.002403 0.015826 0.002290 0.012155 -0.002886 -0.003466
# 3 -0.006237 0.002290 0.018834 0.013529 -0.004727 0.001486
# 4 -0.004603 0.012155 0.013529 0.054274 0.000901 -0.005822
# 5 -0.002114 -0.002886 -0.004727 0.000901 0.026066 0.006585
# 6 -0.004780 -0.003466 0.001486 -0.005822 0.006585 0.039187
#
#
# Mechanical properties :
#
#
# Convention : Reuss Voigt Hill
#
# Bulk Modulus (GPa) = 30.19666 51.77201 40.98434
# Shear Modulus (GPa) = 26.44340 35.46951 30.95645
#
# Velocity S-wave (km/s) = 3.37442 3.90812 3.65103
# Velocity P-wave (km/s) = 5.30897 6.53130 5.95160
#
# Compressibility (1/GPa) = 0.03311625
#
# Stress axis : x y z
#
# Youngs Moduli (GPa) = 89.63202 63.18762 53.09408
#
# Poissons Ratio (x) = 0.15186 0.33113
# Poissons Ratio (y) = 0.21541 -0.12156
# Poissons Ratio (z) = 0.55901 -0.14467
#
# Static dielectric constant tensor:
#      x y z
#    x 4.196680 -0.087830 0.214600 
#    y -0.087830 3.825400 -0.114490 
#    z 0.214600 -0.114490 4.376500 
# 
# 
# High freq. dielectric constant tensor:
#      x y z
#    x 1.921710 0.010990 0.016050 
#    y 0.010990 1.907300 -0.022000 
#    z 0.016050 -0.022000 1.929930 
# 
# From -- ./inp_files/223392.got.cif
#   From: 2010.06.25/outbox.cif.g09.slc.cpg/sg2_112_cif.got.tgz:223392.got - 2010.06.27 13:26:56.
