data_PCOD8030490
_publ_section_title
;
Structure prediction by ZEFSAII (Michael W. Deem and Ramdas Pophale) SiO2 
 PCOD8030490
Probable space group: P -1
;
_chemical_formula_sum "Si O2"
_cell_formula_units_Z 16
_cell_length_a 18.398591
_cell_length_b 8.198545
_cell_length_c 8.424461
_cell_angle_alpha 116.856146
_cell_angle_beta 134.789546
_cell_angle_gamma 76.848115
_cell_volume 796.282822
_symmetry_space_group_name_H-M "P -1"
_symmetry_group_IT_number 2
_symmetry_cell_setting 'triclinic'
loop_
_space_group_symop_operation_xyz
x,y,z
-x,-y,-z
loop_
_atom_site_type_symbol
_atom_site_label
_atom_site_fract_x
_atom_site_fract_y
_atom_site_fract_z
Si Si1 0.850094 0.943515 0.501064
Si Si2 0.332961 0.274172 0.045489
Si Si3 0.091297 0.647020 0.145722
Si Si4 0.957730 0.140045 0.117692
Si Si5 0.258654 0.992034 0.321364
Si Si6 0.308408 0.618407 0.376351
Si Si7 0.432755 0.157846 0.441668
Si Si8 0.498824 0.542943 0.830708
O O1 0.950427 0.831008 0.598169
O O2 0.890974 0.162959 0.639341
O O3 0.783833 0.912553 0.548007
O O4 0.776063 0.852514 0.209179
O O5 0.318699 0.462943 0.194128
O O6 0.393544 0.149170 0.197221
O O7 0.398887 0.319545 0.004985
O O8 0.199361 0.565139 0.276316
O O9 0.058476 0.679326 0.927658
O O10 0.000000 0.500000 0.000000
O O11 0.842576 0.063426 0.973242
O O12 0.000000 0.000000 0.000000
O O13 0.312622 0.815500 0.380675
O O14 0.338312 0.137976 0.413040
O O15 0.397543 0.628506 0.652830
O O16 0.503530 0.351738 0.663080
O O17 0.500000 0.000000 0.500000
O O18 0.500000 0.500000 0.000000
#
# Coordination Sequence:
#
# PCOD8030490 Si02
#       8
#     2   2   2   2   2   2   2   2
#     4   9  19  35  56  79 106 141 179 221 264 321
#     4  11  22  37  53  81 114 140 177 227 275 321
#     4   9  18  34  57  81 106 141 182 220 263 318
#     4   7  15  31  53  76 101 135 173 213 258 310
#     4   9  17  36  58  77 102 143 184 216 263 324
#     4   9  20  38  56  79 112 145 177 225 274 316
#     4  11  22  36  56  79 108 145 179 223 274 318
#     4  11  23  37  56  80 107 146 185 221 268 324
#
# _framework density 20.093364000000001
#
# number of rings (size 3 to 8) (size 9 to 14) (size 15 to 20)
#    0.000    3.000    0.000    3.750    0.000    9.000 
#    0.000   10.625    0.000    0.000    0.000    0.000 
#    0.000    0.000    0.000    0.000    0.000    0.000 
#
# Total GULP energy -198209.906076 kJ/mol
# GULP energy per Si atom -12388.119130 kJ/mol
# Density = 2.004763 g / cm^3
# Si number density = 20.093364 Si / 1000 Ang^3
#
#
#
# Elastic Constant Matrix: (Units=GPa)
#
#
# Indices 1 2 3 4 5 6 
#
# 1 49.5676 19.0695 22.6474 -2.7977 13.3687 9.2671
# 2 19.0695 74.9050 48.0140 -16.5116 13.0640 -0.3339
# 3 22.6474 48.0140 144.7316 -14.9517 8.4770 0.0871
# 4 -2.7977 -16.5116 -14.9517 34.3291 3.0756 15.2843
# 5 13.3687 13.0640 8.4770 3.0756 32.4468 -0.6272
# 6 9.2671 -0.3339 0.0871 15.2843 -0.6272 31.6586
#
#
#
# Elastic Compliance Matrix: (Units=1/GPa)
#
#
# Indices 1 2 3 4 5 6 
#
# 1 0.027385 -0.002438 -0.002237 0.005982 -0.010499 -0.011132
# 2 -0.002438 0.020564 -0.005005 0.009909 -0.006984 -0.003978
# 3 -0.002237 -0.005005 0.009031 0.001327 0.000451 -0.000055
# 4 0.005982 0.009909 0.001327 0.046940 -0.011725 -0.024544
# 5 -0.010499 -0.006984 0.000451 -0.011725 0.039133 0.009434
# 6 -0.011132 -0.003978 -0.000055 -0.024544 0.009434 0.046840
#
#
# Mechanical properties :
#
#
# Convention : Reuss Voigt Hill
#
# Bulk Modulus (GPa) = 26.58211 49.85178 38.21694
# Shear Modulus (GPa) = 22.54364 31.65180 27.09772
#
# Velocity S-wave (km/s) = 3.35318 3.97323 3.67630
# Velocity P-wave (km/s) = 5.31505 6.77589 6.08943
#
# Compressibility (1/GPa) = 0.03761928
#
# Stress axis : x y z
#
# Youngs Moduli (GPa) = 36.51654 48.62912 110.73411
#
# Poissons Ratio (x) = 0.11855 0.24769
# Poissons Ratio (y) = 0.08902 0.55427
# Poissons Ratio (z) = 0.08168 0.24341
#
# Static dielectric constant tensor:
#      x y z
#    x 3.640220 0.109410 0.448050 
#    y 0.109410 3.794430 -0.331430 
#    z 0.448050 -0.331430 4.201220 
# 
# 
# High freq. dielectric constant tensor:
#      x y z
#    x 1.765750 0.002040 0.030500 
#    y 0.002040 1.781240 -0.013230 
#    z 0.030500 -0.013230 1.785960 
# 
# From -- ./inp_files/329351.got.cif
#   From: 2010.06.25/outbox.cif.g09.slc.cpg/sg2_165_cif.got.tgz:329351.got - 2010.06.27 13:26:56.
