data_PCOD8030967
_publ_section_title
;
Structure prediction by ZEFSAII (Michael W. Deem and Ramdas Pophale) SiO2 
 PCOD8030967
Probable space group: P -1
;
_chemical_formula_sum "Si O2"
_cell_formula_units_Z 14
_cell_length_a 12.717375
_cell_length_b 8.566767
_cell_length_c 8.977652
_cell_angle_alpha 63.027113
_cell_angle_beta 112.561734
_cell_angle_gamma 69.048474
_cell_volume 614.522575
_symmetry_space_group_name_H-M "P -1"
_symmetry_group_IT_number 2
_symmetry_cell_setting 'triclinic'
loop_
_space_group_symop_operation_xyz
x,y,z
-x,-y,-z
loop_
_atom_site_type_symbol
_atom_site_label
_atom_site_fract_x
_atom_site_fract_y
_atom_site_fract_z
Si Si1 0.887338 0.501202 0.837133
Si Si2 0.343926 0.964920 0.577680
Si Si3 0.088027 0.070909 0.577821
Si Si4 0.569771 0.929298 0.905848
Si Si5 0.127193 0.882610 0.001281
Si Si6 0.074001 0.432163 0.727567
Si Si7 0.399766 0.761035 0.371844
O O1 0.836329 0.356549 0.926824
O O2 0.989932 0.364747 0.805339
O O3 0.739390 0.767264 0.618003
O O4 0.000000 0.500000 0.000000
O O5 0.499203 0.845782 0.801665
O O6 0.377707 0.821613 0.509008
O O7 0.250051 0.933779 0.650986
O O8 0.983447 0.327082 0.345234
O O9 0.000000 0.000000 0.500000
O O10 0.100505 0.036823 0.778087
O O11 0.521680 0.152973 0.700026
O O12 0.748078 0.742096 0.094587
O O13 0.500000 0.000000 0.000000
O O14 0.247187 0.869729 0.163512
O O15 0.000000 0.000000 0.000000
O O16 0.000000 0.500000 0.500000
O O17 0.500000 0.500000 0.500000
#
# Coordination Sequence:
#
# PCOD8030967 Si02
#       7
#     2   2   2   2   2   2   2
#     4  11  22  41  69  97 129 176 226 275 335 406
#     4  11  25  46  68  97 135 181 232 281 341 417
#     4  11  24  42  67  98 131 171 225 283 336 396
#     4  12  25  45  69  98 137 181 225 278 343 418
#     4  12  23  41  67 101 137 173 222 286 342 397
#     4  11  23  42  66  94 128 173 219 266 330 406
#     4  12  27  45  66  97 135 177 225 285 348 406
#
# _framework density 22.781911000000001
#
# number of rings (size 3 to 8) (size 9 to 14) (size 15 to 20)
#    0.000    0.571    0.000   10.714    0.000    4.571 
#    0.000    2.143    0.000    0.000    0.000    0.000 
#    0.000    0.000    0.000    0.000    0.000    0.000 
#
# Total GULP energy -173442.892845 kJ/mol
# GULP energy per Si atom -12388.778060 kJ/mol
# Density = 2.273006 g / cm^3
# Si number density = 22.781911 Si / 1000 Ang^3
#
#
#
# Elastic Constant Matrix: (Units=GPa)
#
#
# Indices 1 2 3 4 5 6 
#
# 1 130.6773 48.5514 46.0720 3.2028 -8.9550 -2.9294
# 2 48.5514 108.8350 40.4968 15.5861 0.8688 -12.8068
# 3 46.0720 40.4968 113.2011 17.7185 9.4660 -10.5952
# 4 3.2028 15.5861 17.7185 46.4039 1.4291 4.9522
# 5 -8.9550 0.8688 9.4660 1.4291 53.0303 8.9226
# 6 -2.9294 -12.8068 -10.5952 4.9522 8.9226 49.5786
#
#
#
# Elastic Compliance Matrix: (Units=1/GPa)
#
#
# Indices 1 2 3 4 5 6 
#
# 1 0.010448 -0.003857 -0.003595 0.002060 0.002724 -0.001843
# 2 -0.003857 0.012522 -0.001999 -0.003478 -0.000926 0.003094
# 3 -0.003595 -0.001999 0.012151 -0.003925 -0.003112 0.002820
# 4 0.002060 -0.003478 -0.003925 0.024495 0.001164 -0.004272
# 5 0.002724 -0.000926 -0.003112 0.001164 0.020626 -0.004572
# 6 -0.001843 0.003094 0.002820 -0.004272 -0.004572 0.022712
#
#
# Mechanical properties :
#
#
# Convention : Reuss Voigt Hill
#
# Bulk Modulus (GPa) = 61.65418 69.21708 65.43563
# Shear Modulus (GPa) = 39.28970 44.30878 41.79924
#
# Velocity S-wave (km/s) = 4.15734 4.41490 4.28805
# Velocity P-wave (km/s) = 7.08280 7.51245 7.30079
#
# Compressibility (1/GPa) = 0.01621950
#
# Stress axis : x y z
#
# Youngs Moduli (GPa) = 95.71508 79.86048 82.30084
#
# Poissons Ratio (x) = 0.30799 0.29588
# Poissons Ratio (y) = 0.36913 0.16448
# Poissons Ratio (z) = 0.34411 0.15960
#
# Static dielectric constant tensor:
#      x y z
#    x 3.732140 -0.326570 0.127620 
#    y -0.326570 4.103120 0.199770 
#    z 0.127620 0.199770 3.636340 
# 
# 
# High freq. dielectric constant tensor:
#      x y z
#    x 1.919300 0.009360 -0.002350 
#    y 0.009360 1.912290 0.012570 
#    z -0.002350 0.012570 1.906790 
# 
# From -- ./inp_files/156811.got.cif
#   From: 2010.06.25/outbox.cif.g09.slc.cpg/sg2_79_cif.got.tgz:156811.got - 2010.06.27 13:26:56.
