data_PCOD8030599
_publ_section_title
;
Structure prediction by ZEFSAII (Michael W. Deem and Ramdas Pophale) SiO2 
 PCOD8030599
Probable space group: P -1
;
_chemical_formula_sum "Si O2"
_cell_formula_units_Z 16
_cell_length_a 10.889633
_cell_length_b 12.167037
_cell_length_c 9.251158
_cell_angle_alpha 54.744477
_cell_angle_beta 125.571912
_cell_angle_gamma 127.366408
_cell_volume 743.212299
_symmetry_space_group_name_H-M "P -1"
_symmetry_group_IT_number 2
_symmetry_cell_setting 'triclinic'
loop_
_space_group_symop_operation_xyz
x,y,z
-x,-y,-z
loop_
_atom_site_type_symbol
_atom_site_label
_atom_site_fract_x
_atom_site_fract_y
_atom_site_fract_z
Si Si1 0.501094 0.549624 0.127641
Si Si2 0.329429 0.914774 0.063071
Si Si3 0.791636 0.676708 0.712611
Si Si4 0.134210 0.297541 0.687748
Si Si5 0.007439 0.281774 0.923042
Si Si6 0.030607 0.603865 0.729097
Si Si7 0.611382 0.199781 0.081826
Si Si8 0.842780 0.915313 0.357038
O O1 0.367649 0.433481 0.228246
O O2 0.678327 0.583501 0.292301
O O3 0.500000 0.500000 0.000000
O O4 0.474581 0.698966 0.994970
O O5 0.383037 0.805271 0.086449
O O6 0.262551 0.995105 0.832674
O O7 0.188175 0.816685 0.151809
O O8 0.484782 0.032441 0.169419
O O9 0.887256 0.594409 0.750647
O O10 0.734233 0.774038 0.490988
O O11 0.921162 0.777516 0.847290
O O12 0.019251 0.371621 0.485428
O O13 0.101436 0.143853 0.703729
O O14 0.094316 0.261870 0.854606
O O15 0.054896 0.453045 0.861995
O O16 0.202502 0.743580 0.773700
O O17 0.000000 0.000000 0.500000
#
# Coordination Sequence:
#
# PCOD8030599 Si02
#       8
#     2   2   2   2   2   2   2   2
#     4  12  23  42  66 102 132 165 219 280 328 382
#     4  11  23  40  67  96 130 174 221 267 324 391
#     4  11  22  38  69  96 127 172 223 262 328 388
#     4  11  25  41  66  97 133 170 215 279 331 380
#     4  12  21  41  68  99 126 178 218 267 332 401
#     4  11  22  42  69  94 132 173 226 271 321 387
#     4  11  22  42  67  91 132 174 216 270 321 391
#     4  11  22  42  62  94 130 168 219 270 322 391
#
# _framework density 21.528169999999999
#
# number of rings (size 3 to 8) (size 9 to 14) (size 15 to 20)
#    0.000    0.750    6.250    2.250    0.000    2.500 
#    6.750    0.625    0.000    0.000    0.000    0.000 
#    0.000    0.000    0.000    0.000    0.000    0.000 
#
# Total GULP energy -198319.891509 kJ/mol
# GULP energy per Si atom -12394.993219 kJ/mol
# Density = 2.147917 g / cm^3
# Si number density = 21.528170 Si / 1000 Ang^3
#
#
#
# Elastic Constant Matrix: (Units=GPa)
#
#
# Indices 1 2 3 4 5 6 
#
# 1 112.1828 55.9593 24.7452 12.0784 -18.1824 6.2496
# 2 55.9593 121.5217 17.4964 21.3178 -2.2255 8.2453
# 3 24.7452 17.4964 68.8707 12.8471 -6.3058 -14.8082
# 4 12.0784 21.3178 12.8471 21.4926 2.5990 4.6286
# 5 -18.1824 -2.2255 -6.3058 2.5990 34.2266 9.3692
# 6 6.2496 8.2453 -14.8082 4.6286 9.3692 46.9311
#
#
#
# Elastic Compliance Matrix: (Units=1/GPa)
#
#
# Indices 1 2 3 4 5 6 
#
# 1 0.013823 -0.005412 -0.003589 -0.000397 0.007302 -0.003441
# 2 -0.005412 0.012260 0.000391 -0.009166 -0.001268 -0.000153
# 3 -0.003589 0.000391 0.019606 -0.011803 0.000532 0.007653
# 4 -0.000397 -0.009166 -0.011803 0.065188 -0.005932 -0.007306
# 5 0.007302 -0.001268 0.000532 -0.005932 0.035502 -0.007084
# 6 -0.003441 -0.000153 0.007653 -0.007306 -0.007084 0.026343
#
#
# Mechanical properties :
#
#
# Convention : Reuss Voigt Hill
#
# Bulk Modulus (GPa) = 35.12553 55.44187 45.28370
# Shear Modulus (GPa) = 25.07124 34.15502 29.61313
#
# Velocity S-wave (km/s) = 3.41629 3.98744 3.71287
# Velocity P-wave (km/s) = 5.64915 6.85629 6.28178
#
# Compressibility (1/GPa) = 0.02846932
#
# Stress axis : x y z
#
# Youngs Moduli (GPa) = 72.34191 81.56658 51.00428
#
# Poissons Ratio (x) = 0.44142 0.18305
# Poissons Ratio (y) = 0.39150 -0.01993
# Poissons Ratio (z) = 0.25963 -0.03187
#
# Static dielectric constant tensor:
#      x y z
#    x 3.955650 0.069200 0.074320 
#    y 0.069200 4.142050 0.136490 
#    z 0.074320 0.136490 3.868660 
# 
# 
# High freq. dielectric constant tensor:
#      x y z
#    x 1.852190 0.004610 0.002710 
#    y 0.004610 1.858980 0.014300 
#    z 0.002710 0.014300 1.821910 
# 
# From -- ./inp_files/257138.got.cif
#   From: 2010.06.25/outbox.cif.g09.slc.cpg/sg2_129_cif.got.tgz:257138.got - 2010.06.27 13:26:56.
