data_PCOD8030900
_publ_section_title
;
Structure prediction by ZEFSAII (Michael W. Deem and Ramdas Pophale) SiO2 
 PCOD8030900
Probable space group: P -1
;
_chemical_formula_sum "Si O2"
_cell_formula_units_Z 16
_cell_length_a 17.718789
_cell_length_b 9.201140
_cell_length_c 19.560025
_cell_angle_alpha 127.846864
_cell_angle_beta 20.638179
_cell_angle_gamma 115.346252
_cell_volume 755.463980
_symmetry_space_group_name_H-M "P -1"
_symmetry_group_IT_number 2
_symmetry_cell_setting 'triclinic'
loop_
_space_group_symop_operation_xyz
x,y,z
-x,-y,-z
loop_
_atom_site_type_symbol
_atom_site_label
_atom_site_fract_x
_atom_site_fract_y
_atom_site_fract_z
Si Si1 0.004676 0.259886 0.283287
Si Si2 0.975220 0.458329 0.754989
Si Si3 0.582318 0.518931 0.552966
Si Si4 0.182756 0.087535 0.368072
Si Si5 0.699697 0.036135 0.302256
Si Si6 0.193391 0.901407 0.910982
Si Si7 0.573570 0.386516 0.141820
Si Si8 0.727360 0.905952 0.851452
O O1 0.140427 0.361763 0.155178
O O2 0.707808 0.427150 0.585048
O O3 0.088554 0.213439 0.276790
O O4 0.080391 0.041823 0.115731
O O5 0.152758 0.493668 0.666086
O O6 0.143876 0.231699 0.508295
O O7 0.752988 0.467358 0.987716
O O8 0.632054 0.280909 0.437267
O O9 0.431665 0.664653 0.657571
O O10 0.401839 0.638064 0.804781
O O11 0.137847 0.210088 0.368030
O O12 0.476057 0.896202 0.069753
O O13 0.000000 0.000000 0.500000
O O14 0.715967 0.990836 0.193163
O O15 0.500000 0.000000 0.500000
O O16 0.973357 0.874340 0.056658
O O17 0.650422 0.155523 0.979090
#
# Coordination Sequence:
#
# PCOD8030900 Si02
#       8
#     2   2   2   2   2   2   2   2
#     4  11  23  43  64  98 125 170 215 259 316 377
#     4  11  23  42  65  94 129 170 215 263 315 373
#     4  11  23  45  66  94 129 169 212 257 319 378
#     4  11  22  41  66  93 130 171 211 266 322 369
#     4  11  26  43  65 100 129 163 209 263 319 377
#     4  11  23  43  68  92 133 166 206 262 319 379
#     4  11  22  41  66  93 126 167 215 262 308 375
#     4  11  23  43  66  90 133 167 213 267 315 375
#
# _framework density 21.179037000000001
#
# number of rings (size 3 to 8) (size 9 to 14) (size 15 to 20)
#    0.000    1.000    7.500    0.375    1.750    3.000 
#    2.250    1.250    0.000    0.000    0.000    0.000 
#    0.000    0.000    0.000    0.000    0.000    0.000 
#
# Total GULP energy -198320.151743 kJ/mol
# GULP energy per Si atom -12395.009484 kJ/mol
# Density = 2.113083 g / cm^3
# Si number density = 21.179037 Si / 1000 Ang^3
#
#
#
# Elastic Constant Matrix: (Units=GPa)
#
#
# Indices 1 2 3 4 5 6 
#
# 1 102.2936 19.8789 40.2364 -10.4331 -26.3273 -23.7506
# 2 19.8789 104.1379 54.6443 -26.8509 -22.4520 -5.0563
# 3 40.2364 54.6443 90.0222 -22.6598 -14.6594 -16.8838
# 4 -10.4331 -26.8509 -22.6598 44.6365 -7.2487 6.8382
# 5 -26.3273 -22.4520 -14.6594 -7.2487 32.2912 4.9790
# 6 -23.7506 -5.0563 -16.8838 6.8382 4.9790 30.0857
#
#
#
# Elastic Compliance Matrix: (Units=1/GPa)
#
#
# Indices 1 2 3 4 5 6 
#
# 1 0.016973 0.004215 -0.005068 0.005089 0.014421 0.007720
# 2 0.004215 0.019881 -0.009094 0.011551 0.016304 -0.003758
# 3 -0.005068 -0.009094 0.020339 0.002577 -0.001499 0.005547
# 4 0.005089 0.011551 0.002577 0.036132 0.022151 -0.004473
# 5 0.014421 0.016304 -0.001499 0.022151 0.058577 -0.001446
# 6 0.007720 -0.003758 0.005547 -0.004473 -0.001446 0.043070
#
#
# Mechanical properties :
#
#
# Convention : Reuss Voigt Hill
#
# Bulk Modulus (GPa) = 26.81023 58.44145 42.62584
# Shear Modulus (GPa) = 21.99752 33.51562 27.75657
#
# Velocity S-wave (km/s) = 3.22630 3.98237 3.62410
# Velocity P-wave (km/s) = 5.15413 6.98567 6.13859
#
# Compressibility (1/GPa) = 0.03729920
#
# Stress axis : x y z
#
# Youngs Moduli (GPa) = 58.91738 50.29895 49.16727
#
# Poissons Ratio (x) = -0.21203 0.24917
# Poissons Ratio (y) = -0.24836 0.44715
# Poissons Ratio (z) = 0.29858 0.45744
#
# Static dielectric constant tensor:
#      x y z
#    x 4.205750 -0.044460 0.231420 
#    y -0.044460 4.340260 -0.097120 
#    z 0.231420 -0.097120 3.879450 
# 
# 
# High freq. dielectric constant tensor:
#      x y z
#    x 1.847480 0.002830 0.013640 
#    y 0.002830 1.815230 -0.001080 
#    z 0.013640 -0.001080 1.830670 
# 
# From -- ./inp_files/599541.got.cif
#   From: 2010.06.25/outbox.cif.g09.slc.cpg/sg2_300_cif.got.tgz:599541.got - 2010.06.27 13:26:56.
