data_PCOD8030394
_publ_section_title
;
Structure prediction by ZEFSAII (Michael W. Deem and Ramdas Pophale) SiO2 
 PCOD8030394
Probable space group: P -1
;
_chemical_formula_sum "Si O2"
_cell_formula_units_Z 16
_cell_length_a 9.099985
_cell_length_b 15.845668
_cell_length_c 13.004562
_cell_angle_alpha 59.993376
_cell_angle_beta 81.182757
_cell_angle_gamma 132.686058
_cell_volume 756.618802
_symmetry_space_group_name_H-M "P -1"
_symmetry_group_IT_number 2
_symmetry_cell_setting 'triclinic'
loop_
_space_group_symop_operation_xyz
x,y,z
-x,-y,-z
loop_
_atom_site_type_symbol
_atom_site_label
_atom_site_fract_x
_atom_site_fract_y
_atom_site_fract_z
Si Si1 0.836863 0.316005 0.684811
Si Si2 0.714344 0.843790 0.700627
Si Si3 0.121934 0.904078 0.944672
Si Si4 0.348599 0.811560 0.663869
Si Si5 0.121655 0.088005 0.702532
Si Si6 0.203677 0.569244 0.680458
Si Si7 0.860190 0.710445 0.309780
Si Si8 0.877272 0.601474 0.012145
O O1 0.000000 0.500000 0.500000
O O2 0.896016 0.378019 0.759246
O O3 0.995185 0.304340 0.650807
O O4 0.478349 0.092417 0.828039
O O5 0.556394 0.857399 0.683122
O O6 0.492480 0.620496 0.842535
O O7 0.000000 0.000000 0.500000
O O8 0.846618 0.909035 0.760581
O O9 0.096832 0.001077 0.854682
O O10 0.905303 0.749571 0.158312
O O11 0.010434 0.781394 0.928912
O O12 0.265008 0.715744 0.619765
O O13 0.500000 0.000000 0.500000
O O14 0.046960 0.662941 0.854251
O O15 0.477003 0.291034 0.491320
O O16 0.008630 0.124425 0.739764
O O17 0.079797 0.447351 0.869864
O O18 0.500000 0.500000 0.500000
#
# Coordination Sequence:
#
# PCOD8030394 Si02
#       8
#     2   2   2   2   2   2   2   2
#     4  12  25  44  74 101 135 185 228 279 348 403
#     4  11  24  44  71  98 135 184 223 277 351 401
#     4  12  26  45  70 102 140 180 229 283 342 409
#     4  11  25  44  70 103 136 177 232 283 337 409
#     4  12  24  44  70 100 143 179 224 287 339 409
#     4  11  21  45  68  98 141 174 222 286 338 399
#     4  12  25  45  68 102 140 181 229 282 342 405
#     4  11  24  44  71  99 135 179 228 280 341 406
#
# _framework density 21.146712999999998
#
# number of rings (size 3 to 8) (size 9 to 14) (size 15 to 20)
#    0.000    0.500    6.250    3.000    1.750    1.500 
#    0.000    0.000    0.000    0.000    0.000    0.000 
#    0.000    0.000    0.000    0.000    0.000    0.000 
#
# Total GULP energy -198238.365892 kJ/mol
# GULP energy per Si atom -12389.897868 kJ/mol
# Density = 2.109858 g / cm^3
# Si number density = 21.146713 Si / 1000 Ang^3
#
#
#
# Elastic Constant Matrix: (Units=GPa)
#
#
# Indices 1 2 3 4 5 6 
#
# 1 119.4878 64.0650 52.8324 -3.5128 7.1393 -9.1954
# 2 64.0650 159.6067 29.1730 -8.9112 -16.4216 0.5612
# 3 52.8324 29.1730 117.8799 -6.0129 -6.8796 -1.0500
# 4 -3.5128 -8.9112 -6.0129 36.4533 -4.3672 -5.3604
# 5 7.1393 -16.4216 -6.8796 -4.3672 29.8707 0.1570
# 6 -9.1954 0.5612 -1.0500 -5.3604 0.1570 45.0000
#
#
#
# Elastic Compliance Matrix: (Units=1/GPa)
#
#
# Indices 1 2 3 4 5 6 
#
# 1 0.014628 -0.005776 -0.005658 -0.001511 -0.008210 0.002778
# 2 -0.005776 0.009307 0.000819 0.002553 0.007064 -0.000998
# 3 -0.005658 0.000819 0.011182 0.001958 0.004668 -0.000689
# 4 -0.001511 0.002553 0.001958 0.029483 0.006509 0.003194
# 5 -0.008210 0.007064 0.004668 0.006509 0.041356 -0.001026
# 6 0.002778 -0.000998 -0.000689 0.003194 -0.001026 0.023170
#
#
# Mechanical properties :
#
#
# Convention : Reuss Voigt Hill
#
# Bulk Modulus (GPa) = 72.00839 76.56834 74.28836
# Shear Modulus (GPa) = 32.26115 38.99175 35.62645
#
# Velocity S-wave (km/s) = 3.91011 4.29869 4.10900
# Velocity P-wave (km/s) = 7.38316 7.80545 7.59724
#
# Compressibility (1/GPa) = 0.01388727
#
# Stress axis : x y z
#
# Youngs Moduli (GPa) = 68.36418 107.44537 89.42591
#
# Poissons Ratio (x) = 0.62061 0.50596
# Poissons Ratio (y) = 0.39488 -0.07325
# Poissons Ratio (z) = 0.38680 -0.08801
#
# Static dielectric constant tensor:
#      x y z
#    x 4.273160 0.457380 0.378420 
#    y 0.457380 4.056620 -0.192000 
#    z 0.378420 -0.192000 3.802230 
# 
# 
# High freq. dielectric constant tensor:
#      x y z
#    x 1.822480 -0.007610 0.011310 
#    y -0.007610 1.850490 -0.001960 
#    z 0.011310 -0.001960 1.837490 
# 
# From -- ./inp_files/398938.got.cif
#   From: 2010.06.25/outbox.cif.g09.slc.cpg/sg2_200_cif.got.tgz:398938.got - 2010.06.27 13:26:56.
