data_PCOD8030036
_publ_section_title
;
Structure prediction by ZEFSAII (Michael W. Deem and Ramdas Pophale) SiO2 
 PCOD8030036
Probable space group: P -1
;
_chemical_formula_sum "Si O2"
_cell_formula_units_Z 16
_cell_length_a 14.590800
_cell_length_b 8.830399
_cell_length_c 15.187169
_cell_angle_alpha 139.209536
_cell_angle_beta 141.827096
_cell_angle_gamma 40.962777
_cell_volume 725.429910
_symmetry_space_group_name_H-M "P -1"
_symmetry_group_IT_number 2
_symmetry_cell_setting 'triclinic'
loop_
_space_group_symop_operation_xyz
x,y,z
-x,-y,-z
loop_
_atom_site_type_symbol
_atom_site_label
_atom_site_fract_x
_atom_site_fract_y
_atom_site_fract_z
Si Si1 0.680201 0.232085 0.300649
Si Si2 0.381482 0.935651 0.317200
Si Si3 0.244660 0.072262 0.942287
Si Si4 0.108632 0.803976 0.316973
Si Si5 0.508994 0.227006 0.864104
Si Si6 0.134506 0.477205 0.365357
Si Si7 0.330596 0.521115 0.206479
Si Si8 0.178653 0.191350 0.649236
O O1 0.753516 0.443983 0.448458
O O2 0.517174 0.335927 0.280415
O O3 0.654583 0.153783 0.148152
O O4 0.807401 0.982059 0.331511
O O5 0.478001 0.825152 0.252541
O O6 0.320875 0.727998 0.217717
O O7 0.500000 0.000000 0.500000
O O8 0.219236 0.179699 0.282112
O O9 0.058671 0.109563 0.825251
O O10 0.241308 0.343194 0.027884
O O11 0.336376 0.989351 0.067925
O O12 0.113406 0.623956 0.322220
O O13 0.259009 0.651549 0.301519
O O14 0.128085 0.059745 0.471676
O O15 0.342008 0.223924 0.769397
O O16 0.500000 0.500000 0.000000
O O17 0.964317 0.541806 0.315421
#
# Coordination Sequence:
#
# PCOD8030036 Si02
#       8
#     2   2   2   2   2   2   2   2
#     4  11  21  41  73 104 135 183 238 296 353 423
#     4  12  27  48  69 106 149 197 237 294 360 430
#     4  12  24  47  70 106 147 185 238 300 365 429
#     4  11  24  45  73 109 137 188 247 295 356 433
#     4  12  29  46  73 110 149 188 241 299 366 426
#     4  11  23  44  75 104 144 179 251 297 347 423
#     4  12  25  41  72 101 142 188 235 295 363 421
#     4  11  23  45  73 106 137 191 240 297 354 426
#
# _framework density 22.055886999999998
#
# number of rings (size 3 to 8) (size 9 to 14) (size 15 to 20)
#    0.000    0.500    5.000    3.750    1.750    2.000 
#    0.000    3.750    0.000    0.000    0.000    0.000 
#    0.000    0.000    0.000    0.000    0.000    0.000 
#
# Total GULP energy -198440.680505 kJ/mol
# GULP energy per Si atom -12402.542532 kJ/mol
# Density = 2.200569 g / cm^3
# Si number density = 22.055887 Si / 1000 Ang^3
#
#
#
# Elastic Constant Matrix: (Units=GPa)
#
#
# Indices 1 2 3 4 5 6 
#
# 1 90.3820 36.1888 33.8003 -2.7351 -19.4521 -11.5906
# 2 36.1888 94.0164 29.2614 8.5923 1.8725 -15.4875
# 3 33.8003 29.2614 95.7712 -6.9284 0.5430 6.3967
# 4 -2.7351 8.5923 -6.9284 33.4872 -2.8842 5.0310
# 5 -19.4521 1.8725 0.5430 -2.8842 40.4785 9.6700
# 6 -11.5906 -15.4875 6.3967 5.0310 9.6700 42.7773
#
#
#
# Elastic Compliance Matrix: (Units=1/GPa)
#
#
# Indices 1 2 3 4 5 6 
#
# 1 0.016785 -0.005350 -0.004234 0.002418 0.008283 0.001087
# 2 -0.005350 0.015738 -0.003835 -0.006756 -0.005360 0.006828
# 3 -0.004234 -0.003835 0.013744 0.004178 -0.000560 -0.004956
# 4 0.002418 -0.006756 0.004178 0.034313 0.005713 -0.007743
# 5 0.008283 -0.005360 -0.000560 0.005713 0.031094 -0.007314
# 6 0.001087 0.006828 -0.004956 -0.007743 -0.007314 0.029449
#
#
# Mechanical properties :
#
#
# Convention : Reuss Voigt Hill
#
# Bulk Modulus (GPa) = 51.46775 53.18563 52.32669
# Shear Modulus (GPa) = 28.66365 35.40989 32.03677
#
# Velocity S-wave (km/s) = 3.60890 4.01117 3.81534
# Velocity P-wave (km/s) = 6.38368 6.75418 6.57154
#
# Compressibility (1/GPa) = 0.01942964
#
# Stress axis : x y z
#
# Youngs Moduli (GPa) = 59.57754 63.53932 72.75924
#
# Poissons Ratio (x) = 0.33992 0.30806
# Poissons Ratio (y) = 0.31873 0.27903
# Poissons Ratio (z) = 0.25225 0.24367
#
# Static dielectric constant tensor:
#      x y z
#    x 3.925360 -0.144260 0.018050 
#    y -0.144260 4.081980 0.132070 
#    z 0.018050 0.132070 4.078250 
# 
# 
# High freq. dielectric constant tensor:
#      x y z
#    x 1.866710 -0.018150 0.000450 
#    y -0.018150 1.872790 0.007020 
#    z 0.000450 0.007020 1.873340 
# 
# From -- ./inp_files/530258.got.cif
#   From: 2010.06.25/outbox.cif.g09.slc.cpg/sg2_266_cif.got.tgz:530258.got - 2010.06.27 13:26:56.
