data_PCOD8030504
_publ_section_title
;
Structure prediction by ZEFSAII (Michael W. Deem and Ramdas Pophale) SiO2 
 PCOD8030504
Probable space group: P -1
;
_chemical_formula_sum "Si O2"
_cell_formula_units_Z 14
_cell_length_a 11.525337
_cell_length_b 9.154093
_cell_length_c 14.371399
_cell_angle_alpha 54.198516
_cell_angle_beta 29.826956
_cell_angle_gamma 56.355950
_cell_volume 607.568073
_symmetry_space_group_name_H-M "P -1"
_symmetry_group_IT_number 2
_symmetry_cell_setting 'triclinic'
loop_
_space_group_symop_operation_xyz
x,y,z
-x,-y,-z
loop_
_atom_site_type_symbol
_atom_site_label
_atom_site_fract_x
_atom_site_fract_y
_atom_site_fract_z
Si Si1 0.375466 0.104317 0.959349
Si Si2 0.729857 0.503750 0.776547
Si Si3 0.084346 0.568457 0.654752
Si Si4 0.167234 0.508064 0.967373
Si Si5 0.203385 0.944676 0.449331
Si Si6 0.605191 0.667963 0.600317
Si Si7 0.968338 0.876906 0.319383
O O1 0.338458 0.318327 0.929106
O O2 0.539579 0.060390 0.772358
O O3 0.121252 0.042156 0.131985
O O4 0.500000 0.000000 0.000000
O O5 0.686734 0.599244 0.672013
O O6 0.901916 0.610629 0.680339
O O7 0.847352 0.302291 0.745822
O O8 0.500000 0.500000 0.000000
O O9 0.156391 0.745457 0.590507
O O10 0.320062 0.467241 0.485693
O O11 0.978491 0.449868 0.852527
O O12 0.322626 0.678762 0.786911
O O13 0.000000 0.500000 0.000000
O O14 0.172583 0.088170 0.499487
O O15 0.000000 0.000000 0.500000
O O16 0.743790 0.846871 0.419210
#
# Coordination Sequence:
#
# PCOD8030504 Si02
#       7
#     2   2   2   2   2   2   2
#     4  12  24  40  66 101 136 172 225 286 333 393
#     4  11  22  36  64  98 140 174 219 280 345 400
#     4  11  22  40  64  96 135 178 222 275 339 405
#     4  12  26  46  70 100 136 185 231 275 335 417
#     4  12  21  35  63  97 137 170 214 277 344 392
#     4  11  23  42  62  98 135 176 225 277 340 406
#     4  11  24  36  61  97 132 171 218 278 342 387
#
# _framework density 23.042687000000001
#
# number of rings (size 3 to 8) (size 9 to 14) (size 15 to 20)
#    0.000    0.571    5.714    4.286    4.000    0.571 
#    0.000    0.714    0.000    4.286    0.000    0.000 
#    0.000    0.000    0.000    0.000    0.000    0.000 
#
# Total GULP energy -173435.194697 kJ/mol
# GULP energy per Si atom -12388.228193 kJ/mol
# Density = 2.299024 g / cm^3
# Si number density = 23.042687 Si / 1000 Ang^3
#
#
#
# Elastic Constant Matrix: (Units=GPa)
#
#
# Indices 1 2 3 4 5 6 
#
# 1 85.7092 10.9790 35.8650 3.4724 -10.3326 17.9492
# 2 10.9790 64.1616 28.6460 6.4955 3.8905 29.7780
# 3 35.8650 28.6460 182.4705 6.0462 -3.9063 21.9198
# 4 3.4724 6.4955 6.0462 39.8709 27.2932 -1.8428
# 5 -10.3326 3.8905 -3.9063 27.2932 36.1905 0.0722
# 6 17.9492 29.7780 21.9198 -1.8428 0.0722 28.4687
#
#
#
# Elastic Compliance Matrix: (Units=1/GPa)
#
#
# Indices 1 2 3 4 5 6 
#
# 1 0.017111 0.005852 -0.001628 -0.011934 0.013113 -0.016461
# 2 0.005852 0.034315 -0.001187 -0.013089 0.007804 -0.039536
# 3 -0.001628 -0.001187 0.006439 -0.002110 0.001955 -0.002831
# 4 -0.011934 -0.013089 -0.002110 0.064890 -0.051220 0.027171
# 5 0.013113 0.007804 0.001955 -0.051220 0.069418 -0.021427
# 6 -0.016461 -0.039536 -0.002831 0.027171 -0.021427 0.090852
#
#
# Mechanical properties :
#
#
# Convention : Reuss Voigt Hill
#
# Bulk Modulus (GPa) = 15.64024 53.70238 34.67131
# Shear Modulus (GPa) = 16.76366 38.02942 27.39654
#
# Velocity S-wave (km/s) = 2.70016 4.06691 3.45185
# Velocity P-wave (km/s) = 4.06489 6.73863 5.56473
#
# Compressibility (1/GPa) = 0.06393762
#
# Stress axis : x y z
#
# Youngs Moduli (GPa) = 58.44262 29.14154 155.31466
#
# Poissons Ratio (x) = -0.17053 0.25289
# Poissons Ratio (y) = -0.34200 0.18438
# Poissons Ratio (z) = 0.09516 0.03460
#
# Static dielectric constant tensor:
#      x y z
#    x 3.706530 0.184350 -0.199830 
#    y 0.184350 3.338950 -0.071900 
#    z -0.199830 -0.071900 4.743680 
# 
# 
# High freq. dielectric constant tensor:
#      x y z
#    x 1.875660 0.044270 -0.007340 
#    y 0.044270 1.893090 0.002820 
#    z -0.007340 0.002820 1.945370 
# 
# From -- ./inp_files/304751.got.cif
#   From: 2010.06.25/outbox.cif.g09.slc.cpg/sg2_153_cif.got.tgz:304751.got - 2010.06.27 13:26:56.
