data_PCOD8030132
_publ_section_title
;
Structure prediction by ZEFSAII (Michael W. Deem and Ramdas Pophale) SiO2 
 PCOD8030132
Probable space group: P -1
;
_chemical_formula_sum "Si O2"
_cell_formula_units_Z 14
_cell_length_a 10.636959
_cell_length_b 14.130964
_cell_length_c 13.134162
_cell_angle_alpha 152.264573
_cell_angle_beta 136.935798
_cell_angle_gamma 56.210793
_cell_volume 601.369309
_symmetry_space_group_name_H-M "P -1"
_symmetry_group_IT_number 2
_symmetry_cell_setting 'triclinic'
loop_
_space_group_symop_operation_xyz
x,y,z
-x,-y,-z
loop_
_atom_site_type_symbol
_atom_site_label
_atom_site_fract_x
_atom_site_fract_y
_atom_site_fract_z
Si Si1 0.488803 0.697337 0.538406
Si Si2 0.505621 0.001965 0.667601
Si Si3 0.279649 0.111666 0.948656
Si Si4 0.964146 0.321263 0.535486
Si Si5 0.623870 0.317815 0.202281
Si Si6 0.913979 0.564558 0.908697
Si Si7 0.359192 0.260972 0.672924
O O1 0.412894 0.846956 0.558337
O O2 0.657651 0.811264 0.825079
O O3 0.560704 0.530927 0.352922
O O4 0.305524 0.572210 0.375547
O O5 0.602352 0.863794 0.522085
O O6 0.359742 0.101940 0.616053
O O7 0.646103 0.207961 0.002850
O O8 0.467482 0.155510 0.029391
O O9 0.109159 0.200183 0.885122
O O10 0.173355 0.864554 0.654806
O O11 0.838871 0.385546 0.435772
O O12 0.042131 0.520073 0.848666
O O13 0.143328 0.269116 0.540139
O O14 0.000000 0.500000 0.000000
O O15 0.500000 0.500000 0.000000
#
# Coordination Sequence:
#
# PCOD8030132 Si02
#       7
#     2   2   2   2   2   2   2
#     4  11  21  43  70 100 140 175 210 268 335 395
#     4  11  25  46  72  90 128 177 228 277 332 383
#     4  11  22  42  66 104 144 170 212 263 333 405
#     4  12  24  42  69  97 131 175 223 273 324 396
#     4  11  21  42  71 104 133 174 212 268 332 395
#     4  11  25  37  65 106 143 176 210 262 332 407
#     4  11  29  50  65  92 131 176 229 283 334 382
#
# _framework density 23.280204999999999
#
# number of rings (size 3 to 8) (size 9 to 14) (size 15 to 20)
#    0.000    0.857    4.286    3.000    8.000    2.286 
#    0.000    1.429    0.000    0.000    0.000    0.000 
#    0.000    0.000    0.000    0.000    0.000    0.000 
#
# Total GULP energy -173459.848621 kJ/mol
# GULP energy per Si atom -12389.989187 kJ/mol
# Density = 2.322722 g / cm^3
# Si number density = 23.280205 Si / 1000 Ang^3
#
#
#
# Elastic Constant Matrix: (Units=GPa)
#
#
# Indices 1 2 3 4 5 6 
#
# 1 62.3765 31.1699 36.9348 -1.8507 -22.2684 -23.3753
# 2 31.1699 114.5542 19.8185 7.8977 -1.3502 -7.0416
# 3 36.9348 19.8185 90.1227 2.1640 -35.2626 -16.2302
# 4 -1.8507 7.8977 2.1640 30.1325 -2.6564 -5.8277
# 5 -22.2684 -1.3502 -35.2626 -2.6564 46.7073 2.1713
# 6 -23.3753 -7.0416 -16.2302 -5.8277 2.1713 39.9644
#
#
#
# Elastic Compliance Matrix: (Units=1/GPa)
#
#
# Indices 1 2 3 4 5 6 
#
# 1 0.033511 -0.007767 -0.004422 0.008779 0.012120 0.017058
# 2 -0.007767 0.011155 -0.001666 -0.004401 -0.004720 -0.003640
# 3 -0.004422 -0.001666 0.018590 0.000662 0.011724 0.004129
# 4 0.008779 -0.004401 0.000662 0.037261 0.006225 0.009724
# 5 0.012120 -0.004720 0.011724 0.006225 0.035793 0.009982
# 6 0.017058 -0.003640 0.004129 0.009724 0.009982 0.036911
#
#
# Mechanical properties :
#
#
# Convention : Reuss Voigt Hill
#
# Bulk Modulus (GPa) = 28.13385 49.21108 38.67247
# Shear Modulus (GPa) = 23.49830 35.30286 29.40058
#
# Velocity S-wave (km/s) = 3.18050 3.89836 3.55759
# Velocity P-wave (km/s) = 5.05950 6.43797 5.78991
#
# Compressibility (1/GPa) = 0.03554437
#
# Stress axis : x y z
#
# Youngs Moduli (GPa) = 29.84073 89.64381 53.79293
#
# Poissons Ratio (x) = 0.69627 0.23790
# Poissons Ratio (y) = 0.23177 0.08964
# Poissons Ratio (z) = 0.13197 0.14939
#
# Static dielectric constant tensor:
#      x y z
#    x 3.938740 -0.080290 -0.228020 
#    y -0.080290 4.547620 0.239170 
#    z -0.228020 0.239170 4.252290 
# 
# 
# High freq. dielectric constant tensor:
#      x y z
#    x 1.890040 -0.010280 -0.029800 
#    y -0.010280 1.945240 0.011920 
#    z -0.029800 0.011920 1.921300 
# 
# From -- ./inp_files/400186.got.cif
#   From: 2010.06.25/outbox.cif.g09.slc.cpg/sg2_201_cif.got.tgz:400186.got - 2010.06.27 13:26:56.
