data_PCOD8030450
_publ_section_title
;
Structure prediction by ZEFSAII (Michael W. Deem and Ramdas Pophale) SiO2 
 PCOD8030450
Probable space group: P -1
;
_chemical_formula_sum "Si O2"
_cell_formula_units_Z 14
_cell_length_a 14.207751
_cell_length_b 9.962751
_cell_length_c 14.628517
_cell_angle_alpha 49.717413
_cell_angle_beta 142.573904
_cell_angle_gamma 100.904952
_cell_volume 686.098879
_symmetry_space_group_name_H-M "P -1"
_symmetry_group_IT_number 2
_symmetry_cell_setting 'triclinic'
loop_
_space_group_symop_operation_xyz
x,y,z
-x,-y,-z
loop_
_atom_site_type_symbol
_atom_site_label
_atom_site_fract_x
_atom_site_fract_y
_atom_site_fract_z
Si Si1 0.969795 0.318313 0.194706
Si Si2 0.551374 0.780284 0.584171
Si Si3 0.385943 0.615816 0.651788
Si Si4 0.551889 0.119616 0.921703
Si Si5 0.718976 0.523118 0.084968
Si Si6 0.981493 0.115983 0.617582
Si Si7 0.445925 0.072256 0.668345
O O1 0.908186 0.427193 0.202077
O O2 0.211586 0.178771 0.417707
O O3 0.805665 0.535319 0.900120
O O4 0.938764 0.133650 0.248623
O O5 0.403750 0.741057 0.527821
O O6 0.494424 0.844091 0.405332
O O7 0.500000 0.000000 0.500000
O O8 0.451695 0.371882 0.777210
O O9 0.137499 0.809483 0.409250
O O10 0.537693 0.554538 0.879308
O O11 0.441723 0.181771 0.710854
O O12 0.500000 0.000000 0.000000
O O13 0.810125 0.925769 0.192591
O O14 0.811623 0.334153 0.320798
O O15 0.618261 0.778555 0.938045
#
# Coordination Sequence:
#
# PCOD8030450 Si02
#       7
#     2   2   2   2   2   2   2
#     4  11  22  40  72 101 127 176 226 277 332 392
#     4  11  21  46  71 100 134 166 237 282 314 399
#     4  11  24  43  66  98 135 177 223 281 322 399
#     4  12  28  45  63 102 145 173 218 281 341 402
#     4  11  22  39  70 101 130 172 232 278 316 402
#     4  12  23  42  71  98 133 181 225 270 347 387
#     4  12  25  42  70 102 135 180 218 277 341 385
#
# _framework density 20.405221000000001
#
# number of rings (size 3 to 8) (size 9 to 14) (size 15 to 20)
#    0.000    0.571    7.143    3.000    2.000    4.000 
#    0.000    0.714    0.000    0.000    0.000    0.000 
#    0.000    0.000    0.000    0.000    0.000    0.000 
#
# Total GULP energy -173676.572677 kJ/mol
# GULP energy per Si atom -12405.469477 kJ/mol
# Density = 2.035878 g / cm^3
# Si number density = 20.405221 Si / 1000 Ang^3
#
#
#
# Elastic Constant Matrix: (Units=GPa)
#
#
# Indices 1 2 3 4 5 6 
#
# 1 130.3556 34.9545 44.4577 7.5672 4.0541 11.9756
# 2 34.9545 84.2036 28.3022 -8.3967 2.3408 11.2769
# 3 44.4577 28.3022 89.3531 -11.4560 -2.2838 10.4299
# 4 7.5672 -8.3967 -11.4560 36.5977 -2.5929 -1.0322
# 5 4.0541 2.3408 -2.2838 -2.5929 42.2614 -1.0217
# 6 11.9756 11.2769 10.4299 -1.0322 -1.0217 34.5420
#
#
#
# Elastic Compliance Matrix: (Units=1/GPa)
#
#
# Indices 1 2 3 4 5 6 
#
# 1 0.010523 -0.002996 -0.004732 -0.004484 -0.001409 -0.001417
# 2 -0.002996 0.014652 -0.002424 0.003102 -0.000536 -0.002936
# 3 -0.004732 -0.002424 0.015262 0.005264 0.001688 -0.001969
# 4 -0.004484 0.003102 0.005264 0.030781 0.002430 -0.000056
# 5 -0.001409 -0.000536 0.001688 0.002430 0.024090 0.000939
# 6 -0.001417 -0.002936 -0.001969 -0.000056 0.000939 0.031021
#
#
# Mechanical properties :
#
#
# Convention : Reuss Voigt Hill
#
# Bulk Modulus (GPa) = 49.67046 57.70457 53.68752
# Shear Modulus (GPa) = 32.60677 35.76007 34.18342
#
# Velocity S-wave (km/s) = 4.00179 4.19082 4.09740
# Velocity P-wave (km/s) = 6.76367 7.19431 6.98231
#
# Compressibility (1/GPa) = 0.02013269
#
# Stress axis : x y z
#
# Youngs Moduli (GPa) = 95.03087 68.25189 65.52387
#
# Poissons Ratio (x) = 0.20448 0.31008
# Poissons Ratio (y) = 0.28470 0.15880
# Poissons Ratio (z) = 0.44971 0.16541
#
# Static dielectric constant tensor:
#      x y z
#    x 3.789540 -0.223840 0.250170 
#    y -0.223840 3.540870 -0.057630 
#    z 0.250170 -0.057630 3.578810 
# 
# 
# High freq. dielectric constant tensor:
#      x y z
#    x 1.815700 -0.000770 0.007320 
#    y -0.000770 1.793650 -0.019720 
#    z 0.007320 -0.019720 1.792680 
# 
# From -- ./inp_files/177256.got.cif
#   From: 2010.06.25/outbox.cif.g09.slc.cpg/sg2_89_cif.got.tgz:177256.got - 2010.06.27 13:26:56.
