data_PCOD8030566
_publ_section_title
;
Structure prediction by ZEFSAII (Michael W. Deem and Ramdas Pophale) SiO2 
 PCOD8030566
Probable space group: P -1
;
_chemical_formula_sum "Si O2"
_cell_formula_units_Z 14
_cell_length_a 11.944703
_cell_length_b 12.299870
_cell_length_c 9.312640
_cell_angle_alpha 74.070659
_cell_angle_beta 62.760670
_cell_angle_gamma 37.234634
_cell_volume 725.696986
_symmetry_space_group_name_H-M "P -1"
_symmetry_group_IT_number 2
_symmetry_cell_setting 'triclinic'
loop_
_space_group_symop_operation_xyz
x,y,z
-x,-y,-z
loop_
_atom_site_type_symbol
_atom_site_label
_atom_site_fract_x
_atom_site_fract_y
_atom_site_fract_z
Si Si1 0.279252 0.791953 0.509168
Si Si2 0.685536 0.444179 0.856620
Si Si3 0.948395 0.051933 0.846828
Si Si4 0.699586 0.065297 0.810269
Si Si5 0.971972 0.659958 0.803723
Si Si6 0.238917 0.422824 0.999907
Si Si7 0.696544 0.472792 0.521190
O O1 0.215483 0.936054 0.384711
O O2 0.511972 0.644409 0.469231
O O3 0.250144 0.695206 0.477930
O O4 0.143875 0.887570 0.695855
O O5 0.882446 0.227344 0.798671
O O6 0.634350 0.535457 0.700117
O O7 0.500000 0.500000 0.000000
O O8 0.738176 0.504944 0.913174
O O9 0.766778 0.094111 0.896205
O O10 0.000000 0.000000 0.000000
O O11 0.457060 0.228584 0.885703
O O12 0.788178 0.877893 0.843024
O O13 0.112890 0.571893 0.893679
O O14 0.108542 0.588736 0.609831
O O15 0.882678 0.598411 0.860376
#
# Coordination Sequence:
#
# PCOD8030566 Si02
#       7
#     2   2   2   2   2   2   2
#     4  11  22  38  63  96 125 163 213 257 316 381
#     4  12  23  39  62  92 130 163 202 267 324 365
#     4  12  23  35  61  97 128 155 202 267 322 372
#     4  12  21  42  67  94 124 167 212 259 317 374
#     4  11  24  43  68  90 127 173 218 255 307 382
#     4  11  25  44  63  95 129 169 216 259 310 378
#     4  11  22  39  64  91 130 170 206 261 316 375
#
# _framework density 19.291798
#
# number of rings (size 3 to 8) (size 9 to 14) (size 15 to 20)
#    0.000    0.571    5.714    3.429    2.000    0.571 
#    0.000    0.000    0.000    1.714    0.000    0.000 
#    0.000    0.000    0.000    0.000    0.000    0.000 
#
# Total GULP energy -173681.801834 kJ/mol
# GULP energy per Si atom -12405.842988 kJ/mol
# Density = 1.924789 g / cm^3
# Si number density = 19.291798 Si / 1000 Ang^3
#
#
#
# Elastic Constant Matrix: (Units=GPa)
#
#
# Indices 1 2 3 4 5 6 
#
# 1 113.7698 35.3708 60.9057 -0.3361 5.3089 3.1818
# 2 35.3708 105.2147 25.0475 -3.4937 2.8852 -2.4558
# 3 60.9057 25.0475 120.5114 -4.2362 10.1120 -3.8440
# 4 -0.3361 -3.4937 -4.2362 34.1698 -2.4851 -0.9925
# 5 5.3089 2.8852 10.1120 -2.4851 30.5849 4.7540
# 6 3.1818 -2.4558 -3.8440 -0.9925 4.7540 25.0087
#
#
#
# Elastic Compliance Matrix: (Units=1/GPa)
#
#
# Indices 1 2 3 4 5 6 
#
# 1 0.013094 -0.003053 -0.006152 -0.001002 0.000439 -0.003035
# 2 -0.003053 0.010747 -0.000571 0.001009 -0.000443 0.001480
# 3 -0.006152 -0.000571 0.011942 0.001221 -0.003229 0.003224
# 4 -0.001002 0.001009 0.001221 0.029684 0.001896 0.001232
# 5 0.000439 -0.000443 -0.003229 0.001896 0.034998 -0.007173
# 6 -0.003035 0.001480 0.003224 0.001232 -0.007173 0.042426
#
#
# Mechanical properties :
#
#
# Convention : Reuss Voigt Hill
#
# Bulk Modulus (GPa) = 61.60928 64.68266 63.14597
# Shear Modulus (GPa) = 29.78808 32.49748 31.14278
#
# Velocity S-wave (km/s) = 3.93374 4.10875 4.02220
# Velocity P-wave (km/s) = 7.25515 7.49069 7.37386
#
# Compressibility (1/GPa) = 0.01623132
#
# Stress axis : x y z
#
# Youngs Moduli (GPa) = 76.37276 93.04986 83.73609
#
# Poissons Ratio (x) = 0.28413 0.51512
# Poissons Ratio (y) = 0.23320 0.04778
# Poissons Ratio (z) = 0.46982 0.05309
#
# Static dielectric constant tensor:
#      x y z
#    x 3.446770 -0.151510 -0.009210 
#    y -0.151510 3.679320 -0.039850 
#    z -0.009210 -0.039850 3.564730 
# 
# 
# High freq. dielectric constant tensor:
#      x y z
#    x 1.740330 -0.014810 0.001200 
#    y -0.014810 1.765230 -0.001990 
#    z 0.001200 -0.001990 1.757040 
# 
# From -- ./inp_files/171592.got.cif
#   From: 2010.06.25/outbox.cif.g09.slc.cpg/sg2_86_cif.got.tgz:171592.got - 2010.06.27 13:26:56.
