data_PCOD8030518
_publ_section_title
;
Structure prediction by ZEFSAII (Michael W. Deem and Ramdas Pophale) SiO2 
 PCOD8030518
Probable space group: P -1
;
_chemical_formula_sum "Si O2"
_cell_formula_units_Z 16
_cell_length_a 8.936926
_cell_length_b 9.574740
_cell_length_c 11.459250
_cell_angle_alpha 109.523355
_cell_angle_beta 95.172496
_cell_angle_gamma 66.273090
_cell_volume 844.943086
_symmetry_space_group_name_H-M "P -1"
_symmetry_group_IT_number 2
_symmetry_cell_setting 'triclinic'
loop_
_space_group_symop_operation_xyz
x,y,z
-x,-y,-z
loop_
_atom_site_type_symbol
_atom_site_label
_atom_site_fract_x
_atom_site_fract_y
_atom_site_fract_z
Si Si1 0.209474 0.230870 0.249211
Si Si2 0.843409 0.648052 0.478892
Si Si3 0.483681 0.854709 0.895524
Si Si4 0.829052 0.078885 0.774634
Si Si5 0.832717 0.983717 0.499176
Si Si6 0.645562 0.346587 0.012258
Si Si7 0.204556 0.903667 0.716658
Si Si8 0.165810 0.607756 0.744402
O O1 0.263157 0.266538 0.391779
O O2 0.342214 0.253426 0.180724
O O3 0.025846 0.352465 0.237348
O O4 0.210451 0.051864 0.188925
O O5 0.873743 0.791918 0.454271
O O6 0.754849 0.569988 0.360335
O O7 0.000000 0.500000 0.500000
O O8 0.444451 0.750639 0.959067
O O9 0.335761 0.928720 0.815433
O O10 0.500000 0.000000 0.000000
O O11 0.752539 0.079201 0.639864
O O12 0.751099 0.249744 0.882059
O O13 0.023176 0.035810 0.768461
O O14 0.732113 0.072873 0.401871
O O15 0.000000 0.000000 0.500000
O O16 0.757400 0.393182 0.124085
O O17 0.500000 0.500000 0.000000
O O18 0.197319 0.729332 0.689156
#
# Coordination Sequence:
#
# PCOD8030518 Si02
#       8
#     2   2   2   2   2   2   2   2
#     4   9  18  36  60  86 104 146 192 226 278 324
#     4   9  17  34  57  85 116 146 182 226 279 336
#     4  11  22  37  59  82 114 142 190 243 271 327
#     4   9  18  37  61  79 109 153 184 224 277 334
#     4   9  17  34  59  87 110 138 192 236 267 322
#     4  11  24  41  53  81 118 150 185 226 287 335
#     4   9  20  36  59  87 107 145 194 230 277 325
#     4   9  20  38  62  79 114 152 183 225 279 346
#
# _framework density 18.936188000000001
#
# number of rings (size 3 to 8) (size 9 to 14) (size 15 to 20)
#    0.000    2.500    1.250    2.250    1.750    2.500 
#   13.500    3.125    0.000    0.000    0.000    0.000 
#    0.000    0.000    0.000    0.000    0.000    0.000 
#
# Total GULP energy -198224.739699 kJ/mol
# GULP energy per Si atom -12389.046231 kJ/mol
# Density = 1.889309 g / cm^3
# Si number density = 18.936188 Si / 1000 Ang^3
#
#
#
# Elastic Constant Matrix: (Units=GPa)
#
#
# Indices 1 2 3 4 5 6 
#
# 1 96.0444 34.9572 61.4128 0.7550 6.8821 2.3855
# 2 34.9572 92.5819 76.5605 -6.3385 17.4550 -2.9878
# 3 61.4128 76.5605 149.0636 9.2281 16.4999 3.5195
# 4 0.7550 -6.3385 9.2281 36.8288 5.4436 2.1947
# 5 6.8821 17.4550 16.4999 5.4436 26.4171 1.4764
# 6 2.3855 -2.9878 3.5195 2.1947 1.4764 22.0936
#
#
#
# Elastic Compliance Matrix: (Units=1/GPa)
#
#
# Indices 1 2 3 4 5 6 
#
# 1 0.014228 -0.000804 -0.005501 0.000985 0.000106 -0.000874
# 2 -0.000804 0.022523 -0.010741 0.007755 -0.009826 0.004730
# 3 -0.005501 -0.010741 0.014830 -0.005367 0.000526 -0.002723
# 4 0.000985 0.007755 -0.005367 0.031096 -0.008395 -0.000731
# 5 0.000106 -0.009826 0.000526 -0.008395 0.045925 -0.003659
# 6 -0.000874 0.004730 -0.002723 -0.000731 -0.003659 0.046747
#
#
# Mechanical properties :
#
#
# Convention : Reuss Voigt Hill
#
# Bulk Modulus (GPa) = 57.17779 75.95008 66.56394
# Shear Modulus (GPa) = 23.22643 28.05186 25.63914
#
# Velocity S-wave (km/s) = 3.50603 3.85306 3.68363
# Velocity P-wave (km/s) = 6.83010 7.74534 7.30207
#
# Compressibility (1/GPa) = 0.01748931
#
# Stress axis : x y z
#
# Youngs Moduli (GPa) = 70.28225 44.39859 67.43116
#
# Poissons Ratio (x) = 0.03570 0.37094
# Poissons Ratio (y) = 0.05652 0.72427
# Poissons Ratio (z) = 0.38663 0.47688
#
# Static dielectric constant tensor:
#      x y z
#    x 3.549870 -0.157470 0.168980 
#    y -0.157470 3.516840 -0.177750 
#    z 0.168980 -0.177750 4.140800 
# 
# 
# High freq. dielectric constant tensor:
#      x y z
#    x 1.720240 0.012010 0.007500 
#    y 0.012010 1.719910 -0.001370 
#    z 0.007500 -0.001370 1.751090 
# 
# From -- ./inp_files/176683.got.cif
#   From: 2010.06.25/outbox.cif.g09.slc.cpg/sg2_89_cif.got.tgz:176683.got - 2010.06.27 13:26:56.
