data_PCOD8030562
_publ_section_title
;
Structure prediction by ZEFSAII (Michael W. Deem and Ramdas Pophale) SiO2 
 PCOD8030562
Probable space group: P -1
;
_chemical_formula_sum "Si O2"
_cell_formula_units_Z 16
_cell_length_a 12.090494
_cell_length_b 21.548157
_cell_length_c 9.135861
_cell_angle_alpha 115.295922
_cell_angle_beta 37.538288
_cell_angle_gamma 141.157071
_cell_volume 788.738081
_symmetry_space_group_name_H-M "P -1"
_symmetry_group_IT_number 2
_symmetry_cell_setting 'triclinic'
loop_
_space_group_symop_operation_xyz
x,y,z
-x,-y,-z
loop_
_atom_site_type_symbol
_atom_site_label
_atom_site_fract_x
_atom_site_fract_y
_atom_site_fract_z
Si Si1 0.079156 0.432133 0.262675
Si Si2 0.663945 0.386644 0.434743
Si Si3 0.607270 0.118560 0.154532
Si Si4 0.039489 0.863519 0.422859
Si Si5 0.265561 0.323632 0.224177
Si Si6 0.989392 0.378797 0.636262
Si Si7 0.495558 0.225788 0.226365
Si Si8 0.922610 0.723413 0.940830
O O1 0.163164 0.382829 0.060787
O O2 0.817788 0.388480 0.401572
O O3 0.953180 0.389484 0.516288
O O4 0.381650 0.569881 0.082756
O O5 0.648595 0.337807 0.254662
O O6 0.850131 0.511805 0.331846
O O7 0.327265 0.304497 0.751756
O O8 0.511400 0.165540 0.255107
O O9 0.758321 0.166249 0.204328
O O10 0.316239 0.982320 0.336406
O O11 0.841680 0.159796 0.832281
O O12 0.804579 0.760485 0.680558
O O13 0.856877 0.866034 0.527122
O O14 0.055024 0.251694 0.229191
O O15 0.192432 0.372452 0.432005
O O16 0.667007 0.264898 0.932594
#
# Coordination Sequence:
#
# PCOD8030562 Si02
#       8
#     2   2   2   2   2   2   2   2
#     4  11  22  40  64  91 134 168 199 255 308 373
#     4  12  22  37  62  96 130 170 195 250 320 372
#     4  11  24  47  63  89 126 165 217 262 303 365
#     4  11  25  43  69  87 120 174 212 259 313 357
#     4  11  22  42  67  92 128 168 205 257 307 371
#     4  11  22  38  62  97 130 165 204 246 313 383
#     4  12  24  41  64  95 127 162 210 259 308 374
#     4  11  22  41  65  92 129 162 208 256 312 370
#
# _framework density 20.285568999999999
#
# number of rings (size 3 to 8) (size 9 to 14) (size 15 to 20)
#    0.000    0.750    6.250    2.625    1.750    0.500 
#    0.000    2.500    0.000    2.250    0.000    0.000 
#    0.000    0.000    0.000    0.000    0.000    0.000 
#
# Total GULP energy -198457.531872 kJ/mol
# GULP energy per Si atom -12403.595742 kJ/mol
# Density = 2.023940 g / cm^3
# Si number density = 20.285569 Si / 1000 Ang^3
#
#
#
# Elastic Constant Matrix: (Units=GPa)
#
#
# Indices 1 2 3 4 5 6 
#
# 1 111.1902 35.4709 33.1198 -2.2298 -19.3816 8.9592
# 2 35.4709 77.9039 23.1761 6.3404 2.0657 14.0384
# 3 33.1198 23.1761 49.6631 7.9637 -6.3303 -2.5301
# 4 -2.2298 6.3404 7.9637 26.8903 -3.1027 -5.9155
# 5 -19.3816 2.0657 -6.3303 -3.1027 30.5707 -0.0229
# 6 8.9592 14.0384 -2.5301 -5.9155 -0.0229 33.8636
#
#
#
# Elastic Compliance Matrix: (Units=1/GPa)
#
#
# Indices 1 2 3 4 5 6 
#
# 1 0.014338 -0.004780 -0.007144 0.005087 0.008449 -0.001451
# 2 -0.004780 0.018805 -0.005881 -0.005538 -0.006087 -0.007942
# 3 -0.007144 -0.005881 0.029119 -0.006505 0.001242 0.005368
# 4 0.005087 -0.005538 -0.006505 0.043381 0.006661 0.008047
# 5 0.008449 -0.006087 0.001242 0.006661 0.039413 0.001571
# 6 -0.001451 -0.007942 0.005368 0.008047 0.001571 0.035015
#
#
# Mechanical properties :
#
#
# Convention : Reuss Voigt Hill
#
# Bulk Modulus (GPa) = 37.51817 46.92120 42.21968
# Shear Modulus (GPa) = 22.26520 28.06426 25.16473
#
# Velocity S-wave (km/s) = 3.31658 3.72352 3.52593
# Velocity P-wave (km/s) = 5.76207 6.45498 6.11834
#
# Compressibility (1/GPa) = 0.02665375
#
# Stress axis : x y z
#
# Youngs Moduli (GPa) = 69.74447 53.17613 34.34136
#
# Poissons Ratio (x) = 0.25416 0.24534
# Poissons Ratio (y) = 0.33334 0.20196
# Poissons Ratio (z) = 0.49827 0.31272
#
# Static dielectric constant tensor:
#      x y z
#    x 3.687420 0.001840 -0.170930 
#    y 0.001840 3.744940 0.216350 
#    z -0.170930 0.216350 3.534710 
# 
# 
# High freq. dielectric constant tensor:
#      x y z
#    x 1.797950 -0.002630 -0.014560 
#    y -0.002630 1.789920 0.017970 
#    z -0.014560 0.017970 1.786850 
# 
# From -- ./inp_files/255907.got.cif
#   From: 2010.06.25/outbox.cif.g09.slc.cpg/sg2_128_cif.got.tgz:255907.got - 2010.06.27 13:26:56.
