data_PCOD8030207
_publ_section_title
;
Structure prediction by ZEFSAII (Michael W. Deem and Ramdas Pophale) SiO2 
 PCOD8030207
Probable space group: P -1
;
_chemical_formula_sum "Si O2"
_cell_formula_units_Z 16
_cell_length_a 9.308427
_cell_length_b 15.395228
_cell_length_c 21.542613
_cell_angle_alpha 18.527187
_cell_angle_beta 46.944563
_cell_angle_gamma 47.272032
_cell_volume 710.284202
_symmetry_space_group_name_H-M "P -1"
_symmetry_group_IT_number 2
_symmetry_cell_setting 'triclinic'
loop_
_space_group_symop_operation_xyz
x,y,z
-x,-y,-z
loop_
_atom_site_type_symbol
_atom_site_label
_atom_site_fract_x
_atom_site_fract_y
_atom_site_fract_z
Si Si1 0.930908 0.812232 0.949403
Si Si2 0.668837 0.490156 0.008924
Si Si3 0.966438 0.533854 0.256906
Si Si4 0.428935 0.492723 0.740638
Si Si5 0.808052 0.057284 0.559777
Si Si6 0.670106 0.814618 0.246629
Si Si7 0.381976 0.557650 0.153003
Si Si8 0.367488 0.687017 0.321275
O O1 0.849871 0.133636 0.742860
O O2 0.768014 0.628967 0.095302
O O3 0.144296 0.742387 0.900612
O O4 0.957442 0.746689 0.058563
O O5 0.751392 0.782148 0.792959
O O6 0.500000 0.500000 0.000000
O O7 0.573227 0.427090 0.145752
O O8 0.193909 0.411400 0.286825
O O9 0.844279 0.278168 0.452889
O O10 0.875956 0.698019 0.232217
O O11 0.372129 0.808117 0.521762
O O12 0.583889 0.493007 0.750130
O O13 0.525679 0.308348 0.779912
O O14 0.000000 0.000000 0.500000
O O15 0.491710 0.828544 0.240299
O O16 0.645557 0.625277 0.442141
O O17 0.674877 0.118833 0.065240
#
# Coordination Sequence:
#
# PCOD8030207 Si02
#       8
#     2   2   2   2   2   2   2   2
#     4  11  21  43  69  94 136 179 223 274 342 399
#     4  12  25  47  70  99 138 178 228 279 336 404
#     4  11  23  44  69 100 134 182 219 279 340 402
#     4  11  22  42  69 100 135 178 228 280 334 405
#     4  11  21  44  72  94 132 183 227 268 346 401
#     4  11  23  41  70 100 138 174 228 281 338 404
#     4  12  25  43  68 105 135 180 228 277 341 394
#     4  11  22  41  67 103 131 180 228 281 334 405
#
# _framework density 22.526194
#
# number of rings (size 3 to 8) (size 9 to 14) (size 15 to 20)
#    0.000    0.750    7.500    2.250    1.750    0.500 
#    4.500    2.500    0.000    0.000    0.000    0.000 
#    0.000    0.000    0.000    0.000    0.000    0.000 
#
# Total GULP energy -198449.087900 kJ/mol
# GULP energy per Si atom -12403.067994 kJ/mol
# Density = 2.247492 g / cm^3
# Si number density = 22.526194 Si / 1000 Ang^3
#
#
#
# Elastic Constant Matrix: (Units=GPa)
#
#
# Indices 1 2 3 4 5 6 
#
# 1 128.2978 33.8680 40.8819 5.2733 15.8211 -11.8043
# 2 33.8680 134.1199 22.3036 4.3636 7.2702 -21.7537
# 3 40.8819 22.3036 53.0450 -3.1967 5.8018 -6.4136
# 4 5.2733 4.3636 -3.1967 31.8940 -4.2697 4.9665
# 5 15.8211 7.2702 5.8018 -4.2697 24.9991 -2.4337
# 6 -11.8043 -21.7537 -6.4136 4.9665 -2.4337 40.1270
#
#
#
# Elastic Compliance Matrix: (Units=1/GPa)
#
#
# Indices 1 2 3 4 5 6 
#
# 1 0.011563 -0.000893 -0.007922 -0.003616 -0.005666 0.001755
# 2 -0.000893 0.008960 -0.002529 -0.002201 -0.001403 0.004378
# 3 -0.007922 -0.002529 0.026236 0.004342 0.000400 -0.000021
# 4 -0.003616 -0.002201 0.004342 0.034503 0.007289 -0.005391
# 5 -0.005666 -0.001403 0.000400 0.007289 0.045096 -0.000531
# 6 0.001755 0.004378 -0.000021 -0.005391 -0.000531 0.028442
#
#
# Mechanical properties :
#
#
# Convention : Reuss Voigt Hill
#
# Bulk Modulus (GPa) = 41.54377 56.61887 49.08132
# Shear Modulus (GPa) = 26.95224 33.96464 30.45844
#
# Velocity S-wave (km/s) = 3.46278 3.88723 3.68113
# Velocity P-wave (km/s) = 5.87113 6.73325 6.31692
#
# Compressibility (1/GPa) = 0.02407100
#
# Stress axis : x y z
#
# Youngs Moduli (GPa) = 86.47957 111.60948 38.11503
#
# Poissons Ratio (x) = 0.09968 0.30196
# Poissons Ratio (y) = 0.07723 0.09639
# Poissons Ratio (z) = 0.68512 0.28224
#
# Static dielectric constant tensor:
#      x y z
#    x 4.063240 -0.203390 0.009510 
#    y -0.203390 4.172540 -0.068020 
#    z 0.009510 -0.068020 4.134340 
# 
# 
# High freq. dielectric constant tensor:
#      x y z
#    x 1.882550 -0.010760 0.006670 
#    y -0.010760 1.897820 -0.001410 
#    z 0.006670 -0.001410 1.869560 
# 
# From -- ./inp_files/508044.got.cif
#   From: 2010.06.25/outbox.cif.g09.slc.cpg/sg2_255_cif.got.tgz:508044.got - 2010.06.27 13:26:56.
