data_PCOD8030772
_publ_section_title
;
Structure prediction by ZEFSAII (Michael W. Deem and Ramdas Pophale) SiO2 
 PCOD8030772
Probable space group: P -1
;
_chemical_formula_sum "Si O2"
_cell_formula_units_Z 12
_cell_length_a 10.625990
_cell_length_b 5.065949
_cell_length_c 12.730593
_cell_angle_alpha 100.815306
_cell_angle_beta 103.534325
_cell_angle_gamma 63.447810
_cell_volume 593.271126
_symmetry_space_group_name_H-M "P -1"
_symmetry_group_IT_number 2
_symmetry_cell_setting 'triclinic'
loop_
_space_group_symop_operation_xyz
x,y,z
-x,-y,-z
loop_
_atom_site_type_symbol
_atom_site_label
_atom_site_fract_x
_atom_site_fract_y
_atom_site_fract_z
Si Si1 0.575239 0.657961 0.457596
Si Si2 0.596108 0.918982 0.911778
Si Si3 0.836397 0.282333 0.198072
Si Si4 0.118229 0.310184 0.930405
Si Si5 0.482794 0.474968 0.794614
Si Si6 0.906594 0.318033 0.454997
O O1 0.500000 0.500000 0.500000
O O2 0.536448 0.645537 0.329264
O O3 0.749228 0.496284 0.491627
O O4 0.500000 0.000000 0.500000
O O5 0.554860 0.703260 0.813249
O O6 0.583381 0.202101 0.864643
O O7 0.752980 0.761679 0.971609
O O8 0.500000 0.000000 0.000000
O O9 0.870811 0.522474 0.160018
O O10 0.668888 0.363187 0.165643
O O11 0.889350 0.269026 0.325705
O O12 0.913250 0.964459 0.134178
O O13 0.000000 0.500000 0.000000
O O14 0.000000 0.500000 0.500000
O O15 0.000000 0.000000 0.500000
#
# Coordination Sequence:
#
# PCOD8030772 Si02
#       6
#     2   2   2   2   2   2
#     4  11  24  45  67  98 136 162 211 283 330 366
#     4  12  21  39  67  90 122 159 219 251 294 389
#     4  11  22  43  66  86 127 168 209 251 313 379
#     4  12  25  41  59  94 130 163 200 261 318 359
#     4  11  22  40  67  94 117 170 210 252 311 375
#     4  11  24  45  70  95 126 176 223 259 318 401
#
# _framework density 20.226842000000001
#
# number of rings (size 3 to 8) (size 9 to 14) (size 15 to 20)
#    0.000    0.667    3.333    5.000    0.000    5.333 
#   18.000    0.000    0.000    0.000    0.000    0.000 
#    0.000    0.000    0.000    0.000    0.000    0.000 
#
# Total GULP energy -148790.874273 kJ/mol
# GULP energy per Si atom -12399.239523 kJ/mol
# Density = 2.018080 g / cm^3
# Si number density = 20.226842 Si / 1000 Ang^3
#
#
#
# Elastic Constant Matrix: (Units=GPa)
#
#
# Indices 1 2 3 4 5 6 
#
# 1 114.3210 51.3354 39.0166 2.5212 13.5556 -20.7477
# 2 51.3354 150.6347 48.1965 1.8281 6.9971 -8.1064
# 3 39.0166 48.1965 87.0755 1.4097 4.2786 -17.3378
# 4 2.5212 1.8281 1.4097 49.0534 3.8656 0.8325
# 5 13.5556 6.9971 4.2786 3.8656 26.3036 8.5312
# 6 -20.7477 -8.1064 -17.3378 0.8325 8.5312 41.5598
#
#
#
# Elastic Compliance Matrix: (Units=1/GPa)
#
#
# Indices 1 2 3 4 5 6 
#
# 1 0.012990 -0.002910 -0.002562 0.000003 -0.007581 0.006405
# 2 -0.002910 0.008773 -0.003841 -0.000063 0.000252 -0.001395
# 3 -0.002562 -0.003841 0.015836 -0.000121 -0.001823 0.004955
# 4 0.000003 -0.000063 -0.000121 0.020629 -0.003046 0.000151
# 5 -0.007581 0.000252 -0.001823 -0.003046 0.047181 -0.014120
# 6 0.006405 -0.001395 0.004955 0.000151 -0.014120 0.031950
#
#
# Mechanical properties :
#
#
# Convention : Reuss Voigt Hill
#
# Bulk Modulus (GPa) = 52.70670 69.90314 61.30492
# Shear Modulus (GPa) = 30.80518 37.61552 34.21035
#
# Velocity S-wave (km/s) = 3.90678 4.31708 4.11704
# Velocity P-wave (km/s) = 6.81652 7.71260 7.27836
#
# Compressibility (1/GPa) = 0.01897292
#
# Stress axis : x y z
#
# Youngs Moduli (GPa) = 76.98403 113.98104 63.14568
#
# Poissons Ratio (x) = 0.33173 0.16177
# Poissons Ratio (y) = 0.22405 0.24255
# Poissons Ratio (z) = 0.19722 0.43781
#
# Static dielectric constant tensor:
#      x y z
#    x 3.996070 0.136840 0.022190 
#    y 0.136840 4.085170 0.011760 
#    z 0.022190 0.011760 3.781150 
# 
# 
# High freq. dielectric constant tensor:
#      x y z
#    x 1.793490 0.004070 0.006560 
#    y 0.004070 1.810160 0.000100 
#    z 0.006560 0.000100 1.803610 
# 
# From -- ./inp_files/42832.got.cif
#   From: 2010.06.25/outbox.cif.g09.slc.cpg/sg2_22_cif.got.tgz:42832.got - 2010.06.27 13:26:56.
