data_PCOD8030003
_publ_section_title
;
Structure prediction by ZEFSAII (Michael W. Deem and Ramdas Pophale) SiO2 
 PCOD8030003
Probable space group: P -1
;
_chemical_formula_sum "Si O2"
_cell_formula_units_Z 14
_cell_length_a 10.921798
_cell_length_b 7.767361
_cell_length_c 11.549926
_cell_angle_alpha 68.829039
_cell_angle_beta 72.470845
_cell_angle_gamma 43.681924
_cell_volume 629.825021
_symmetry_space_group_name_H-M "P -1"
_symmetry_group_IT_number 2
_symmetry_cell_setting 'triclinic'
loop_
_space_group_symop_operation_xyz
x,y,z
-x,-y,-z
loop_
_atom_site_type_symbol
_atom_site_label
_atom_site_fract_x
_atom_site_fract_y
_atom_site_fract_z
Si Si1 0.137848 0.587710 0.756090
Si Si2 0.507228 0.865549 0.141834
Si Si3 0.197183 0.190936 0.329748
Si Si4 0.227142 0.546619 0.318685
Si Si5 0.937321 0.046100 0.137358
Si Si6 0.465180 0.562830 0.860834
Si Si7 0.290029 0.698049 0.497886
O O1 0.303611 0.290490 0.810883
O O2 0.053546 0.758772 0.855332
O O3 0.202956 0.697884 0.635690
O O4 0.991948 0.609140 0.729052
O O5 0.486749 0.671910 0.163047
O O6 0.349777 0.075304 0.220854
O O7 0.500000 0.000000 0.000000
O O8 0.207088 0.344841 0.384121
O O9 0.214171 0.979116 0.440203
O O10 0.408675 0.404525 0.232726
O O11 0.231865 0.630403 0.423247
O O12 0.061378 0.784501 0.235319
O O13 0.735673 0.173059 0.167686
O O14 0.000000 0.000000 0.000000
O O15 0.500000 0.500000 0.000000
O O16 0.500000 0.500000 0.500000
#
# Coordination Sequence:
#
# PCOD8030003 Si02
#       7
#     2   2   2   2   2   2   2
#     4  11  25  48  73 101 147 195 232 301 362 414
#     4  11  24  44  70 104 144 187 240 294 356 424
#     4  12  26  45  74 107 141 188 244 291 356 432
#     4  12  26  45  72 108 141 187 242 293 356 428
#     4  11  23  43  71 102 141 191 237 289 361 422
#     4  11  21  41  69  99 145 190 230 294 356 417
#     4  12  24  53  76 100 150 189 238 302 358 426
#
# _framework density 22.228397000000001
#
# number of rings (size 3 to 8) (size 9 to 14) (size 15 to 20)
#    0.000    0.571    5.714    2.143    2.000    4.000 
#    0.000    0.000    0.000    0.000    0.000    0.000 
#    0.000    0.000    0.000    0.000    0.000    0.000 
#
# Total GULP energy -173673.905104 kJ/mol
# GULP energy per Si atom -12405.278936 kJ/mol
# Density = 2.217780 g / cm^3
# Si number density = 22.228397 Si / 1000 Ang^3
#
#
#
# Elastic Constant Matrix: (Units=GPa)
#
#
# Indices 1 2 3 4 5 6 
#
# 1 145.1434 70.7134 30.5213 -16.2399 9.1478 3.9219
# 2 70.7134 122.1856 39.0761 -16.9226 -3.4958 -25.7382
# 3 30.5213 39.0761 102.5645 -11.9592 7.3166 3.9880
# 4 -16.2399 -16.9226 -11.9592 34.9441 -5.3174 6.2374
# 5 9.1478 -3.4958 7.3166 -5.3174 30.6533 -3.1617
# 6 3.9219 -25.7382 3.9880 6.2374 -3.1617 38.8917
#
#
#
# Elastic Compliance Matrix: (Units=1/GPa)
#
#
# Indices 1 2 3 4 5 6 
#
# 1 0.011560 -0.008306 0.000618 0.002143 -0.004943 -0.007471
# 2 -0.008306 0.017994 -0.005241 0.001771 0.007493 0.013608
# 3 0.000618 -0.005241 0.012328 0.002357 -0.003882 -0.005488
# 4 0.002143 0.001771 0.002357 0.032668 0.004236 -0.004181
# 5 -0.004943 0.007493 -0.003882 0.004236 0.037462 0.008221
# 6 -0.007471 0.013608 -0.005488 -0.004181 0.008221 0.037373
#
#
# Mechanical properties :
#
#
# Convention : Reuss Voigt Hill
#
# Bulk Modulus (GPa) = 62.41103 72.27944 67.34523
# Shear Modulus (GPa) = 27.68796 36.20332 31.94564
#
# Velocity S-wave (km/s) = 3.53315 4.04009 3.79509
# Velocity P-wave (km/s) = 6.69196 7.37227 7.04034
#
# Compressibility (1/GPa) = 0.01602281
#
# Stress axis : x y z
#
# Youngs Moduli (GPa) = 86.50701 55.57548 81.11609
#
# Poissons Ratio (x) = 0.46162 -0.05009
# Poissons Ratio (y) = 0.71854 0.42511
# Poissons Ratio (z) = -0.05342 0.29125
#
# Static dielectric constant tensor:
#      x y z
#    x 4.039590 -0.229940 0.213730 
#    y -0.229940 4.247240 0.040440 
#    z 0.213730 0.040440 4.034590 
# 
# 
# High freq. dielectric constant tensor:
#      x y z
#    x 1.881560 -0.015160 0.012320 
#    y -0.015160 1.889630 0.005520 
#    z 0.012320 0.005520 1.874860 
# 
# From -- ./inp_files/331526.got.cif
#   From: 2010.06.25/outbox.cif.g09.slc.cpg/sg2_166_cif.got.tgz:331526.got - 2010.06.27 13:26:56.
