data_PCOD8030431
_publ_section_title
;
Structure prediction by ZEFSAII (Michael W. Deem and Ramdas Pophale) SiO2 
 PCOD8030431
Probable space group: P -1
;
_chemical_formula_sum "Si O2"
_cell_formula_units_Z 16
_cell_length_a 15.462107
_cell_length_b 10.973937
_cell_length_c 13.431812
_cell_angle_alpha 35.116249
_cell_angle_beta 44.655642
_cell_angle_gamma 69.663500
_cell_volume 750.885623
_symmetry_space_group_name_H-M "P -1"
_symmetry_group_IT_number 2
_symmetry_cell_setting 'triclinic'
loop_
_space_group_symop_operation_xyz
x,y,z
-x,-y,-z
loop_
_atom_site_type_symbol
_atom_site_label
_atom_site_fract_x
_atom_site_fract_y
_atom_site_fract_z
Si Si1 0.998587 0.852414 0.195209
Si Si2 0.685635 0.036882 0.155204
Si Si3 0.244774 0.925341 0.258822
Si Si4 0.992622 0.919510 0.370072
Si Si5 0.481038 0.486204 0.769661
Si Si6 0.744010 0.422666 0.007600
Si Si7 0.316437 0.671265 0.216375
Si Si8 0.999293 0.649151 0.806359
O O1 0.996685 0.997719 0.199342
O O2 0.855394 0.558911 0.509603
O O3 0.140836 0.841624 0.087695
O O4 0.000000 0.000000 0.000000
O O5 0.589064 0.724170 0.447197
O O6 0.673422 0.145289 0.198703
O O7 0.621695 0.117530 0.063961
O O8 0.326551 0.801452 0.227857
O O9 0.154830 0.773216 0.534947
O O10 0.128975 0.892672 0.292577
O O11 0.366802 0.229049 0.972975
O O12 0.835609 0.643769 0.701746
O O13 0.010290 0.121668 0.300488
O O14 0.580913 0.435939 0.792629
O O15 0.392666 0.567767 0.852853
O O16 0.852775 0.460059 0.984631
O O17 0.000000 0.500000 0.000000
#
# Coordination Sequence:
#
# PCOD8030431 Si02
#       8
#     2   2   2   2   2   2   2   2
#     4  12  24  45  72 103 134 172 238 288 335 396
#     4  12  26  45  70 101 135 185 228 286 347 403
#     4  11  23  47  68  97 141 177 232 281 339 413
#     4  11  21  45  76  94 133 184 224 294 336 387
#     4  12  26  46  66 102 148 178 226 278 348 424
#     4  11  23  47  68  97 141 177 232 281 339 413
#     4  12  26  45  70 101 135 185 228 286 347 403
#     4  11  24  39  73 105 129 181 236 289 336 392
#
# _framework density 21.308171999999999
#
# number of rings (size 3 to 8) (size 9 to 14) (size 15 to 20)
#    0.000    0.500    6.250    3.375    3.500    2.000 
#    0.000    0.000    0.000    0.000    0.000    0.000 
#    0.000    0.000    0.000    0.000    0.000    0.000 
#
# Total GULP energy -198463.008859 kJ/mol
# GULP energy per Si atom -12403.938054 kJ/mol
# Density = 2.125967 g / cm^3
# Si number density = 21.308172 Si / 1000 Ang^3
#
#
#
# Elastic Constant Matrix: (Units=GPa)
#
#
# Indices 1 2 3 4 5 6 
#
# 1 111.1809 40.6922 59.0650 14.1075 36.0489 2.5782
# 2 40.6922 105.9452 25.1243 4.6011 -3.1735 13.8509
# 3 59.0650 25.1243 104.7524 -4.3057 2.1042 -2.0255
# 4 14.1075 4.6011 -4.3057 26.8764 -4.5700 -1.5258
# 5 36.0489 -3.1735 2.1042 -4.5700 38.2918 2.2170
# 6 2.5782 13.8509 -2.0255 -1.5258 2.2170 42.0371
#
#
#
# Elastic Compliance Matrix: (Units=1/GPa)
#
#
# Indices 1 2 3 4 5 6 
#
# 1 0.043336 -0.011529 -0.022060 -0.031787 -0.044408 0.001266
# 2 -0.011529 0.013788 0.003108 0.006130 0.012796 -0.004139
# 3 -0.022060 0.003108 0.021567 0.018288 0.021973 0.000873
# 4 -0.031787 0.006130 0.018288 0.062090 0.036773 0.001125
# 5 -0.044408 0.012796 0.021973 0.036773 0.072333 -0.002914
# 6 0.001266 -0.004139 0.000873 0.001125 -0.002914 0.025311
#
#
# Mechanical properties :
#
#
# Convention : Reuss Voigt Hill
#
# Bulk Modulus (GPa) = 56.40210 63.51572 59.95891
# Shear Modulus (GPa) = 16.37763 34.57417 25.47590
#
# Velocity S-wave (km/s) = 2.77539 4.03249 3.46149
# Velocity P-wave (km/s) = 6.06610 7.18013 6.64649
#
# Compressibility (1/GPa) = 0.01772984
#
# Stress axis : x y z
#
# Youngs Moduli (GPa) = 23.07551 72.52760 46.36776
#
# Poissons Ratio (x) = 0.83614 1.02288
# Poissons Ratio (y) = 0.26603 -0.14413
# Poissons Ratio (z) = 0.50905 -0.22545
#
# Static dielectric constant tensor:
#      x y z
#    x 3.785510 0.064790 -0.027380 
#    y 0.064790 4.092880 0.082760 
#    z -0.027380 0.082760 3.938490 
# 
# 
# High freq. dielectric constant tensor:
#      x y z
#    x 1.832880 0.004860 -0.001320 
#    y 0.004860 1.848010 0.001010 
#    z -0.001320 0.001010 1.838850 
# 
# From -- ./inp_files/457426.got.cif
#   From: 2010.06.25/outbox.cif.g09.slc.cpg/sg2_229_cif.got.tgz:457426.got - 2010.06.27 13:26:56.
