data_PCOD8030113
_publ_section_title
;
Structure prediction by ZEFSAII (Michael W. Deem and Ramdas Pophale) SiO2 
 PCOD8030113
Probable space group: P -1
;
_chemical_formula_sum "Si O2"
_cell_formula_units_Z 14
_cell_length_a 9.078745
_cell_length_b 21.513259
_cell_length_c 9.713305
_cell_angle_alpha 26.440155
_cell_angle_beta 48.892997
_cell_angle_gamma 49.064526
_cell_volume 623.852858
_symmetry_space_group_name_H-M "P -1"
_symmetry_group_IT_number 2
_symmetry_cell_setting 'triclinic'
loop_
_space_group_symop_operation_xyz
x,y,z
-x,-y,-z
loop_
_atom_site_type_symbol
_atom_site_label
_atom_site_fract_x
_atom_site_fract_y
_atom_site_fract_z
Si Si1 0.326185 0.993691 0.509536
Si Si2 0.688768 0.277294 0.102109
Si Si3 0.006886 0.560945 0.026030
Si Si4 0.633319 0.618104 0.716042
Si Si5 0.503338 0.184281 0.826800
Si Si6 0.375105 0.442403 0.576543
Si Si7 0.106670 0.830656 0.527592
O O1 0.107571 0.066060 0.555946
O O2 0.500000 0.000000 0.500000
O O3 0.300591 0.833879 0.808871
O O4 0.388892 0.065166 0.190271
O O5 0.464102 0.297925 0.256230
O O6 0.844663 0.218412 0.246385
O O7 0.719394 0.431503 0.722246
O O8 0.137317 0.441666 0.277639
O O9 0.797781 0.613300 0.125688
O O10 0.110688 0.696079 0.692441
O O11 0.000000 0.500000 0.000000
O O12 0.639549 0.729659 0.370500
O O13 0.500000 0.500000 0.000000
O O14 0.517061 0.304619 0.694954
O O15 0.714500 0.107521 0.779247
O O16 0.500000 0.500000 0.500000
#
# Coordination Sequence:
#
# PCOD8030113 Si02
#       7
#     2   2   2   2   2   2   2
#     4  12  28  46  68  99 141 184 230 287 337 408
#     4  11  24  45  68  98 141 179 231 277 339 414
#     4  12  24  39  70 107 138 175 228 289 348 403
#     4  11  21  42  70 102 135 172 223 291 334 406
#     4  11  23  45  73  96 138 177 230 276 348 403
#     4  12  23  40  70 102 137 178 229 287 346 403
#     4  11  24  46  70  98 137 183 227 283 340 418
#
# _framework density 22.441189000000001
#
# number of rings (size 3 to 8) (size 9 to 14) (size 15 to 20)
#    0.000    0.571    5.714    3.000    4.000    4.000 
#    2.571    0.000    0.000    0.000    0.000    0.000 
#    0.000    0.000    0.000    0.000    0.000    0.000 
#
# Total GULP energy -173524.186180 kJ/mol
# GULP energy per Si atom -12394.584727 kJ/mol
# Density = 2.239011 g / cm^3
# Si number density = 22.441189 Si / 1000 Ang^3
#
#
#
# Elastic Constant Matrix: (Units=GPa)
#
#
# Indices 1 2 3 4 5 6 
#
# 1 87.8665 35.9493 -6.9325 3.1294 3.1403 -9.0401
# 2 35.9493 114.4771 6.1955 6.4475 2.9830 -12.0993
# 3 -6.9325 6.1955 75.4158 11.8551 4.2941 -5.1425
# 4 3.1294 6.4475 11.8551 38.0086 4.1421 -6.0183
# 5 3.1403 2.9830 4.2941 4.1421 23.0447 -1.4234
# 6 -9.0401 -12.0993 -5.1425 -6.0183 -1.4234 47.8789
#
#
#
# Elastic Compliance Matrix: (Units=1/GPa)
#
#
# Indices 1 2 3 4 5 6 
#
# 1 0.013432 -0.004080 0.001852 -0.000583 -0.001445 0.001588
# 2 -0.004080 0.010294 -0.000962 -0.000816 -0.000351 0.001615
# 3 0.001852 -0.000962 0.014337 -0.004073 -0.002001 0.001075
# 4 -0.000583 -0.000816 -0.004073 0.028638 -0.004035 0.002726
# 5 -0.001445 -0.000351 -0.002001 -0.004035 0.044750 0.000247
# 6 0.001588 0.001615 0.001075 0.002726 0.000247 0.022059
#
#
# Mechanical properties :
#
#
# Convention : Reuss Voigt Hill
#
# Bulk Modulus (GPa) = 31.56332 38.68711 35.12521
# Shear Modulus (GPa) = 33.23332 37.95624 35.59478
#
# Velocity S-wave (km/s) = 3.85243 4.11708 3.98695
# Velocity P-wave (km/s) = 5.82097 6.31484 6.07293
#
# Compressibility (1/GPa) = 0.03168235
#
# Stress axis : x y z
#
# Youngs Moduli (GPa) = 74.44881 97.13934 69.75172
#
# Poissons Ratio (x) = 0.39633 -0.12918
# Poissons Ratio (y) = 0.30375 0.06713
# Poissons Ratio (z) = -0.13788 0.09348
#
# Static dielectric constant tensor:
#      x y z
#    x 3.974980 0.017720 0.054110 
#    y 0.017720 4.364070 -0.023510 
#    z 0.054110 -0.023510 4.276400 
# 
# 
# High freq. dielectric constant tensor:
#      x y z
#    x 1.879730 0.001080 0.006510 
#    y 0.001080 1.900530 0.004600 
#    z 0.006510 0.004600 1.871590 
# 
# From -- ./inp_files/171642.got.cif
#   From: 2010.06.25/outbox.cif.g09.slc.cpg/sg2_86_cif.got.tgz:171642.got - 2010.06.27 13:26:56.
