data_PCOD8030424
_publ_section_title
;
Structure prediction by ZEFSAII (Michael W. Deem and Ramdas Pophale) SiO2 
 PCOD8030424
Probable space group: P -1
;
_chemical_formula_sum "Si O2"
_cell_formula_units_Z 16
_cell_length_a 17.476709
_cell_length_b 9.331372
_cell_length_c 8.741021
_cell_angle_alpha 133.808707
_cell_angle_beta 130.139732
_cell_angle_gamma 57.531998
_cell_volume 775.760925
_symmetry_space_group_name_H-M "P -1"
_symmetry_group_IT_number 2
_symmetry_cell_setting 'triclinic'
loop_
_space_group_symop_operation_xyz
x,y,z
-x,-y,-z
loop_
_atom_site_type_symbol
_atom_site_label
_atom_site_fract_x
_atom_site_fract_y
_atom_site_fract_z
Si Si1 0.251151 0.205776 0.567333
Si Si2 0.312228 0.762273 0.312467
Si Si3 0.438996 0.441388 0.022345
Si Si4 0.132847 0.573475 0.073672
Si Si5 0.057443 0.480698 0.402451
Si Si6 0.581720 0.130468 0.165043
Si Si7 0.228389 0.137545 0.841295
Si Si8 0.904648 0.168219 0.484024
O O1 0.349986 0.314810 0.773731
O O2 0.161823 0.324316 0.435514
O O3 0.208813 0.174996 0.661112
O O4 0.282149 0.985741 0.368674
O O5 0.210276 0.663423 0.127451
O O6 0.364731 0.778879 0.556327
O O7 0.389474 0.633479 0.200026
O O8 0.500000 0.500000 0.000000
O O9 0.532669 0.317924 0.142108
O O10 0.114440 0.686620 0.290373
O O11 0.183820 0.346899 0.018613
O O12 0.020825 0.589045 0.869950
O O13 0.085771 0.697442 0.553980
O O14 0.000000 0.500000 0.500000
O O15 0.655358 0.950067 0.040116
O O16 0.500000 0.000000 0.000000
O O17 0.185808 0.955423 0.732471
O O18 0.000000 0.000000 0.500000
#
# Coordination Sequence:
#
# PCOD8030424 Si02
#       8
#     2   2   2   2   2   2   2   2
#     4  11  23  47  64 101 141 175 227 282 335 406
#     4  11  23  45  74  95 134 182 229 278 339 406
#     4  12  26  44  68 103 140 175 225 286 343 400
#     4  12  23  45  72 101 132 183 229 277 334 405
#     4  12  25  44  69 100 144 181 216 276 348 404
#     4  11  21  45  74  94 127 181 227 278 341 398
#     4  11  22  44  70  97 136 172 233 281 326 401
#     4  12  25  45  69 100 137 178 233 282 326 399
#
# _framework density 20.62491
#
# number of rings (size 3 to 8) (size 9 to 14) (size 15 to 20)
#    0.000    0.500    8.750    0.750    1.750    1.000 
#    4.500    0.000    0.000    0.000    0.000    0.000 
#    0.000    0.000    0.000    0.000    0.000    0.000 
#
# Total GULP energy -198255.675352 kJ/mol
# GULP energy per Si atom -12390.979710 kJ/mol
# Density = 2.057797 g / cm^3
# Si number density = 20.624910 Si / 1000 Ang^3
#
#
#
# Elastic Constant Matrix: (Units=GPa)
#
#
# Indices 1 2 3 4 5 6 
#
# 1 128.6204 82.7460 47.0118 5.7124 8.7759 0.2941
# 2 82.7460 204.4354 57.1325 16.6033 5.4824 -24.5822
# 3 47.0118 57.1325 65.2331 29.0266 21.2846 -16.7739
# 4 5.7124 16.6033 29.0266 28.6767 -10.4845 8.6214
# 5 8.7759 5.4824 21.2846 -10.4845 43.9332 9.4537
# 6 0.2941 -24.5822 -16.7739 8.6214 9.4537 52.3762
#
#
#
# Elastic Compliance Matrix: (Units=1/GPa)
#
#
# Indices 1 2 3 4 5 6 
#
# 1 0.007514 -0.003639 0.011547 -0.017751 -0.012407 0.007109
# 2 -0.003639 0.007675 -0.003724 -0.000265 0.001018 0.002290
# 3 0.011547 -0.003724 -0.040261 0.065154 0.040248 -0.032696
# 4 -0.017751 -0.000265 0.065154 -0.057582 -0.050203 0.039381
# 5 -0.012407 0.001018 0.040248 -0.050203 -0.011482 0.023773
# 6 0.007109 0.002290 -0.032696 0.039381 0.023773 -0.001117
#
#
# Mechanical properties :
#
#
# Convention : Reuss Voigt Hill
#
# Bulk Modulus (GPa) = -59.86007 85.78552 12.96273
# Shear Modulus (GPa) = -45.79231 39.09044 -3.35093
#
# Velocity S-wave (km/s) = -4.71706 4.35823 -1.27602
# Velocity P-wave (km/s) = 7.66510 8.18590 2.03166
#
# Compressibility (1/GPa) = -0.01670563
#
# Stress axis : x y z
#
# Youngs Moduli (GPa) = 133.08076 130.29493 -24.83785
#
# Poissons Ratio (x) = 0.47416 0.28680
# Poissons Ratio (y) = 0.48430 -0.09251
# Poissons Ratio (z) = -1.53664 0.48527
#
# Static dielectric constant tensor:
#      x y z
#    x 3.901160 0.100720 0.171930 
#    y 0.100720 4.093340 0.376700 
#    z 0.171930 0.376700 3.700710 
# 
# 
# High freq. dielectric constant tensor:
#      x y z
#    x 1.822690 -0.013630 0.018820 
#    y -0.013630 1.824440 0.015760 
#    z 0.018820 0.015760 1.794340 
# 
# From -- ./inp_files/329654.got.cif
#   From: 2010.06.25/outbox.cif.g09.slc.cpg/sg2_165_cif.got.tgz:329654.got - 2010.06.27 13:26:56.
