data_PCOD8030337
_publ_section_title
;
Structure prediction by ZEFSAII (Michael W. Deem and Ramdas Pophale) SiO2 
 PCOD8030337
Probable space group: P -1
;
_chemical_formula_sum "Si O2"
_cell_formula_units_Z 16
_cell_length_a 21.982666
_cell_length_b 8.925799
_cell_length_c 6.588106
_cell_angle_alpha 57.801042
_cell_angle_beta 133.641422
_cell_angle_gamma 133.758032
_cell_volume 671.833693
_symmetry_space_group_name_H-M "P -1"
_symmetry_group_IT_number 2
_symmetry_cell_setting 'triclinic'
loop_
_space_group_symop_operation_xyz
x,y,z
-x,-y,-z
loop_
_atom_site_type_symbol
_atom_site_label
_atom_site_fract_x
_atom_site_fract_y
_atom_site_fract_z
Si Si1 0.525333 0.704376 0.298782
Si Si2 0.903328 0.813499 0.304080
Si Si3 0.041406 0.376102 0.797481
Si Si4 0.306219 0.136954 0.746601
Si Si5 0.452649 0.127231 0.362230
Si Si6 0.152740 0.908940 0.232021
Si Si7 0.623664 0.424173 0.287665
Si Si8 0.194125 0.588634 0.336386
O O1 0.500000 0.500000 0.500000
O O2 0.621832 0.787912 0.330987
O O3 0.553697 0.881235 0.404837
O O4 0.428002 0.654296 0.991640
O O5 0.934698 0.750483 0.215521
O O6 0.845268 0.611358 0.461152
O O7 0.000000 0.000000 0.500000
O O8 0.830961 0.897944 0.011360
O O9 0.000000 0.500000 0.500000
O O10 0.964050 0.226126 0.897555
O O11 0.137615 0.536325 0.031187
O O12 0.303767 0.326388 0.709671
O O13 0.200467 0.974204 0.521760
O O14 0.344776 0.041571 0.074870
O O15 0.536332 0.357717 0.302526
O O16 0.500000 0.000000 0.500000
O O17 0.189635 0.773461 0.302127
O O18 0.692204 0.325564 0.531523
#
# Coordination Sequence:
#
# PCOD8030337 Si02
#       8
#     2   2   2   2   2   2   2   2
#     4  11  21  44  71  93 134 184 225 283 343 403
#     4  12  26  47  77 100 138 192 233 288 353 411
#     4  12  25  50  75 101 147 186 229 296 349 414
#     4  11  25  44  66 105 133 179 236 282 342 416
#     4  11  25  43  70  98 139 182 227 284 350 409
#     4  12  27  47  72 106 144 183 238 288 351 419
#     4  11  25  44  69 100 138 177 234 284 340 418
#     4  12  28  48  70 108 143 184 237 290 348 421
#
# _framework density 23.815418999999999
#
# number of rings (size 3 to 8) (size 9 to 14) (size 15 to 20)
#    0.000    0.500    5.000    3.000    7.000    3.000 
#    0.000    0.000    0.000    0.000    0.000    0.000 
#    0.000    0.000    0.000    0.000    0.000    0.000 
#
# Total GULP energy -198375.148496 kJ/mol
# GULP energy per Si atom -12398.446781 kJ/mol
# Density = 2.376121 g / cm^3
# Si number density = 23.815419 Si / 1000 Ang^3
#
#
#
# Elastic Constant Matrix: (Units=GPa)
#
#
# Indices 1 2 3 4 5 6 
#
# 1 79.9531 -1.8996 33.1758 1.6133 0.8483 -22.6859
# 2 -1.8996 65.7298 37.3206 -7.4438 3.0724 -30.9636
# 3 33.1758 37.3206 176.7136 14.1585 7.8358 -20.7007
# 4 1.6133 -7.4438 14.1585 45.3623 -4.3065 3.8030
# 5 0.8483 3.0724 7.8358 -4.3065 44.0311 2.3675
# 6 -22.6859 -30.9636 -20.7007 3.8030 2.3675 40.4365
#
#
#
# Elastic Compliance Matrix: (Units=1/GPa)
#
#
# Indices 1 2 3 4 5 6 
#
# 1 0.019329 0.011121 -0.003952 0.000794 -0.001300 0.017337
# 2 0.011121 0.032684 -0.005941 0.004237 -0.002527 0.027975
# 3 -0.003952 -0.005941 0.007660 -0.003115 -0.001043 -0.002491
# 4 0.000794 0.004237 -0.003115 0.023957 0.002603 -0.000310
# 5 -0.001300 -0.002527 -0.001043 0.002603 0.023612 -0.004826
# 6 0.017337 0.027975 -0.002491 -0.000310 -0.004826 0.054915
#
#
# Mechanical properties :
#
#
# Convention : Reuss Voigt Hill
#
# Bulk Modulus (GPa) = 16.09596 51.06556 33.58076
# Shear Modulus (GPa) = 27.71447 42.88594 35.30021
#
# Velocity S-wave (km/s) = 3.41503 4.24814 3.85417
# Velocity P-wave (km/s) = 4.72475 6.74915 5.82556
#
# Compressibility (1/GPa) = 0.06212740
#
# Stress axis : x y z
#
# Youngs Moduli (GPa) = 51.73683 30.59556 130.55597
#
# Poissons Ratio (x) = -0.34024 0.51600
# Poissons Ratio (y) = -0.57534 0.77561
# Poissons Ratio (z) = 0.20448 0.18176
#
# Static dielectric constant tensor:
#      x y z
#    x 4.456080 -0.338630 -0.295020 
#    y -0.338630 4.397960 0.369210 
#    z -0.295020 0.369210 4.890080 
# 
# 
# High freq. dielectric constant tensor:
#      x y z
#    x 1.947210 -0.011260 -0.000320 
#    y -0.011260 1.951120 0.000760 
#    z -0.000320 0.000760 1.960700 
# 
# From -- ./inp_files/122874.got.cif
#   From: 2010.06.25/outbox.cif.g09.slc.cpg/sg2_62_cif.got.tgz:122874.got - 2010.06.27 13:26:56.
