data_PCOD8030360
_publ_section_title
;
Structure prediction by ZEFSAII (Michael W. Deem and Ramdas Pophale) SiO2 
 PCOD8030360
Probable space group: P -1
;
_chemical_formula_sum "Si O2"
_cell_formula_units_Z 16
_cell_length_a 8.759739
_cell_length_b 8.875404
_cell_length_c 15.505161
_cell_angle_alpha 124.023433
_cell_angle_beta 100.931966
_cell_angle_gamma 114.575363
_cell_volume 752.557380
_symmetry_space_group_name_H-M "P -1"
_symmetry_group_IT_number 2
_symmetry_cell_setting 'triclinic'
loop_
_space_group_symop_operation_xyz
x,y,z
-x,-y,-z
loop_
_atom_site_type_symbol
_atom_site_label
_atom_site_fract_x
_atom_site_fract_y
_atom_site_fract_z
Si Si1 0.137416 0.102681 0.720391
Si Si2 0.239486 0.776248 0.038956
Si Si3 0.295554 0.955871 0.464247
Si Si4 0.361059 0.410113 0.678456
Si Si5 0.764052 0.867580 0.941338
Si Si6 0.903347 0.244790 0.804987
Si Si7 0.032541 0.359629 0.528188
Si Si8 0.413885 0.244326 0.932734
O O1 0.244151 0.304036 0.722813
O O2 0.289831 0.086458 0.784541
O O3 0.043894 0.171650 0.802599
O O4 0.973426 0.841752 0.582006
O O5 0.250342 0.867305 0.166261
O O6 0.413562 0.767210 0.033133
O O7 0.275531 0.957586 0.032462
O O8 0.023932 0.523698 0.914810
O O9 0.206975 0.851107 0.327923
O O10 0.146862 0.763604 0.460070
O O11 0.500000 0.000000 0.500000
O O12 0.337586 0.201632 0.559069
O O13 0.600896 0.623933 0.791015
O O14 0.253730 0.502088 0.645297
O O15 0.729455 0.829578 0.026094
O O16 0.000000 0.000000 0.000000
O O17 0.000000 0.500000 0.500000
O O18 0.500000 0.500000 0.000000
#
# Coordination Sequence:
#
# PCOD8030360 Si02
#       8
#     2   2   2   2   2   2   2   2
#     4  11  21  44  72  99 138 185 234 283 347 422
#     4  11  27  41  70 101 142 184 232 294 339 419
#     4  11  25  43  73 101 136 187 230 287 352 424
#     4  11  23  47  72  99 141 186 235 286 354 425
#     4  12  28  46  69 107 146 181 238 298 354 410
#     4  11  22  44  69  98 137 180 241 276 352 406
#     4  11  25  45  73 106 139 182 235 296 353 419
#     4  12  24  43  73 101 135 189 230 282 355 425
#
# _framework density 21.260836999999999
#
# number of rings (size 3 to 8) (size 9 to 14) (size 15 to 20)
#    0.000    0.750    5.000    1.875    8.750    1.000 
#    2.250    1.250    0.000    0.000    0.000    0.000 
#    0.000    0.000    0.000    0.000    0.000    0.000 
#
# Total GULP energy -198261.978939 kJ/mol
# GULP energy per Si atom -12391.373684 kJ/mol
# Density = 2.121245 g / cm^3
# Si number density = 21.260837 Si / 1000 Ang^3
#
#
#
# Elastic Constant Matrix: (Units=GPa)
#
#
# Indices 1 2 3 4 5 6 
#
# 1 136.0864 62.3963 48.2339 -5.3335 8.8832 0.2559
# 2 62.3963 130.0399 49.3561 -13.0117 7.9637 -9.1161
# 3 48.2339 49.3561 124.4311 -13.2239 10.8165 1.9027
# 4 -5.3335 -13.0117 -13.2239 33.3411 -1.2068 2.0765
# 5 8.8832 7.9637 10.8165 -1.2068 42.8457 -6.7643
# 6 0.2559 -9.1161 1.9027 2.0765 -6.7643 37.0568
#
#
#
# Elastic Compliance Matrix: (Units=1/GPa)
#
#
# Indices 1 2 3 4 5 6 
#
# 1 0.010047 -0.004059 -0.002275 -0.000847 -0.000948 -0.001077
# 2 -0.004059 0.011062 -0.002589 0.002469 -0.000060 0.002733
# 3 -0.002275 -0.002589 0.010430 0.002798 -0.001862 -0.001653
# 4 -0.000847 0.002469 0.002798 0.032006 -0.000306 -0.001380
# 5 -0.000948 -0.000060 -0.001862 -0.000306 0.024738 0.004620
# 6 -0.001077 0.002733 -0.001653 -0.001380 0.004620 0.028671
#
#
# Mechanical properties :
#
#
# Convention : Reuss Voigt Hill
#
# Bulk Modulus (GPa) = 73.03302 78.94776 75.99039
# Shear Modulus (GPa) = 35.87712 38.02014 36.94863
#
# Velocity S-wave (km/s) = 4.11234 4.23338 4.17330
# Velocity P-wave (km/s) = 7.54811 7.81722 7.68385
#
# Compressibility (1/GPa) = 0.01369244
#
# Stress axis : x y z
#
# Youngs Moduli (GPa) = 99.53596 90.39611 95.87738
#
# Poissons Ratio (x) = 0.36693 0.21817
# Poissons Ratio (y) = 0.40403 0.24820
# Poissons Ratio (z) = 0.22649 0.23401
#
# Static dielectric constant tensor:
#      x y z
#    x 3.765950 0.014640 0.000500 
#    y 0.014640 3.811430 0.000090 
#    z 0.000500 0.000090 4.009270 
# 
# 
# High freq. dielectric constant tensor:
#      x y z
#    x 1.841090 -0.005820 0.006010 
#    y -0.005820 1.829520 -0.013310 
#    z 0.006010 -0.013310 1.850300 
# 
# From -- ./inp_files/335589.got.cif
#   From: 2010.06.25/outbox.cif.g09.slc.cpg/sg2_168_cif.got.tgz:335589.got - 2010.06.27 13:26:56.
