data_PCOD8030992
_publ_section_title
;
Structure prediction by ZEFSAII (Michael W. Deem and Ramdas Pophale) SiO2 
 PCOD8030992
Probable space group: P -1
;
_chemical_formula_sum "Si O2"
_cell_formula_units_Z 16
_cell_length_a 9.440138
_cell_length_b 14.535136
_cell_length_c 14.764646
_cell_angle_alpha 141.161391
_cell_angle_beta 39.009137
_cell_angle_gamma 141.806529
_cell_volume 711.030075
_symmetry_space_group_name_H-M "P -1"
_symmetry_group_IT_number 2
_symmetry_cell_setting 'triclinic'
loop_
_space_group_symop_operation_xyz
x,y,z
-x,-y,-z
loop_
_atom_site_type_symbol
_atom_site_label
_atom_site_fract_x
_atom_site_fract_y
_atom_site_fract_z
Si Si1 0.076100 0.935494 0.073660
Si Si2 0.474288 0.967223 0.753977
Si Si3 0.451068 0.320197 0.441734
Si Si4 0.016449 0.648094 0.008115
Si Si5 0.874112 0.570064 0.544938
Si Si6 0.435306 0.272317 0.210414
Si Si7 0.030978 0.692908 0.231716
Si Si8 0.712133 0.083996 0.385421
O O1 0.252721 0.077926 0.165212
O O2 0.991055 0.754812 0.020279
O O3 0.827761 0.960703 0.203695
O O4 0.231145 0.963052 0.924031
O O5 0.704503 0.147385 0.763142
O O6 0.583000 0.864863 0.679066
O O7 0.393393 0.882389 0.630427
O O8 0.723223 0.433638 0.440142
O O9 0.475367 0.369544 0.361219
O O10 0.195246 0.316125 0.601385
O O11 0.306413 0.711177 0.943712
O O12 0.905355 0.457436 0.888612
O O13 0.907474 0.673687 0.177252
O O14 0.676208 0.635471 0.732139
O O15 0.000000 0.500000 0.500000
O O16 0.098115 0.742352 0.528336
O O17 0.500000 0.000000 0.500000
#
# Coordination Sequence:
#
# PCOD8030992 Si02
#       8
#     2   2   2   2   2   2   2   2
#     4  11  24  45  70  94 139 185 234 273 350 425
#     4  12  24  45  69 100 139 186 230 280 353 412
#     4  12  24  41  74 105 136 179 239 284 343 407
#     4  11  22  42  65  99 136 179 220 289 346 400
#     4  11  24  45  70  99 139 182 230 277 344 419
#     4  11  22  41  71 102 132 181 229 284 338 412
#     4  11  26  39  66 107 141 166 229 297 341 397
#     4  11  28  46  69  99 139 184 230 290 344 414
#
# _framework density 22.502565000000001
#
# number of rings (size 3 to 8) (size 9 to 14) (size 15 to 20)
#    0.000    0.750    5.000    2.250    5.250    0.000 
#    0.000    0.625    0.000    0.000    0.000    0.000 
#    0.000    0.000    0.000    0.000    0.000    0.000 
#
# Total GULP energy -198270.043682 kJ/mol
# GULP energy per Si atom -12391.877730 kJ/mol
# Density = 2.245135 g / cm^3
# Si number density = 22.502565 Si / 1000 Ang^3
#
#
#
# Elastic Constant Matrix: (Units=GPa)
#
#
# Indices 1 2 3 4 5 6 
#
# 1 84.2067 32.4548 29.5323 2.4926 -7.5720 -13.1643
# 2 32.4548 128.7138 34.8637 9.4485 -7.1528 -6.4652
# 3 29.5323 34.8637 105.3522 -9.7916 0.0749 -8.3885
# 4 2.4926 9.4485 -9.7916 39.6461 -4.7481 1.9772
# 5 -7.5720 -7.1528 0.0749 -4.7481 38.5609 9.5638
# 6 -13.1643 -6.4652 -8.3885 1.9772 9.5638 32.7111
#
#
#
# Elastic Compliance Matrix: (Units=1/GPa)
#
#
# Indices 1 2 3 4 5 6 
#
# 1 0.014745 -0.002517 -0.003061 -0.001156 0.001209 0.004368
# 2 -0.002517 0.009362 -0.002632 -0.002616 0.000912 0.000054
# 3 -0.003061 -0.002632 0.011653 0.003511 -0.001007 0.001318
# 4 -0.001156 -0.002616 0.003511 0.027318 0.003315 -0.002702
# 5 0.001209 0.000912 -0.001007 0.003315 0.028785 -0.008208
# 6 0.004368 0.000054 0.001318 -0.002702 -0.008208 0.035240
#
#
# Mechanical properties :
#
#
# Convention : Reuss Voigt Hill
#
# Bulk Modulus (GPa) = 51.70673 56.88604 54.29639
# Shear Modulus (GPa) = 33.33963 36.94507 35.14235
#
# Velocity S-wave (km/s) = 3.85332 4.05633 3.95613
# Velocity P-wave (km/s) = 6.54412 6.87554 6.71188
#
# Compressibility (1/GPa) = 0.01933984
#
# Stress axis : x y z
#
# Youngs Moduli (GPa) = 67.81947 106.81115 85.81451
#
# Poissons Ratio (x) = 0.26889 0.26266
# Poissons Ratio (y) = 0.17073 0.22587
# Poissons Ratio (z) = 0.20758 0.28114
#
# Static dielectric constant tensor:
#      x y z
#    x 3.915780 0.039690 -0.111630 
#    y 0.039690 4.271890 0.210120 
#    z -0.111630 0.210120 4.134100 
# 
# 
# High freq. dielectric constant tensor:
#      x y z
#    x 1.867360 -0.003930 -0.010190 
#    y -0.003930 1.905020 0.014220 
#    z -0.010190 0.014220 1.892710 
# 
# From -- ./inp_files/206259.got.cif
#   From: 2010.06.25/outbox.cif.g09.slc.cpg/sg2_104_cif.got.tgz:206259.got - 2010.06.27 13:26:56.
