data_PCOD8030372
_publ_section_title
;
Structure prediction by ZEFSAII (Michael W. Deem and Ramdas Pophale) SiO2 
 PCOD8030372
Probable space group: P -1
;
_chemical_formula_sum "Si O2"
_cell_formula_units_Z 16
_cell_length_a 8.524816
_cell_length_b 10.852827
_cell_length_c 10.573732
_cell_angle_alpha 112.997607
_cell_angle_beta 45.088838
_cell_angle_gamma 114.628521
_cell_volume 622.671536
_symmetry_space_group_name_H-M "P -1"
_symmetry_group_IT_number 2
_symmetry_cell_setting 'triclinic'
loop_
_space_group_symop_operation_xyz
x,y,z
-x,-y,-z
loop_
_atom_site_type_symbol
_atom_site_label
_atom_site_fract_x
_atom_site_fract_y
_atom_site_fract_z
Si Si1 0.188044 0.908509 0.104248
Si Si2 0.222708 0.638429 0.567229
Si Si3 0.234518 0.093482 0.374891
Si Si4 0.176133 0.341360 0.366325
Si Si5 0.295224 0.212797 0.723438
Si Si6 0.918725 0.559678 0.941638
Si Si7 0.406152 0.708114 0.030034
Si Si8 0.419014 0.044774 0.797221
O O1 0.309271 0.779497 0.993538
O O2 0.920455 0.848838 0.269247
O O3 0.311408 0.033118 0.173921
O O4 0.210429 0.971333 0.975798
O O5 0.230479 0.490261 0.452698
O O6 0.478754 0.727605 0.461158
O O7 0.067628 0.702490 0.582288
O O8 0.127498 0.631441 0.761883
O O9 0.204019 0.247063 0.433383
O O10 0.421830 0.066925 0.359010
O O11 0.000000 0.000000 0.500000
O O12 0.356370 0.329608 0.151278
O O13 0.323927 0.079928 0.732727
O O14 0.231491 0.329606 0.896663
O O15 0.770050 0.434277 0.894484
O O16 0.000000 0.500000 0.000000
O O17 0.430721 0.811355 0.176004
#
# Coordination Sequence:
#
# PCOD8030372 Si02
#       8
#     2   2   2   2   2   2   2   2
#     4  11  23  45  68 103 137 186 234 284 351 424
#     4  11  28  44  71 108 139 181 239 293 347 419
#     4  11  23  41  69 102 138 183 232 289 345 415
#     4  11  22  45  72 103 141 175 238 299 342 404
#     4  12  26  47  70 104 147 183 229 294 358 414
#     4  12  27  47  71 103 143 190 228 289 363 418
#     4  11  21  44  74 100 133 186 240 285 347 414
#     4  11  23  43  72 102 138 182 242 282 349 424
#
# _framework density 25.695729
#
# number of rings (size 3 to 8) (size 9 to 14) (size 15 to 20)
#    0.000    0.750    5.000    2.625    7.000    1.500 
#    4.500    1.250    0.000    0.000    0.000    0.000 
#    0.000    0.000    0.000    0.000    0.000    0.000 
#
# Total GULP energy -198404.763135 kJ/mol
# GULP energy per Si atom -12400.297696 kJ/mol
# Density = 2.563724 g / cm^3
# Si number density = 25.695729 Si / 1000 Ang^3
#
#
#
# Elastic Constant Matrix: (Units=GPa)
#
#
# Indices 1 2 3 4 5 6 
#
# 1 86.4773 41.3225 21.0851 8.9791 -19.1930 -13.0538
# 2 41.3225 109.1523 30.0736 4.1768 -17.1927 -17.8654
# 3 21.0851 30.0736 105.1638 -14.2139 -30.3131 -17.6977
# 4 8.9791 4.1768 -14.2139 41.9722 -0.0218 -7.6429
# 5 -19.1930 -17.1927 -30.3131 -0.0218 41.9665 -0.8040
# 6 -13.0538 -17.8654 -17.6977 -7.6429 -0.8040 48.9754
#
#
#
# Elastic Compliance Matrix: (Units=1/GPa)
#
#
# Indices 1 2 3 4 5 6 
#
# 1 0.015517 -0.004552 -0.000390 -0.002631 0.004987 0.002006
# 2 -0.004552 0.012040 -0.001650 -0.000316 0.001708 0.002561
# 3 -0.000390 -0.001650 0.014733 0.006291 0.009902 0.005763
# 4 -0.002631 -0.000316 0.006291 0.027612 0.003338 0.005821
# 5 0.004987 0.001708 0.009902 0.003338 0.034089 0.006611
# 6 0.002006 0.002561 0.005763 0.005821 0.006611 0.024987
#
#
# Mechanical properties :
#
#
# Convention : Reuss Voigt Hill
#
# Bulk Modulus (GPa) = 34.35736 53.97286 44.16511
# Shear Modulus (GPa) = 32.92442 40.47032 36.69737
#
# Velocity S-wave (km/s) = 3.58343 3.97291 3.78319
# Velocity P-wave (km/s) = 5.52460 6.48811 6.02564
#
# Compressibility (1/GPa) = 0.02910585
#
# Stress axis : x y z
#
# Youngs Moduli (GPa) = 64.44604 83.05835 67.87447
#
# Poissons Ratio (x) = 0.37812 0.02646
# Poissons Ratio (y) = 0.29339 0.11197
# Poissons Ratio (z) = 0.02512 0.13702
#
# Static dielectric constant tensor:
#      x y z
#    x 4.760810 -0.011150 0.046900 
#    y -0.011150 4.645500 0.069880 
#    z 0.046900 0.069880 4.829040 
# 
# 
# High freq. dielectric constant tensor:
#      x y z
#    x 2.015760 -0.004600 -0.016680 
#    y -0.004600 2.040640 0.002470 
#    z -0.016680 0.002470 2.034750 
# 
# From -- ./inp_files/390328.got.cif
#   From: 2010.06.25/outbox.cif.g09.slc.cpg/sg2_196_cif.got.tgz:390328.got - 2010.06.27 13:26:56.
