data_PCOD8030175
_publ_section_title
;
Structure prediction by ZEFSAII (Michael W. Deem and Ramdas Pophale) SiO2 
 PCOD8030175
Probable space group: P -1
;
_chemical_formula_sum "Si O2"
_cell_formula_units_Z 16
_cell_length_a 12.302534
_cell_length_b 9.699210
_cell_length_c 15.538366
_cell_angle_alpha 43.937165
_cell_angle_beta 37.277946
_cell_angle_gamma 63.740865
_cell_volume 740.663482
_symmetry_space_group_name_H-M "P -1"
_symmetry_group_IT_number 2
_symmetry_cell_setting 'triclinic'
loop_
_space_group_symop_operation_xyz
x,y,z
-x,-y,-z
loop_
_atom_site_type_symbol
_atom_site_label
_atom_site_fract_x
_atom_site_fract_y
_atom_site_fract_z
Si Si1 0.268622 0.706606 0.332498
Si Si2 0.888731 0.590713 0.908237
Si Si3 0.679143 0.375587 0.383065
Si Si4 0.939709 0.757285 0.620370
Si Si5 0.215771 0.313964 0.433170
Si Si6 0.426283 0.239177 0.749899
Si Si7 0.166780 0.017291 0.141859
Si Si8 0.560004 0.243292 0.337987
O O1 0.197092 0.530892 0.383061
O O2 0.459310 0.690923 0.263066
O O3 0.117160 0.682102 0.515456
O O4 0.286689 0.926074 0.174898
O O5 0.840999 0.622416 0.825022
O O6 0.827217 0.751370 0.935661
O O7 0.111574 0.632001 0.761138
O O8 0.770109 0.354154 0.116631
O O9 0.574190 0.208479 0.598949
O O10 0.675420 0.608966 0.301183
O O11 0.551382 0.328553 0.400052
O O12 0.794967 0.705074 0.654992
O O13 0.000000 0.000000 0.500000
O O14 0.415543 0.295132 0.341233
O O15 0.048039 0.128001 0.664329
O O16 0.259130 0.034934 0.979431
O O17 0.500000 0.000000 0.500000
#
# Coordination Sequence:
#
# PCOD8030175 Si02
#       8
#     2   2   2   2   2   2   2   2
#     4  11  21  43  66 100 141 167 219 283 341 391
#     4  12  23  44  72  96 130 181 229 273 333 400
#     4  11  24  44  67  94 132 174 228 269 317 406
#     4  11  22  41  72 101 131 175 226 278 330 408
#     4  11  24  44  66 100 143 170 218 283 347 390
#     4  11  23  41  67  97 125 178 226 268 320 404
#     4  11  22  40  72  96 129 178 219 272 337 406
#     4  12  27  44  65  98 137 181 223 283 337 391
#
# _framework density 21.602253999999999
#
# number of rings (size 3 to 8) (size 9 to 14) (size 15 to 20)
#    0.000    0.750    6.250    3.000    1.750    0.500 
#    4.500    0.625    0.000    0.000    0.000    0.000 
#    0.000    0.000    0.000    0.000    0.000    0.000 
#
# Total GULP energy -198273.110258 kJ/mol
# GULP energy per Si atom -12392.069391 kJ/mol
# Density = 2.155309 g / cm^3
# Si number density = 21.602254 Si / 1000 Ang^3
#
#
#
# Elastic Constant Matrix: (Units=GPa)
#
#
# Indices 1 2 3 4 5 6 
#
# 1 110.9278 29.3173 35.8440 11.0537 -0.7770 4.4216
# 2 29.3173 93.4328 31.6511 -2.0183 -0.8419 -3.2519
# 3 35.8440 31.6511 147.2983 10.1816 24.3389 -2.1087
# 4 11.0537 -2.0183 10.1816 29.4554 -0.1494 0.2329
# 5 -0.7770 -0.8419 24.3389 -0.1494 35.3068 4.9739
# 6 4.4216 -3.2519 -2.1087 0.2329 4.9739 34.4570
#
#
#
# Elastic Compliance Matrix: (Units=1/GPa)
#
#
# Indices 1 2 3 4 5 6 
#
# 1 0.010901 -0.002822 -0.002152 -0.003514 0.001930 -0.002052
# 2 -0.002822 0.012544 -0.002483 0.002777 0.001803 0.001115
# 3 -0.002152 -0.002483 0.009144 -0.002569 -0.006643 0.001578
# 4 -0.003514 0.002777 -0.002569 0.036356 0.001909 0.000035
# 5 0.001930 0.001803 -0.006643 0.001909 0.033753 -0.005369
# 6 -0.002052 0.001115 0.001578 0.000035 -0.005369 0.030262
#
#
# Mechanical properties :
#
#
# Convention : Reuss Voigt Hill
#
# Bulk Modulus (GPa) = 56.57026 60.58709 58.57868
# Shear Modulus (GPa) = 32.51708 36.83361 34.67535
#
# Velocity S-wave (km/s) = 3.88398 4.13374 4.01081
# Velocity P-wave (km/s) = 6.80866 7.13382 6.97313
#
# Compressibility (1/GPa) = 0.01767713
#
# Stress axis : x y z
#
# Youngs Moduli (GPa) = 91.73093 79.71710 109.36170
#
# Poissons Ratio (x) = 0.22493 0.23533
# Poissons Ratio (y) = 0.25883 0.27153
# Poissons Ratio (z) = 0.19739 0.19792
#
# Static dielectric constant tensor:
#      x y z
#    x 3.963230 -0.041170 0.171040 
#    y -0.041170 3.929800 0.125670 
#    z 0.171040 0.125670 4.016330 
# 
# 
# High freq. dielectric constant tensor:
#      x y z
#    x 1.856480 -0.011470 0.011690 
#    y -0.011470 1.833220 0.013110 
#    z 0.011690 0.013110 1.852580 
# 
# From -- ./inp_files/515015.got.cif
#   From: 2010.06.25/outbox.cif.g09.slc.cpg/sg2_258_cif.got.tgz:515015.got - 2010.06.27 13:26:56.
