data_PCOD8030320
_publ_section_title
;
Structure prediction by ZEFSAII (Michael W. Deem and Ramdas Pophale) SiO2 
 PCOD8030320
Probable space group: P -1
;
_chemical_formula_sum "Si O2"
_cell_formula_units_Z 16
_cell_length_a 11.784448
_cell_length_b 22.095945
_cell_length_c 9.125284
_cell_angle_alpha 28.683973
_cell_angle_beta 51.560253
_cell_angle_gamma 39.229283
_cell_volume 708.043534
_symmetry_space_group_name_H-M "P -1"
_symmetry_group_IT_number 2
_symmetry_cell_setting 'triclinic'
loop_
_space_group_symop_operation_xyz
x,y,z
-x,-y,-z
loop_
_atom_site_type_symbol
_atom_site_label
_atom_site_fract_x
_atom_site_fract_y
_atom_site_fract_z
Si Si1 0.060988 0.690375 0.941414
Si Si2 0.324307 0.594606 0.698400
Si Si3 0.566698 0.730332 0.606103
Si Si4 0.863914 0.607986 0.075371
Si Si5 0.147869 0.260373 0.490402
Si Si6 0.933573 0.136758 0.880686
Si Si7 0.838721 0.035681 0.452814
Si Si8 0.344469 0.411171 0.483584
O O1 0.209443 0.695169 0.722428
O O2 0.154512 0.587385 0.232384
O O3 0.881881 0.866368 0.744970
O O4 0.016318 0.597445 0.070451
O O5 0.216651 0.690593 0.435511
O O6 0.515079 0.563243 0.621371
O O7 0.358985 0.426170 0.025161
O O8 0.684759 0.791514 0.425753
O O9 0.353839 0.861662 0.530044
O O10 0.586686 0.694999 0.492060
O O11 0.691001 0.669764 0.186866
O O12 0.958736 0.431345 0.315669
O O13 0.792035 0.735065 0.732808
O O14 0.105383 0.132590 0.803930
O O15 0.834954 0.119593 0.130177
O O16 0.000000 0.000000 0.000000
O O17 0.000000 0.000000 0.500000
#
# Coordination Sequence:
#
# PCOD8030320 Si02
#       8
#     2   2   2   2   2   2   2   2
#     4  11  21  46  66  99 144 183 225 278 352 406
#     4  11  21  44  70 100 135 182 234 277 333 410
#     4  11  25  45  68 108 140 176 235 292 333 406
#     4  11  22  42  71 101 135 180 229 284 344 406
#     4  11  23  45  68 104 137 173 237 291 333 407
#     4  12  26  47  73  98 141 189 224 279 356 416
#     4  12  27  45  69 103 144 183 227 285 351 408
#     4  11  24  40  75 103 138 179 232 282 341 406
#
# _framework density 22.597480000000001
#
# number of rings (size 3 to 8) (size 9 to 14) (size 15 to 20)
#    0.000    0.750    5.000    4.125    5.250    0.500 
#    2.250    2.500    0.000    0.000    0.000    0.000 
#    0.000    0.000    0.000    0.000    0.000    0.000 
#
# Total GULP energy -198447.081349 kJ/mol
# GULP energy per Si atom -12402.942584 kJ/mol
# Density = 2.254605 g / cm^3
# Si number density = 22.597480 Si / 1000 Ang^3
#
#
#
# Elastic Constant Matrix: (Units=GPa)
#
#
# Indices 1 2 3 4 5 6 
#
# 1 119.8571 24.8570 24.2398 -3.3749 -25.2253 -2.0749
# 2 24.8570 121.6700 52.3995 3.3268 -8.6982 -5.0805
# 3 24.2398 52.3995 70.9816 2.9018 -14.6089 7.5053
# 4 -3.3749 3.3268 2.9018 40.1478 -0.0936 4.1997
# 5 -25.2253 -8.6982 -14.6089 -0.0936 34.2237 3.9304
# 6 -2.0749 -5.0805 7.5053 4.1997 3.9304 24.2375
#
#
#
# Elastic Compliance Matrix: (Units=1/GPa)
#
#
# Indices 1 2 3 4 5 6 
#
# 1 0.010290 -0.001076 -0.001350 0.001090 0.006762 -0.000212
# 2 -0.001076 0.013058 -0.010470 -0.001103 -0.002695 0.006515
# 3 -0.001350 -0.010470 0.025226 0.000155 0.008435 -0.011516
# 4 0.001090 -0.001103 0.000155 0.025586 0.001212 -0.004816
# 5 0.006762 -0.002695 0.008435 0.001212 0.038155 -0.008995
# 6 -0.000212 0.006515 -0.011516 -0.004816 -0.008995 0.048465
#
#
# Mechanical properties :
#
#
# Convention : Reuss Voigt Hill
#
# Bulk Modulus (GPa) = 43.89748 57.27793 50.58771
# Shear Modulus (GPa) = 25.75120 33.78929 29.77025
#
# Velocity S-wave (km/s) = 3.37940 3.87106 3.63356
# Velocity P-wave (km/s) = 5.89026 6.73664 6.32761
#
# Compressibility (1/GPa) = 0.02278035
#
# Stress axis : x y z
#
# Youngs Moduli (GPa) = 97.18621 76.58404 39.64194
#
# Poissons Ratio (x) = 0.08240 0.05352
# Poissons Ratio (y) = 0.10457 0.41506
# Poissons Ratio (z) = 0.13120 0.80186
#
# Static dielectric constant tensor:
#      x y z
#    x 4.069500 0.061710 -0.050760 
#    y 0.061710 4.511170 -0.042440 
#    z -0.050760 -0.042440 4.208750 
# 
# 
# High freq. dielectric constant tensor:
#      x y z
#    x 1.898920 0.005780 -0.007180 
#    y 0.005780 1.886180 0.014240 
#    z -0.007180 0.014240 1.882640 
# 
# From -- ./inp_files/209464.got.cif
#   From: 2010.06.25/outbox.cif.g09.slc.cpg/sg2_105_cif.got.tgz:209464.got - 2010.06.27 13:26:56.
