data_PCOD8030926
_publ_section_title
;
Structure prediction by ZEFSAII (Michael W. Deem and Ramdas Pophale) SiO2 
 PCOD8030926
Probable space group: P -1
;
_chemical_formula_sum "Si O2"
_cell_formula_units_Z 16
_cell_length_a 27.519252
_cell_length_b 14.827168
_cell_length_c 18.698187
_cell_angle_alpha 18.312719
_cell_angle_beta 160.137934
_cell_angle_gamma 159.987735
_cell_volume 732.259400
_symmetry_space_group_name_H-M "P -1"
_symmetry_group_IT_number 2
_symmetry_cell_setting 'triclinic'
loop_
_space_group_symop_operation_xyz
x,y,z
-x,-y,-z
loop_
_atom_site_type_symbol
_atom_site_label
_atom_site_fract_x
_atom_site_fract_y
_atom_site_fract_z
Si Si1 0.064739 0.268099 0.051999
Si Si2 0.163706 0.114626 0.447164
Si Si3 0.139702 0.404632 0.768699
Si Si4 0.457765 0.553322 0.605582
Si Si5 0.864090 0.607710 0.473947
Si Si6 0.446295 0.622043 0.702725
Si Si7 0.737917 0.450006 0.019469
Si Si8 0.364875 0.714274 0.728481
O O1 0.164847 0.314452 0.227936
O O2 0.186212 0.317468 0.117646
O O3 0.913133 0.925424 0.098035
O O4 0.990927 0.516171 0.757579
O O5 0.274414 0.358912 0.475826
O O6 0.980800 0.955319 0.342470
O O7 0.235140 0.866260 0.711888
O O8 0.286648 0.677943 0.725446
O O9 0.000000 0.500000 0.500000
O O10 0.176951 0.355670 0.938221
O O11 0.475012 0.530389 0.731840
O O12 0.554718 0.388840 0.821231
O O13 0.511446 0.919376 0.383486
O O14 0.738535 0.593038 0.371270
O O15 0.766536 0.377959 0.446590
O O16 0.500000 0.000000 0.500000
O O17 0.546969 0.517810 0.976442
#
# Coordination Sequence:
#
# PCOD8030926 Si02
#       8
#     2   2   2   2   2   2   2   2
#     4  11  22  41  67  98 139 176 222 280 340 390
#     4  11  26  45  67  99 142 183 222 275 333 408
#     4  12  19  37  66 101 134 171 223 278 331 393
#     4  12  27  44  68 103 138 181 227 272 340 407
#     4  11  24  44  72  99 130 177 230 280 337 399
#     4  12  26  46  75 101 133 173 229 291 338 392
#     4  11  23  42  66 102 139 180 224 274 335 406
#     4  12  24  43  71 102 134 175 227 282 340 398
#
# _framework density 21.850180000000002
#
# number of rings (size 3 to 8) (size 9 to 14) (size 15 to 20)
#    0.000    0.500    5.000    4.125    0.000    3.000 
#    0.000    1.250    0.000    0.000    0.000    0.000 
#    0.000    0.000    0.000    0.000    0.000    0.000 
#
# Total GULP energy -198388.955563 kJ/mol
# GULP energy per Si atom -12399.309723 kJ/mol
# Density = 2.180045 g / cm^3
# Si number density = 21.850180 Si / 1000 Ang^3
#
#
#
# Elastic Constant Matrix: (Units=GPa)
#
#
# Indices 1 2 3 4 5 6 
#
# 1 109.4621 40.8357 37.4590 0.8254 -7.4365 30.4686
# 2 40.8357 106.1081 24.9514 15.2155 -5.1219 7.5137
# 3 37.4590 24.9514 107.8235 4.4894 -7.1502 6.6499
# 4 0.8254 15.2155 4.4894 23.6030 2.8047 -0.1583
# 5 -7.4365 -5.1219 -7.1502 2.8047 37.1396 9.6292
# 6 30.4686 7.5137 6.6499 -0.1583 9.6292 40.5802
#
#
#
# Elastic Compliance Matrix: (Units=1/GPa)
#
#
# Indices 1 2 3 4 5 6 
#
# 1 0.015379 -0.004438 -0.003420 0.002358 0.004544 -0.011234
# 2 -0.004438 0.012471 -0.001011 -0.007803 0.000986 0.000924
# 3 -0.003420 -0.001011 0.010790 -0.001416 0.001178 0.000702
# 4 0.002358 -0.007803 -0.001416 0.048168 -0.004836 0.001242
# 5 0.004544 0.000986 0.001178 -0.004836 0.031487 -0.011277
# 6 -0.011234 0.000924 0.000702 0.001242 -0.011277 0.035472
#
#
# Mechanical properties :
#
#
# Convention : Reuss Voigt Hill
#
# Bulk Modulus (GPa) = 47.83951 58.87619 53.35785
# Shear Modulus (GPa) = 28.01546 34.94107 31.47827
#
# Velocity S-wave (km/s) = 3.58461 4.00324 3.79970
# Velocity P-wave (km/s) = 6.25096 6.95498 6.61235
#
# Compressibility (1/GPa) = 0.02090322
#
# Stress axis : x y z
#
# Youngs Moduli (GPa) = 65.02203 80.18569 92.67564
#
# Poissons Ratio (x) = 0.35586 0.31695
# Poissons Ratio (y) = 0.28856 0.09368
# Poissons Ratio (z) = 0.22238 0.08106
#
# Static dielectric constant tensor:
#      x y z
#    x 4.002160 0.223770 -0.062180 
#    y 0.223770 3.627130 0.186730 
#    z -0.062180 0.186730 3.965090 
# 
# 
# High freq. dielectric constant tensor:
#      x y z
#    x 1.861820 0.022200 -0.012280 
#    y 0.022200 1.844990 0.007800 
#    z -0.012280 0.007800 1.867370 
# 
# From -- ./inp_files/69032.got.cif
#   From: 2010.06.25/outbox.cif.g09.slc.cpg/sg2_35_cif.got.tgz:69032.got - 2010.06.27 13:26:56.
