data_PCOD8030476
_publ_section_title
;
Structure prediction by ZEFSAII (Michael W. Deem and Ramdas Pophale) SiO2 
 PCOD8030476
Probable space group: P -1
;
_chemical_formula_sum "Si O2"
_cell_formula_units_Z 14
_cell_length_a 8.167105
_cell_length_b 8.329193
_cell_length_c 9.395167
_cell_angle_alpha 95.225725
_cell_angle_beta 62.687865
_cell_angle_gamma 76.828785
_cell_volume 538.601870
_symmetry_space_group_name_H-M "P -1"
_symmetry_group_IT_number 2
_symmetry_cell_setting 'triclinic'
loop_
_space_group_symop_operation_xyz
x,y,z
-x,-y,-z
loop_
_atom_site_type_symbol
_atom_site_label
_atom_site_fract_x
_atom_site_fract_y
_atom_site_fract_z
Si Si1 0.118490 0.964744 0.235415
Si Si2 0.725657 0.182116 0.430567
Si Si3 0.801056 0.527851 0.500585
Si Si4 0.493151 0.667815 0.095139
Si Si5 0.373649 0.186447 0.201360
Si Si6 0.776939 0.015018 0.121673
Si Si7 0.681094 0.731468 0.291649
O O1 0.191795 0.117439 0.273849
O O2 0.904486 0.015919 0.397345
O O3 0.266153 0.785748 0.212297
O O4 0.085573 0.977321 0.072020
O O5 0.738760 0.358523 0.501873
O O6 0.523436 0.150973 0.550020
O O7 0.749799 0.177686 0.248870
O O8 0.641288 0.662477 0.668895
O O9 0.810039 0.602715 0.345460
O O10 0.000000 0.500000 0.500000
O O11 0.609201 0.624413 0.192164
O O12 0.500000 0.500000 0.000000
O O13 0.615474 0.757344 0.959419
O O14 0.568669 0.033674 0.136089
O O15 0.814267 0.840907 0.185559
#
# Coordination Sequence:
#
# PCOD8030476 Si02
#       7
#     2   2   2   2   2   2   2
#     4  11  23  46  72 101 149 188 228 284 362 426
#     4  12  26  43  72 104 143 184 238 292 358 417
#     4  12  27  47  70 102 147 192 235 301 355 415
#     4  11  24  44  75 108 143 186 237 290 353 427
#     4  11  21  48  72  94 150 191 228 282 365 424
#     4  11  23  46  71 103 138 192 236 287 352 433
#     4  12  25  46  73 106 140 189 241 296 351 416
#
# _framework density 25.993226
#
# number of rings (size 3 to 8) (size 9 to 14) (size 15 to 20)
#    0.000    0.571    5.714    3.000    4.000    0.571 
#    5.143    1.429    0.000    0.000    0.000    0.000 
#    0.000    0.000    0.000    0.000    0.000    0.000 
#
# Total GULP energy -173506.040033 kJ/mol
# GULP energy per Si atom -12393.288574 kJ/mol
# Density = 2.593406 g / cm^3
# Si number density = 25.993226 Si / 1000 Ang^3
#
#
#
# Elastic Constant Matrix: (Units=GPa)
#
#
# Indices 1 2 3 4 5 6 
#
# 1 94.4780 49.7049 38.4480 -6.7471 12.6878 -6.4064
# 2 49.7049 116.6637 39.2270 14.0927 10.0679 -5.1148
# 3 38.4480 39.2270 97.7508 4.9151 15.0779 0.3529
# 4 -6.7471 14.0927 4.9151 47.2913 0.7109 17.2673
# 5 12.6878 10.0679 15.0779 0.7109 61.6248 -0.1385
# 6 -6.4064 -5.1148 0.3529 17.2673 -0.1385 42.3243
#
#
#
# Elastic Compliance Matrix: (Units=1/GPa)
#
#
# Indices 1 2 3 4 5 6 
#
# 1 0.015710 -0.005818 -0.003852 0.004436 -0.001393 -0.000107
# 2 -0.005818 0.012690 -0.002514 -0.005398 -0.000192 0.002875
# 3 -0.003852 -0.002514 0.013109 -0.000901 -0.001995 -0.000635
# 4 0.004436 -0.005398 -0.000901 0.027582 -0.000154 -0.011227
# 5 -0.001393 -0.000192 -0.001995 -0.000154 0.017035 -0.000099
# 6 -0.000107 0.002875 -0.000635 -0.011227 -0.000099 0.028544
#
#
# Mechanical properties :
#
#
# Convention : Reuss Voigt Hill
#
# Bulk Modulus (GPa) = 58.33780 62.62803 60.48291
# Shear Modulus (GPa) = 34.54220 42.34893 38.44556
#
# Velocity S-wave (km/s) = 3.64935 4.04075 3.85003
# Velocity P-wave (km/s) = 6.34423 6.77617 6.56375
#
# Compressibility (1/GPa) = 0.01714155
#
# Stress axis : x y z
#
# Youngs Moduli (GPa) = 63.65561 78.80061 76.28281
#
# Poissons Ratio (x) = 0.45848 0.29384
# Poissons Ratio (y) = 0.37036 0.19174
# Poissons Ratio (z) = 0.24520 0.19807
#
# Static dielectric constant tensor:
#      x y z
#    x 5.434360 -0.002160 -0.170820 
#    y -0.002160 4.710400 -0.186850 
#    z -0.170820 -0.186850 5.571580 
# 
# 
# High freq. dielectric constant tensor:
#      x y z
#    x 2.070670 0.000680 0.019690 
#    y 0.000680 2.015500 0.011170 
#    z 0.019690 0.011170 2.057050 
# 
# From -- ./inp_files/158493.got.cif
#   From: 2010.06.25/outbox.cif.g09.slc.cpg/sg2_80_cif.got.tgz:158493.got - 2010.06.27 13:26:56.
