data_PCOD8030503
_publ_section_title
;
Structure prediction by ZEFSAII (Michael W. Deem and Ramdas Pophale) SiO2 
 PCOD8030503
Probable space group: P -1
;
_chemical_formula_sum "Si O2"
_cell_formula_units_Z 16
_cell_length_a 6.458098
_cell_length_b 13.101361
_cell_length_c 20.522449
_cell_angle_alpha 23.589339
_cell_angle_beta 74.086055
_cell_angle_gamma 75.149697
_cell_volume 668.182799
_symmetry_space_group_name_H-M "P -1"
_symmetry_group_IT_number 2
_symmetry_cell_setting 'triclinic'
loop_
_space_group_symop_operation_xyz
x,y,z
-x,-y,-z
loop_
_atom_site_type_symbol
_atom_site_label
_atom_site_fract_x
_atom_site_fract_y
_atom_site_fract_z
Si Si1 0.678732 0.005602 0.352677
Si Si2 0.576459 0.007135 0.743263
Si Si3 0.964710 0.383005 0.501663
Si Si4 0.757407 0.862880 0.203183
Si Si5 0.443578 0.273280 0.821006
Si Si6 0.370806 0.349432 0.326147
Si Si7 0.740199 0.523955 0.094241
Si Si8 0.996983 0.373411 0.867052
O O1 0.603167 0.929707 0.478076
O O2 0.845615 0.795202 0.436082
O O3 0.472992 0.035610 0.304488
O O4 0.797031 0.279289 0.187158
O O5 0.743314 0.230772 0.606804
O O6 0.344449 0.089658 0.744750
O O7 0.665677 0.753824 0.919651
O O8 0.940711 0.643458 0.309964
O O9 0.000000 0.500000 0.500000
O O10 0.557751 0.759875 0.237371
O O11 0.857136 0.121598 0.015606
O O12 0.619598 0.470282 0.715484
O O13 0.208965 0.364141 0.811478
O O14 0.500000 0.000000 0.000000
O O15 0.550217 0.434333 0.210370
O O16 0.142111 0.383129 0.289320
O O17 0.944739 0.599863 0.076525
#
# Coordination Sequence:
#
# PCOD8030503 Si02
#       8
#     2   2   2   2   2   2   2   2
#     4  12  28  47  72 104 143 189 232 290 354 410
#     4  12  26  49  71 102 142 187 235 288 345 418
#     4  12  27  43  68 104 144 181 224 285 351 421
#     4  12  22  43  71 100 144 184 227 288 350 416
#     4  11  22  36  64 106 140 179 227 283 349 420
#     4  11  24  45  71 106 138 182 234 296 350 409
#     4  11  26  48  75 102 137 186 245 291 341 413
#     4  11  23  43  70 104 142 183 236 289 350 413
#
# _framework density 23.945540000000001
#
# number of rings (size 3 to 8) (size 9 to 14) (size 15 to 20)
#    0.000    0.500    3.750    4.500    3.500    3.000 
#    0.000    0.000    0.000    0.000    0.000    0.000 
#    0.000    0.000    0.000    0.000    0.000    0.000 
#
# Total GULP energy -198307.033993 kJ/mol
# GULP energy per Si atom -12394.189625 kJ/mol
# Density = 2.389104 g / cm^3
# Si number density = 23.945540 Si / 1000 Ang^3
#
#
#
# Elastic Constant Matrix: (Units=GPa)
#
#
# Indices 1 2 3 4 5 6 
#
# 1 87.9875 26.2988 23.1642 9.9301 12.1938 29.2047
# 2 26.2988 81.8308 27.2659 3.1874 12.9171 24.4079
# 3 23.1642 27.2659 117.7619 7.8419 17.3276 27.2825
# 4 9.9301 3.1874 7.8419 39.6219 12.7834 -2.6101
# 5 12.1938 12.9171 17.3276 12.7834 38.9248 12.7005
# 6 29.2047 24.4079 27.2825 -2.6101 12.7005 39.5228
#
#
#
# Elastic Compliance Matrix: (Units=1/GPa)
#
#
# Indices 1 2 3 4 5 6 
#
# 1 0.016117 -0.001720 0.000100 -0.004959 0.000865 -0.011522
# 2 -0.001720 0.015567 -0.001402 -0.000483 -0.001595 -0.006895
# 3 0.000100 -0.001402 0.010580 -0.001868 -0.001673 -0.006097
# 4 -0.004959 -0.000483 -0.001868 0.031253 -0.011289 0.010944
# 5 0.000865 -0.001595 -0.001673 -0.011289 0.033687 -0.010070
# 6 -0.011522 -0.006895 -0.006097 0.010944 -0.010070 0.046241
#
#
# Mechanical properties :
#
#
# Convention : Reuss Voigt Hill
#
# Bulk Modulus (GPa) = 27.60833 49.00423 38.30628
# Shear Modulus (GPa) = 29.14396 37.67067 33.40731
#
# Velocity S-wave (km/s) = 3.49247 3.97064 3.73921
# Velocity P-wave (km/s) = 5.27426 6.44442 5.88848
#
# Compressibility (1/GPa) = 0.03622095
#
# Stress axis : x y z
#
# Youngs Moduli (GPa) = 62.04625 64.23759 94.52048
#
# Poissons Ratio (x) = 0.11048 -0.00947
# Poissons Ratio (y) = 0.10671 0.13251
# Poissons Ratio (z) = -0.00622 0.09005
#
# Static dielectric constant tensor:
#      x y z
#    x 4.162620 0.340570 0.185490 
#    y 0.340570 4.544900 -0.242250 
#    z 0.185490 -0.242250 4.936350 
# 
# 
# High freq. dielectric constant tensor:
#      x y z
#    x 1.945340 0.018420 0.011120 
#    y 0.018420 1.955420 0.000100 
#    z 0.011120 0.000100 1.963560 
# 
# From -- ./inp_files/542153.got.cif
#   From: 2010.06.25/outbox.cif.g09.slc.cpg/sg2_272_cif.got.tgz:542153.got - 2010.06.27 13:26:56.
