data_PCOD8030059
_publ_section_title
;
Structure prediction by ZEFSAII (Michael W. Deem and Ramdas Pophale) SiO2 
 PCOD8030059
Probable space group: P -1
;
_chemical_formula_sum "Si O2"
_cell_formula_units_Z 16
_cell_length_a 8.743860
_cell_length_b 11.974173
_cell_length_c 9.794252
_cell_angle_alpha 82.708550
_cell_angle_beta 127.821185
_cell_angle_gamma 89.145985
_cell_volume 797.845057
_symmetry_space_group_name_H-M "P -1"
_symmetry_group_IT_number 2
_symmetry_cell_setting 'triclinic'
loop_
_space_group_symop_operation_xyz
x,y,z
-x,-y,-z
loop_
_atom_site_type_symbol
_atom_site_label
_atom_site_fract_x
_atom_site_fract_y
_atom_site_fract_z
Si Si1 0.921614 0.408103 0.067759
Si Si2 0.717816 0.765470 0.744803
Si Si3 0.393833 0.734131 0.762285
Si Si4 0.181532 0.990586 0.199629
Si Si5 0.487651 0.663331 0.122142
Si Si6 0.812263 0.026674 0.482580
Si Si7 0.835593 0.468000 0.314552
Si Si8 0.547701 0.829098 0.363327
O O1 0.933607 0.448936 0.223464
O O2 0.060583 0.290789 0.140133
O O3 0.701088 0.387798 0.911615
O O4 0.000000 0.500000 0.000000
O O5 0.600805 0.701389 0.804164
O O6 0.713599 0.895960 0.767018
O O7 0.606057 0.757274 0.542006
O O8 0.306391 0.856593 0.644914
O O9 0.243670 0.645467 0.655455
O O10 0.425707 0.735246 0.941843
O O11 0.120403 0.967605 0.324604
O O12 0.325725 0.884228 0.242824
O O13 0.000000 0.000000 0.000000
O O14 0.652846 0.563476 0.188060
O O15 0.575156 0.744234 0.264918
O O16 0.684367 0.926121 0.401971
O O17 0.000000 0.000000 0.500000
O O18 0.000000 0.500000 0.500000
#
# Coordination Sequence:
#
# PCOD8030059 Si02
#       8
#     2   2   2   2   2   2   2   2
#     4  11  23  42  67  92 124 166 218 261 318 373
#     4  11  21  42  66  90 127 170 205 264 316 373
#     4  11  23  44  65  91 133 164 213 267 315 372
#     4  11  23  42  63  95 132 166 212 255 313 382
#     4  11  25  41  66  96 129 167 212 264 316 375
#     4  11  25  41  66  95 128 172 209 261 321 372
#     4  11  25  44  64  94 128 168 212 265 317 373
#     4  11  23  43  63  95 130 167 212 254 317 382
#
# _framework density 20.054019
#
# number of rings (size 3 to 8) (size 9 to 14) (size 15 to 20)
#    0.000    1.000    2.500    5.250   10.500    2.500 
#    2.250    2.500    0.000    0.000    0.000    0.000 
#    0.000    0.000    0.000    0.000    0.000    0.000 
#
# Total GULP energy -198480.025472 kJ/mol
# GULP energy per Si atom -12405.001592 kJ/mol
# Density = 2.000838 g / cm^3
# Si number density = 20.054019 Si / 1000 Ang^3
#
#
#
# Elastic Constant Matrix: (Units=GPa)
#
#
# Indices 1 2 3 4 5 6 
#
# 1 138.4241 33.4615 34.1637 -2.9742 -6.3110 4.9026
# 2 33.4615 76.4566 28.0256 4.4778 -15.4466 4.0977
# 3 34.1637 28.0256 102.3394 10.8322 -2.5509 16.6045
# 4 -2.9742 4.4778 10.8322 36.6980 -4.6808 1.2816
# 5 -6.3110 -15.4466 -2.5509 -4.6808 33.1470 -9.1629
# 6 4.9026 4.0977 16.6045 1.2816 -9.1629 34.5994
#
#
#
# Elastic Compliance Matrix: (Units=1/GPa)
#
#
# Indices 1 2 3 4 5 6 
#
# 1 0.008542 -0.002944 -0.002265 0.001762 0.000403 0.000267
# 2 -0.002944 0.017261 -0.003895 -0.000283 0.007783 0.002314
# 3 -0.002265 -0.003895 0.012910 -0.003748 -0.003496 -0.006200
# 4 0.001762 -0.000283 -0.003748 0.029046 0.004485 0.001695
# 5 0.000403 0.007783 -0.003496 0.004485 0.037100 0.010358
# 6 0.000267 0.002314 -0.006200 0.001695 0.010358 0.034246
#
#
# Mechanical properties :
#
#
# Convention : Reuss Voigt Hill
#
# Bulk Modulus (GPa) = 48.77333 56.50241 52.63787
# Shear Modulus (GPa) = 30.46032 35.66016 33.06024
#
# Velocity S-wave (km/s) = 3.90155 4.22145 4.06465
# Velocity P-wave (km/s) = 6.68356 7.21090 6.95223
#
# Compressibility (1/GPa) = 0.02050301
#
# Stress axis : x y z
#
# Youngs Moduli (GPa) = 117.07348 57.93498 77.46025
#
# Poissons Ratio (x) = 0.17057 0.17544
# Poissons Ratio (y) = 0.34469 0.30174
# Poissons Ratio (z) = 0.26516 0.22568
#
# Static dielectric constant tensor:
#      x y z
#    x 3.981210 -0.121530 0.040800 
#    y -0.121530 3.710400 -0.070890 
#    z 0.040800 -0.070890 3.723490 
# 
# 
# High freq. dielectric constant tensor:
#      x y z
#    x 1.800100 -0.006440 0.002050 
#    y -0.006440 1.788270 -0.006050 
#    z 0.002050 -0.006050 1.786320 
# 
# From -- ./inp_files/187036.got.cif
#   From: 2010.06.25/outbox.cif.g09.slc.cpg/sg2_94_cif.got.tgz:187036.got - 2010.06.27 13:26:56.
