data_PCOD8030068
_publ_section_title
;
Structure prediction by ZEFSAII (Michael W. Deem and Ramdas Pophale) SiO2 
 PCOD8030068
Probable space group: P -1
;
_chemical_formula_sum "Si O2"
_cell_formula_units_Z 16
_cell_length_a 22.708285
_cell_length_b 26.213603
_cell_length_c 9.269020
_cell_angle_alpha 151.107994
_cell_angle_beta 36.938383
_cell_angle_gamma 163.986063
_cell_volume 697.462734
_symmetry_space_group_name_H-M "P -1"
_symmetry_group_IT_number 2
_symmetry_cell_setting 'triclinic'
loop_
_space_group_symop_operation_xyz
x,y,z
-x,-y,-z
loop_
_atom_site_type_symbol
_atom_site_label
_atom_site_fract_x
_atom_site_fract_y
_atom_site_fract_z
Si Si1 0.848376 0.473531 0.355280
Si Si2 0.349585 0.420154 0.382334
Si Si3 0.360319 0.695828 0.366656
Si Si4 0.736098 0.902332 0.219507
Si Si5 0.970515 0.771740 0.285979
Si Si6 0.345533 0.873105 0.347681
Si Si7 0.801465 0.852018 0.432934
Si Si8 0.134528 0.286229 0.203191
O O1 0.723596 0.320506 0.369119
O O2 0.814166 0.565788 0.633199
O O3 0.112772 0.704628 0.427579
O O4 0.728210 0.303425 0.031668
O O5 0.237511 0.347405 0.572760
O O6 0.614411 0.695120 0.531244
O O7 0.244852 0.402311 0.431420
O O8 0.290926 0.241837 0.022830
O O9 0.499356 0.728367 0.226280
O O10 0.512643 0.917307 0.518759
O O11 0.138868 0.443356 0.087505
O O12 0.876362 0.103050 0.563374
O O13 0.866650 0.022269 0.107059
O O14 0.132189 0.976120 0.352192
O O15 0.500000 0.000000 0.500000
O O16 0.742995 0.700330 0.062811
O O17 0.000000 0.000000 0.500000
#
# Coordination Sequence:
#
# PCOD8030068 Si02
#       8
#     2   2   2   2   2   2   2   2
#     4  11  26  49  74 107 135 175 231 288 348 414
#     4  11  23  40  66  91 142 195 225 272 335 388
#     4  12  27  45  74 105 138 180 228 286 347 412
#     4  11  22  43  67  97 144 189 227 278 336 397
#     4  11  25  40  62 101 139 184 232 274 330 403
#     4  11  28  51  78 102 135 174 225 293 362 417
#     4  12  24  37  61  98 140 186 235 277 322 402
#     4  11  21  42  66  96 138 182 229 276 335 404
#
# _framework density 22.940294999999999
#
# number of rings (size 3 to 8) (size 9 to 14) (size 15 to 20)
#    0.000    0.750    3.750    3.750    7.000    3.500 
#    0.000    0.000    0.000    0.000    0.000    0.000 
#    0.000    0.000    0.000    0.000    0.000    0.000 
#
# Total GULP energy -198317.817302 kJ/mol
# GULP energy per Si atom -12394.863581 kJ/mol
# Density = 2.288808 g / cm^3
# Si number density = 22.940295 Si / 1000 Ang^3
#
#
#
# Elastic Constant Matrix: (Units=GPa)
#
#
# Indices 1 2 3 4 5 6 
#
# 1 103.0756 34.8936 32.3537 6.0754 5.2452 -1.9418
# 2 34.8936 117.1183 35.3482 10.1293 0.8634 -11.0058
# 3 32.3537 35.3482 66.3337 15.5331 7.3476 -2.2224
# 4 6.0754 10.1293 15.5331 23.9783 -0.4218 2.3094
# 5 5.2452 0.8634 7.3476 -0.4218 34.4811 3.9915
# 6 -1.9418 -11.0058 -2.2224 2.3094 3.9915 28.6148
#
#
#
# Elastic Compliance Matrix: (Units=1/GPa)
#
#
# Indices 1 2 3 4 5 6 
#
# 1 0.011932 -0.002226 -0.004824 0.001070 -0.000670 -0.000414
# 2 -0.002226 0.011002 -0.004324 -0.001640 0.000524 0.003804
# 3 -0.004824 -0.004324 0.023106 -0.012131 -0.004392 0.001396
# 4 0.001070 -0.001640 -0.012131 0.050640 0.003791 -0.006116
# 5 -0.000670 0.000524 -0.004392 0.003791 0.030624 -0.004763
# 6 -0.000414 0.003804 0.001396 -0.006116 -0.004763 0.037648
#
#
# Mechanical properties :
#
#
# Convention : Reuss Voigt Hill
#
# Bulk Modulus (GPa) = 42.93046 54.63541 48.78294
# Shear Modulus (GPa) = 25.58011 29.67699 27.62855
#
# Velocity S-wave (km/s) = 3.34289 3.60065 3.47416
# Velocity P-wave (km/s) = 5.80125 6.41516 6.11592
#
# Compressibility (1/GPa) = 0.02329348
#
# Stress axis : x y z
#
# Youngs Moduli (GPa) = 83.80476 90.89349 43.27847
#
# Poissons Ratio (x) = 0.20229 0.20878
# Poissons Ratio (y) = 0.18651 0.18713
# Poissons Ratio (z) = 0.40428 0.39301
#
# Static dielectric constant tensor:
#      x y z
#    x 5.279020 -2.339170 1.507960 
#    y -2.339170 8.260910 -2.313770 
#    z 1.507960 -2.313770 5.301250 
# 
# 
# High freq. dielectric constant tensor:
#      x y z
#    x 1.901730 -0.009530 0.013180 
#    y -0.009530 1.926820 0.004130 
#    z 0.013180 0.004130 1.886710 
# 
# From -- ./inp_files/350047.got.cif
#   From: 2010.06.25/outbox.cif.g09.slc.cpg/sg2_176_cif.got.tgz:350047.got - 2010.06.27 13:26:56.
