data_PCOD8030727
_publ_section_title
;
Structure prediction by ZEFSAII (Michael W. Deem and Ramdas Pophale) SiO2 
 PCOD8030727
Probable space group: P -1
;
_chemical_formula_sum "Si O2"
_cell_formula_units_Z 16
_cell_length_a 8.752136
_cell_length_b 26.676489
_cell_length_c 27.178543
_cell_angle_alpha 11.029487
_cell_angle_beta 139.966738
_cell_angle_gamma 141.265693
_cell_volume 759.607058
_symmetry_space_group_name_H-M "P -1"
_symmetry_group_IT_number 2
_symmetry_cell_setting 'triclinic'
loop_
_space_group_symop_operation_xyz
x,y,z
-x,-y,-z
loop_
_atom_site_type_symbol
_atom_site_label
_atom_site_fract_x
_atom_site_fract_y
_atom_site_fract_z
Si Si1 0.630014 0.649946 0.499553
Si Si2 0.612567 0.083700 0.499632
Si Si3 0.438925 0.368521 0.000342
Si Si4 0.903197 0.868301 0.999996
Si Si5 0.918558 0.197234 0.999647
Si Si6 0.174802 0.195903 0.499860
Si Si7 0.103664 0.472648 0.500023
Si Si8 0.367553 0.695715 0.999699
O O1 0.616337 0.707297 0.499605
O O2 0.390747 0.554872 0.499483
O O3 0.765926 0.919483 0.248348
O O4 0.766420 0.417396 0.750639
O O5 0.908044 0.154241 0.499618
O O6 0.500000 0.000000 0.500000
O O7 0.500403 0.840973 0.743399
O O8 0.500253 0.328712 0.255507
O O9 0.149006 0.291372 0.000120
O O10 0.573852 0.349052 0.000150
O O11 0.610035 0.792731 0.999093
O O12 0.007744 0.670710 0.250126
O O13 0.999026 0.837129 0.000759
O O14 0.009255 0.170690 0.750511
O O15 0.209944 0.418753 0.250710
O O16 0.209374 0.920353 0.748900
O O17 0.000000 0.500000 0.500000
#
# Coordination Sequence:
#
# PCOD8030727 Si02
#       8
#     2   2   2   2   2   2   2   2
#     4  12  23  38  65  88 129 164 222 268 318 372
#     4  12  25  45  72 100 134 169 209 268 327 393
#     4  11  22  46  67  99 134 172 215 258 333 389
#     4  11  24  41  60  88 130 164 221 261 331 371
#     4  11  22  40  64  92 117 171 212 272 311 384
#     4  12  23  43  66 102 126 168 230 265 318 391
#     4  12  25  40  56  86 126 174 207 275 329 374
#     4  11  24  41  71  95 132 178 217 273 312 386
#
# _framework density 21.063521000000001
#
# number of rings (size 3 to 8) (size 9 to 14) (size 15 to 20)
#    0.000    0.500    2.500    6.750    0.000    7.000 
#    0.000    3.750    0.000    0.000    0.000    0.000 
#    0.000    0.000    0.000    0.000    0.000    0.000 
#
# Total GULP energy -198354.076409 kJ/mol
# GULP energy per Si atom -12397.129776 kJ/mol
# Density = 2.101558 g / cm^3
# Si number density = 21.063521 Si / 1000 Ang^3
#
#
#
# Elastic Constant Matrix: (Units=GPa)
#
#
# Indices 1 2 3 4 5 6 
#
# 1 286.7657 56.9026 176.0683 -8.2760 -8.7703 -123.8929
# 2 56.9026 90.2578 57.9045 -1.9863 -1.7372 -48.2050
# 3 176.0683 57.9045 281.2422 -10.9795 -8.1159 -85.9470
# 4 -8.2760 -1.9863 -10.9795 30.4363 -13.1158 3.6704
# 5 -8.7703 -1.7372 -8.1159 -13.1158 44.3263 3.6373
# 6 -123.8929 -48.2050 -85.9470 3.6704 3.6373 92.6118
#
#
#
# Elastic Compliance Matrix: (Units=1/GPa)
#
#
# Indices 1 2 3 4 5 6 
#
# 1 0.009983 0.001787 -0.003101 0.000663 0.000742 0.011351
# 2 0.001787 0.015875 -0.001591 -0.000218 -0.000134 0.009192
# 3 -0.003101 -0.001591 0.006086 0.001544 0.000848 0.000576
# 4 0.000663 -0.000218 0.001544 0.038648 0.011824 0.000211
# 5 0.000742 -0.000134 0.000848 0.011824 0.026338 0.000207
# 6 0.011351 0.009192 0.000576 0.000211 0.000207 0.031286
#
#
# Mechanical properties :
#
#
# Convention : Reuss Voigt Hill
#
# Bulk Modulus (GPa) = 38.26502 137.77961 88.02231
# Shear Modulus (GPa) = 35.02971 57.96756 46.49864
#
# Velocity S-wave (km/s) = 4.08248 5.25168 4.70355
# Velocity P-wave (km/s) = 6.35831 10.11568 8.44852
#
# Compressibility (1/GPa) = 0.02613353
#
# Stress axis : x y z
#
# Youngs Moduli (GPa) = 100.17485 62.99291 164.32307
#
# Poissons Ratio (x) = -0.11260 0.50961
# Poissons Ratio (y) = -0.17906 0.26142
# Poissons Ratio (z) = 0.31067 0.10022
#
# Static dielectric constant tensor:
#      x y z
#    x 3.919460 -0.025300 -0.000750 
#    y -0.025300 3.811190 -0.025990 
#    z -0.000750 -0.025990 4.227650 
# 
# 
# High freq. dielectric constant tensor:
#      x y z
#    x 1.837090 -0.011660 -0.000720 
#    y -0.011660 1.825000 -0.001740 
#    z -0.000720 -0.001740 1.852180 
# 
# From -- ./inp_files/139234.got.cif
#   From: 2010.06.25/outbox.cif.g09.slc.cpg/sg2_70_cif.got.tgz:139234.got - 2010.06.27 13:26:56.
