data_PCOD8030628
_publ_section_title
;
Structure prediction by ZEFSAII (Michael W. Deem and Ramdas Pophale) SiO2 
 PCOD8030628
Probable space group: P -1
;
_chemical_formula_sum "Si O2"
_cell_formula_units_Z 12
_cell_length_a 17.681458
_cell_length_b 10.820830
_cell_length_c 11.762880
_cell_angle_alpha 144.483443
_cell_angle_beta 147.760464
_cell_angle_gamma 29.489069
_cell_volume 564.535879
_symmetry_space_group_name_H-M "P -1"
_symmetry_group_IT_number 2
_symmetry_cell_setting 'triclinic'
loop_
_space_group_symop_operation_xyz
x,y,z
-x,-y,-z
loop_
_atom_site_type_symbol
_atom_site_label
_atom_site_fract_x
_atom_site_fract_y
_atom_site_fract_z
Si Si1 0.245295 0.113558 0.252326
Si Si2 0.741445 0.941347 0.523989
Si Si3 0.113286 0.767295 0.163724
Si Si4 0.821620 0.122576 0.429351
Si Si5 0.703212 0.795370 0.127277
Si Si6 0.434903 0.331511 0.563749
O O1 0.191698 0.228587 0.400687
O O2 0.283468 0.287481 0.355635
O O3 0.422544 0.811263 0.258662
O O4 0.090302 0.117232 0.001168
O O5 0.746165 0.774188 0.300266
O O6 0.868063 0.030259 0.729756
O O7 0.539910 0.198320 0.479136
O O8 0.183414 0.735313 0.355865
O O9 0.230934 0.488832 0.043112
O O10 0.658191 0.356142 0.322159
O O11 0.803051 0.889689 0.254551
O O12 0.000000 0.000000 0.500000
O O13 0.500000 0.000000 0.000000
#
# Coordination Sequence:
#
# PCOD8030628 Si02
#       6
#     2   2   2   2   2   2
#     4   9  20  38  63  86 119 162 190 241 300 339
#     4   9  20  39  60  88 122 151 196 242 291 348
#     4  11  22  39  64  87 119 155 198 244 294 348
#     4  11  24  41  61  89 119 153 200 248 289 351
#     4  11  23  37  62  93 116 157 199 238 299 347
#     4   9  19  39  61  84 122 154 194 243 289 345
#
# _framework density 21.256399999999999
#
# number of rings (size 3 to 8) (size 9 to 14) (size 15 to 20)
#    1.000    1.000    0.000    3.500    0.000    7.333 
#    0.000    2.500    0.000    0.000    0.000    0.000 
#    0.000    0.000    0.000    0.000    0.000    0.000 
#
# Total GULP energy -148750.047540 kJ/mol
# GULP energy per Si atom -12395.837295 kJ/mol
# Density = 2.120802 g / cm^3
# Si number density = 21.256400 Si / 1000 Ang^3
#
#
#
# Elastic Constant Matrix: (Units=GPa)
#
#
# Indices 1 2 3 4 5 6 
#
# 1 81.2744 -7.0078 14.8024 -0.2235 20.7931 -8.8812
# 2 -7.0078 53.8374 7.7679 -1.1739 -4.9569 -10.1913
# 3 14.8024 7.7679 87.6190 -2.4063 8.7041 -7.9389
# 4 -0.2235 -1.1739 -2.4063 31.5932 -13.7028 0.2831
# 5 20.7931 -4.9569 8.7041 -13.7028 24.2220 -8.6196
# 6 -8.8812 -10.1913 -7.9389 0.2831 -8.6196 30.4317
#
#
#
# Elastic Compliance Matrix: (Units=1/GPa)
#
#
# Indices 1 2 3 4 5 6 
#
# 1 0.017443 0.000408 -0.001341 -0.008332 -0.019305 -0.000513
# 2 0.000408 0.022082 -0.002113 0.005685 0.011792 0.010250
# 3 -0.001341 -0.002113 0.012274 -0.000799 -0.003774 0.001042
# 4 -0.008332 0.005685 -0.000799 0.048957 0.039896 0.010109
# 5 -0.019305 0.011792 -0.003774 0.039896 0.092430 0.023140
# 6 -0.000513 0.010250 0.001042 0.010109 0.023140 0.042875
#
#
# Mechanical properties :
#
#
# Convention : Reuss Voigt Hill
#
# Bulk Modulus (GPa) = 21.87811 28.20620 25.04215
# Shear Modulus (GPa) = 19.42574 31.06061 25.24317
#
# Velocity S-wave (km/s) = 3.02632 3.82676 3.44983
# Velocity P-wave (km/s) = 4.74619 5.72920 5.26071
#
# Compressibility (1/GPa) = 0.04570780
#
# Stress axis : x y z
#
# Youngs Moduli (GPa) = 57.32880 45.28493 81.47176
#
# Poissons Ratio (x) = -0.01846 0.10922
# Poissons Ratio (y) = -0.02337 0.17216
# Poissons Ratio (z) = 0.07685 0.09570
#
# Static dielectric constant tensor:
#      x y z
#    x 4.070010 -0.045860 0.084500 
#    y -0.045860 3.856480 0.090280 
#    z 0.084500 0.090280 3.912660 
# 
# 
# High freq. dielectric constant tensor:
#      x y z
#    x 1.847670 -0.004210 0.015390 
#    y -0.004210 1.824320 -0.014610 
#    z 0.015390 -0.014610 1.814020 
# 
# From -- ./inp_files/60254.got.cif
#   From: 2010.06.25/outbox.cif.g09.slc.cpg/sg2_31_cif.got.tgz:60254.got - 2010.06.27 13:26:56.
