data_PCOD8030297
_publ_section_title
;
Structure prediction by ZEFSAII (Michael W. Deem and Ramdas Pophale) SiO2 
 PCOD8030297
Probable space group: P -1
;
_chemical_formula_sum "Si O2"
_cell_formula_units_Z 16
_cell_length_a 8.510199
_cell_length_b 14.589001
_cell_length_c 12.655856
_cell_angle_alpha 102.590068
_cell_angle_beta 89.085940
_cell_angle_gamma 148.542422
_cell_volume 754.400856
_symmetry_space_group_name_H-M "P -1"
_symmetry_group_IT_number 2
_symmetry_cell_setting 'triclinic'
loop_
_space_group_symop_operation_xyz
x,y,z
-x,-y,-z
loop_
_atom_site_type_symbol
_atom_site_label
_atom_site_fract_x
_atom_site_fract_y
_atom_site_fract_z
Si Si1 0.283387 0.805294 0.500411
Si Si2 0.705603 0.219645 0.266314
Si Si3 0.209891 0.885871 0.040986
Si Si4 0.355537 0.328532 0.127881
Si Si5 0.620045 0.387480 0.344991
Si Si6 0.636566 0.794631 0.476753
Si Si7 0.651837 0.471721 0.770595
Si Si8 0.196821 0.508335 0.011511
O O1 0.262638 0.811652 0.627538
O O2 0.444294 0.790405 0.466761
O O3 0.922714 0.616147 0.409263
O O4 0.500000 0.000000 0.500000
O O5 0.767744 0.362665 0.312449
O O6 0.974311 0.317191 0.209659
O O7 0.352854 0.016557 0.172662
O O8 0.010929 0.694432 0.038200
O O9 0.998650 0.847580 0.962712
O O10 0.500000 0.000000 0.000000
O O11 0.369677 0.287016 0.231821
O O12 0.499626 0.507810 0.187461
O O13 0.562370 0.372689 0.058256
O O14 0.414573 0.278220 0.426740
O O15 0.527342 0.661954 0.360214
O O16 0.000000 0.000000 0.500000
O O17 0.620268 0.387928 0.852099
O O18 0.000000 0.500000 0.000000
#
# Coordination Sequence:
#
# PCOD8030297 Si02
#       8
#     2   2   2   2   2   2   2   2
#     4  11  25  42  69 103 132 183 229 276 341 411
#     4  11  21  44  71  91 140 181 219 285 337 403
#     4  11  23  43  66 100 131 177 229 272 339 402
#     4  11  26  41  69 101 132 181 226 275 341 407
#     4  11  24  46  67  98 140 180 225 278 343 405
#     4  11  25  44  68 101 133 178 228 282 344 399
#     4  11  21  44  67  93 140 176 219 282 343 396
#     4  11  25  44  68  97 133 179 224 281 337 404
#
# _framework density 21.208883
#
# number of rings (size 3 to 8) (size 9 to 14) (size 15 to 20)
#    0.000    1.000    5.000    3.000    3.500    5.000 
#    2.250    0.000    0.000    0.000    0.000    0.000 
#    0.000    0.000    0.000    0.000    0.000    0.000 
#
# Total GULP energy -198394.624399 kJ/mol
# GULP energy per Si atom -12399.664025 kJ/mol
# Density = 2.116061 g / cm^3
# Si number density = 21.208883 Si / 1000 Ang^3
#
#
#
# Elastic Constant Matrix: (Units=GPa)
#
#
# Indices 1 2 3 4 5 6 
#
# 1 102.4075 29.5681 52.5497 -14.8702 6.5638 10.9478
# 2 29.5681 108.8494 52.8495 3.9253 12.8090 7.0077
# 3 52.5497 52.8495 159.9613 -6.6568 13.3635 4.5243
# 4 -14.8702 3.9253 -6.6568 38.6779 0.2342 3.0919
# 5 6.5638 12.8090 13.3635 0.2342 38.0325 -5.7403
# 6 10.9478 7.0077 4.5243 3.0919 -5.7403 35.0687
#
#
#
# Elastic Compliance Matrix: (Units=1/GPa)
#
#
# Indices 1 2 3 4 5 6 
#
# 1 0.013213 -0.001756 -0.003344 0.005007 -0.001144 -0.003971
# 2 -0.001756 0.011681 -0.003098 -0.002245 -0.002777 -0.001643
# 3 -0.003344 -0.003098 0.008495 0.000474 -0.001321 0.000309
# 4 0.005007 -0.002245 0.000474 0.028403 -0.001030 -0.003848
# 5 -0.001144 -0.002777 -0.001321 -0.001030 0.028785 0.005885
# 6 -0.003971 -0.001643 0.000309 -0.003848 0.005885 0.031346
#
#
# Mechanical properties :
#
#
# Convention : Reuss Voigt Hill
#
# Bulk Modulus (GPa) = 58.84428 71.23917 65.04173
# Shear Modulus (GPa) = 34.72636 38.10587 36.41612
#
# Velocity S-wave (km/s) = 4.05081 4.24334 4.14819
# Velocity P-wave (km/s) = 7.04869 7.59409 7.32647
#
# Compressibility (1/GPa) = 0.01699401
#
# Stress axis : x y z
#
# Youngs Moduli (GPa) = 75.68404 85.60582 117.71765
#
# Poissons Ratio (x) = 0.15029 0.39368
# Poissons Ratio (y) = 0.13287 0.36465
# Poissons Ratio (z) = 0.25311 0.26518
#
# Static dielectric constant tensor:
#      x y z
#    x 3.901440 0.527140 0.036950 
#    y 0.527140 5.958460 0.087500 
#    z 0.036950 0.087500 4.290420 
# 
# 
# High freq. dielectric constant tensor:
#      x y z
#    x 1.829630 0.005280 -0.004930 
#    y 0.005280 1.819690 -0.002190 
#    z -0.004930 -0.002190 1.856640 
# 
# From -- ./inp_files/274436.got.cif
#   From: 2010.06.25/outbox.cif.g09.slc.cpg/sg2_138_cif.got.tgz:274436.got - 2010.06.27 13:26:56.
