data_PCOD8030329
_publ_section_title
;
Structure prediction by ZEFSAII (Michael W. Deem and Ramdas Pophale) SiO2 
 PCOD8030329
Probable space group: P -1
;
_chemical_formula_sum "Si O2"
_cell_formula_units_Z 16
_cell_length_a 25.129801
_cell_length_b 21.314556
_cell_length_c 9.679631
_cell_angle_alpha 152.910605
_cell_angle_beta 152.026700
_cell_angle_gamma 19.662028
_cell_volume 759.730428
_symmetry_space_group_name_H-M "P -1"
_symmetry_group_IT_number 2
_symmetry_cell_setting 'triclinic'
loop_
_space_group_symop_operation_xyz
x,y,z
-x,-y,-z
loop_
_atom_site_type_symbol
_atom_site_label
_atom_site_fract_x
_atom_site_fract_y
_atom_site_fract_z
Si Si1 0.272572 0.029184 0.727252
Si Si2 0.343122 0.932307 0.396742
Si Si3 0.881707 0.505462 0.322638
Si Si4 0.297717 0.462112 0.491020
Si Si5 0.372444 0.219045 0.936942
Si Si6 0.851813 0.585453 0.730623
Si Si7 0.993887 0.082192 0.288092
Si Si8 0.966581 0.917854 0.147501
O O1 0.142512 0.062495 0.589622
O O2 0.230833 0.051213 0.511206
O O3 0.279985 0.177117 0.093112
O O4 0.466312 0.824357 0.784906
O O5 0.504904 0.695054 0.336209
O O6 0.399772 0.032959 0.669194
O O7 0.226515 0.957517 0.068092
O O8 0.703223 0.694122 0.218427
O O9 0.898955 0.519628 0.551542
O O10 0.000000 0.500000 0.500000
O O11 0.926399 0.308615 0.010598
O O12 0.221887 0.486954 0.514035
O O13 0.190297 0.693455 0.660989
O O14 0.265178 0.378902 0.131115
O O15 0.000000 0.500000 0.000000
O O16 0.037149 0.926283 0.189706
O O17 0.000000 0.000000 0.000000
O O18 0.000000 0.000000 0.500000
#
# Coordination Sequence:
#
# PCOD8030329 Si02
#       8
#     2   2   2   2   2   2   2   2
#     4  11  22  40  70 104 134 170 220 292 333 397
#     4  11  21  44  70 104 138 166 227 287 338 397
#     4  12  26  43  69  98 136 182 230 283 335 397
#     4  11  22  40  73 101 129 178 221 282 342 398
#     4  11  22  43  69 107 136 166 224 290 347 388
#     4  12  21  37  70 102 129 168 228 278 335 393
#     4  12  25  43  66  93 137 183 229 267 334 412
#     4  12  27  46  63  94 139 186 225 275 338 406
#
# _framework density 21.060102000000001
#
# number of rings (size 3 to 8) (size 9 to 14) (size 15 to 20)
#    0.000    0.500    6.250    3.750    1.750    1.000 
#    4.500    0.625    0.000    0.000    0.000    0.000 
#    0.000    0.000    0.000    0.000    0.000    0.000 
#
# Total GULP energy -198250.088893 kJ/mol
# GULP energy per Si atom -12390.630556 kJ/mol
# Density = 2.101217 g / cm^3
# Si number density = 21.060102 Si / 1000 Ang^3
#
#
#
# Elastic Constant Matrix: (Units=GPa)
#
#
# Indices 1 2 3 4 5 6 
#
# 1 108.1282 32.7533 33.9441 -0.8320 -3.7953 8.1280
# 2 32.7533 95.7076 40.8938 -4.9312 5.9738 4.1684
# 3 33.9441 40.8938 114.9880 -5.2193 -15.4768 0.8956
# 4 -0.8320 -4.9312 -5.2193 41.9792 3.1591 0.5647
# 5 -3.7953 5.9738 -15.4768 3.1591 41.2530 1.0539
# 6 8.1280 4.1684 0.8956 0.5647 1.0539 30.0410
#
#
#
# Elastic Compliance Matrix: (Units=1/GPa)
#
#
# Indices 1 2 3 4 5 6 
#
# 1 0.010982 -0.002792 -0.002153 -0.000397 0.000702 -0.002537
# 2 -0.002792 0.013691 -0.004519 0.001305 -0.004012 -0.000893
# 3 -0.002153 -0.004519 0.011596 0.000502 0.004751 0.000688
# 4 -0.000397 0.001305 0.000502 0.024177 -0.001877 -0.000477
# 5 0.000702 -0.004012 0.004751 -0.001877 0.026830 -0.000681
# 6 -0.002537 -0.000893 0.000688 -0.000477 -0.000681 0.034111
#
#
# Mechanical properties :
#
#
# Convention : Reuss Voigt Hill
#
# Bulk Modulus (GPa) = 57.66274 59.33403 58.49838
# Shear Modulus (GPa) = 34.22450 36.73680 35.48065
#
# Velocity S-wave (km/s) = 4.03561 4.18111 4.10900
# Velocity P-wave (km/s) = 7.01102 7.17939 7.09571
#
# Compressibility (1/GPa) = 0.01734222
#
# Stress axis : x y z
#
# Youngs Moduli (GPa) = 91.05669 73.03861 86.23817
#
# Poissons Ratio (x) = 0.20395 0.18563
# Poissons Ratio (y) = 0.25427 0.38968
# Poissons Ratio (z) = 0.19600 0.33003
#
# Static dielectric constant tensor:
#      x y z
#    x 4.265690 0.380060 -0.295990 
#    y 0.380060 4.314450 -0.291740 
#    z -0.295990 -0.291740 4.307270 
# 
# 
# High freq. dielectric constant tensor:
#      x y z
#    x 1.822370 0.000230 0.000700 
#    y 0.000230 1.827750 -0.001690 
#    z 0.000700 -0.001690 1.822140 
# 
# From -- ./inp_files/205913.got.cif
#   From: 2010.06.25/outbox.cif.g09.slc.cpg/sg2_103_cif.got.tgz:205913.got - 2010.06.27 13:26:56.
