data_PCOD8030155
_publ_section_title
;
Structure prediction by ZEFSAII (Michael W. Deem and Ramdas Pophale) SiO2 
 PCOD8030155
Probable space group: P -1
;
_chemical_formula_sum "Si O2"
_cell_formula_units_Z 14
_cell_length_a 5.598285
_cell_length_b 12.470277
_cell_length_c 8.986920
_cell_angle_alpha 101.948677
_cell_angle_beta 83.009055
_cell_angle_gamma 104.371066
_cell_volume 592.956765
_symmetry_space_group_name_H-M "P -1"
_symmetry_group_IT_number 2
_symmetry_cell_setting 'triclinic'
loop_
_space_group_symop_operation_xyz
x,y,z
-x,-y,-z
loop_
_atom_site_type_symbol
_atom_site_label
_atom_site_fract_x
_atom_site_fract_y
_atom_site_fract_z
Si Si1 0.688661 0.949069 0.879320
Si Si2 0.231551 0.992041 0.585109
Si Si3 0.305442 0.546235 0.122736
Si Si4 0.291381 0.561047 0.469578
Si Si5 0.935929 0.325979 0.026103
Si Si6 0.297800 0.791400 0.696787
Si Si7 0.864338 0.862993 0.129077
O O1 0.570152 0.867212 0.730631
O O2 0.812850 0.879208 0.965134
O O3 0.877565 0.052417 0.819021
O O4 0.500000 0.000000 0.000000
O O5 0.146767 0.871123 0.644085
O O6 0.500000 0.000000 0.500000
O O7 0.310271 0.099522 0.724067
O O8 0.000000 0.000000 0.500000
O O9 0.370670 0.576899 0.296221
O O10 0.056516 0.447712 0.118572
O O11 0.500000 0.500000 0.000000
O O12 0.272115 0.657863 0.071314
O O13 0.500000 0.500000 0.500000
O O14 0.329067 0.684339 0.570812
O O15 0.000000 0.500000 0.500000
O O16 0.824023 0.243271 0.143656
O O17 0.121950 0.268012 0.899248
#
# Coordination Sequence:
#
# PCOD8030155 Si02
#       7
#     2   2   2   2   2   2   2
#     4  11  21  42  73 110 139 193 258 319 372 470
#     4  12  29  48  71 112 164 205 258 322 393 476
#     4  11  27  50  74 116 155 199 271 332 387 468
#     4  12  29  51  82 115 157 207 267 325 400 473
#     4  11  25  45  80 108 149 201 265 326 391 461
#     4  12  25  50  80 109 158 211 259 324 404 466
#     4  11  24  42  74 108 150 194 262 311 388 465
#
# _framework density 23.610489000000001
#
# number of rings (size 3 to 8) (size 9 to 14) (size 15 to 20)
#    0.000    0.571    4.286    2.571    8.000    3.429 
#    0.000    0.000    0.000    0.000    0.000    0.000 
#    0.000    0.000    0.000    0.000    0.000    0.000 
#
# Total GULP energy -173479.815502 kJ/mol
# GULP energy per Si atom -12391.415393 kJ/mol
# Density = 2.355675 g / cm^3
# Si number density = 23.610489 Si / 1000 Ang^3
#
#
#
# Elastic Constant Matrix: (Units=GPa)
#
#
# Indices 1 2 3 4 5 6 
#
# 1 122.9381 42.2584 50.9730 -6.9504 9.6011 -20.6147
# 2 42.2584 133.4254 61.6488 9.5429 14.1294 -39.2949
# 3 50.9730 61.6488 164.8040 9.0911 4.9981 -23.7043
# 4 -6.9504 9.5429 9.0911 57.9849 -2.3473 2.0102
# 5 9.6011 14.1294 4.9981 -2.3473 42.1869 4.0919
# 6 -20.6147 -39.2949 -23.7043 2.0102 4.0919 49.7607
#
#
#
# Elastic Compliance Matrix: (Units=1/GPa)
#
#
# Indices 1 2 3 4 5 6 
#
# 1 0.010179 -0.001508 -0.002345 0.001702 -0.001631 0.001975
# 2 -0.001508 0.012256 -0.002679 -0.002240 -0.004367 0.008227
# 3 -0.002345 -0.002679 0.007947 -0.001096 0.000359 0.000714
# 4 0.001702 -0.002240 -0.001096 0.018146 0.001741 -0.002462
# 5 -0.001631 -0.004367 0.000359 0.001741 0.026191 -0.006177
# 6 0.001975 0.008227 0.000714 -0.002462 -0.006177 0.028358
#
#
# Mechanical properties :
#
#
# Convention : Reuss Voigt Hill
#
# Bulk Modulus (GPa) = 57.73947 81.21421 69.47684
# Shear Modulus (GPa) = 41.01244 47.73897 44.37570
#
# Velocity S-wave (km/s) = 4.17231 4.50148 4.34001
# Velocity P-wave (km/s) = 6.90789 7.84155 7.38948
#
# Compressibility (1/GPa) = 0.01731917
#
# Stress axis : x y z
#
# Youngs Moduli (GPa) = 98.23775 81.59481 125.82809
#
# Poissons Ratio (x) = 0.12306 0.29503
# Poissons Ratio (y) = 0.14816 0.33707
# Poissons Ratio (z) = 0.23033 0.21858
#
# Static dielectric constant tensor:
#      x y z
#    x 3.862910 -0.053220 -0.142740 
#    y -0.053220 4.626300 0.146500 
#    z -0.142740 0.146500 3.580390 
# 
# 
# High freq. dielectric constant tensor:
#      x y z
#    x 1.941220 -0.013600 -0.001140 
#    y -0.013600 1.938830 0.006860 
#    z -0.001140 0.006860 1.948690 
# 
# From -- ./inp_files/131770.got.cif
#   From: 2010.06.25/outbox.cif.g09.slc.cpg/sg2_66_cif.got.tgz:131770.got - 2010.06.27 13:26:56.
