data_PCOD8030308
_publ_section_title
;
Structure prediction by ZEFSAII (Michael W. Deem and Ramdas Pophale) SiO2 
 PCOD8030308
Probable space group: P -1
;
_chemical_formula_sum "Si O2"
_cell_formula_units_Z 14
_cell_length_a 18.957843
_cell_length_b 19.655109
_cell_length_c 10.198291
_cell_angle_alpha 38.773411
_cell_angle_beta 26.022269
_cell_angle_gamma 21.512720
_cell_volume 572.574692
_symmetry_space_group_name_H-M "P -1"
_symmetry_group_IT_number 2
_symmetry_cell_setting 'triclinic'
loop_
_space_group_symop_operation_xyz
x,y,z
-x,-y,-z
loop_
_atom_site_type_symbol
_atom_site_label
_atom_site_fract_x
_atom_site_fract_y
_atom_site_fract_z
Si Si1 0.549937 0.606186 0.628584
Si Si2 0.974540 0.211471 0.880529
Si Si3 0.153338 0.496839 0.453699
Si Si4 0.025880 0.199363 0.297875
Si Si5 0.460876 0.226758 0.833863
Si Si6 0.398541 0.132992 0.588539
Si Si7 0.718618 0.277167 0.468382
O O1 0.613736 0.596521 0.686142
O O2 0.568433 0.704382 0.363639
O O3 0.776996 0.389499 0.519392
O O4 0.221510 0.742346 0.967240
O O5 0.872904 0.395952 0.775200
O O6 0.943731 0.173191 0.130920
O O7 0.319575 0.006503 0.578387
O O8 0.270910 0.317802 0.465106
O O9 0.840413 0.661864 0.797583
O O10 0.889731 0.176957 0.472009
O O11 0.284305 0.007636 0.244843
O O12 0.141752 0.225490 0.964700
O O13 0.538650 0.269105 0.754620
O O14 0.500000 0.000000 0.500000
O O15 0.500000 0.500000 0.500000
#
# Coordination Sequence:
#
# PCOD8030308 Si02
#       7
#     2   2   2   2   2   2   2
#     4  11  26  47  70  99 137 182 232 283 326 412
#     4  11  25  44  69 102 137 179 222 286 342 396
#     4  12  26  46  70  98 141 183 228 277 347 394
#     4  12  23  44  72 102 135 176 231 278 340 411
#     4  11  24  40  71 102 131 184 221 281 342 392
#     4  12  26  43  67 104 141 174 226 285 340 408
#     4  11  21  44  69 100 140 172 227 281 335 409
#
# _framework density 24.450958
#
# number of rings (size 3 to 8) (size 9 to 14) (size 15 to 20)
#    0.000    0.571    7.143    1.286    0.000    6.286 
#    0.000    0.000    0.000    0.000    0.000    0.000 
#    0.000    0.000    0.000    0.000    0.000    0.000 
#
# Total GULP energy -173645.633119 kJ/mol
# GULP energy per Si atom -12403.259508 kJ/mol
# Density = 2.439531 g / cm^3
# Si number density = 24.450958 Si / 1000 Ang^3
#
#
#
# Elastic Constant Matrix: (Units=GPa)
#
#
# Indices 1 2 3 4 5 6 
#
# 1 54.4122 1.6716 -1.6662 3.7359 -10.0653 -3.2959
# 2 1.6716 81.2859 -4.2374 -4.6892 -1.8968 -24.7972
# 3 -1.6662 -4.2374 70.7587 4.0503 -21.1936 -6.0531
# 4 3.7359 -4.6892 4.0503 42.6597 -11.1261 -3.5483
# 5 -10.0653 -1.8968 -21.1936 -11.1261 27.4020 3.8440
# 6 -3.2959 -24.7972 -6.0531 -3.5483 3.8440 28.8190
#
#
#
# Elastic Compliance Matrix: (Units=1/GPa)
#
#
# Indices 1 2 3 4 5 6 
#
# 1 0.020529 0.000880 0.003886 0.000915 0.010611 0.002618
# 2 0.000880 0.017610 0.003218 0.003744 0.003314 0.015948
# 3 0.003886 0.003218 0.019981 0.003166 0.017625 0.005449
# 4 0.000915 0.003744 0.003166 0.027431 0.013399 0.005581
# 5 0.010611 0.003314 0.017625 0.013399 0.059485 0.001482
# 6 0.002618 0.015948 0.005449 0.005581 0.001482 0.050355
#
#
# Mechanical properties :
#
#
# Convention : Reuss Voigt Hill
#
# Bulk Modulus (GPa) = 13.49768 21.99919 17.74843
# Shear Modulus (GPa) = 24.49530 33.82206 29.15868
#
# Velocity S-wave (km/s) = 3.16858 3.72326 3.45706
# Velocity P-wave (km/s) = 4.34957 5.24407 4.81763
#
# Compressibility (1/GPa) = 0.07408682
#
# Stress axis : x y z
#
# Youngs Moduli (GPa) = 48.71183 56.78447 50.04829
#
# Poissons Ratio (x) = -0.04994 -0.19449
# Poissons Ratio (y) = -0.04284 -0.16105
# Poissons Ratio (z) = -0.18929 -0.18272
#
# Static dielectric constant tensor:
#      x y z
#    x 4.481850 -0.387480 -0.319350 
#    y -0.387480 4.531550 -0.017840 
#    z -0.319350 -0.017840 4.625400 
# 
# 
# High freq. dielectric constant tensor:
#      x y z
#    x 1.950790 -0.015840 -0.020400 
#    y -0.015840 1.982030 0.002840 
#    z -0.020400 0.002840 1.980790 
# 
# From -- ./inp_files/184728.got.cif
#   From: 2010.06.25/outbox.cif.g09.slc.cpg/sg2_93_cif.got.tgz:184728.got - 2010.06.27 13:26:56.
