data_PCOD8030836
_publ_section_title
;
Structure prediction by ZEFSAII (Michael W. Deem and Ramdas Pophale) SiO2 
 PCOD8030836
Probable space group: P -1
;
_chemical_formula_sum "Si O2"
_cell_formula_units_Z 14
_cell_length_a 12.362798
_cell_length_b 8.698827
_cell_length_c 9.709164
_cell_angle_alpha 134.374416
_cell_angle_beta 119.269618
_cell_angle_gamma 70.877979
_cell_volume 650.878562
_symmetry_space_group_name_H-M "P -1"
_symmetry_group_IT_number 2
_symmetry_cell_setting 'triclinic'
loop_
_space_group_symop_operation_xyz
x,y,z
-x,-y,-z
loop_
_atom_site_type_symbol
_atom_site_label
_atom_site_fract_x
_atom_site_fract_y
_atom_site_fract_z
Si Si1 0.392832 0.095559 0.219803
Si Si2 0.371199 0.609379 0.960108
Si Si3 0.028423 0.965086 0.154068
Si Si4 0.274352 0.211712 0.507298
Si Si5 0.197500 0.597154 0.098991
Si Si6 0.329896 0.886860 0.565652
Si Si7 0.209151 0.125771 0.888585
O O1 0.330601 0.176196 0.370604
O O2 0.533192 0.187482 0.353731
O O3 0.391512 0.837719 0.043048
O O4 0.317933 0.187854 0.102246
O O5 0.287152 0.461621 0.713072
O O6 0.500000 0.500000 0.000000
O O7 0.304818 0.644651 0.085433
O O8 0.075847 0.723404 0.055736
O O9 0.904193 0.998155 0.184536
O O10 0.129898 0.141403 0.377994
O O11 0.000000 0.000000 0.000000
O O12 0.348073 0.071843 0.577175
O O13 0.249584 0.685315 0.332170
O O14 0.162413 0.346142 0.929545
O O15 0.257306 0.970893 0.704368
#
# Coordination Sequence:
#
# PCOD8030836 Si02
#       7
#     2   2   2   2   2   2   2
#     4  12  23  42  67  98 139 166 218 278 319 390
#     4  12  21  39  69 101 128 172 220 264 324 391
#     4  11  23  48  67  93 135 171 224 273 317 391
#     4  11  22  40  71  96 128 175 221 263 332 377
#     4  11  24  42  67  96 132 174 218 267 333 383
#     4  11  23  41  68 100 130 172 219 269 333 384
#     4  12  25  44  65  96 136 173 212 277 328 386
#
# _framework density 21.509388999999999
#
# number of rings (size 3 to 8) (size 9 to 14) (size 15 to 20)
#    0.000    0.571    7.143    2.143    0.000    4.000 
#    2.571    1.429    0.000    0.000    0.000    0.000 
#    0.000    0.000    0.000    0.000    0.000    0.000 
#
# Total GULP energy -173694.066033 kJ/mol
# GULP energy per Si atom -12406.719002 kJ/mol
# Density = 2.146043 g / cm^3
# Si number density = 21.509389 Si / 1000 Ang^3
#
#
#
# Elastic Constant Matrix: (Units=GPa)
#
#
# Indices 1 2 3 4 5 6 
#
# 1 97.1212 14.4086 43.6866 -3.5196 -9.4888 -13.4755
# 2 14.4086 62.2926 19.3332 -12.4910 3.5661 -7.8984
# 3 43.6866 19.3332 101.9110 -8.6695 -5.6106 -12.9667
# 4 -3.5196 -12.4910 -8.6695 25.1774 -0.8500 8.8164
# 5 -9.4888 3.5661 -5.6106 -0.8500 43.1756 -3.7776
# 6 -13.4755 -7.8984 -12.9667 8.8164 -3.7776 24.3720
#
#
#
# Elastic Compliance Matrix: (Units=1/GPa)
#
#
# Indices 1 2 3 4 5 6 
#
# 1 0.013746 -0.001591 -0.004896 -0.002500 0.002978 0.005846
# 2 -0.001591 0.018947 -0.002227 0.008043 -0.001970 0.000861
# 3 -0.004896 -0.002227 0.012917 0.001638 0.001083 0.003019
# 4 -0.002500 0.008043 0.001638 0.049487 -0.001429 -0.016027
# 5 0.002978 -0.001970 0.001083 -0.001429 0.024609 0.005916
# 6 0.005846 0.000861 0.003019 -0.016027 0.005916 0.052863
#
#
# Mechanical properties :
#
#
# Convention : Reuss Voigt Hill
#
# Bulk Modulus (GPa) = 35.48259 46.24240 40.86249
# Shear Modulus (GPa) = 25.07646 30.80475 27.94060
#
# Velocity S-wave (km/s) = 3.41814 3.78849 3.60807
# Velocity P-wave (km/s) = 5.66660 6.37826 6.03293
#
# Compressibility (1/GPa) = 0.02818283
#
# Stress axis : x y z
#
# Youngs Moduli (GPa) = 72.74786 52.77832 77.41912
#
# Poissons Ratio (x) = 0.08395 0.37902
# Poissons Ratio (y) = 0.11572 0.17243
# Poissons Ratio (z) = 0.35615 0.11755
#
# Static dielectric constant tensor:
#      x y z
#    x 3.982210 -0.103760 0.013710 
#    y -0.103760 3.887110 -0.015250 
#    z 0.013710 -0.015250 4.139460 
# 
# 
# High freq. dielectric constant tensor:
#      x y z
#    x 1.851790 -0.003730 -0.003560 
#    y -0.003730 1.834910 -0.004160 
#    z -0.003560 -0.004160 1.852400 
# 
# From -- ./inp_files/176950.got.cif
#   From: 2010.06.25/outbox.cif.g09.slc.cpg/sg2_89_cif.got.tgz:176950.got - 2010.06.27 13:26:56.
