data_PCOD8030644
_publ_section_title
;
Structure prediction by ZEFSAII (Michael W. Deem and Ramdas Pophale) SiO2 
 PCOD8030644
Probable space group: P -1
;
_chemical_formula_sum "Si O2"
_cell_formula_units_Z 14
_cell_length_a 28.600313
_cell_length_b 15.391625
_cell_length_c 15.252770
_cell_angle_alpha 18.514880
_cell_angle_beta 161.056619
_cell_angle_gamma 158.601496
_cell_volume 653.011013
_symmetry_space_group_name_H-M "P -1"
_symmetry_group_IT_number 2
_symmetry_cell_setting 'triclinic'
loop_
_space_group_symop_operation_xyz
x,y,z
-x,-y,-z
loop_
_atom_site_type_symbol
_atom_site_label
_atom_site_fract_x
_atom_site_fract_y
_atom_site_fract_z
Si Si1 0.934214 0.696703 0.617112
Si Si2 0.360876 0.214528 0.787090
Si Si3 0.754121 0.327591 0.786096
Si Si4 0.180338 0.150808 0.183138
Si Si5 0.132769 0.168229 0.274319
Si Si6 0.942029 0.584179 0.548351
Si Si7 0.701291 0.309705 0.247718
O O1 0.776422 0.452534 0.606116
O O2 0.899401 0.731604 0.419692
O O3 0.000000 0.000000 0.500000
O O4 0.066939 0.548967 0.987498
O O5 0.359048 0.535520 0.497084
O O6 0.240356 0.100847 0.603974
O O7 0.524120 0.223100 0.037234
O O8 0.309969 0.014388 0.976617
O O9 0.221270 0.257636 0.253704
O O10 0.273136 0.942736 0.521365
O O11 0.240753 0.415619 0.972869
O O12 0.000000 0.000000 0.000000
O O13 0.004557 0.853252 0.334649
O O14 0.063649 0.417371 0.940838
O O15 0.791878 0.359446 0.452918
#
# Coordination Sequence:
#
# PCOD8030644 Si02
#       7
#     2   2   2   2   2   2   2
#     4  11  22  39  70 100 123 163 226 267 306 370
#     4  12  24  43  62  97 136 170 203 264 334 378
#     4  11  22  39  65  93 131 164 208 270 313 373
#     4  12  23  43  68  95 128 167 224 269 307 370
#     4  12  23  39  69  93 128 168 218 263 314 375
#     4  12  23  41  65 100 121 171 217 261 314 385
#     4  12  26  43  66  94 135 172 207 265 331 381
#
# _framework density 21.439147999999999
#
# number of rings (size 3 to 8) (size 9 to 14) (size 15 to 20)
#    0.000    0.286    7.143    2.143    2.000    1.143 
#    0.000    1.429    0.000    0.000    0.000    0.000 
#    0.000    0.000    0.000    0.000    0.000    0.000 
#
# Total GULP energy -173434.057331 kJ/mol
# GULP energy per Si atom -12388.146952 kJ/mol
# Density = 2.139035 g / cm^3
# Si number density = 21.439148 Si / 1000 Ang^3
#
#
#
# Elastic Constant Matrix: (Units=GPa)
#
#
# Indices 1 2 3 4 5 6 
#
# 1 133.2372 40.5748 51.2001 -4.8422 -1.8719 1.7550
# 2 40.5748 67.4669 39.2558 -9.7661 -2.8670 17.9311
# 3 51.2001 39.2558 118.2946 -11.8101 18.4795 10.0506
# 4 -4.8422 -9.7661 -11.8101 31.2990 4.4868 3.7006
# 5 -1.8719 -2.8670 18.4795 4.4868 36.6181 -3.6303
# 6 1.7550 17.9311 10.0506 3.7006 -3.6303 45.0218
#
#
#
# Elastic Compliance Matrix: (Units=1/GPa)
#
#
# Indices 1 2 3 4 5 6 
#
# 1 0.010365 -0.005043 -0.003643 -0.002032 0.002499 0.002786
# 2 -0.005043 0.023827 -0.004861 0.005453 0.002555 -0.008450
# 3 -0.003643 -0.004861 0.013520 0.004417 -0.008125 -0.001958
# 4 -0.002032 0.005453 0.004417 0.036808 -0.007078 -0.006675
# 5 0.002499 0.002555 -0.008125 -0.007078 0.032995 0.003941
# 6 0.002786 -0.008450 -0.001958 -0.006675 0.003941 0.026772
#
#
# Mechanical properties :
#
#
# Convention : Reuss Voigt Hill
#
# Bulk Modulus (GPa) = 48.49861 64.56224 56.53042
# Shear Modulus (GPa) = 28.04990 35.11897 31.58443
#
# Velocity S-wave (km/s) = 3.62104 4.05171 3.84241
# Velocity P-wave (km/s) = 6.33665 7.21582 6.79048
#
# Compressibility (1/GPa) = 0.02061915
#
# Stress axis : x y z
#
# Youngs Moduli (GPa) = 96.47402 41.96921 73.96427
#
# Poissons Ratio (x) = 0.21163 0.26944
# Poissons Ratio (y) = 0.48648 0.35955
# Poissons Ratio (z) = 0.35144 0.20402
#
# Static dielectric constant tensor:
#      x y z
#    x 4.375130 0.150560 -0.104740 
#    y 0.150560 3.777890 -0.080240 
#    z -0.104740 -0.080240 3.915450 
# 
# 
# High freq. dielectric constant tensor:
#      x y z
#    x 1.858540 0.015890 0.000390 
#    y 0.015890 1.809860 -0.025480 
#    z 0.000390 -0.025480 1.848810 
# 
# From -- ./inp_files/83001.got.cif
#   From: 2010.06.25/outbox.cif.g09.slc.cpg/sg2_42_cif.got.tgz:83001.got - 2010.06.27 13:26:56.
