data_PCOD8030997
_publ_section_title
;
Structure prediction by ZEFSAII (Michael W. Deem and Ramdas Pophale) SiO2 
 PCOD8030997
Probable space group: P -1
;
_chemical_formula_sum "Si O2"
_cell_formula_units_Z 16
_cell_length_a 8.889244
_cell_length_b 18.171782
_cell_length_c 7.394125
_cell_angle_alpha 58.526510
_cell_angle_beta 104.001893
_cell_angle_gamma 61.613880
_cell_volume 678.537224
_symmetry_space_group_name_H-M "P -1"
_symmetry_group_IT_number 2
_symmetry_cell_setting 'triclinic'
loop_
_space_group_symop_operation_xyz
x,y,z
-x,-y,-z
loop_
_atom_site_type_symbol
_atom_site_label
_atom_site_fract_x
_atom_site_fract_y
_atom_site_fract_z
Si Si1 0.397901 0.196617 0.762003
Si Si2 0.022131 0.226652 0.700657
Si Si3 0.768915 0.399922 0.713038
Si Si4 0.579860 0.369909 0.199908
Si Si5 0.155780 0.799414 0.809873
Si Si6 0.268378 0.937608 0.672865
Si Si7 0.196511 0.978687 0.174868
Si Si8 0.212109 0.441628 0.254586
O O1 0.209811 0.199470 0.670741
O O2 0.582710 0.116913 0.762186
O O3 0.281412 0.337772 0.543708
O O4 0.492031 0.138338 0.067118
O O5 0.884418 0.356760 0.605519
O O6 0.840336 0.257951 0.476124
O O7 0.124193 0.107780 0.001402
O O8 0.500000 0.500000 0.500000
O O9 0.848925 0.448841 0.789680
O O10 0.877703 0.267810 0.985350
O O11 0.610513 0.313467 0.086770
O O12 0.422000 0.376411 0.269335
O O13 0.500000 0.500000 0.000000
O O14 0.198418 0.873790 0.828566
O O15 0.909286 0.917417 0.494744
O O16 0.270862 0.923185 0.473402
O O17 0.000000 0.000000 0.000000
O O18 0.000000 0.500000 0.000000
#
# Coordination Sequence:
#
# PCOD8030997 Si02
#       8
#     2   2   2   2   2   2   2   2
#     4  12  28  46  72 111 154 191 252 314 383 448
#     4  12  26  46  71 107 145 195 251 307 376 452
#     4  12  24  45  75 102 147 196 251 308 369 455
#     4  12  23  43  72 102 140 194 247 300 372 447
#     4  11  22  41  71 105 137 186 250 298 369 441
#     4  11  24  44  73 108 148 191 244 315 376 446
#     4  12  25  48  77 109 150 198 252 312 380 453
#     4  12  27  48  75 110 152 196 251 315 380 452
#
# _framework density 23.580134000000001
#
# number of rings (size 3 to 8) (size 9 to 14) (size 15 to 20)
#    0.000    0.250    3.750    6.375    0.000    3.000 
#    0.000    0.000    0.000    0.000    0.000    0.000 
#    0.000    0.000    0.000    0.000    0.000    0.000 
#
# Total GULP energy -198278.338202 kJ/mol
# GULP energy per Si atom -12392.396138 kJ/mol
# Density = 2.352646 g / cm^3
# Si number density = 23.580134 Si / 1000 Ang^3
#
#
#
# Elastic Constant Matrix: (Units=GPa)
#
#
# Indices 1 2 3 4 5 6 
#
# 1 144.5626 32.3689 47.5221 -8.8043 12.4356 -0.4586
# 2 32.3689 116.6185 29.7954 -17.3154 2.9770 -1.5475
# 3 47.5221 29.7954 130.4770 -14.6008 -3.8983 9.8472
# 4 -8.8043 -17.3154 -14.6008 39.2530 6.9604 -2.6203
# 5 12.4356 2.9770 -3.8983 6.9604 40.3227 -8.4208
# 6 -0.4586 -1.5475 9.8472 -2.6203 -8.4208 31.8991
#
#
#
# Elastic Compliance Matrix: (Units=1/GPa)
#
#
# Indices 1 2 3 4 5 6 
#
# 1 0.008441 -0.001451 -0.002761 0.000745 -0.002847 0.000213
# 2 -0.001451 0.009932 -0.001420 0.003746 -0.000865 0.000979
# 3 -0.002761 -0.001420 0.009434 0.001914 0.000995 -0.002601
# 4 0.000745 0.003746 0.001914 0.028969 -0.005195 0.000610
# 5 -0.002847 -0.000865 0.000995 -0.005195 0.028114 0.006605
# 6 0.000213 0.000979 -0.002601 0.000610 0.006605 0.033996
#
#
# Mechanical properties :
#
#
# Convention : Reuss Voigt Hill
#
# Bulk Modulus (GPa) = 60.44836 67.89232 64.17034
# Shear Modulus (GPa) = 36.85572 41.09307 38.97439
#
# Velocity S-wave (km/s) = 3.95777 4.17909 4.06993
# Velocity P-wave (km/s) = 6.82467 7.22088 7.02557
#
# Compressibility (1/GPa) = 0.01654305
#
# Stress axis : x y z
#
# Youngs Moduli (GPa) = 118.47118 100.68561 105.99893
#
# Poissons Ratio (x) = 0.14613 0.29262
# Poissons Ratio (y) = 0.17195 0.15051
# Poissons Ratio (z) = 0.32705 0.14296
#
# Static dielectric constant tensor:
#      x y z
#    x 4.320220 -0.170180 -0.008130 
#    y -0.170180 4.486560 -0.228180 
#    z -0.008130 -0.228180 4.535540 
# 
# 
# High freq. dielectric constant tensor:
#      x y z
#    x 1.928270 -0.001620 -0.009260 
#    y -0.001620 1.942680 -0.019370 
#    z -0.009260 -0.019370 1.944550 
# 
# From -- ./inp_files/223235.got.cif
#   From: 2010.06.25/outbox.cif.g09.slc.cpg/sg2_112_cif.got.tgz:223235.got - 2010.06.27 13:26:56.
