data_PCOD8030962
_publ_section_title
;
Structure prediction by ZEFSAII (Michael W. Deem and Ramdas Pophale) SiO2 
 PCOD8030962
Probable space group: P -1
;
_chemical_formula_sum "Si O2"
_cell_formula_units_Z 16
_cell_length_a 14.332375
_cell_length_b 15.363214
_cell_length_c 11.355630
_cell_angle_alpha 69.231816
_cell_angle_beta 149.256610
_cell_angle_gamma 132.973450
_cell_volume 734.996404
_symmetry_space_group_name_H-M "P -1"
_symmetry_group_IT_number 2
_symmetry_cell_setting 'triclinic'
loop_
_space_group_symop_operation_xyz
x,y,z
-x,-y,-z
loop_
_atom_site_type_symbol
_atom_site_label
_atom_site_fract_x
_atom_site_fract_y
_atom_site_fract_z
Si Si1 0.892708 0.341807 0.338532
Si Si2 0.226538 0.333406 0.574620
Si Si3 0.976668 0.903243 0.184533
Si Si4 0.994013 0.442182 0.805762
Si Si5 0.865102 0.646395 0.175881
Si Si6 0.239547 0.138947 0.780206
Si Si7 0.582053 0.632212 0.475729
Si Si8 0.601185 0.789889 0.606280
O O1 0.934369 0.271377 0.328313
O O2 0.022111 0.484785 0.346316
O O3 0.093662 0.403007 0.641883
O O4 0.548932 0.209767 0.063847
O O5 0.283527 0.265061 0.744972
O O6 0.178959 0.288129 0.407380
O O7 0.517914 0.514721 0.827113
O O8 0.002363 0.802692 0.276633
O O9 0.874635 0.916635 0.184124
O O10 0.737593 0.833471 0.861423
O O11 0.296037 0.072618 0.409745
O O12 0.751198 0.352466 0.688164
O O13 0.963023 0.330674 0.759133
O O14 0.307145 0.576448 0.146595
O O15 0.000000 0.000000 0.500000
O O16 0.500000 0.500000 0.500000
O O17 0.708953 0.747111 0.662470
#
# Coordination Sequence:
#
# PCOD8030962 Si02
#       8
#     2   2   2   2   2   2   2   2
#     4  12  23  41  73 105 135 180 226 289 352 398
#     4  11  24  42  71 106 136 178 226 288 339 406
#     4  11  25  44  67  96 143 186 219 283 344 405
#     4  11  23  39  70 103 131 177 235 279 336 409
#     4  11  22  41  69 107 141 170 230 286 345 413
#     4  12  26  47  67  98 144 176 230 284 347 411
#     4  11  22  43  65 100 139 177 225 288 334 398
#     4  11  24  43  68  97 139 188 227 275 342 407
#
# _framework density 21.768813999999999
#
# number of rings (size 3 to 8) (size 9 to 14) (size 15 to 20)
#    0.000    0.750    3.750    5.625    1.750    1.000 
#    0.000    1.250    0.000    0.000    0.000    0.000 
#    0.000    0.000    0.000    0.000    0.000    0.000 
#
# Total GULP energy -198438.060723 kJ/mol
# GULP energy per Si atom -12402.378795 kJ/mol
# Density = 2.171927 g / cm^3
# Si number density = 21.768814 Si / 1000 Ang^3
#
#
#
# Elastic Constant Matrix: (Units=GPa)
#
#
# Indices 1 2 3 4 5 6 
#
# 1 180.1428 33.5378 51.9095 0.5256 -0.8833 2.7302
# 2 33.5378 106.9947 29.9214 -5.7819 -2.3177 2.5471
# 3 51.9095 29.9214 54.8475 -2.4039 6.3579 -1.9246
# 4 0.5256 -5.7819 -2.4039 29.3124 -3.6497 -1.3339
# 5 -0.8833 -2.3177 6.3579 -3.6497 37.9543 0.1402
# 6 2.7302 2.5471 -1.9246 -1.3339 0.1402 38.3634
#
#
#
# Elastic Compliance Matrix: (Units=1/GPa)
#
#
# Indices 1 2 3 4 5 6 
#
# 1 0.007764 -0.000359 -0.007369 -0.000691 0.001330 -0.000927
# 2 -0.000359 0.011303 -0.005993 0.001934 0.001875 -0.000965
# 3 -0.007369 -0.005993 0.029218 0.000789 -0.005365 0.002435
# 4 -0.000691 0.001934 0.000789 0.035042 0.003335 0.001167
# 5 0.001330 0.001875 -0.005365 0.003335 0.027714 -0.000474
# 6 -0.000927 -0.000965 0.002435 0.001167 -0.000474 0.026361
#
#
# Mechanical properties :
#
#
# Convention : Reuss Voigt Hill
#
# Bulk Modulus (GPa) = 47.97831 63.63584 55.80707
# Shear Modulus (GPa) = 29.10495 36.23377 32.66936
#
# Velocity S-wave (km/s) = 3.66047 4.08423 3.87814
# Velocity P-wave (km/s) = 6.32085 7.17895 6.76352
#
# Compressibility (1/GPa) = 0.02084275
#
# Stress axis : x y z
#
# Youngs Moduli (GPa) = 128.79724 88.47339 34.22552
#
# Poissons Ratio (x) = 0.03179 0.25222
# Poissons Ratio (y) = 0.04628 0.20510
# Poissons Ratio (z) = 0.94914 0.53018
#
# Static dielectric constant tensor:
#      x y z
#    x 4.445470 0.108060 -0.007930 
#    y 0.108060 3.995640 -0.050370 
#    z -0.007930 -0.050370 3.751880 
# 
# 
# High freq. dielectric constant tensor:
#      x y z
#    x 1.883090 0.004700 -0.003900 
#    y 0.004700 1.854610 -0.011290 
#    z -0.003900 -0.011290 1.830700 
# 
# From -- ./inp_files/455663.got.cif
#   From: 2010.06.25/outbox.cif.g09.slc.cpg/sg2_228_cif.got.tgz:455663.got - 2010.06.27 13:26:56.
