data_PCOD8030135
_publ_section_title
;
Structure prediction by ZEFSAII (Michael W. Deem and Ramdas Pophale) SiO2 
 PCOD8030135
Probable space group: P -1
;
_chemical_formula_sum "Si O2"
_cell_formula_units_Z 16
_cell_length_a 19.024120
_cell_length_b 11.645235
_cell_length_c 8.626727
_cell_angle_alpha 142.197190
_cell_angle_beta 38.999999
_cell_angle_gamma 139.136295
_cell_volume 685.272132
_symmetry_space_group_name_H-M "P -1"
_symmetry_group_IT_number 2
_symmetry_cell_setting 'triclinic'
loop_
_space_group_symop_operation_xyz
x,y,z
-x,-y,-z
loop_
_atom_site_type_symbol
_atom_site_label
_atom_site_fract_x
_atom_site_fract_y
_atom_site_fract_z
Si Si1 0.795767 0.763405 0.376484
Si Si2 0.579076 0.119990 0.134609
Si Si3 0.307041 0.451414 0.988450
Si Si4 0.591755 0.799544 0.265494
Si Si5 0.986238 0.588918 0.953630
Si Si6 0.782157 0.213578 0.413368
Si Si7 0.172963 0.805094 0.334700
Si Si8 0.437456 0.270476 0.102795
O O1 0.769709 0.650310 0.137245
O O2 0.675493 0.677904 0.593323
O O3 0.837749 0.004190 0.533251
O O4 0.896629 0.710953 0.240843
O O5 0.515592 0.251511 0.476328
O O6 0.712012 0.247709 0.978331
O O7 0.500000 0.000000 0.000000
O O8 0.591397 0.963313 0.070343
O O9 0.309241 0.281716 0.924254
O O10 0.443975 0.593329 0.860695
O O11 0.240357 0.580109 0.322584
O O12 0.660364 0.038537 0.375793
O O13 0.538490 0.687834 0.077241
O O14 0.942340 0.396503 0.709147
O O15 0.111729 0.752668 0.854993
O O16 0.000000 0.500000 0.000000
O O17 0.815879 0.147716 0.452057
#
# Coordination Sequence:
#
# PCOD8030135 Si02
#       8
#     2   2   2   2   2   2   2   2
#     4  11  26  47  74 106 141 194 243 292 356 431
#     4  11  21  42  71 105 145 185 235 284 362 431
#     4  12  24  43  73 108 144 192 235 290 356 443
#     4  12  25  43  70 110 152 192 225 303 359 423
#     4  12  31  48  74 103 143 192 242 308 352 421
#     4  12  26  48  72 105 143 190 251 285 358 422
#     4  11  24  48  73 105 139 189 242 297 351 427
#     4  11  25  42  69 111 152 185 233 294 363 427
#
# _framework density 23.348386999999999
#
# number of rings (size 3 to 8) (size 9 to 14) (size 15 to 20)
#    0.000    0.500    5.000    2.250    7.000    2.000 
#    0.000    0.000    0.000    0.000    0.000    0.000 
#    0.000    0.000    0.000    0.000    0.000    0.000 
#
# Total GULP energy -198453.589658 kJ/mol
# GULP energy per Si atom -12403.349354 kJ/mol
# Density = 2.329525 g / cm^3
# Si number density = 23.348387 Si / 1000 Ang^3
#
#
#
# Elastic Constant Matrix: (Units=GPa)
#
#
# Indices 1 2 3 4 5 6 
#
# 1 100.5344 -2.3034 24.4654 -9.4561 -15.7449 -20.4380
# 2 -2.3034 75.0156 3.5098 -15.0354 -5.2929 -2.5184
# 3 24.4654 3.5098 77.2412 -13.4304 -27.8035 -10.5933
# 4 -9.4561 -15.0354 -13.4304 40.4630 -4.0284 0.4687
# 5 -15.7449 -5.2929 -27.8035 -4.0284 34.8755 -1.4530
# 6 -20.4380 -2.5184 -10.5933 0.4687 -1.4530 31.9831
#
#
#
# Elastic Compliance Matrix: (Units=1/GPa)
#
#
# Indices 1 2 3 4 5 6 
#
# 1 0.013401 0.002203 0.000541 0.004795 0.007753 0.009198
# 2 0.002203 0.015433 0.002894 0.007834 0.006706 0.003772
# 3 0.000541 0.002894 0.023314 0.010917 0.020910 0.009086
# 4 0.004795 0.007834 0.010917 0.033903 0.016287 0.007540
# 5 0.007753 0.006706 0.020910 0.016287 0.052349 0.014548
# 6 0.009198 0.003772 0.009086 0.007540 0.014548 0.041001
#
#
# Mechanical properties :
#
#
# Convention : Reuss Voigt Hill
#
# Bulk Modulus (GPa) = 15.76651 33.79278 24.77965
# Shear Modulus (GPa) = 26.41789 36.60561 31.51175
#
# Velocity S-wave (km/s) = 3.36738 3.96384 3.67772
# Velocity P-wave (km/s) = 4.67828 5.95433 5.35446
#
# Compressibility (1/GPa) = 0.06342556
#
# Stress axis : x y z
#
# Youngs Moduli (GPa) = 74.62249 64.79716 42.89181
#
# Poissons Ratio (x) = -0.14276 -0.02322
# Poissons Ratio (y) = -0.16440 -0.12414
# Poissons Ratio (z) = -0.04040 -0.18754
#
# Static dielectric constant tensor:
#      x y z
#    x 4.204660 -0.095980 -0.158220 
#    y -0.095980 4.286470 0.086130 
#    z -0.158220 0.086130 4.149650 
# 
# 
# High freq. dielectric constant tensor:
#      x y z
#    x 1.924960 -0.010480 -0.006840 
#    y -0.010480 1.927470 0.009900 
#    z -0.006840 0.009900 1.919840 
# 
# From -- ./inp_files/333874.got.cif
#   From: 2010.06.25/outbox.cif.g09.slc.cpg/sg2_167_cif.got.tgz:333874.got - 2010.06.27 13:26:56.
