data_PCOD8030389
_publ_section_title
;
Structure prediction by ZEFSAII (Michael W. Deem and Ramdas Pophale) SiO2 
 PCOD8030389
Probable space group: P -1
;
_chemical_formula_sum "Si O2"
_cell_formula_units_Z 16
_cell_length_a 11.384451
_cell_length_b 18.049937
_cell_length_c 9.511421
_cell_angle_alpha 149.619198
_cell_angle_beta 58.384663
_cell_angle_gamma 128.331653
_cell_volume 775.102103
_symmetry_space_group_name_H-M "P -1"
_symmetry_group_IT_number 2
_symmetry_cell_setting 'triclinic'
loop_
_space_group_symop_operation_xyz
x,y,z
-x,-y,-z
loop_
_atom_site_type_symbol
_atom_site_label
_atom_site_fract_x
_atom_site_fract_y
_atom_site_fract_z
Si Si1 0.647689 0.220242 0.889975
Si Si2 0.123959 0.155883 0.237993
Si Si3 0.368965 0.632299 0.586586
Si Si4 0.373126 0.293087 0.070185
Si Si5 0.321322 0.076687 0.190670
Si Si6 0.399211 0.112235 0.511739
Si Si7 0.284511 0.734823 0.539563
Si Si8 0.082902 0.663355 0.290642
O O1 0.777534 0.229049 0.715075
O O2 0.575673 0.037305 0.682452
O O3 0.713052 0.340068 0.177126
O O4 0.525159 0.272954 0.981462
O O5 0.255027 0.230563 0.165878
O O6 0.188651 0.120147 0.284079
O O7 0.047671 0.274430 0.517531
O O8 0.000000 0.000000 0.000000
O O9 0.407333 0.477147 0.320411
O O10 0.520147 0.788979 0.731368
O O11 0.261250 0.618736 0.498659
O O12 0.312240 0.187153 0.794263
O O13 0.303914 0.062007 0.345856
O O14 0.306234 0.910218 0.862361
O O15 0.563150 0.249884 0.609050
O O16 0.142331 0.653224 0.393858
O O17 0.000000 0.500000 0.000000
#
# Coordination Sequence:
#
# PCOD8030389 Si02
#       8
#     2   2   2   2   2   2   2   2
#     4  12  22  44  69  99 129 176 230 268 316 403
#     4  12  25  45  67  95 139 181 214 268 338 398
#     4  11  23  40  72 100 135 167 223 285 329 380
#     4  12  25  40  67 107 131 168 230 283 319 380
#     4  11  22  42  69  98 134 177 219 270 339 395
#     4  11  22  40  71 101 126 171 231 275 319 390
#     4  11  21  45  67  98 136 177 217 269 343 394
#     4  12  28  43  66  99 138 175 216 271 341 395
#
# _framework density 20.642443
#
# number of rings (size 3 to 8) (size 9 to 14) (size 15 to 20)
#    0.000    0.500    6.250    3.000    1.750    3.000 
#    0.000    7.500    0.000    0.000    0.000    0.000 
#    0.000    0.000    0.000    0.000    0.000    0.000 
#
# Total GULP energy -198417.711573 kJ/mol
# GULP energy per Si atom -12401.106973 kJ/mol
# Density = 2.059546 g / cm^3
# Si number density = 20.642443 Si / 1000 Ang^3
#
#
#
# Elastic Constant Matrix: (Units=GPa)
#
#
# Indices 1 2 3 4 5 6 
#
# 1 124.0740 33.4207 35.1134 -14.0296 11.1183 -17.3764
# 2 33.4207 62.7629 27.4655 -19.8653 7.6176 -11.1845
# 3 35.1134 27.4655 132.2148 -11.1182 2.6203 -13.3161
# 4 -14.0296 -19.8653 -11.1182 34.5150 7.6894 -0.2557
# 5 11.1183 7.6176 2.6203 7.6894 29.9671 -8.4750
# 6 -17.3764 -11.1845 -13.3161 -0.2557 -8.4750 32.5552
#
#
#
# Elastic Compliance Matrix: (Units=1/GPa)
#
#
# Indices 1 2 3 4 5 6 
#
# 1 0.010291 -0.003156 -0.001500 0.002495 -0.002640 0.003127
# 2 -0.003156 0.024686 -0.002592 0.013743 -0.007288 0.003947
# 3 -0.001500 -0.002592 0.008741 0.000525 0.000918 0.002127
# 4 0.002495 0.013743 0.000525 0.041259 -0.014236 0.002886
# 5 -0.002640 -0.007288 0.000918 -0.014236 0.041822 0.007238
# 6 0.003127 0.003947 0.002127 0.002886 0.007238 0.036519
#
#
# Mechanical properties :
#
#
# Convention : Reuss Voigt Hill
#
# Bulk Modulus (GPa) = 34.22323 56.78342 45.50332
# Shear Modulus (GPa) = 26.65902 34.27758 30.46830
#
# Velocity S-wave (km/s) = 3.59760 4.07939 3.84605
# Velocity P-wave (km/s) = 5.81996 7.05382 6.46639
#
# Compressibility (1/GPa) = 0.02921992
#
# Stress axis : x y z
#
# Youngs Moduli (GPa) = 97.17153 40.50956 114.40886
#
# Poissons Ratio (x) = 0.12785 0.17166
# Poissons Ratio (y) = 0.30667 0.29658
# Poissons Ratio (z) = 0.14580 0.10501
#
# Static dielectric constant tensor:
#      x y z
#    x 3.788480 -0.766380 -0.136040 
#    y -0.766380 1.914080 -1.347520 
#    z -0.136040 -1.347520 3.428370 
# 
# 
# High freq. dielectric constant tensor:
#      x y z
#    x 1.805980 -0.021350 0.001180 
#    y -0.021350 1.800920 -0.012180 
#    z 0.001180 -0.012180 1.823560 
# 
# From -- ./inp_files/274304.got.cif
#   From: 2010.06.25/outbox.cif.g09.slc.cpg/sg2_138_cif.got.tgz:274304.got - 2010.06.27 13:26:56.
