data_PCOD8030006
_publ_section_title
;
Structure prediction by ZEFSAII (Michael W. Deem and Ramdas Pophale) SiO2 
 PCOD8030006
Probable space group: P -1
;
_chemical_formula_sum "Si O2"
_cell_formula_units_Z 16
_cell_length_a 9.436174
_cell_length_b 9.445609
_cell_length_c 25.083708
_cell_angle_alpha 136.847312
_cell_angle_beta 152.623819
_cell_angle_gamma 46.722402
_cell_volume 698.060776
_symmetry_space_group_name_H-M "P -1"
_symmetry_group_IT_number 2
_symmetry_cell_setting 'triclinic'
loop_
_space_group_symop_operation_xyz
x,y,z
-x,-y,-z
loop_
_atom_site_type_symbol
_atom_site_label
_atom_site_fract_x
_atom_site_fract_y
_atom_site_fract_z
Si Si1 0.790994 0.355125 0.079039
Si Si2 0.710933 0.962903 0.008232
Si Si3 0.704639 0.639418 0.365535
Si Si4 0.853268 0.375964 0.649831
Si Si5 0.636870 0.008031 0.721712
Si Si6 0.363875 0.297059 0.184843
Si Si7 0.199257 0.917905 0.642690
Si Si8 0.795785 0.627229 0.595373
O O1 0.648989 0.163522 0.005178
O O2 0.991710 0.455475 0.218500
O O3 0.015214 0.285175 0.085567
O O4 0.500000 0.500000 0.000000
O O5 0.074033 0.917569 0.130708
O O6 0.500000 0.000000 0.000000
O O7 0.623078 0.767820 0.890980
O O8 0.438497 0.539111 0.282507
O O9 0.930662 0.766453 0.510164
O O10 0.891338 0.421047 0.347079
O O11 0.557148 0.786506 0.309842
O O12 0.828135 0.435844 0.595549
O O13 0.489571 0.375987 0.542966
O O14 0.045930 0.153478 0.661490
O O15 0.416097 0.891759 0.655189
O O16 0.766700 0.851828 0.675332
O O17 0.596360 0.135536 0.251805
#
# Coordination Sequence:
#
# PCOD8030006 Si02
#       8
#     2   2   2   2   2   2   2   2
#     4  12  27  47  72 104 148 189 243 296 371 435
#     4  12  28  50  76 103 141 193 251 303 355 434
#     4  12  26  44  73 109 150 189 244 297 366 432
#     4  11  22  40  73 104 141 187 242 292 366 420
#     4  12  24  45  75 106 148 189 253 293 364 429
#     4  12  28  49  70 107 150 194 236 304 370 433
#     4  12  23  46  73 107 144 198 234 300 367 441
#     4  11  21  41  70 108 141 183 239 304 349 426
#
# _framework density 22.920639999999999
#
# number of rings (size 3 to 8) (size 9 to 14) (size 15 to 20)
#    0.000    0.250    5.000    4.875    3.500    0.500 
#    2.250    1.250    0.000    0.000    0.000    0.000 
#    0.000    0.000    0.000    0.000    0.000    0.000 
#
# Total GULP energy -198422.077061 kJ/mol
# GULP energy per Si atom -12401.379816 kJ/mol
# Density = 2.286847 g / cm^3
# Si number density = 22.920640 Si / 1000 Ang^3
#
#
#
# Elastic Constant Matrix: (Units=GPa)
#
#
# Indices 1 2 3 4 5 6 
#
# 1 86.1439 21.8340 19.8657 5.7036 8.6157 4.5773
# 2 21.8340 91.5755 41.7386 -8.9829 7.4161 -5.7919
# 3 19.8657 41.7386 125.7328 -13.1660 -1.0267 6.7808
# 4 5.7036 -8.9829 -13.1660 50.2610 1.8926 -0.4131
# 5 8.6157 7.4161 -1.0267 1.8926 31.4780 6.3964
# 6 4.5773 -5.7919 6.7808 -0.4131 6.3964 28.8745
#
#
#
# Elastic Compliance Matrix: (Units=1/GPa)
#
#
# Indices 1 2 3 4 5 6 
#
# 1 0.013079 -0.002628 -0.001353 -0.002228 -0.002514 -0.001758
# 2 -0.002628 0.014443 -0.004499 0.001896 -0.004019 0.005287
# 3 -0.001353 -0.004499 0.010067 0.001868 0.002368 -0.003550
# 4 -0.002228 0.001896 0.001868 0.021030 -0.001216 0.000865
# 5 -0.002514 -0.004019 0.002368 -0.001216 0.035344 -0.008810
# 6 -0.001758 0.005287 -0.003550 0.000865 -0.008810 0.038770
#
#
# Mechanical properties :
#
#
# Convention : Reuss Voigt Hill
#
# Bulk Modulus (GPa) = 48.47472 52.25876 50.36674
# Shear Modulus (GPa) = 31.93509 36.79030 34.36270
#
# Velocity S-wave (km/s) = 3.73673 4.01074 3.87615
# Velocity P-wave (km/s) = 6.30970 6.65563 6.48497
#
# Compressibility (1/GPa) = 0.02062931
#
# Stress axis : x y z
#
# Youngs Moduli (GPa) = 76.45905 69.23901 99.33455
#
# Poissons Ratio (x) = 0.18194 0.13442
# Poissons Ratio (y) = 0.20092 0.44688
# Poissons Ratio (z) = 0.10346 0.31149
#
# Static dielectric constant tensor:
#      x y z
#    x 4.050110 -0.033800 0.178710 
#    y -0.033800 4.128520 -0.142770 
#    z 0.178710 -0.142770 4.387890 
# 
# 
# High freq. dielectric constant tensor:
#      x y z
#    x 1.892830 -0.002020 0.005350 
#    y -0.002020 1.913100 -0.007750 
#    z 0.005350 -0.007750 1.924020 
# 
# From -- ./inp_files/447811.got.cif
#   From: 2010.06.25/outbox.cif.g09.slc.cpg/sg2_224_cif.got.tgz:447811.got - 2010.06.27 13:26:56.
