data_PCOD8030363
_publ_section_title
;
Structure prediction by ZEFSAII (Michael W. Deem and Ramdas Pophale) SiO2 
 PCOD8030363
Probable space group: P -1
;
_chemical_formula_sum "Si O2"
_cell_formula_units_Z 16
_cell_length_a 9.860546
_cell_length_b 11.623489
_cell_length_c 15.658175
_cell_angle_alpha 27.302083
_cell_angle_beta 60.734761
_cell_angle_gamma 62.104571
_cell_volume 715.590921
_symmetry_space_group_name_H-M "P -1"
_symmetry_group_IT_number 2
_symmetry_cell_setting 'triclinic'
loop_
_space_group_symop_operation_xyz
x,y,z
-x,-y,-z
loop_
_atom_site_type_symbol
_atom_site_label
_atom_site_fract_x
_atom_site_fract_y
_atom_site_fract_z
Si Si1 0.669288 0.556207 0.943392
Si Si2 0.174876 0.012964 0.469864
Si Si3 0.754398 0.648668 0.452637
Si Si4 0.168981 0.927052 0.187905
Si Si5 0.149735 0.947758 0.719094
Si Si6 0.732733 0.853803 0.151009
Si Si7 0.406438 0.572857 0.627223
Si Si8 0.427220 0.194654 0.019533
O O1 0.763569 0.711026 0.743525
O O2 0.658697 0.723460 0.921282
O O3 0.500000 0.500000 0.000000
O O4 0.766720 0.293871 0.101970
O O5 0.186023 0.941670 0.612411
O O6 0.285381 0.815128 0.512811
O O7 0.000000 0.000000 0.500000
O O8 0.838737 0.370888 0.620207
O O9 0.789431 0.801340 0.425538
O O10 0.821947 0.782650 0.259378
O O11 0.569508 0.659402 0.486972
O O12 0.035011 0.051664 0.208354
O O13 0.335474 0.985158 0.137092
O O14 0.147665 0.052373 0.017885
O O15 0.659619 0.603900 0.306564
O O16 0.601536 0.081054 0.058151
O O17 0.434256 0.439545 0.797546
#
# Coordination Sequence:
#
# PCOD8030363 Si02
#       8
#     2   2   2   2   2   2   2   2
#     4  12  28  47  73 105 146 191 237 295 360 425
#     4  12  29  47  74 106 143 193 242 291 354 432
#     4  12  25  43  72 102 140 184 235 292 349 421
#     4  11  25  44  67 102 141 183 234 292 351 413
#     4  12  29  46  68 104 149 190 228 295 358 428
#     4  11  23  41  72 103 132 179 238 292 346 411
#     4  11  22  43  73 100 137 178 238 294 344 410
#     4  11  21  44  73 101 137 181 234 298 349 410
#
# _framework density 22.359143
#
# number of rings (size 3 to 8) (size 9 to 14) (size 15 to 20)
#    0.000    0.500    3.750    4.500    8.750    3.500 
#    0.000    0.000    0.000    0.000    0.000    0.000 
#    0.000    0.000    0.000    0.000    0.000    0.000 
#
# Total GULP energy -198515.658008 kJ/mol
# GULP energy per Si atom -12407.228626 kJ/mol
# Density = 2.230825 g / cm^3
# Si number density = 22.359143 Si / 1000 Ang^3
#
#
#
# Elastic Constant Matrix: (Units=GPa)
#
#
# Indices 1 2 3 4 5 6 
#
# 1 71.4993 13.7914 39.3198 -6.5391 -1.7616 -4.3681
# 2 13.7914 84.9171 20.3338 -6.3693 4.6428 -9.3973
# 3 39.3198 20.3338 123.5621 -4.2387 1.6726 -4.1065
# 4 -6.5391 -6.3693 -4.2387 38.3691 -3.1033 0.2380
# 5 -1.7616 4.6428 1.6726 -3.1033 30.0554 2.3437
# 6 -4.3681 -9.3973 -4.1065 0.2380 2.3437 34.7280
#
#
#
# Elastic Compliance Matrix: (Units=1/GPa)
#
#
# Indices 1 2 3 4 5 6 
#
# 1 0.017447 -0.001382 -0.005233 0.002295 0.001681 0.001073
# 2 -0.001382 0.012955 -0.001501 0.001560 -0.002094 0.003285
# 3 -0.005233 -0.001501 0.010017 -0.000088 -0.000654 0.000165
# 4 0.002295 0.001560 -0.000088 0.026915 0.002651 0.000337
# 5 0.001681 -0.002094 -0.000654 0.002651 0.034219 -0.002760
# 6 0.001073 0.003285 0.000165 0.000337 -0.002760 0.030022
#
#
# Mechanical properties :
#
#
# Convention : Reuss Voigt Hill
#
# Bulk Modulus (GPa) = 41.34405 47.42984 44.38694
# Shear Modulus (GPa) = 32.07795 34.39940 33.23868
#
# Velocity S-wave (km/s) = 3.79181 3.92662 3.85980
# Velocity P-wave (km/s) = 6.14015 6.46657 6.30548
#
# Compressibility (1/GPa) = 0.02418728
#
# Stress axis : x y z
#
# Youngs Moduli (GPa) = 57.31530 77.19011 99.83315
#
# Poissons Ratio (x) = 0.10664 0.52243
# Poissons Ratio (y) = 0.07918 0.14988
# Poissons Ratio (z) = 0.29994 0.11588
#
# Static dielectric constant tensor:
#      x y z
#    x 3.903220 -0.065430 0.035970 
#    y -0.065430 4.082990 0.083730 
#    z 0.035970 0.083730 4.238260 
# 
# 
# High freq. dielectric constant tensor:
#      x y z
#    x 1.872060 -0.002950 0.005070 
#    y -0.002950 1.891550 0.001690 
#    z 0.005070 0.001690 1.898890 
# 
# From -- ./inp_files/427804.got.cif
#   From: 2010.06.25/outbox.cif.g09.slc.cpg/sg2_214_cif.got.tgz:427804.got - 2010.06.27 13:26:56.
