data_PCOD8030550
_publ_section_title
;
Structure prediction by ZEFSAII (Michael W. Deem and Ramdas Pophale) SiO2 
 PCOD8030550
Probable space group: P -1
;
_chemical_formula_sum "Si O2"
_cell_formula_units_Z 16
_cell_length_a 21.319527
_cell_length_b 11.593580
_cell_length_c 9.169130
_cell_angle_alpha 141.015130
_cell_angle_beta 145.435630
_cell_angle_gamma 35.094415
_cell_volume 700.992638
_symmetry_space_group_name_H-M "P -1"
_symmetry_group_IT_number 2
_symmetry_cell_setting 'triclinic'
loop_
_space_group_symop_operation_xyz
x,y,z
-x,-y,-z
loop_
_atom_site_type_symbol
_atom_site_label
_atom_site_fract_x
_atom_site_fract_y
_atom_site_fract_z
Si Si1 0.738540 0.133259 0.868765
Si Si2 0.043013 0.128968 0.605110
Si Si3 0.636989 0.889057 0.982915
Si Si4 0.860259 0.550139 0.241096
Si Si5 0.460430 0.740436 0.628785
Si Si6 0.278121 0.130480 0.187951
Si Si7 0.973535 0.109409 0.903241
Si Si8 0.211674 0.504079 0.634858
O O1 0.671251 0.145642 0.599991
O O2 0.672484 0.071903 0.811101
O O3 0.716089 0.362287 0.094332
O O4 0.888502 0.954425 0.966413
O O5 0.930717 0.351814 0.553607
O O6 0.100909 0.975987 0.424245
O O7 0.138715 0.188775 0.922587
O O8 0.000000 0.000000 0.500000
O O9 0.780928 0.760683 0.198858
O O10 0.562013 0.127133 0.135541
O O11 0.571186 0.750244 0.760021
O O12 0.632285 0.915575 0.825519
O O13 0.784341 0.576259 0.271442
O O14 0.000000 0.500000 0.500000
O O15 0.878301 0.357583 0.983936
O O16 0.500000 0.500000 0.500000
O O17 0.281064 0.312256 0.467463
O O18 0.000000 0.000000 0.000000
#
# Coordination Sequence:
#
# PCOD8030550 Si02
#       8
#     2   2   2   2   2   2   2   2
#     4  11  24  45  68  99 137 182 229 282 341 406
#     4  11  22  38  60  98 145 185 222 267 339 413
#     4  11  28  45  70 108 130 177 236 279 348 409
#     4  12  23  40  68 100 140 178 223 284 335 401
#     4  11  26  51  76  95 132 176 235 297 335 400
#     4  12  25  42  66  97 144 175 220 286 343 413
#     4  11  22  39  67 102 136 180 233 269 335 413
#     4  11  23  40  62  96 137 185 223 269 344 405
#
# _framework density 22.824776
#
# number of rings (size 3 to 8) (size 9 to 14) (size 15 to 20)
#    0.000    0.750    5.000    4.125    3.500    2.500 
#    0.000    1.250    0.000    0.000    0.000    0.000 
#    0.000    0.000    0.000    0.000    0.000    0.000 
#
# Total GULP energy -198397.417716 kJ/mol
# GULP energy per Si atom -12399.838607 kJ/mol
# Density = 2.277283 g / cm^3
# Si number density = 22.824776 Si / 1000 Ang^3
#
#
#
# Elastic Constant Matrix: (Units=GPa)
#
#
# Indices 1 2 3 4 5 6 
#
# 1 151.0105 40.5251 47.7653 32.6833 -28.1506 9.5943
# 2 40.5251 73.6155 21.0506 21.6221 -11.2478 8.4858
# 3 47.7653 21.0506 114.8326 29.3239 -17.9904 -5.6531
# 4 32.6833 21.6221 29.3239 39.4493 -1.0940 2.4622
# 5 -28.1506 -11.2478 -17.9904 -1.0940 38.9874 -4.6939
# 6 9.5943 8.4858 -5.6531 2.4622 -4.6939 29.0386
#
#
#
# Elastic Compliance Matrix: (Units=1/GPa)
#
#
# Indices 1 2 3 4 5 6 
#
# 1 0.010118 -0.002445 -0.001521 -0.005661 0.005553 -0.001547
# 2 -0.002445 0.017960 -0.000109 -0.007449 0.002749 -0.003386
# 3 -0.001521 -0.000109 0.012398 -0.008036 0.004898 0.004421
# 4 -0.005661 -0.007449 -0.008036 0.039992 -0.009110 -0.002381
# 5 0.005553 0.002749 0.004898 -0.009110 0.032989 0.004420
# 6 -0.001547 -0.003386 0.004421 -0.002381 0.004420 0.037714
#
#
# Mechanical properties :
#
#
# Convention : Reuss Voigt Hill
#
# Bulk Modulus (GPa) = 30.93532 62.01562 46.47547
# Shear Modulus (GPa) = 29.39506 36.83621 33.11564
#
# Velocity S-wave (km/s) = 3.59257 4.02166 3.81315
# Velocity P-wave (km/s) = 5.54901 6.98529 6.30816
#
# Compressibility (1/GPa) = 0.03232551
#
# Stress axis : x y z
#
# Youngs Moduli (GPa) = 98.83199 55.68041 80.65747
#
# Poissons Ratio (x) = 0.13617 0.12267
# Poissons Ratio (y) = 0.24169 0.00878
# Poissons Ratio (z) = 0.15031 0.00606
#
# Static dielectric constant tensor:
#      x y z
#    x 4.411430 0.029820 -0.280190 
#    y 0.029820 4.135550 0.198510 
#    z -0.280190 0.198510 4.579870 
# 
# 
# High freq. dielectric constant tensor:
#      x y z
#    x 1.898600 0.019470 -0.010780 
#    y 0.019470 1.886310 0.007260 
#    z -0.010780 0.007260 1.917360 
# 
# From -- ./inp_files/345752.got.cif
#   From: 2010.06.25/outbox.cif.g09.slc.cpg/sg2_173_cif.got.tgz:345752.got - 2010.06.27 13:26:56.
