data_PCOD8030061
_publ_section_title
;
Structure prediction by ZEFSAII (Michael W. Deem and Ramdas Pophale) SiO2 
 PCOD8030061
Probable space group: P -1
;
_chemical_formula_sum "Si O2"
_cell_formula_units_Z 16
_cell_length_a 15.072330
_cell_length_b 15.583906
_cell_length_c 8.378006
_cell_angle_alpha 120.953865
_cell_angle_beta 85.207278
_cell_angle_gamma 143.841920
_cell_volume 751.866681
_symmetry_space_group_name_H-M "P -1"
_symmetry_group_IT_number 2
_symmetry_cell_setting 'triclinic'
loop_
_space_group_symop_operation_xyz
x,y,z
-x,-y,-z
loop_
_atom_site_type_symbol
_atom_site_label
_atom_site_fract_x
_atom_site_fract_y
_atom_site_fract_z
Si Si1 0.959418 0.597194 0.954172
Si Si2 0.752874 0.455427 0.167072
Si Si3 0.042863 0.179139 0.323214
Si Si4 0.015321 0.571085 0.398650
Si Si5 0.014369 0.954892 0.292539
Si Si6 0.307589 0.080218 0.452825
Si Si7 0.693379 0.956180 0.214094
Si Si8 0.755289 0.552519 0.763622
O O1 0.881213 0.577260 0.790471
O O2 0.961764 0.482674 0.803615
O O3 0.804999 0.466645 0.994732
O O4 0.183434 0.856306 0.211213
O O5 0.881427 0.685075 0.399948
O O6 0.815650 0.435539 0.270161
O O7 0.522597 0.249775 0.028469
O O8 0.041027 0.059438 0.243251
O O9 0.193121 0.347639 0.317684
O O10 0.823149 0.002680 0.144758
O O11 0.000000 0.500000 0.500000
O O12 0.206659 0.834612 0.613189
O O13 0.204512 0.074484 0.389147
O O14 0.000000 0.000000 0.500000
O O15 0.816690 0.690691 0.030305
O O16 0.524646 0.293483 0.548391
O O17 0.327230 0.105710 0.663596
#
# Coordination Sequence:
#
# PCOD8030061 Si02
#       8
#     2   2   2   2   2   2   2   2
#     4  11  21  42  66  92 128 167 214 260 310 382
#     4  11  23  40  68  93 123 170 217 254 313 386
#     4  11  23  44  63  96 134 164 208 271 317 364
#     4  11  25  42  63  96 133 162 207 269 319 368
#     4  11  23  42  67  93 129 171 216 255 310 383
#     4  11  23  41  66  96 124 169 218 257 312 376
#     4  11  23  42  67  92 126 171 214 255 317 377
#     4  11  25  40  66  96 130 163 210 268 320 365
#
# _framework density 21.280369
#
# number of rings (size 3 to 8) (size 9 to 14) (size 15 to 20)
#    0.000    1.000    5.000    3.000    0.000    7.000 
#    0.000    0.000    0.000    0.000    0.000    0.000 
#    0.000    0.000    0.000    0.000    0.000    0.000 
#
# Total GULP energy -198433.380822 kJ/mol
# GULP energy per Si atom -12402.086301 kJ/mol
# Density = 2.123193 g / cm^3
# Si number density = 21.280369 Si / 1000 Ang^3
#
#
#
# Elastic Constant Matrix: (Units=GPa)
#
#
# Indices 1 2 3 4 5 6 
#
# 1 94.5479 15.4999 39.3360 20.9504 11.9083 -14.3100
# 2 15.4999 92.0424 9.8940 11.7266 19.8814 -3.4733
# 3 39.3360 9.8940 68.0632 15.7910 18.3737 7.1545
# 4 20.9504 11.7266 15.7910 33.5971 5.2664 4.0810
# 5 11.9083 19.8814 18.3737 5.2664 36.6067 0.9178
# 6 -14.3100 -3.4733 7.1545 4.0810 0.9178 36.7921
#
#
#
# Elastic Compliance Matrix: (Units=1/GPa)
#
#
# Indices 1 2 3 4 5 6 
#
# 1 0.017693 -0.000690 -0.009424 -0.007545 0.000197 0.009481
# 2 -0.000690 0.012849 0.001077 -0.003654 -0.006802 0.001310
# 3 -0.009424 0.001077 0.023978 -0.003454 -0.008866 -0.007622
# 4 -0.007545 -0.003654 -0.003454 0.038064 0.000868 -0.006852
# 5 0.000197 -0.006802 -0.008866 0.000868 0.035268 0.000183
# 6 0.009481 0.001310 -0.007622 -0.006852 0.000183 0.033229
#
#
# Mechanical properties :
#
#
# Convention : Reuss Voigt Hill
#
# Bulk Modulus (GPa) = 27.43807 42.67926 35.05866
# Shear Modulus (GPa) = 26.13649 34.06073 30.09861
#
# Velocity S-wave (km/s) = 3.50837 4.00505 3.76491
# Velocity P-wave (km/s) = 5.41600 6.44100 5.95061
#
# Compressibility (1/GPa) = 0.03644572
#
# Stress axis : x y z
#
# Youngs Moduli (GPa) = 56.52088 77.82631 41.70460
#
# Poissons Ratio (x) = 0.05370 0.39303
# Poissons Ratio (y) = 0.03900 -0.04492
# Poissons Ratio (z) = 0.53266 -0.08382
#
# Static dielectric constant tensor:
#      x y z
#    x 4.109840 -0.221400 -0.009650 
#    y -0.221400 3.754300 0.013070 
#    z -0.009650 0.013070 3.969390 
# 
# 
# High freq. dielectric constant tensor:
#      x y z
#    x 1.841570 -0.014770 0.002690 
#    y -0.014770 1.832110 -0.005940 
#    z 0.002690 -0.005940 1.833730 
# 
# From -- ./inp_files/215081.got.cif
#   From: 2010.06.25/outbox.cif.g09.slc.cpg/sg2_108_cif.got.tgz:215081.got - 2010.06.27 13:26:56.
