data_PCOD8030451
_publ_section_title
;
Structure prediction by ZEFSAII (Michael W. Deem and Ramdas Pophale) SiO2 
 PCOD8030451
Probable space group: P -1
;
_chemical_formula_sum "Si O2"
_cell_formula_units_Z 16
_cell_length_a 8.963258
_cell_length_b 12.992912
_cell_length_c 12.235304
_cell_angle_alpha 137.511809
_cell_angle_beta 54.298921
_cell_angle_gamma 132.927582
_cell_volume 695.119671
_symmetry_space_group_name_H-M "P -1"
_symmetry_group_IT_number 2
_symmetry_cell_setting 'triclinic'
loop_
_space_group_symop_operation_xyz
x,y,z
-x,-y,-z
loop_
_atom_site_type_symbol
_atom_site_label
_atom_site_fract_x
_atom_site_fract_y
_atom_site_fract_z
Si Si1 0.330930 0.511686 0.003591
Si Si2 0.048702 0.792542 0.602524
Si Si3 0.640174 0.368286 0.137315
Si Si4 0.931353 0.219732 0.863894
Si Si5 0.230791 0.046783 0.097786
Si Si6 0.687357 0.461081 0.414591
Si Si7 0.223311 0.819002 0.315149
Si Si8 0.360510 0.874681 0.717156
O O1 0.421984 0.540354 0.862489
O O2 0.130695 0.325738 0.936358
O O3 0.500000 0.500000 0.000000
O O4 0.269380 0.655623 0.186339
O O5 0.970179 0.921212 0.790398
O O6 0.860732 0.602090 0.525995
O O7 0.156138 0.864576 0.495751
O O8 0.212160 0.783574 0.607830
O O9 0.434964 0.222896 0.163708
O O10 0.780620 0.476757 0.264422
O O11 0.792754 0.314143 0.967711
O O12 0.960846 0.194015 0.701724
O O13 0.778543 0.053351 0.865383
O O14 0.246031 0.948210 0.906644
O O15 0.500000 0.500000 0.500000
O O16 0.603986 0.272980 0.354595
O O17 0.431098 0.976281 0.303374
#
# Coordination Sequence:
#
# PCOD8030451 Si02
#       8
#     2   2   2   2   2   2   2   2
#     4  11  25  42  72 107 143 187 241 296 358 434
#     4  12  28  46  69 110 152 186 237 301 369 421
#     4  11  21  46  71 102 140 188 240 294 349 433
#     4  11  22  43  77 101 140 189 241 291 358 427
#     4  12  24  44  79 105 141 186 250 290 356 430
#     4  12  25  46  73 106 142 189 242 301 358 424
#     4  11  25  48  72 101 148 191 236 296 368 422
#     4  12  26  49  75 102 147 194 239 297 362 431
#
# _framework density 23.017617000000001
#
# number of rings (size 3 to 8) (size 9 to 14) (size 15 to 20)
#    0.000    0.500    5.000    5.250    1.750    2.500 
#    2.250    0.000    0.000    0.000    0.000    0.000 
#    0.000    0.000    0.000    0.000    0.000    0.000 
#
# Total GULP energy -198235.992574 kJ/mol
# GULP energy per Si atom -12389.749536 kJ/mol
# Density = 2.296523 g / cm^3
# Si number density = 23.017617 Si / 1000 Ang^3
#
#
#
# Elastic Constant Matrix: (Units=GPa)
#
#
# Indices 1 2 3 4 5 6 
#
# 1 128.4454 28.8629 29.6071 -0.4778 13.1335 -3.1245
# 2 28.8629 116.3084 42.4284 -7.8285 -5.5979 -5.6974
# 3 29.6071 42.4284 90.9308 -5.5701 -0.3751 -6.3260
# 4 -0.4778 -7.8285 -5.5701 29.1034 0.6375 5.7761
# 5 13.1335 -5.5979 -0.3751 0.6375 32.6563 -3.7461
# 6 -3.1245 -5.6974 -6.3260 5.7761 -3.7461 29.4162
#
#
#
# Elastic Compliance Matrix: (Units=1/GPa)
#
#
# Indices 1 2 3 4 5 6 
#
# 1 0.009078 -0.001678 -0.002242 -0.000598 -0.003979 -0.000232
# 2 -0.001678 0.010894 -0.004347 0.001823 0.002568 0.000966
# 3 -0.002242 -0.004347 0.013948 0.001102 0.000498 0.001766
# 4 -0.000598 0.001823 0.001102 0.036409 -0.000918 -0.006740
# 5 -0.003979 0.002568 0.000498 -0.000918 0.033213 0.004592
# 6 -0.000232 0.000966 0.001766 -0.006740 0.004592 0.036445
#
#
# Mechanical properties :
#
#
# Convention : Reuss Voigt Hill
#
# Bulk Modulus (GPa) = 57.51936 59.72016 58.61976
# Shear Modulus (GPa) = 30.80379 33.88759 32.34569
#
# Velocity S-wave (km/s) = 3.66221 3.84115 3.75274
# Velocity P-wave (km/s) = 6.55178 6.75828 6.65583
#
# Compressibility (1/GPa) = 0.01738545
#
# Stress axis : x y z
#
# Youngs Moduli (GPa) = 110.15228 91.79650 71.69363
#
# Poissons Ratio (x) = 0.15405 0.16075
# Poissons Ratio (y) = 0.18485 0.31166
# Poissons Ratio (z) = 0.24697 0.39905
#
# Static dielectric constant tensor:
#      x y z
#    x 3.928020 0.012900 -0.046260 
#    y 0.012900 4.133300 0.091700 
#    z -0.046260 0.091700 3.892960 
# 
# 
# High freq. dielectric constant tensor:
#      x y z
#    x 1.909450 -0.003860 0.018150 
#    y -0.003860 1.920310 -0.008210 
#    z 0.018150 -0.008210 1.911620 
# 
# From -- ./inp_files/393035.got.cif
#   From: 2010.06.25/outbox.cif.g09.slc.cpg/sg2_197_cif.got.tgz:393035.got - 2010.06.27 13:26:56.
