data_PCOD8030069
_publ_section_title
;
Structure prediction by ZEFSAII (Michael W. Deem and Ramdas Pophale) SiO2 
 PCOD8030069
Probable space group: P -1
;
_chemical_formula_sum "Si O2"
_cell_formula_units_Z 16
_cell_length_a 10.976261
_cell_length_b 20.148740
_cell_length_c 17.164716
_cell_angle_alpha 150.068513
_cell_angle_beta 146.063395
_cell_angle_gamma 21.930962
_cell_volume 700.650321
_symmetry_space_group_name_H-M "P -1"
_symmetry_group_IT_number 2
_symmetry_cell_setting 'triclinic'
loop_
_space_group_symop_operation_xyz
x,y,z
-x,-y,-z
loop_
_atom_site_type_symbol
_atom_site_label
_atom_site_fract_x
_atom_site_fract_y
_atom_site_fract_z
Si Si1 0.971698 0.968273 0.594890
Si Si2 0.291629 0.086839 0.841887
Si Si3 0.055431 0.511473 0.879782
Si Si4 0.533167 0.643006 0.208185
Si Si5 0.605308 0.313183 0.328225
Si Si6 0.295520 0.166090 0.751535
Si Si7 0.020519 0.783829 0.970566
Si Si8 0.051455 0.029923 0.144596
O O1 0.588134 0.185059 0.623828
O O2 0.177012 0.985048 0.672173
O O3 0.961446 0.832057 0.407237
O O4 0.123344 0.882087 0.673383
O O5 0.386828 0.104885 0.827461
O O6 0.625369 0.946446 0.928373
O O7 0.983801 0.317041 0.941171
O O8 0.317696 0.369413 0.805885
O O9 0.127184 0.384574 0.863510
O O10 0.707601 0.636426 0.784426
O O11 0.794304 0.434689 0.183872
O O12 0.186026 0.723342 0.083595
O O13 0.500000 0.500000 0.500000
O O14 0.752869 0.245954 0.249334
O O15 0.643288 0.006464 0.727978
O O16 0.140299 0.853591 0.055857
O O17 0.000000 0.000000 0.000000
#
# Coordination Sequence:
#
# PCOD8030069 Si02
#       8
#     2   2   2   2   2   2   2   2
#     4  12  26  46  67  99 145 183 228 286 357 417
#     4  12  25  45  68 100 141 184 232 289 343 416
#     4  12  23  42  73 100 136 179 235 290 342 413
#     4  11  24  40  69 105 128 174 233 289 344 408
#     4  12  25  44  71 107 141 180 229 296 357 410
#     4  12  26  44  68 101 141 185 228 282 356 419
#     4  11  21  42  67 102 128 176 235 290 339 400
#     4  12  24  47  74 101 139 184 238 288 348 421
#
# _framework density 22.835926000000001
#
# number of rings (size 3 to 8) (size 9 to 14) (size 15 to 20)
#    0.000    0.250    6.250    3.000    1.750    2.500 
#    0.000    0.625    0.000    0.000    0.000    0.000 
#    0.000    0.000    0.000    0.000    0.000    0.000 
#
# Total GULP energy -198234.867501 kJ/mol
# GULP energy per Si atom -12389.679219 kJ/mol
# Density = 2.278395 g / cm^3
# Si number density = 22.835926 Si / 1000 Ang^3
#
#
#
# Elastic Constant Matrix: (Units=GPa)
#
#
# Indices 1 2 3 4 5 6 
#
# 1 124.4817 42.4365 41.3570 12.2030 10.2690 1.6002
# 2 42.4365 120.7511 33.9240 14.7188 1.2099 -1.0071
# 3 41.3570 33.9240 82.3301 2.3112 12.0434 -2.1264
# 4 12.2030 14.7188 2.3112 38.5329 -2.9093 3.7217
# 5 10.2690 1.2099 12.0434 -2.9093 39.8048 2.2591
# 6 1.6002 -1.0071 -2.1264 3.7217 2.2591 30.4427
#
#
#
# Elastic Compliance Matrix: (Units=1/GPa)
#
#
# Indices 1 2 3 4 5 6 
#
# 1 0.010516 -0.002261 -0.004073 -0.002289 -0.001550 -0.000517
# 2 -0.002261 0.010327 -0.003164 -0.003017 0.000976 0.000536
# 3 -0.004073 -0.003164 0.016041 0.001125 -0.003702 0.001367
# 4 -0.002289 -0.003017 0.001125 0.028302 0.002612 -0.003555
# 5 -0.001550 0.000976 -0.003702 0.002612 0.026944 -0.002464
# 6 -0.000517 0.000536 0.001367 -0.003555 -0.002464 0.033606
#
#
# Mechanical properties :
#
#
# Convention : Reuss Voigt Hill
#
# Bulk Modulus (GPa) = 55.90177 62.55531 59.22854
# Shear Modulus (GPa) = 33.17917 35.74579 34.46248
#
# Velocity S-wave (km/s) = 3.81588 3.96072 3.88897
# Velocity P-wave (km/s) = 6.62929 6.95480 6.79399
#
# Compressibility (1/GPa) = 0.01788852
#
# Stress axis : x y z
#
# Youngs Moduli (GPa) = 95.08940 96.82939 62.33927
#
# Poissons Ratio (x) = 0.21895 0.25393
# Poissons Ratio (y) = 0.21502 0.19722
# Poissons Ratio (z) = 0.38733 0.30634
#
# Static dielectric constant tensor:
#      x y z
#    x 4.278730 -0.131490 0.045330 
#    y -0.131490 4.576290 0.210170 
#    z 0.045330 0.210170 4.046860 
# 
# 
# High freq. dielectric constant tensor:
#      x y z
#    x 1.907640 -0.001790 0.018790 
#    y -0.001790 1.914110 0.005800 
#    z 0.018790 0.005800 1.881570 
# 
# From -- ./inp_files/570757.got.cif
#   From: 2010.06.25/outbox.cif.g09.slc.cpg/sg2_286_cif.got.tgz:570757.got - 2010.06.27 13:26:56.
