data_PCOD8030347
_publ_section_title
;
Structure prediction by ZEFSAII (Michael W. Deem and Ramdas Pophale) SiO2 
 PCOD8030347
Probable space group: P -1
;
_chemical_formula_sum "Si O2"
_cell_formula_units_Z 16
_cell_length_a 11.137216
_cell_length_b 16.908510
_cell_length_c 8.434922
_cell_angle_alpha 53.820152
_cell_angle_beta 55.904574
_cell_angle_gamma 31.571797
_cell_volume 665.002216
_symmetry_space_group_name_H-M "P -1"
_symmetry_group_IT_number 2
_symmetry_cell_setting 'triclinic'
loop_
_space_group_symop_operation_xyz
x,y,z
-x,-y,-z
loop_
_atom_site_type_symbol
_atom_site_label
_atom_site_fract_x
_atom_site_fract_y
_atom_site_fract_z
Si Si1 0.683873 0.496184 0.585075
Si Si2 0.376245 0.138606 0.810319
Si Si3 0.811827 0.950502 0.519021
Si Si4 0.900281 0.850623 0.238649
Si Si5 0.655025 0.592718 0.836837
Si Si6 0.069508 0.466348 0.807117
Si Si7 0.205243 0.675167 0.769888
Si Si8 0.858398 0.129591 0.149757
O O1 0.659635 0.571744 0.672212
O O2 0.794522 0.504341 0.356330
O O3 0.432279 0.590321 0.605602
O O4 0.840744 0.320046 0.711445
O O5 0.214573 0.161866 0.785812
O O6 0.228469 0.291844 0.841652
O O7 0.570480 0.093749 0.619107
O O8 0.500000 0.000000 0.000000
O O9 0.755037 0.930974 0.414039
O O10 0.986782 0.789297 0.678394
O O11 0.932778 0.992616 0.351090
O O12 0.939418 0.942176 0.037492
O O13 0.390861 0.756908 0.885288
O O14 0.827304 0.593710 0.737767
O O15 0.756236 0.452071 0.035631
O O16 0.000000 0.500000 0.000000
O O17 0.155797 0.772180 0.836974
#
# Coordination Sequence:
#
# PCOD8030347 Si02
#       8
#     2   2   2   2   2   2   2   2
#     4  11  23  43  75 100 141 183 243 293 349 413
#     4  12  27  50  71 101 149 190 231 293 365 426
#     4  12  28  42  72 105 147 188 233 290 363 430
#     4  12  25  45  73 103 141 190 237 289 357 430
#     4  11  21  44  72 100 137 186 235 290 355 421
#     4  12  28  44  72 107 138 184 244 300 348 421
#     4  11  22  45  72 104 139 188 234 289 361 419
#     4  11  22  44  69 104 136 184 236 294 353 422
#
# _framework density 24.06007
#
# number of rings (size 3 to 8) (size 9 to 14) (size 15 to 20)
#    0.000    0.500    3.750    5.250    5.250    3.500 
#    0.000    0.000    0.000    0.000    0.000    0.000 
#    0.000    0.000    0.000    0.000    0.000    0.000 
#
# Total GULP energy -198430.032102 kJ/mol
# GULP energy per Si atom -12401.877006 kJ/mol
# Density = 2.400531 g / cm^3
# Si number density = 24.060070 Si / 1000 Ang^3
#
#
#
# Elastic Constant Matrix: (Units=GPa)
#
#
# Indices 1 2 3 4 5 6 
#
# 1 50.1720 39.9309 19.4987 18.1862 -3.4048 -7.1543
# 2 39.9309 89.7870 44.4628 12.7895 15.6066 -9.2670
# 3 19.4987 44.4628 125.4350 22.1148 -5.1415 -15.1017
# 4 18.1862 12.7895 22.1148 48.3452 0.2038 -2.1977
# 5 -3.4048 15.6066 -5.1415 0.2038 35.7236 7.2982
# 6 -7.1543 -9.2670 -15.1017 -2.1977 7.2982 21.0783
#
#
#
# Elastic Compliance Matrix: (Units=1/GPa)
#
#
# Indices 1 2 3 4 5 6 
#
# 1 0.039378 -0.019683 0.003556 -0.011207 0.012573 0.001738
# 2 -0.019683 0.025931 -0.006788 0.003968 -0.015345 0.005583
# 3 0.003556 -0.006788 0.011329 -0.004538 0.004049 0.004464
# 4 -0.011207 0.003968 -0.004538 0.025874 -0.003302 -0.001470
# 5 0.012573 -0.015345 0.004049 -0.003302 0.039257 -0.013515
# 6 0.001738 0.005583 0.004464 -0.001470 -0.013515 0.058211
#
#
# Mechanical properties :
#
#
# Convention : Reuss Voigt Hill
#
# Bulk Modulus (GPa) = 32.45974 52.57541 42.51758
# Shear Modulus (GPa) = 19.52506 31.79619 25.66063
#
# Velocity S-wave (km/s) = 2.85180 3.63923 3.26931
# Velocity P-wave (km/s) = 4.93600 6.28950 5.65340
#
# Compressibility (1/GPa) = 0.03080739
#
# Stress axis : x y z
#
# Youngs Moduli (GPa) = 25.39480 38.56378 88.26645
#
# Poissons Ratio (x) = 0.75907 -0.31390
# Poissons Ratio (y) = 0.49986 0.59919
# Poissons Ratio (z) = -0.09031 0.26179
#
# Static dielectric constant tensor:
#      x y z
#    x 4.397880 -0.296110 -0.044860 
#    y -0.296110 4.642760 0.107880 
#    z -0.044860 0.107880 4.629050 
# 
# 
# High freq. dielectric constant tensor:
#      x y z
#    x 1.948320 -0.002320 -0.006960 
#    y -0.002320 1.956620 0.009860 
#    z -0.006960 0.009860 1.969640 
# 
# From -- ./inp_files/278953.got.cif
#   From: 2010.06.25/outbox.cif.g09.slc.cpg/sg2_140_cif.got.tgz:278953.got - 2010.06.27 13:26:56.
