data_PCOD8030528
_publ_section_title
;
Structure prediction by ZEFSAII (Michael W. Deem and Ramdas Pophale) SiO2 
 PCOD8030528
Probable space group: P -1
;
_chemical_formula_sum "Si O2"
_cell_formula_units_Z 16
_cell_length_a 11.864564
_cell_length_b 14.867091
_cell_length_c 9.561225
_cell_angle_alpha 137.371169
_cell_angle_beta 68.683196
_cell_angle_gamma 133.442532
_cell_volume 793.766380
_symmetry_space_group_name_H-M "P -1"
_symmetry_group_IT_number 2
_symmetry_cell_setting 'triclinic'
loop_
_space_group_symop_operation_xyz
x,y,z
-x,-y,-z
loop_
_atom_site_type_symbol
_atom_site_label
_atom_site_fract_x
_atom_site_fract_y
_atom_site_fract_z
Si Si1 0.874731 0.567025 0.213760
Si Si2 0.465979 0.785702 0.153126
Si Si3 0.357595 0.994918 0.104924
Si Si4 0.759506 0.922881 0.004635
Si Si5 0.529846 0.134928 0.448722
Si Si6 0.104982 0.264561 0.332096
Si Si7 0.033429 0.642401 0.956541
Si Si8 0.849347 0.473024 0.588438
O O1 0.871129 0.687882 0.459703
O O2 0.989379 0.691785 0.173531
O O3 0.696238 0.396514 0.045733
O O4 0.965781 0.513676 0.189710
O O5 0.467691 0.776297 0.310150
O O6 0.475837 0.945311 0.284888
O O7 0.623645 0.822430 0.071338
O O8 0.319340 0.074713 0.096368
O O9 0.406831 0.105075 0.354051
O O10 0.200751 0.795591 0.982371
O O11 0.500000 0.000000 0.000000
O O12 0.806653 0.807261 0.821297
O O13 0.915154 0.120231 0.211475
O O14 0.703412 0.263713 0.440323
O O15 0.194749 0.445074 0.409439
O O16 0.891288 0.572044 0.830734
O O17 0.000000 0.500000 0.500000
#
# Coordination Sequence:
#
# PCOD8030528 Si02
#       8
#     2   2   2   2   2   2   2   2
#     4  11  23  39  62  96 130 163 206 256 320 366
#     4  11  23  41  60  95 132 163 204 257 318 371
#     4  12  22  41  65  97 125 163 213 259 309 368
#     4  11  25  45  64  91 127 167 211 257 315 374
#     4  11  24  37  65  96 127 162 205 261 315 366
#     4  11  26  43  66  91 125 170 209 258 315 372
#     4  11  22  37  63  96 128 160 206 266 306 369
#     4  12  21  39  64  95 123 164 212 258 306 366
#
# _framework density 20.157064999999999
#
# number of rings (size 3 to 8) (size 9 to 14) (size 15 to 20)
#    0.000    0.750    6.250    1.500    3.500    0.500 
#    0.000    2.500    0.000    0.000    0.000    0.000 
#    0.000    0.000    0.000    0.000    0.000    0.000 
#
# Total GULP energy -198390.693026 kJ/mol
# GULP energy per Si atom -12399.418314 kJ/mol
# Density = 2.011119 g / cm^3
# Si number density = 20.157065 Si / 1000 Ang^3
#
#
#
# Elastic Constant Matrix: (Units=GPa)
#
#
# Indices 1 2 3 4 5 6 
#
# 1 90.0009 27.0016 36.0557 -6.8601 7.6112 -0.4547
# 2 27.0016 93.1236 18.2282 -4.8167 -5.0070 6.0354
# 3 36.0557 18.2282 109.0646 -14.6913 12.0559 -3.4996
# 4 -6.8601 -4.8167 -14.6913 29.8954 2.6299 5.9540
# 5 7.6112 -5.0070 12.0559 2.6299 32.2922 -4.3794
# 6 -0.4547 6.0354 -3.4996 5.9540 -4.3794 28.3433
#
#
#
# Elastic Compliance Matrix: (Units=1/GPa)
#
#
# Indices 1 2 3 4 5 6 
#
# 1 0.013867 -0.003390 -0.003587 0.001125 -0.002564 -0.000131
# 2 -0.003390 0.012318 -0.001203 0.000891 0.002734 -0.002591
# 3 -0.003587 -0.001203 0.011699 0.005110 -0.004134 -0.000069
# 4 0.001125 0.000891 0.005110 0.038642 -0.006353 -0.008640
# 5 -0.002564 0.002734 -0.004134 -0.006353 0.034813 0.005580
# 6 -0.000131 -0.002591 -0.000069 -0.008640 0.005580 0.038500
#
#
# Mechanical properties :
#
#
# Convention : Reuss Voigt Hill
#
# Bulk Modulus (GPa) = 46.46159 50.52891 48.49525
# Shear Modulus (GPa) = 28.83944 32.16643 30.50293
#
# Velocity S-wave (km/s) = 3.78661 3.99907 3.89429
# Velocity P-wave (km/s) = 6.49752 6.81509 6.65819
#
# Compressibility (1/GPa) = 0.02152316
#
# Stress axis : x y z
#
# Youngs Moduli (GPa) = 72.11410 81.18286 85.47835
#
# Poissons Ratio (x) = 0.27520 0.30661
# Poissons Ratio (y) = 0.24446 0.10287
# Poissons Ratio (z) = 0.25867 0.09770
#
# Static dielectric constant tensor:
#      x y z
#    x 3.795730 -0.056930 0.591430 
#    y -0.056930 4.011730 -0.326730 
#    z 0.591430 -0.326730 4.077250 
# 
# 
# High freq. dielectric constant tensor:
#      x y z
#    x 1.764970 0.009590 0.033080 
#    y 0.009590 1.803180 -0.016410 
#    z 0.033080 -0.016410 1.788800 
# 
# From -- ./inp_files/189439.got.cif
#   From: 2010.06.25/outbox.cif.g09.slc.cpg/sg2_95_cif.got.tgz:189439.got - 2010.06.27 13:26:56.
