data_PCOD8030607
_publ_section_title
;
Structure prediction by ZEFSAII (Michael W. Deem and Ramdas Pophale) SiO2 
 PCOD8030607
Probable space group: P -1
;
_chemical_formula_sum "Si O2"
_cell_formula_units_Z 16
_cell_length_a 9.697581
_cell_length_b 9.255885
_cell_length_c 28.336613
_cell_angle_alpha 49.167213
_cell_angle_beta 141.770707
_cell_angle_gamma 100.869222
_cell_volume 857.087527
_symmetry_space_group_name_H-M "P -1"
_symmetry_group_IT_number 2
_symmetry_cell_setting 'triclinic'
loop_
_space_group_symop_operation_xyz
x,y,z
-x,-y,-z
loop_
_atom_site_type_symbol
_atom_site_label
_atom_site_fract_x
_atom_site_fract_y
_atom_site_fract_z
Si Si1 0.813663 0.244294 0.618093
Si Si2 0.287721 0.977479 0.584219
Si Si3 0.910298 0.653115 0.153003
Si Si4 0.634206 0.941397 0.599754
Si Si5 0.758065 0.894538 0.158034
Si Si6 0.007095 0.491314 0.559053
Si Si7 0.160835 0.626411 0.132432
Si Si8 0.445032 0.850148 0.158637
O O1 0.500000 0.500000 0.500000
O O2 0.055122 0.074569 0.763225
O O3 0.912228 0.340631 0.585143
O O4 0.748675 0.085373 0.609326
O O5 0.366925 0.019529 0.545692
O O6 0.602189 0.685742 0.750467
O O7 0.000000 0.000000 0.500000
O O8 0.206732 0.205581 0.546328
O O9 0.962923 0.706672 0.208279
O O10 0.049848 0.362082 0.247500
O O11 0.091909 0.680220 0.158817
O O12 0.552271 0.830068 0.005727
O O13 0.500000 0.000000 0.500000
O O14 0.678551 0.759770 0.197973
O O15 0.364217 0.306300 0.709402
O O16 0.000000 0.500000 0.500000
O O17 0.297811 0.740729 0.125715
O O18 0.814788 0.826207 0.972744
#
# Coordination Sequence:
#
# PCOD8030607 Si02
#       8
#     2   2   2   2   2   2   2   2
#     4  11  22  39  57  81 117 154 186 241 293 337
#     4  11  22  39  59  87 115 151 192 243 284 342
#     4   9  19  35  57  86 112 148 192 232 280 349
#     4  11  24  37  59  87 114 150 198 240 288 343
#     4   9  19  36  58  82 116 150 187 231 289 344
#     4  11  24  39  58  85 117 156 190 233 296 347
#     4   9  18  34  59  83 112 145 191 237 278 331
#     4   9  18  35  57  83 111 150 187 230 285 334
#
# _framework density 18.667871999999999
#
# number of rings (size 3 to 8) (size 9 to 14) (size 15 to 20)
#    0.000    2.000    2.500    0.750    3.500    1.500 
#    0.000    0.625    0.000    0.000    0.000    0.000 
#    0.000    0.000    0.000    0.000    0.000    0.000 
#
# Total GULP energy -198224.329297 kJ/mol
# GULP energy per Si atom -12389.020581 kJ/mol
# Density = 1.862538 g / cm^3
# Si number density = 18.667872 Si / 1000 Ang^3
#
#
#
# Elastic Constant Matrix: (Units=GPa)
#
#
# Indices 1 2 3 4 5 6 
#
# 1 87.2741 52.3111 43.9142 1.8315 -2.7156 -10.8465
# 2 52.3111 124.2695 51.2921 -3.6253 -4.4601 -6.6049
# 3 43.9142 51.2921 116.0218 -8.2327 -6.8042 -17.3199
# 4 1.8315 -3.6253 -8.2327 33.7419 -3.1681 -1.1554
# 5 -2.7156 -4.4601 -6.8042 -3.1681 27.2430 3.9758
# 6 -10.8465 -6.6049 -17.3199 -1.1554 3.9758 32.8829
#
#
#
# Elastic Compliance Matrix: (Units=1/GPa)
#
#
# Indices 1 2 3 4 5 6 
#
# 1 0.017066 -0.005563 -0.003850 -0.002455 -0.000821 0.002497
# 2 -0.005563 0.011669 -0.003125 0.000831 0.000849 -0.001211
# 3 -0.003850 -0.003125 0.012483 0.003257 0.001936 0.004558
# 4 -0.002455 0.000831 0.003257 0.031094 0.004077 0.001672
# 5 -0.000821 0.000849 0.001936 0.004077 0.038241 -0.003561
# 6 0.002497 -0.001211 0.004558 0.001672 -0.003561 0.033881
#
#
# Mechanical properties :
#
#
# Convention : Reuss Voigt Hill
#
# Bulk Modulus (GPa) = 61.95025 69.17779 65.56402
# Shear Modulus (GPa) = 28.58922 30.77677 29.68300
#
# Velocity S-wave (km/s) = 3.91764 4.06476 3.99188
# Velocity P-wave (km/s) = 7.32949 7.69203 7.51295
#
# Compressibility (1/GPa) = 0.01614199
#
# Stress axis : x y z
#
# Youngs Moduli (GPa) = 58.59558 85.69592 80.11117
#
# Poissons Ratio (x) = 0.47676 0.30839
# Poissons Ratio (y) = 0.32599 0.25035
# Poissons Ratio (z) = 0.22557 0.26780
#
# Static dielectric constant tensor:
#      x y z
#    x 3.631540 0.034480 0.131650 
#    y 0.034480 3.190700 -0.064270 
#    z 0.131650 -0.064270 4.391310 
# 
# 
# High freq. dielectric constant tensor:
#      x y z
#    x 1.734610 0.006070 0.002480 
#    y 0.006070 1.693990 -0.010470 
#    z 0.002480 -0.010470 1.744920 
# 
# From -- ./inp_files/203107.got.cif
#   From: 2010.06.25/outbox.cif.g09.slc.cpg/sg2_102_cif.got.tgz:203107.got - 2010.06.27 13:26:56.
