data_PCOD8030534
_publ_section_title
;
Structure prediction by ZEFSAII (Michael W. Deem and Ramdas Pophale) SiO2 
 PCOD8030534
Probable space group: P -1
;
_chemical_formula_sum "Si O2"
_cell_formula_units_Z 14
_cell_length_a 9.597753
_cell_length_b 15.861443
_cell_length_c 16.619641
_cell_angle_alpha 154.624855
_cell_angle_beta 134.755479
_cell_angle_gamma 62.809995
_cell_volume 622.275021
_symmetry_space_group_name_H-M "P -1"
_symmetry_group_IT_number 2
_symmetry_cell_setting 'triclinic'
loop_
_space_group_symop_operation_xyz
x,y,z
-x,-y,-z
loop_
_atom_site_type_symbol
_atom_site_label
_atom_site_fract_x
_atom_site_fract_y
_atom_site_fract_z
Si Si1 0.846159 0.714695 0.347889
Si Si2 0.641767 0.834018 0.045054
Si Si3 0.771297 0.072778 0.865127
Si Si4 0.279818 0.395934 0.612215
Si Si5 0.520758 0.176532 0.728707
Si Si6 0.804620 0.177524 0.156215
Si Si7 0.742528 0.729644 0.831646
O O1 0.784215 0.651544 0.362007
O O2 0.729922 0.851281 0.388181
O O3 0.731877 0.459838 0.035316
O O4 0.134273 0.894293 0.603348
O O5 0.538142 0.655271 0.926094
O O6 0.423166 0.830115 0.912807
O O7 0.732458 0.735183 0.928900
O O8 0.575278 0.103464 0.772667
O O9 0.695334 0.803543 0.588442
O O10 0.781784 0.119953 0.003712
O O11 0.031147 0.275952 0.104888
O O12 0.077234 0.413715 0.497193
O O13 0.500000 0.000000 0.500000
O O14 0.798136 0.973483 0.027903
O O15 0.500000 0.500000 0.500000
#
# Coordination Sequence:
#
# PCOD8030534 Si02
#       7
#     2   2   2   2   2   2   2
#     4  11  25  45  72 101 132 179 234 288 334 405
#     4  12  23  41  66 104 137 175 228 279 333 409
#     4  11  22  43  68  96 137 185 220 277 344 399
#     4  11  22  43  68 100 145 174 220 277 339 409
#     4  11  23  47  73  93 133 183 230 286 350 393
#     4  11  23  39  63 103 143 176 217 271 345 407
#     4  11  22  37  64  99 141 175 223 272 331 414
#
# _framework density 22.498090999999999
#
# number of rings (size 3 to 8) (size 9 to 14) (size 15 to 20)
#    0.000    0.857    4.286    5.143    2.000    0.000 
#    2.571    7.143    0.000    0.000    0.000    0.000 
#    0.000    0.000    0.000    0.000    0.000    0.000 
#
# Total GULP energy -173614.896015 kJ/mol
# GULP energy per Si atom -12401.064001 kJ/mol
# Density = 2.244688 g / cm^3
# Si number density = 22.498091 Si / 1000 Ang^3
#
#
#
# Elastic Constant Matrix: (Units=GPa)
#
#
# Indices 1 2 3 4 5 6 
#
# 1 88.5587 35.6709 43.5289 4.7317 8.9086 5.3145
# 2 35.6709 102.9885 17.9576 -14.3013 17.5005 -7.1664
# 3 43.5289 17.9576 147.1973 6.3641 13.6446 4.3239
# 4 4.7317 -14.3013 6.3641 26.4027 -1.2648 3.3097
# 5 8.9086 17.5005 13.6446 -1.2648 43.4809 6.1091
# 6 5.3145 -7.1664 4.3239 3.3097 6.1091 32.0952
#
#
#
# Elastic Compliance Matrix: (Units=1/GPa)
#
#
# Indices 1 2 3 4 5 6 
#
# 1 0.015835 -0.005785 -0.003737 -0.004664 0.000547 -0.003033
# 2 -0.005785 0.013899 -0.000003 0.007816 -0.004765 0.004163
# 3 -0.003737 -0.000003 0.008128 -0.001380 -0.001825 0.000013
# 4 -0.004664 0.007816 -0.001380 0.043482 -0.000249 -0.001733
# 5 0.000547 -0.004765 -0.001825 -0.000249 0.026195 -0.005869
# 6 -0.003033 0.004163 0.000013 -0.001733 -0.005869 0.033883
#
#
# Mechanical properties :
#
#
# Convention : Reuss Voigt Hill
#
# Bulk Modulus (GPa) = 53.15981 59.22882 56.19432
# Shear Modulus (GPa) = 29.98641 36.50156 33.24398
#
# Velocity S-wave (km/s) = 3.65477 4.03231 3.84817
# Velocity P-wave (km/s) = 6.44125 6.93272 6.69150
#
# Compressibility (1/GPa) = 0.01881120
#
# Stress axis : x y z
#
# Youngs Moduli (GPa) = 63.15133 71.94896 123.03732
#
# Poissons Ratio (x) = 0.41620 0.45978
# Poissons Ratio (y) = 0.36531 0.00042
# Poissons Ratio (z) = 0.23599 0.00025
#
# Static dielectric constant tensor:
#      x y z
#    x 4.134110 -0.287330 0.357970 
#    y -0.287330 4.302990 -0.042350 
#    z 0.357970 -0.042350 5.312610 
# 
# 
# High freq. dielectric constant tensor:
#      x y z
#    x 1.876880 -0.009040 -0.002340 
#    y -0.009040 1.892440 0.003100 
#    z -0.002340 0.003100 1.900400 
# 
# From -- ./inp_files/451000.got.cif
#   From: 2010.06.25/outbox.cif.g09.slc.cpg/sg2_226_cif.got.tgz:451000.got - 2010.06.27 13:26:56.
