data_PCOD8030569
_publ_section_title
;
Structure prediction by ZEFSAII (Michael W. Deem and Ramdas Pophale) SiO2 
 PCOD8030569
Probable space group: P -1
;
_chemical_formula_sum "Si O2"
_cell_formula_units_Z 16
_cell_length_a 20.798207
_cell_length_b 9.803153
_cell_length_c 14.903406
_cell_angle_alpha 55.201579
_cell_angle_beta 163.038384
_cell_angle_gamma 123.505979
_cell_volume 727.690386
_symmetry_space_group_name_H-M "P -1"
_symmetry_group_IT_number 2
_symmetry_cell_setting 'triclinic'
loop_
_space_group_symop_operation_xyz
x,y,z
-x,-y,-z
loop_
_atom_site_type_symbol
_atom_site_label
_atom_site_fract_x
_atom_site_fract_y
_atom_site_fract_z
Si Si1 0.998055 0.755928 0.155589
Si Si2 0.337995 0.081765 0.821258
Si Si3 0.805480 0.472159 0.117554
Si Si4 0.955845 0.878043 0.868515
Si Si5 0.892077 0.086276 0.133076
Si Si6 0.427507 0.824816 0.176533
Si Si7 0.180467 0.287522 0.791458
Si Si8 0.538921 0.311560 0.129430
O O1 0.212568 0.726163 0.509704
O O2 0.836552 0.607845 0.028902
O O3 0.933515 0.943785 0.022654
O O4 0.019776 0.744445 0.080543
O O5 0.107065 0.141983 0.454283
O O6 0.471342 0.245998 0.966596
O O7 0.500000 0.000000 0.000000
O O8 0.295647 0.962021 0.894362
O O9 0.743100 0.575139 0.084700
O O10 0.013836 0.362631 0.466746
O O11 0.615299 0.350664 0.866772
O O12 0.687778 0.873892 0.505647
O O13 0.076412 0.830790 0.954376
O O14 0.905874 0.885193 0.214825
O O15 0.678262 0.163719 0.868054
O O16 0.396705 0.229776 0.050104
O O17 0.500000 0.500000 0.000000
#
# Coordination Sequence:
#
# PCOD8030569 Si02
#       8
#     2   2   2   2   2   2   2   2
#     4  11  23  46  66  94 133 177 224 267 324 397
#     4  12  23  37  66 100 135 172 215 273 336 392
#     4  11  24  39  65  96 135 167 211 278 336 382
#     4  11  25  46  69  90 135 187 223 261 320 406
#     4  12  22  42  68 100 129 173 223 270 328 394
#     4  12  24  42  66 100 130 172 220 276 332 385
#     4  11  22  38  64 100 132 165 214 276 335 388
#     4  12  24  39  67 101 130 169 222 280 331 386
#
# _framework density 21.987373000000002
#
# number of rings (size 3 to 8) (size 9 to 14) (size 15 to 20)
#    0.000    0.500    7.500    1.125    1.750    0.500 
#    2.250    2.500    0.000    0.000    0.000    0.000 
#    0.000    0.000    0.000    0.000    0.000    0.000 
#
# Total GULP energy -198268.946939 kJ/mol
# GULP energy per Si atom -12391.809184 kJ/mol
# Density = 2.193733 g / cm^3
# Si number density = 21.987373 Si / 1000 Ang^3
#
#
#
# Elastic Constant Matrix: (Units=GPa)
#
#
# Indices 1 2 3 4 5 6 
#
# 1 129.5099 31.6154 0.6609 10.2040 -2.6388 -6.2817
# 2 31.6154 114.4171 23.9485 17.2326 -19.2741 -8.2297
# 3 0.6609 23.9485 9.1629 22.2960 1.9502 -5.2670
# 4 10.2040 17.2326 22.2960 22.3635 -4.0119 -2.6884
# 5 -2.6388 -19.2741 1.9502 -4.0119 34.7262 -4.7733
# 6 -6.2817 -8.2297 -5.2670 -2.6884 -4.7733 38.8901
#
#
#
# Elastic Compliance Matrix: (Units=1/GPa)
#
#
# Indices 1 2 3 4 5 6 
#
# 1 0.007812 -0.001278 -0.006119 0.003712 0.000727 0.000508
# 2 -0.001278 0.010472 0.007671 -0.014107 0.004007 0.002565
# 3 -0.006119 0.007671 -0.061392 0.060377 0.013970 -0.001791
# 4 0.003712 -0.014107 0.060377 -0.007869 -0.011317 0.003858
# 5 0.000727 0.004007 0.013970 -0.011317 0.029771 0.005729
# 6 0.000508 0.002565 -0.001791 0.003858 0.005729 0.027066
#
#
# Mechanical properties :
#
#
# Convention : Reuss Voigt Hill
#
# Bulk Modulus (GPa) = -23.49682 40.61549 8.55934
# Shear Modulus (GPa) = -563.30015 32.32031 -265.48992
#
# Velocity S-wave (km/s) = -16.02338 3.83815 -11.00039
# Velocity P-wave (km/s) = 18.78939 6.17690 12.54765
#
# Compressibility (1/GPa) = -0.04255894
#
# Stress axis : x y z
#
# Youngs Moduli (GPa) = 128.01507 95.49704 -16.28890
#
# Poissons Ratio (x) = 0.12203 -0.09967
# Poissons Ratio (y) = 0.16359 0.12496
# Poissons Ratio (z) = 0.78329 -0.73259
#
# Static dielectric constant tensor:
#      x y z
#    x 4.366860 0.149360 -0.130500 
#    y 0.149360 4.237050 0.369180 
#    z -0.130500 0.369180 3.717350 
# 
# 
# High freq. dielectric constant tensor:
#      x y z
#    x 1.878070 0.000030 -0.004930 
#    y 0.000030 1.869750 0.019880 
#    z -0.004930 0.019880 1.835600 
# 
# From -- ./inp_files/274351.got.cif
#   From: 2010.06.25/outbox.cif.g09.slc.cpg/sg2_138_cif.got.tgz:274351.got - 2010.06.27 13:26:56.
