data_PCOD8030697
_publ_section_title
;
Structure prediction by ZEFSAII (Michael W. Deem and Ramdas Pophale) SiO2 
 PCOD8030697
Probable space group: P -1
;
_chemical_formula_sum "Si O2"
_cell_formula_units_Z 16
_cell_length_a 21.486708
_cell_length_b 12.416870
_cell_length_c 18.025382
_cell_angle_alpha 28.527178
_cell_angle_beta 19.116138
_cell_angle_gamma 38.051522
_cell_volume 723.584708
_symmetry_space_group_name_H-M "P -1"
_symmetry_group_IT_number 2
_symmetry_cell_setting 'triclinic'
loop_
_space_group_symop_operation_xyz
x,y,z
-x,-y,-z
loop_
_atom_site_type_symbol
_atom_site_label
_atom_site_fract_x
_atom_site_fract_y
_atom_site_fract_z
Si Si1 0.043430 0.752145 0.591328
Si Si2 0.286180 0.169651 0.539941
Si Si3 0.570173 0.327088 0.855901
Si Si4 0.065061 0.604226 0.944092
Si Si5 0.133740 0.803597 0.055409
Si Si6 0.542350 0.025962 0.674696
Si Si7 0.853010 0.691830 0.689017
Si Si8 0.164767 0.049184 0.020950
O O1 0.270530 0.740879 0.336858
O O2 0.934679 0.641142 0.706948
O O3 0.000000 0.000000 0.500000
O O4 0.942368 0.603916 0.865109
O O5 0.385346 0.401740 0.334755
O O6 0.089996 0.205432 0.703262
O O7 0.403243 0.107610 0.376401
O O8 0.262476 0.953628 0.753902
O O9 0.358773 0.254527 0.096324
O O10 0.562044 0.180132 0.028062
O O11 0.282609 0.783633 0.596675
O O12 0.904568 0.739119 0.065327
O O13 0.000000 0.500000 0.000000
O O14 0.169233 0.551050 0.180229
O O15 0.204362 0.902204 0.996503
O O16 0.372146 0.149932 0.769095
O O17 0.997458 0.905049 0.352950
#
# Coordination Sequence:
#
# PCOD8030697 Si02
#       8
#     2   2   2   2   2   2   2   2
#     4  12  28  50  74 103 141 184 244 301 355 421
#     4  11  22  41  68 110 148 191 233 286 356 434
#     4  12  25  45  76 106 147 189 239 291 359 430
#     4  12  28  50  74 103 141 184 244 301 355 421
#     4  11  22  39  70 104 156 187 229 292 356 422
#     4  12  25  45  76 106 147 189 239 291 359 430
#     4  12  24  45  72 107 147 192 236 292 358 423
#     4  12  24  45  72 107 147 192 236 292 358 423
#
# _framework density 22.112131000000002
#
# number of rings (size 3 to 8) (size 9 to 14) (size 15 to 20)
#    0.000    0.250    5.000    3.750    0.000    6.000 
#    0.000    0.000    0.000    0.000    0.000    0.000 
#    0.000    0.000    0.000    0.000    0.000    0.000 
#
# Total GULP energy -198383.685027 kJ/mol
# GULP energy per Si atom -12398.980314 kJ/mol
# Density = 2.206180 g / cm^3
# Si number density = 22.112131 Si / 1000 Ang^3
#
#
#
# Elastic Constant Matrix: (Units=GPa)
#
#
# Indices 1 2 3 4 5 6 
#
# 1 87.4074 17.4842 13.2216 5.0820 -4.4146 -7.1792
# 2 17.4842 100.8239 34.2587 -12.4288 -12.9680 -1.7797
# 3 13.2216 34.2587 64.1460 1.8577 -4.2478 -3.5368
# 4 5.0820 -12.4288 1.8577 30.2242 -10.4641 -1.4493
# 5 -4.4146 -12.9680 -4.2478 -10.4641 42.9502 3.7611
# 6 -7.1792 -1.7797 -3.5368 -1.4493 3.7611 43.2589
#
#
#
# Elastic Compliance Matrix: (Units=1/GPa)
#
#
# Indices 1 2 3 4 5 6 
#
# 1 0.012346 -0.002075 -0.001277 -0.002884 -0.000343 0.001792
# 2 -0.002075 0.014521 -0.007236 0.008684 0.005618 -0.000536
# 3 -0.001277 -0.007236 0.019805 -0.004459 -0.001540 0.001094
# 4 -0.002884 0.008684 -0.004459 0.041573 0.012025 -0.000139
# 5 -0.000343 0.005618 -0.001540 0.012025 0.027894 -0.001974
# 6 0.001792 -0.000536 0.001094 -0.000139 -0.001974 0.023648
#
#
# Mechanical properties :
#
#
# Convention : Reuss Voigt Hill
#
# Bulk Modulus (GPa) = 39.22331 42.47846 40.85089
# Shear Modulus (GPa) = 29.50502 35.78085 32.64293
#
# Velocity S-wave (km/s) = 3.65682 4.02699 3.84636
# Velocity P-wave (km/s) = 5.96713 6.39331 6.18389
#
# Compressibility (1/GPa) = 0.02549504
#
# Stress axis : x y z
#
# Youngs Moduli (GPa) = 80.99477 68.86755 50.49253
#
# Poissons Ratio (x) = 0.14291 0.06448
# Poissons Ratio (y) = 0.16808 0.36538
# Poissons Ratio (z) = 0.10342 0.49835
#
# Static dielectric constant tensor:
#      x y z
#    x 4.229280 -0.124480 -0.060160 
#    y -0.124480 4.201470 0.037480 
#    z -0.060160 0.037480 4.063850 
# 
# 
# High freq. dielectric constant tensor:
#      x y z
#    x 1.884810 -0.014640 -0.002080 
#    y -0.014640 1.877790 0.004450 
#    z -0.002080 0.004450 1.871590 
# 
# From -- ./inp_files/187077.got.cif
#   From: 2010.06.25/outbox.cif.g09.slc.cpg/sg2_94_cif.got.tgz:187077.got - 2010.06.27 13:26:56.
