data_PCOD8030336
_publ_section_title
;
Structure prediction by ZEFSAII (Michael W. Deem and Ramdas Pophale) SiO2 
 PCOD8030336
Probable space group: P -1
;
_chemical_formula_sum "Si O2"
_cell_formula_units_Z 16
_cell_length_a 15.907332
_cell_length_b 11.152062
_cell_length_c 8.608288
_cell_angle_alpha 141.638916
_cell_angle_beta 128.750911
_cell_angle_gamma 69.549636
_cell_volume 706.872549
_symmetry_space_group_name_H-M "P -1"
_symmetry_group_IT_number 2
_symmetry_cell_setting 'triclinic'
loop_
_space_group_symop_operation_xyz
x,y,z
-x,-y,-z
loop_
_atom_site_type_symbol
_atom_site_label
_atom_site_fract_x
_atom_site_fract_y
_atom_site_fract_z
Si Si1 0.081268 0.925398 0.901409
Si Si2 0.643792 0.386496 0.722477
Si Si3 0.753323 0.785730 0.142018
Si Si4 0.801536 0.685930 0.763844
Si Si5 0.541502 0.489528 0.207967
Si Si6 0.509554 0.797815 0.883366
Si Si7 0.015163 0.526151 0.228717
Si Si8 0.817643 0.183507 0.801506
O O1 0.021288 0.749337 0.528861
O O2 0.163216 0.840553 0.018694
O O3 0.154654 0.113309 0.081768
O O4 0.000000 0.000000 0.000000
O O5 0.523485 0.367410 0.640653
O O6 0.605632 0.364870 0.475451
O O7 0.692670 0.209846 0.663381
O O8 0.739852 0.602455 0.064636
O O9 0.824891 0.988949 0.515343
O O10 0.819323 0.750656 0.030546
O O11 0.628579 0.784320 0.944565
O O12 0.674655 0.579343 0.459145
O O13 0.872431 0.530544 0.650498
O O14 0.500281 0.259661 0.001583
O O15 0.500000 0.500000 0.000000
O O16 0.500000 0.000000 0.000000
O O17 0.000000 0.500000 0.000000
O O18 0.908606 0.375418 0.033792
#
# Coordination Sequence:
#
# PCOD8030336 Si02
#       8
#     2   2   2   2   2   2   2   2
#     4  12  30  50  72 106 149 194 242 307 384 442
#     4  11  23  45  71 103 145 193 245 295 372 446
#     4  11  23  43  73 105 141 192 242 300 368 438
#     4  12  26  47  74 104 150 190 249 301 369 445
#     4  11  26  43  70 107 152 196 236 310 373 440
#     4  11  21  44  71 105 147 196 251 296 366 450
#     4  12  29  49  76 107 142 192 254 310 365 443
#     4  12  27  44  76 106 140 192 245 308 376 445
#
# _framework density 22.634917000000002
#
# number of rings (size 3 to 8) (size 9 to 14) (size 15 to 20)
#    0.000    0.500    5.000    2.625    8.750    2.000 
#    0.000    1.250    0.000    0.000    0.000    0.000 
#    0.000    0.000    0.000    0.000    0.000    0.000 
#
# Total GULP energy -198241.482505 kJ/mol
# GULP energy per Si atom -12390.092657 kJ/mol
# Density = 2.258340 g / cm^3
# Si number density = 22.634917 Si / 1000 Ang^3
#
#
#
# Elastic Constant Matrix: (Units=GPa)
#
#
# Indices 1 2 3 4 5 6 
#
# 1 85.3697 42.4342 44.6293 7.9966 6.4944 -1.6697
# 2 42.4342 110.4720 36.0512 2.6535 -12.1924 9.0987
# 3 44.6293 36.0512 100.6882 5.7400 -10.2966 6.8746
# 4 7.9966 2.6535 5.7400 43.7713 1.9721 0.6292
# 5 6.4944 -12.1924 -10.2966 1.9721 34.3891 2.7093
# 6 -1.6697 9.0987 6.8746 0.6292 2.7093 37.4098
#
#
#
# Elastic Compliance Matrix: (Units=1/GPa)
#
#
# Indices 1 2 3 4 5 6 
#
# 1 0.019731 -0.006381 -0.007524 -0.001913 -0.008483 0.004462
# 2 -0.006381 0.012723 -0.000913 0.000309 0.005711 -0.003630
# 3 -0.007524 -0.000913 0.014432 -0.000674 0.005707 -0.003168
# 4 -0.001913 0.000309 -0.000674 0.023317 -0.001040 -0.000353
# 5 -0.008483 0.005711 0.005707 -0.001040 0.034894 -0.005326
# 6 0.004462 -0.003630 -0.003168 -0.000353 -0.005326 0.028787
#
#
# Mechanical properties :
#
#
# Convention : Reuss Voigt Hill
#
# Bulk Modulus (GPa) = 57.97217 60.30658 59.13938
# Shear Modulus (GPa) = 29.53887 34.67507 32.10697
#
# Velocity S-wave (km/s) = 3.61642 3.91823 3.77035
# Velocity P-wave (km/s) = 6.56547 6.86812 6.71850
#
# Compressibility (1/GPa) = 0.01724966
#
# Stress axis : x y z
#
# Youngs Moduli (GPa) = 50.68225 78.59777 69.29271
#
# Poissons Ratio (x) = 0.50157 0.52134
# Poissons Ratio (y) = 0.32343 0.06324
# Poissons Ratio (z) = 0.38132 0.07173
#
# Static dielectric constant tensor:
#      x y z
#    x 4.071130 -0.098690 0.048950 
#    y -0.098690 4.533380 -0.027800 
#    z 0.048950 -0.027800 4.260860 
# 
# 
# High freq. dielectric constant tensor:
#      x y z
#    x 1.888990 -0.004720 0.011110 
#    y -0.004720 1.915030 -0.003810 
#    z 0.011110 -0.003810 1.893860 
# 
# From -- ./inp_files/308911.got.cif
#   From: 2010.06.25/outbox.cif.g09.slc.cpg/sg2_155_cif.got.tgz:308911.got - 2010.06.27 13:26:56.
