data_PCOD8030419
_publ_section_title
;
Structure prediction by ZEFSAII (Michael W. Deem and Ramdas Pophale) SiO2 
 PCOD8030419
Probable space group: P -1
;
_chemical_formula_sum "Si O2"
_cell_formula_units_Z 16
_cell_length_a 17.397417
_cell_length_b 8.495799
_cell_length_c 8.885838
_cell_angle_alpha 91.099448
_cell_angle_beta 33.355797
_cell_angle_gamma 87.446301
_cell_volume 717.608611
_symmetry_space_group_name_H-M "P -1"
_symmetry_group_IT_number 2
_symmetry_cell_setting 'triclinic'
loop_
_space_group_symop_operation_xyz
x,y,z
-x,-y,-z
loop_
_atom_site_type_symbol
_atom_site_label
_atom_site_fract_x
_atom_site_fract_y
_atom_site_fract_z
Si Si1 0.368026 0.216538 0.517204
Si Si2 0.624813 0.711020 0.151993
Si Si3 0.416936 0.542401 0.291510
Si Si4 0.121530 0.899372 0.201499
Si Si5 0.075955 0.096349 0.998068
Si Si6 0.645832 0.027762 0.973549
Si Si7 0.792508 0.259501 0.554438
Si Si8 0.145550 0.565571 0.252248
O O1 0.405840 0.207119 0.633564
O O2 0.377679 0.386901 0.433815
O O3 0.212469 0.176384 0.724946
O O4 0.480740 0.090106 0.247259
O O5 0.495144 0.634336 0.291815
O O6 0.748876 0.575740 0.989550
O O7 0.667515 0.836740 0.957454
O O8 0.277571 0.657012 0.476914
O O9 0.500000 0.500000 0.000000
O O10 0.276345 0.901639 0.013923
O O11 0.104658 0.714292 0.212009
O O12 0.130639 0.964790 0.024072
O O13 0.000000 0.000000 0.500000
O O14 0.959742 0.227215 0.258362
O O15 0.000000 0.000000 0.000000
O O16 0.720175 0.096455 0.704693
O O17 0.778740 0.380867 0.718934
O O18 0.000000 0.500000 0.500000
#
# Coordination Sequence:
#
# PCOD8030419 Si02
#       8
#     2   2   2   2   2   2   2   2
#     4  12  27  48  69 106 142 184 237 290 351 416
#     4  12  25  42  73 109 137 179 236 291 350 406
#     4  12  25  47  70 102 145 180 231 294 348 417
#     4  11  21  45  72  98 143 183 232 288 336 426
#     4  12  28  44  70 106 141 179 233 294 354 404
#     4  11  23  44  78  99 136 188 238 281 341 428
#     4  11  25  47  69 102 142 184 232 285 349 421
#     4  11  22  38  71 103 135 186 235 275 344 417
#
# _framework density 22.296277
#
# number of rings (size 3 to 8) (size 9 to 14) (size 15 to 20)
#    0.000    0.500    6.250    3.000    1.750    4.000 
#    0.000    0.000    0.000    0.000    0.000    0.000 
#    0.000    0.000    0.000    0.000    0.000    0.000 
#
# Total GULP energy -198299.590484 kJ/mol
# GULP energy per Si atom -12393.724405 kJ/mol
# Density = 2.224553 g / cm^3
# Si number density = 22.296277 Si / 1000 Ang^3
#
#
#
# Elastic Constant Matrix: (Units=GPa)
#
#
# Indices 1 2 3 4 5 6 
#
# 1 85.3121 13.5086 14.1969 -18.1049 -15.8141 -3.5963
# 2 13.5086 138.6722 31.4399 -25.6456 -14.7124 -21.1825
# 3 14.1969 31.4399 96.2011 -12.5790 -30.0831 0.1045
# 4 -18.1049 -25.6456 -12.5790 43.4180 -1.1776 -5.4315
# 5 -15.8141 -14.7124 -30.0831 -1.1776 33.7247 1.2384
# 6 -3.5963 -21.1825 0.1045 -5.4315 1.2384 46.6906
#
#
#
# Elastic Compliance Matrix: (Units=1/GPa)
#
#
# Indices 1 2 3 4 5 6 
#
# 1 0.014638 0.000932 0.001170 0.007498 0.008495 0.002195
# 2 0.000932 0.009809 -0.001400 0.006521 0.003504 0.005190
# 3 0.001170 -0.001400 0.015683 0.004533 0.014101 -0.000427
# 4 0.007498 0.006521 0.004533 0.032506 0.011282 0.007008
# 5 0.008495 0.003504 0.014101 0.011282 0.048054 0.002250
# 6 0.002195 0.005190 -0.000427 0.007008 0.002250 0.024698
#
#
# Mechanical properties :
#
#
# Convention : Reuss Voigt Hill
#
# Bulk Modulus (GPa) = 24.07760 48.71956 36.39858
# Shear Modulus (GPa) = 31.68004 42.16932 36.92468
#
# Velocity S-wave (km/s) = 3.77353 4.35365 4.07393
# Velocity P-wave (km/s) = 5.45971 6.86809 6.20400
#
# Compressibility (1/GPa) = 0.04153238
#
# Stress axis : x y z
#
# Youngs Moduli (GPa) = 68.31539 101.95226 63.76490
#
# Poissons Ratio (x) = -0.09503 -0.07460
# Poissons Ratio (y) = -0.06368 0.08929
# Poissons Ratio (z) = -0.07992 0.14277
#
# Static dielectric constant tensor:
#      x y z
#    x 4.069430 0.039890 0.039610 
#    y 0.039890 3.951600 -0.128210 
#    z 0.039610 -0.128210 4.294360 
# 
# 
# High freq. dielectric constant tensor:
#      x y z
#    x 1.882150 -0.013260 -0.018520 
#    y -0.013260 1.892600 -0.009070 
#    z -0.018520 -0.009070 1.871630 
# 
# From -- ./inp_files/328987.got.cif
#   From: 2010.06.25/outbox.cif.g09.slc.cpg/sg2_165_cif.got.tgz:328987.got - 2010.06.27 13:26:56.
