data_PCOD8030084
_publ_section_title
;
Structure prediction by ZEFSAII (Michael W. Deem and Ramdas Pophale) SiO2 
 PCOD8030084
Probable space group: P -1
;
_chemical_formula_sum "Si O2"
_cell_formula_units_Z 16
_cell_length_a 10.368880
_cell_length_b 24.660341
_cell_length_c 9.255495
_cell_angle_alpha 137.732326
_cell_angle_beta 151.295630
_cell_angle_gamma 41.559748
_cell_volume 727.584324
_symmetry_space_group_name_H-M "P -1"
_symmetry_group_IT_number 2
_symmetry_cell_setting 'triclinic'
loop_
_space_group_symop_operation_xyz
x,y,z
-x,-y,-z
loop_
_atom_site_type_symbol
_atom_site_label
_atom_site_fract_x
_atom_site_fract_y
_atom_site_fract_z
Si Si1 0.151189 0.051093 0.963698
Si Si2 0.031839 0.176439 0.852598
Si Si3 0.859567 0.834254 0.564240
Si Si4 0.928133 0.549788 0.377008
Si Si5 0.542728 0.738133 0.432912
Si Si6 0.528125 0.450449 0.279428
Si Si7 0.246873 0.056862 0.587934
Si Si8 0.547430 0.260575 0.972499
O O1 0.039234 0.090501 0.776020
O O2 0.183987 0.128239 0.243978
O O3 0.923765 0.010419 0.724637
O O4 0.456177 0.980780 0.113018
O O5 0.071731 0.145165 0.665786
O O6 0.736505 0.252082 0.725587
O O7 0.287723 0.207482 0.216557
O O8 0.710236 0.913950 0.473765
O O9 0.726544 0.757188 0.264638
O O10 0.190836 0.792281 0.777531
O O11 0.738640 0.642635 0.420004
O O12 0.000000 0.500000 0.500000
O O13 0.197707 0.552507 0.552681
O O14 0.742315 0.508478 0.009262
O O15 0.420216 0.775265 0.230051
O O16 0.500000 0.500000 0.500000
O O17 0.523870 0.358408 0.142559
#
# Coordination Sequence:
#
# PCOD8030084 Si02
#       8
#     2   2   2   2   2   2   2   2
#     4  12  22  42  64  88 124 172 220 262 332 400
#     4  12  23  41  65  91 126 167 220 265 326 385
#     4  12  23  41  65  91 126 167 220 265 326 385
#     4  11  24  45  73 105 140 176 226 276 335 406
#     4  11  21  42  68  92 125 174 220 255 312 401
#     4  11  24  45  73 105 140 176 226 276 335 406
#     4  12  26  40  58  98 130 160 212 286 336 374
#     4  11  21  42  68  92 125 174 220 255 312 401
#
# _framework density 21.990577999999999
#
# number of rings (size 3 to 8) (size 9 to 14) (size 15 to 20)
#    0.000    0.500    2.500    8.250    0.000    0.000 
#    6.750    0.000    0.000    0.000    0.000    0.000 
#    0.000    0.000    0.000    0.000    0.000    0.000 
#
# Total GULP energy -198383.853607 kJ/mol
# GULP energy per Si atom -12398.990850 kJ/mol
# Density = 2.194053 g / cm^3
# Si number density = 21.990578 Si / 1000 Ang^3
#
#
#
# Elastic Constant Matrix: (Units=GPa)
#
#
# Indices 1 2 3 4 5 6 
#
# 1 63.3043 34.9356 39.2426 -5.1638 5.7597 2.9806
# 2 34.9356 80.1490 42.3771 -8.0534 -0.4719 2.1354
# 3 39.2426 42.3771 133.7682 0.6918 12.2933 -1.7754
# 4 -5.1638 -8.0534 0.6918 40.3429 -3.2896 3.6683
# 5 5.7597 -0.4719 12.2933 -3.2896 35.7732 -0.7258
# 6 2.9806 2.1354 -1.7754 3.6683 -0.7258 28.4839
#
#
#
# Elastic Compliance Matrix: (Units=1/GPa)
#
#
# Indices 1 2 3 4 5 6 
#
# 1 0.023037 -0.007635 -0.004169 0.001524 -0.002285 -0.002353
# 2 -0.007635 0.018187 -0.003832 0.003069 0.003046 -0.001121
# 3 -0.004169 -0.003832 0.010221 -0.001860 -0.003032 0.001523
# 4 0.001524 0.003069 -0.001860 0.026199 0.002766 -0.003809
# 5 -0.002285 0.003046 -0.003032 0.002766 0.029663 0.000221
# 6 -0.002353 -0.001121 0.001523 -0.003809 0.000221 0.036029
#
#
# Mechanical properties :
#
#
# Convention : Reuss Voigt Hill
#
# Bulk Modulus (GPa) = 49.57045 56.70356 53.13701
# Shear Modulus (GPa) = 27.57347 31.63108 29.60228
#
# Velocity S-wave (km/s) = 3.54485 3.79673 3.67295
# Velocity P-wave (km/s) = 6.27258 6.71279 6.49642
#
# Compressibility (1/GPa) = 0.02017331
#
# Stress axis : x y z
#
# Youngs Moduli (GPa) = 43.40749 54.98320 97.83685
#
# Poissons Ratio (x) = 0.41981 0.40785
# Poissons Ratio (y) = 0.33143 0.37495
# Poissons Ratio (z) = 0.18095 0.21072
#
# Static dielectric constant tensor:
#      x y z
#    x 3.860050 -0.008450 0.006560 
#    y -0.008450 3.820170 -0.156770 
#    z 0.006560 -0.156770 4.277000 
# 
# 
# High freq. dielectric constant tensor:
#      x y z
#    x 1.855690 -0.003680 0.004030 
#    y -0.003680 1.857430 -0.006010 
#    z 0.004030 -0.006010 1.887290 
# 
# From -- ./inp_files/226571.got.cif
#   From: 2010.06.25/outbox.cif.g09.slc.cpg/sg2_114_cif.got.tgz:226571.got - 2010.06.27 13:26:56.
