data_PCOD8030102
_publ_section_title
;
Structure prediction by ZEFSAII (Michael W. Deem and Ramdas Pophale) SiO2 
 PCOD8030102
Probable space group: P -1
;
_chemical_formula_sum "Si O2"
_cell_formula_units_Z 16
_cell_length_a 6.910568
_cell_length_b 20.919708
_cell_length_c 17.665269
_cell_angle_alpha 19.883324
_cell_angle_beta 64.257247
_cell_angle_gamma 68.885009
_cell_volume 772.621547
_symmetry_space_group_name_H-M "P -1"
_symmetry_group_IT_number 2
_symmetry_cell_setting 'triclinic'
loop_
_space_group_symop_operation_xyz
x,y,z
-x,-y,-z
loop_
_atom_site_type_symbol
_atom_site_label
_atom_site_fract_x
_atom_site_fract_y
_atom_site_fract_z
Si Si1 0.096480 0.353426 0.200059
Si Si2 0.102510 0.703740 0.460594
Si Si3 0.460464 0.300326 0.690232
Si Si4 0.909454 0.386638 0.947162
Si Si5 0.818968 0.937730 0.712104
Si Si6 0.545938 0.829099 0.734528
Si Si7 0.628728 0.987308 0.843520
Si Si8 0.197315 0.144053 0.771653
O O1 0.125109 0.450499 0.168818
O O2 0.327850 0.316349 0.170317
O O3 0.944714 0.150529 0.456911
O O4 0.000000 0.500000 0.000000
O O5 0.304036 0.743293 0.324759
O O6 0.048899 0.487194 0.740976
O O7 0.887887 0.746830 0.406122
O O8 0.176302 0.836422 0.372974
O O9 0.500000 0.500000 0.500000
O O10 0.299673 0.292819 0.653642
O O11 0.350674 0.150000 0.936841
O O12 0.675383 0.291995 0.062006
O O13 0.025164 0.220434 0.148016
O O14 0.671802 0.925844 0.676992
O O15 0.672724 0.890820 0.864133
O O16 0.500000 0.000000 0.500000
O O17 0.387135 0.038956 0.823631
O O18 0.000000 0.000000 0.000000
#
# Coordination Sequence:
#
# PCOD8030102 Si02
#       8
#     2   2   2   2   2   2   2   2
#     4  12  24  47  77  97 141 189 225 285 362 419
#     4  11  23  43  68 101 133 182 235 277 344 414
#     4  11  23  41  66  97 138 181 225 278 344 414
#     4  12  26  45  72 105 141 181 236 295 343 420
#     4  12  26  47  70 106 145 178 232 298 349 412
#     4  12  26  47  74 106 140 182 238 288 355 427
#     4  11  23  42  70  97 138 184 228 282 348 413
#     4  11  21  42  69  92 133 186 232 277 338 408
#
# _framework density 20.708715000000002
#
# number of rings (size 3 to 8) (size 9 to 14) (size 15 to 20)
#    0.000    0.500    6.250    3.000    0.000    6.500 
#    2.250    0.000    0.000    0.000    0.000    0.000 
#    0.000    0.000    0.000    0.000    0.000    0.000 
#
# Total GULP energy -198424.553365 kJ/mol
# GULP energy per Si atom -12401.534585 kJ/mol
# Density = 2.066158 g / cm^3
# Si number density = 20.708715 Si / 1000 Ang^3
#
#
#
# Elastic Constant Matrix: (Units=GPa)
#
#
# Indices 1 2 3 4 5 6 
#
# 1 137.5035 42.6165 43.8982 -6.2869 2.8289 0.4220
# 2 42.6165 111.4011 27.2773 -8.9592 -0.8361 2.1852
# 3 43.8982 27.2773 119.3376 -0.8269 -1.5166 -5.7720
# 4 -6.2869 -8.9592 -0.8269 39.4372 0.3602 -4.7827
# 5 2.8289 -0.8361 -1.5166 0.3602 40.4841 2.1486
# 6 0.4220 2.1852 -5.7720 -4.7827 2.1486 23.1814
#
#
#
# Elastic Compliance Matrix: (Units=1/GPa)
#
#
# Indices 1 2 3 4 5 6 
#
# 1 0.009039 -0.002731 -0.002723 0.000726 -0.000777 -0.000363
# 2 -0.002731 0.010540 -0.001434 0.001808 0.000390 -0.000964
# 3 -0.002723 -0.001434 0.009835 -0.000248 0.000396 0.002546
# 4 0.000726 0.001808 -0.000248 0.026523 -0.000539 0.005277
# 5 -0.000777 0.000390 0.000396 -0.000539 0.024907 -0.002344
# 6 -0.000363 -0.000964 0.002546 0.005277 -0.002344 0.045175
#
#
# Mechanical properties :
#
#
# Convention : Reuss Voigt Hill
#
# Bulk Modulus (GPa) = 63.94620 66.20291 65.07456
# Shear Modulus (GPa) = 34.48095 37.58391 36.03243
#
# Velocity S-wave (km/s) = 4.08492 4.26477 4.17581
# Velocity P-wave (km/s) = 7.29347 7.50260 7.39877
#
# Compressibility (1/GPa) = 0.01563815
#
# Stress axis : x y z
#
# Youngs Moduli (GPa) = 110.63561 94.87927 101.67425
#
# Poissons Ratio (x) = 0.25914 0.27686
# Poissons Ratio (y) = 0.30218 0.14575
# Poissons Ratio (z) = 0.30126 0.13601
#
# Static dielectric constant tensor:
#      x y z
#    x 3.874610 -0.009870 -0.070580 
#    y -0.009870 3.256620 -0.164080 
#    z -0.070580 -0.164080 3.138510 
# 
# 
# High freq. dielectric constant tensor:
#      x y z
#    x 1.817150 0.001570 -0.005400 
#    y 0.001570 1.816300 0.004210 
#    z -0.005400 0.004210 1.819760 
# 
# From -- ./inp_files/550957.got.cif
#   From: 2010.06.25/outbox.cif.g09.slc.cpg/sg2_276_cif.got.tgz:550957.got - 2010.06.27 13:26:56.
