data_PCOD8030846
_publ_section_title
;
Structure prediction by ZEFSAII (Michael W. Deem and Ramdas Pophale) SiO2 
 PCOD8030846
Probable space group: P -1
;
_chemical_formula_sum "Si O2"
_cell_formula_units_Z 16
_cell_length_a 13.549898
_cell_length_b 9.579886
_cell_length_c 12.757508
_cell_angle_alpha 69.034116
_cell_angle_beta 114.136951
_cell_angle_gamma 53.372025
_cell_volume 691.201668
_symmetry_space_group_name_H-M "P -1"
_symmetry_group_IT_number 2
_symmetry_cell_setting 'triclinic'
loop_
_space_group_symop_operation_xyz
x,y,z
-x,-y,-z
loop_
_atom_site_type_symbol
_atom_site_label
_atom_site_fract_x
_atom_site_fract_y
_atom_site_fract_z
Si Si1 0.918887 0.936460 0.199901
Si Si2 0.223846 0.758342 0.723916
Si Si3 0.788007 0.737877 0.915395
Si Si4 0.978691 0.533666 0.283397
Si Si5 0.603937 0.591836 0.398617
Si Si6 0.522178 0.078889 0.388563
Si Si7 0.681321 0.660496 0.197081
Si Si8 0.529815 0.521500 0.753488
O O1 0.878351 0.807143 0.213326
O O2 0.176293 0.667094 0.364730
O O3 0.824389 0.115572 0.218471
O O4 0.783239 0.174115 0.982028
O O5 0.336123 0.458188 0.859484
O O6 0.383202 0.679581 0.752333
O O7 0.000000 0.000000 0.500000
O O8 0.662273 0.737396 0.828165
O O9 0.612824 0.083355 0.724530
O O10 0.000000 0.500000 0.000000
O O11 0.865783 0.637696 0.094812
O O12 0.916114 0.465236 0.345629
O O13 0.239694 0.234157 0.474044
O O14 0.653623 0.635908 0.308665
O O15 0.562214 0.471700 0.380802
O O16 0.487454 0.291546 0.349547
O O17 0.500000 0.000000 0.500000
O O18 0.500000 0.000000 0.000000
#
# Coordination Sequence:
#
# PCOD8030846 Si02
#       8
#     2   2   2   2   2   2   2   2
#     4  12  24  43  71 103 153 190 235 285 361 439
#     4  11  22  43  67 108 152 194 233 283 356 435
#     4  12  25  49  75  99 143 184 244 311 353 424
#     4  12  25  44  73 104 149 192 236 298 364 418
#     4  11  24  46  70 110 149 185 238 295 359 439
#     4  12  28  48  73 106 132 187 252 298 364 430
#     4  11  22  40  72 107 154 188 234 290 356 429
#     4  11  25  45  72 102 147 189 238 292 361 431
#
# _framework density 23.148092999999999
#
# number of rings (size 3 to 8) (size 9 to 14) (size 15 to 20)
#    0.000    0.500    7.500    1.875    1.750    1.500 
#    0.000    3.125    0.000    0.000    0.000    0.000 
#    0.000    0.000    0.000    0.000    0.000    0.000 
#
# Total GULP energy -198435.773506 kJ/mol
# GULP energy per Si atom -12402.235844 kJ/mol
# Density = 2.309541 g / cm^3
# Si number density = 23.148093 Si / 1000 Ang^3
#
#
#
# Elastic Constant Matrix: (Units=GPa)
#
#
# Indices 1 2 3 4 5 6 
#
# 1 128.7760 65.2302 49.5489 -15.2740 12.1780 28.4169
# 2 65.2302 131.6104 29.7405 -7.0067 4.7734 22.6938
# 3 49.5489 29.7405 122.8056 -2.3550 24.2348 8.0443
# 4 -15.2740 -7.0067 -2.3550 45.0027 2.9569 7.8569
# 5 12.1780 4.7734 24.2348 2.9569 36.2066 -12.8538
# 6 28.4169 22.6938 8.0443 7.8569 -12.8538 38.4096
#
#
#
# Elastic Compliance Matrix: (Units=1/GPa)
#
#
# Indices 1 2 3 4 5 6 
#
# 1 0.015127 -0.004149 -0.002657 0.006977 -0.007653 -0.012172
# 2 -0.004149 0.010441 -0.000399 0.000884 -0.001045 -0.003547
# 3 -0.002657 -0.000399 0.010955 0.000562 -0.007383 -0.002679
# 4 0.006977 0.000884 0.000562 0.028072 -0.010475 -0.015050
# 5 -0.007653 -0.001045 -0.007383 -0.010475 0.045016 0.025033
# 6 -0.012172 -0.003547 -0.002679 -0.015050 0.025033 0.049152
#
#
# Mechanical properties :
#
#
# Convention : Reuss Voigt Hill
#
# Bulk Modulus (GPa) = 45.22309 74.69235 59.95772
# Shear Modulus (GPa) = 27.69418 39.83529 33.76473
#
# Velocity S-wave (km/s) = 3.46264 4.15286 3.82336
# Velocity P-wave (km/s) = 5.96367 7.43856 6.74157
#
# Compressibility (1/GPa) = 0.02211260
#
# Stress axis : x y z
#
# Youngs Moduli (GPa) = 66.10896 95.77366 91.28367
#
# Poissons Ratio (x) = 0.39736 0.24254
# Poissons Ratio (y) = 0.27429 0.03643
# Poissons Ratio (z) = 0.17565 0.03822
#
# Static dielectric constant tensor:
#      x y z
#    x 4.817400 0.369180 0.355460 
#    y 0.369180 5.010730 -0.080570 
#    z 0.355460 -0.080570 4.587070 
# 
# 
# High freq. dielectric constant tensor:
#      x y z
#    x 1.898690 0.015110 0.023770 
#    y 0.015110 1.929180 -0.009150 
#    z 0.023770 -0.009150 1.925480 
# 
# From -- ./inp_files/515225.got.cif
#   From: 2010.06.25/outbox.cif.g09.slc.cpg/sg2_258_cif.got.tgz:515225.got - 2010.06.27 13:26:56.
