data_PCOD8030765
_publ_section_title
;
Structure prediction by ZEFSAII (Michael W. Deem and Ramdas Pophale) SiO2 
 PCOD8030765
Probable space group: P -1
;
_chemical_formula_sum "Si O2"
_cell_formula_units_Z 14
_cell_length_a 7.618316
_cell_length_b 18.642071
_cell_length_c 15.068382
_cell_angle_alpha 19.619181
_cell_angle_beta 128.317194
_cell_angle_gamma 126.287568
_cell_volume 563.519924
_symmetry_space_group_name_H-M "P -1"
_symmetry_group_IT_number 2
_symmetry_cell_setting 'triclinic'
loop_
_space_group_symop_operation_xyz
x,y,z
-x,-y,-z
loop_
_atom_site_type_symbol
_atom_site_label
_atom_site_fract_x
_atom_site_fract_y
_atom_site_fract_z
Si Si1 0.705760 0.280960 0.141473
Si Si2 0.296931 0.502505 0.824945
Si Si3 0.039662 0.366184 0.293885
Si Si4 0.505878 0.042979 0.671708
Si Si5 0.115042 0.189631 0.866828
Si Si6 0.335117 0.004650 0.858475
Si Si7 0.106959 0.589825 0.313088
O O1 0.483699 0.321961 0.084082
O O2 0.761169 0.482496 0.859506
O O3 0.913697 0.244587 0.314811
O O4 0.679618 0.067511 0.321908
O O5 0.135567 0.486908 0.879220
O O6 0.137192 0.483437 0.712723
O O7 0.432312 0.726338 0.615793
O O8 0.145001 0.184350 0.603018
O O9 0.451155 0.068482 0.728605
O O10 0.716125 0.889347 0.913502
O O11 0.233480 0.366045 0.631163
O O12 0.912706 0.297911 0.728335
O O13 0.000000 0.000000 0.000000
O O14 0.500000 0.000000 0.000000
O O15 0.235371 0.763826 0.089409
#
# Coordination Sequence:
#
# PCOD8030765 Si02
#       7
#     2   2   2   2   2   2   2
#     4  11  26  52  76 107 148 195 251 309 368 436
#     4  12  24  48  75 113 143 190 250 306 372 438
#     4  11  27  50  76 107 151 197 247 307 371 438
#     4  12  25  44  74 103 151 191 241 311 361 435
#     4  11  22  40  67 100 138 190 239 290 357 430
#     4  12  28  46  71 111 151 196 246 300 372 447
#     4  11  25  41  69 101 146 189 239 298 366 434
#
# _framework density 24.843841999999999
#
# number of rings (size 3 to 8) (size 9 to 14) (size 15 to 20)
#    0.000    0.571    4.286    3.000    6.000    1.714 
#    2.571    0.000    0.000    0.000    0.000    0.000 
#    0.000    0.000    0.000    0.000    0.000    0.000 
#
# Total GULP energy -173525.546678 kJ/mol
# GULP energy per Si atom -12394.681906 kJ/mol
# Density = 2.478730 g / cm^3
# Si number density = 24.843842 Si / 1000 Ang^3
#
#
#
# Elastic Constant Matrix: (Units=GPa)
#
#
# Indices 1 2 3 4 5 6 
#
# 1 98.1344 18.0317 4.1031 -5.8468 -1.8771 -12.9357
# 2 18.0317 164.1509 27.0851 -13.0603 4.4061 2.2926
# 3 4.1031 27.0851 68.2555 -6.8763 -2.8327 3.4675
# 4 -5.8468 -13.0603 -6.8763 37.4111 2.6750 -2.5011
# 5 -1.8771 4.4061 -2.8327 2.6750 24.0004 -4.7072
# 6 -12.9357 2.2926 3.4675 -2.5011 -4.7072 32.5570
#
#
#
# Elastic Compliance Matrix: (Units=1/GPa)
#
#
# Indices 1 2 3 4 5 6 
#
# 1 0.011194 -0.001194 -0.000223 0.001488 0.001872 0.004941
# 2 -0.001194 0.006847 -0.002502 0.001832 -0.002015 -0.000841
# 3 -0.000223 -0.002502 0.015979 0.001813 0.001890 -0.001202
# 4 0.001488 0.001832 0.001813 0.028269 -0.002756 0.002042
# 5 0.001872 -0.002015 0.001890 -0.002756 0.044054 0.006842
# 6 0.004941 -0.000841 -0.001202 0.002042 0.006842 0.034012
#
#
# Mechanical properties :
#
#
# Convention : Reuss Voigt Hill
#
# Bulk Modulus (GPa) = 38.19021 47.66449 42.92735
# Shear Modulus (GPa) = 31.86321 37.54843 34.70582
#
# Velocity S-wave (km/s) = 3.58514 3.89186 3.74165
# Velocity P-wave (km/s) = 5.70466 6.27875 5.99858
#
# Compressibility (1/GPa) = 0.02618472
#
# Stress axis : x y z
#
# Youngs Moduli (GPa) = 89.32974 146.03946 62.58160
#
# Poissons Ratio (x) = 0.17434 0.01393
# Poissons Ratio (y) = 0.10664 0.15657
# Poissons Ratio (z) = 0.01988 0.36536
#
# Static dielectric constant tensor:
#      x y z
#    x 4.547040 0.133830 0.078530 
#    y 0.133830 4.710290 0.174190 
#    z 0.078530 0.174190 4.985680 
# 
# 
# High freq. dielectric constant tensor:
#      x y z
#    x 1.981030 -0.003490 -0.001130 
#    y -0.003490 2.002030 -0.007600 
#    z -0.001130 -0.007600 1.986740 
# 
# From -- ./inp_files/346836.got.cif
#   From: 2010.06.25/outbox.cif.g09.slc.cpg/sg2_174_cif.got.tgz:346836.got - 2010.06.27 13:26:56.
