data_PCOD8030601
_publ_section_title
;
Structure prediction by ZEFSAII (Michael W. Deem and Ramdas Pophale) SiO2 
 PCOD8030601
Probable space group: P -1
;
_chemical_formula_sum "Si O2"
_cell_formula_units_Z 14
_cell_length_a 9.706838
_cell_length_b 21.579498
_cell_length_c 5.022599
_cell_angle_alpha 96.853354
_cell_angle_beta 80.000833
_cell_angle_gamma 37.324650
_cell_volume 566.849956
_symmetry_space_group_name_H-M "P -1"
_symmetry_group_IT_number 2
_symmetry_cell_setting 'triclinic'
loop_
_space_group_symop_operation_xyz
x,y,z
-x,-y,-z
loop_
_atom_site_type_symbol
_atom_site_label
_atom_site_fract_x
_atom_site_fract_y
_atom_site_fract_z
Si Si1 0.399972 0.188988 0.509905
Si Si2 0.787384 0.547265 0.923410
Si Si3 0.301039 0.489930 0.548773
Si Si4 0.963199 0.962405 0.224267
Si Si5 0.822063 0.241042 0.193402
Si Si6 0.372099 0.779639 0.346049
Si Si7 0.909349 0.736432 0.846457
O O1 0.456538 0.242547 0.519859
O O2 0.304251 0.203577 0.262126
O O3 0.188640 0.250009 0.827963
O O4 0.669240 0.055344 0.417516
O O5 0.880294 0.484620 0.576010
O O6 0.690055 0.530431 0.154276
O O7 0.563781 0.681116 0.007927
O O8 0.000000 0.500000 0.000000
O O9 0.577211 0.374850 0.258185
O O10 0.185213 0.602550 0.621011
O O11 0.149753 0.910904 0.387043
O O12 0.097180 0.844618 0.074669
O O13 0.000000 0.000000 0.000000
O O14 0.759260 0.230981 0.484728
O O15 0.055751 0.201963 0.134412
#
# Coordination Sequence:
#
# PCOD8030601 Si02
#       7
#     2   2   2   2   2   2   2
#     4  12  28  46  75 106 148 190 241 301 363 419
#     4  11  22  38  70 105 142 181 236 297 355 416
#     4  11  23  45  68 103 144 191 232 288 358 437
#     4  12  25  48  78 104 142 191 250 299 355 427
#     4  11  27  46  76 106 142 194 245 291 360 437
#     4  11  24  46  72 106 141 188 250 292 354 432
#     4  12  28  48  71 110 152 188 235 300 367 425
#
# _framework density 24.697890999999998
#
# number of rings (size 3 to 8) (size 9 to 14) (size 15 to 20)
#    0.000    0.571    2.857    4.714    4.000    2.286 
#    0.000    3.571    0.000    0.000    0.000    0.000 
#    0.000    0.000    0.000    0.000    0.000    0.000 
#
# Total GULP energy -173454.650969 kJ/mol
# GULP energy per Si atom -12389.617926 kJ/mol
# Density = 2.464168 g / cm^3
# Si number density = 24.697891 Si / 1000 Ang^3
#
#
#
# Elastic Constant Matrix: (Units=GPa)
#
#
# Indices 1 2 3 4 5 6 
#
# 1 113.0682 29.4675 -0.8462 -1.5736 -0.5908 13.0571
# 2 29.4675 110.1684 18.2173 12.2482 0.2137 -2.9303
# 3 -0.8462 18.2173 60.6907 6.4222 -9.2878 1.4026
# 4 -1.5736 12.2482 6.4222 52.2394 -5.8015 2.1932
# 5 -0.5908 0.2137 -9.2878 -5.8015 21.8239 -0.4298
# 6 13.0571 -2.9303 1.4026 2.1932 -0.4298 25.4037
#
#
#
# Elastic Compliance Matrix: (Units=1/GPa)
#
#
# Indices 1 2 3 4 5 6 
#
# 1 0.010421 -0.003307 0.001305 0.001299 0.001099 -0.005903
# 2 -0.003307 0.010922 -0.003477 -0.002630 -0.002309 0.003339
# 3 0.001305 -0.003477 0.018849 -0.000502 0.007919 -0.001935
# 4 0.001299 -0.002630 -0.000502 0.020555 0.005260 -0.002629
# 5 0.001099 -0.002309 0.007919 0.005260 0.050625 -0.000866
# 6 -0.005903 0.003339 -0.001935 -0.002629 -0.000866 0.043103
#
#
# Mechanical properties :
#
#
# Convention : Reuss Voigt Hill
#
# Bulk Modulus (GPa) = 34.20581 41.95606 38.08094
# Shear Modulus (GPa) = 28.54260 35.69933 32.12096
#
# Velocity S-wave (km/s) = 3.40320 3.80602 3.61023
# Velocity P-wave (km/s) = 5.41499 6.02818 5.72979
#
# Compressibility (1/GPa) = 0.02923480
#
# Stress axis : x y z
#
# Youngs Moduli (GPa) = 95.95698 91.55752 53.05431
#
# Poissons Ratio (x) = 0.30276 -0.06924
# Poissons Ratio (y) = 0.31731 0.18446
# Poissons Ratio (z) = -0.12523 0.31833
#
# Static dielectric constant tensor:
#      x y z
#    x 4.460000 0.818830 -0.661030 
#    y 0.818830 9.728000 -4.419450 
#    z -0.661030 -4.419450 9.374510 
# 
# 
# High freq. dielectric constant tensor:
#      x y z
#    x 1.972260 -0.011950 0.020790 
#    y -0.011950 1.995060 0.019180 
#    z 0.020790 0.019180 1.991310 
# 
# From -- ./inp_files/53466.got.cif
#   From: 2010.06.25/outbox.cif.g09.slc.cpg/sg2_27_cif.got.tgz:53466.got - 2010.06.27 13:26:56.
