data_PCOD8030114
_publ_section_title
;
Structure prediction by ZEFSAII (Michael W. Deem and Ramdas Pophale) SiO2 
 PCOD8030114
Probable space group: P -1
;
_chemical_formula_sum "Si O2"
_cell_formula_units_Z 16
_cell_length_a 14.038689
_cell_length_b 8.422504
_cell_length_c 14.307406
_cell_angle_alpha 51.873235
_cell_angle_beta 42.104058
_cell_angle_gamma 82.390188
_cell_volume 701.889418
_symmetry_space_group_name_H-M "P -1"
_symmetry_group_IT_number 2
_symmetry_cell_setting 'triclinic'
loop_
_space_group_symop_operation_xyz
x,y,z
-x,-y,-z
loop_
_atom_site_type_symbol
_atom_site_label
_atom_site_fract_x
_atom_site_fract_y
_atom_site_fract_z
Si Si1 0.546936 0.886897 0.163296
Si Si2 0.295913 0.760039 0.547771
Si Si3 0.567322 0.273729 0.249630
Si Si4 0.294030 0.384675 0.799493
Si Si5 0.033703 0.114725 0.830047
Si Si6 0.060687 0.516647 0.190094
Si Si7 0.657012 0.552347 0.657277
Si Si8 0.142644 0.526471 0.319691
O O1 0.406641 0.893380 0.323897
O O2 0.589282 0.717446 0.252594
O O3 0.456121 0.744174 0.183218
O O4 0.713532 0.174684 0.916897
O O5 0.288500 0.511966 0.661925
O O6 0.092982 0.668839 0.708267
O O7 0.399364 0.967965 0.481007
O O8 0.632833 0.388843 0.262723
O O9 0.483836 0.404132 0.218421
O O10 0.738647 0.330067 0.052275
O O11 0.090701 0.128879 0.060548
O O12 0.967985 0.285859 0.819560
O O13 0.231029 0.273540 0.580154
O O14 0.000000 0.000000 0.000000
O O15 0.052795 0.373002 0.342617
O O16 0.778806 0.600959 0.639341
O O17 0.000000 0.500000 0.500000
#
# Coordination Sequence:
#
# PCOD8030114 Si02
#       8
#     2   2   2   2   2   2   2   2
#     4  11  21  42  70 102 136 180 237 294 345 411
#     4  12  23  45  68 101 145 187 230 285 350 420
#     4  11  28  45  63 104 148 184 235 280 361 422
#     4  11  23  40  71 102 143 184 228 287 354 416
#     4  12  22  44  73 106 139 179 238 293 342 410
#     4  12  25  44  71 102 140 183 233 286 355 405
#     4  11  25  44  70 103 141 185 234 293 347 410
#     4  12  22  44  74 102 136 179 246 294 342 409
#
# _framework density 22.795614
#
# number of rings (size 3 to 8) (size 9 to 14) (size 15 to 20)
#    0.000    0.500    6.250    1.125    1.750    5.000 
#    0.000    0.625    0.000    0.000    0.000    0.000 
#    0.000    0.000    0.000    0.000    0.000    0.000 
#
# Total GULP energy -198213.199281 kJ/mol
# GULP energy per Si atom -12388.324955 kJ/mol
# Density = 2.274373 g / cm^3
# Si number density = 22.795614 Si / 1000 Ang^3
#
#
#
# Elastic Constant Matrix: (Units=GPa)
#
#
# Indices 1 2 3 4 5 6 
#
# 1 118.2738 6.9779 42.5470 3.7971 -11.4294 -4.6531
# 2 6.9779 69.1039 30.8764 -7.2563 -16.4891 -1.0938
# 3 42.5470 30.8764 108.0388 -1.3578 -19.0830 -3.1664
# 4 3.7971 -7.2563 -1.3578 30.3512 3.0776 -17.0749
# 5 -11.4294 -16.4891 -19.0830 3.0776 39.1473 -6.9685
# 6 -4.6531 -1.0938 -3.1664 -17.0749 -6.9685 27.7930
#
#
#
# Elastic Compliance Matrix: (Units=1/GPa)
#
#
# Indices 1 2 3 4 5 6 
#
# 1 0.010047 0.001129 -0.003932 -0.000570 0.001782 0.001375
# 2 0.001129 0.018745 -0.004338 0.007114 0.006706 0.006485
# 3 -0.003932 -0.004338 0.012735 0.000786 0.003525 0.001988
# 4 -0.000570 0.007114 0.000786 0.053659 0.005141 0.034529
# 5 0.001782 0.006706 0.003525 0.005141 0.032383 0.012242
# 6 0.001375 0.006485 0.001988 0.034529 0.012242 0.060975
#
#
# Mechanical properties :
#
#
# Convention : Reuss Voigt Hill
#
# Bulk Modulus (GPa) = 36.70197 50.69103 43.69650
# Shear Modulus (GPa) = 23.59547 33.79266 28.69406
#
# Velocity S-wave (km/s) = 3.22077 3.85440 3.55174
# Velocity P-wave (km/s) = 5.47417 6.48799 6.00252
#
# Compressibility (1/GPa) = 0.02724649
#
# Stress axis : x y z
#
# Youngs Moduli (GPa) = 99.52960 53.34788 78.52548
#
# Poissons Ratio (x) = -0.06025 0.30873
# Poissons Ratio (y) = -0.11240 0.34064
# Poissons Ratio (z) = 0.39130 0.23142
#
# Static dielectric constant tensor:
#      x y z
#    x 4.908840 0.082110 -0.037860 
#    y 0.082110 4.016250 -0.210420 
#    z -0.037860 -0.210420 4.254180 
# 
# 
# High freq. dielectric constant tensor:
#      x y z
#    x 1.914000 0.006290 -0.020040 
#    y 0.006290 1.883590 -0.007600 
#    z -0.020040 -0.007600 1.895020 
# 
# From -- ./inp_files/273404.got.cif
#   From: 2010.06.25/outbox.cif.g09.slc.cpg/sg2_137_cif.got.tgz:273404.got - 2010.06.27 13:26:56.
