data_PCOD8030238
_publ_section_title
;
Structure prediction by ZEFSAII (Michael W. Deem and Ramdas Pophale) SiO2 
 PCOD8030238
Probable space group: P -1
;
_chemical_formula_sum "Si O2"
_cell_formula_units_Z 16
_cell_length_a 17.007626
_cell_length_b 12.075866
_cell_length_c 8.893171
_cell_angle_alpha 37.210143
_cell_angle_beta 73.143980
_cell_angle_gamma 46.874844
_cell_volume 658.710561
_symmetry_space_group_name_H-M "P -1"
_symmetry_group_IT_number 2
_symmetry_cell_setting 'triclinic'
loop_
_space_group_symop_operation_xyz
x,y,z
-x,-y,-z
loop_
_atom_site_type_symbol
_atom_site_label
_atom_site_fract_x
_atom_site_fract_y
_atom_site_fract_z
Si Si1 0.024044 0.269621 0.643573
Si Si2 0.643497 0.203137 0.808940
Si Si3 0.146849 0.596396 0.655332
Si Si4 0.186561 0.370393 0.194606
Si Si5 0.626938 0.685220 0.698643
Si Si6 0.083443 0.084372 0.117924
Si Si7 0.302300 0.823077 0.854297
Si Si8 0.371032 0.195606 0.769040
O O1 0.000000 0.500000 0.500000
O O2 0.909403 0.430125 0.418213
O O3 0.151291 0.034135 0.725468
O O4 0.041640 0.096213 0.958857
O O5 0.500000 0.500000 0.500000
O O6 0.771551 0.070028 0.796845
O O7 0.632114 0.273196 0.914874
O O8 0.669181 0.944247 0.070358
O O9 0.271806 0.470461 0.639660
O O10 0.073386 0.911690 0.405959
O O11 0.181541 0.404765 0.981354
O O12 0.240278 0.461259 0.145612
O O13 0.296226 0.022416 0.546195
O O14 0.037136 0.581423 0.106793
O O15 0.626026 0.712134 0.491951
O O16 0.500000 0.000000 0.500000
O O17 0.625660 0.466622 0.965139
O O18 0.500000 0.000000 0.000000
#
# Coordination Sequence:
#
# PCOD8030238 Si02
#       8
#     2   2   2   2   2   2   2   2
#     4  11  21  43  71 108 144 192 248 305 376 450
#     4  11  24  46  76 112 148 201 260 314 376 461
#     4  12  25  43  73 109 151 200 245 312 379 459
#     4  12  26  48  72 115 158 193 258 312 387 461
#     4  12  27  50  77 106 152 199 255 322 386 456
#     4  11  23  44  75 106 153 199 253 315 378 449
#     4  11  24  47  77 107 152 198 246 316 391 446
#     4  12  24  47  73 107 146 192 262 313 370 460
#
# _framework density 24.28988
#
# number of rings (size 3 to 8) (size 9 to 14) (size 15 to 20)
#    0.000    0.500    2.500    7.500    0.000    1.000 
#    6.750    0.000    0.000    0.000    0.000    0.000 
#    0.000    0.000    0.000    0.000    0.000    0.000 
#
# Total GULP energy -198220.786225 kJ/mol
# GULP energy per Si atom -12388.799139 kJ/mol
# Density = 2.423459 g / cm^3
# Si number density = 24.289880 Si / 1000 Ang^3
#
#
#
# Elastic Constant Matrix: (Units=GPa)
#
#
# Indices 1 2 3 4 5 6 
#
# 1 123.1421 29.0002 56.9090 0.9073 10.4352 17.5711
# 2 29.0002 100.4518 44.5942 0.7034 8.4685 -2.8709
# 3 56.9090 44.5942 148.5316 6.1020 2.0636 12.7303
# 4 0.9073 0.7034 6.1020 50.3393 6.6446 -4.3520
# 5 10.4352 8.4685 2.0636 6.6446 57.4494 -10.7543
# 6 17.5711 -2.8709 12.7303 -4.3520 -10.7543 27.3123
#
#
#
# Elastic Compliance Matrix: (Units=1/GPa)
#
#
# Indices 1 2 3 4 5 6 
#
# 1 0.011267 -0.001823 -0.003112 -0.000024 -0.003007 -0.007178
# 2 -0.001823 0.012100 -0.003279 0.000683 -0.000701 0.003806
# 3 -0.003112 -0.003279 0.009188 -0.001292 0.000365 -0.002687
# 4 -0.000024 0.000683 -0.001292 0.020533 -0.001817 0.003246
# 5 -0.003007 -0.000701 0.000365 -0.001817 0.019989 0.009272
# 6 -0.007178 0.003806 -0.002687 0.003246 0.009272 0.047052
#
#
# Mechanical properties :
#
#
# Convention : Reuss Voigt Hill
#
# Bulk Modulus (GPa) = 62.00452 70.34801 66.17626
# Shear Modulus (GPa) = 35.22822 43.12835 39.17829
#
# Velocity S-wave (km/s) = 3.81244 4.21832 4.02051
# Velocity P-wave (km/s) = 6.70537 7.26295 6.98972
#
# Compressibility (1/GPa) = 0.01612786
#
# Stress axis : x y z
#
# Youngs Moduli (GPa) = 88.75297 82.64466 108.84257
#
# Poissons Ratio (x) = 0.15065 0.33869
# Poissons Ratio (y) = 0.16179 0.35688
# Poissons Ratio (z) = 0.27617 0.27098
#
# Static dielectric constant tensor:
#      x y z
#    x 4.357990 -0.079550 -0.092280 
#    y -0.079550 4.181710 -0.028410 
#    z -0.092280 -0.028410 5.218030 
# 
# 
# High freq. dielectric constant tensor:
#      x y z
#    x 1.967640 -0.001930 -0.001470 
#    y -0.001930 1.956100 -0.009020 
#    z -0.001470 -0.009020 1.987590 
# 
# From -- ./inp_files/332738.got.cif
#   From: 2010.06.25/outbox.cif.g09.slc.cpg/sg2_167_cif.got.tgz:332738.got - 2010.06.27 13:26:56.
