data_PCOD8030478
_publ_section_title
;
Structure prediction by ZEFSAII (Michael W. Deem and Ramdas Pophale) SiO2 
 PCOD8030478
Probable space group: P -1
;
_chemical_formula_sum "Si O2"
_cell_formula_units_Z 16
_cell_length_a 13.568018
_cell_length_b 28.389915
_cell_length_c 18.741152
_cell_angle_alpha 15.832796
_cell_angle_beta 33.815368
_cell_angle_gamma 26.496867
_cell_volume 851.299353
_symmetry_space_group_name_H-M "P -1"
_symmetry_group_IT_number 2
_symmetry_cell_setting 'triclinic'
loop_
_space_group_symop_operation_xyz
x,y,z
-x,-y,-z
loop_
_atom_site_type_symbol
_atom_site_label
_atom_site_fract_x
_atom_site_fract_y
_atom_site_fract_z
Si Si1 0.979692 0.648741 0.371554
Si Si2 0.099955 0.120413 0.779637
Si Si3 0.047911 0.266459 0.969044
Si Si4 0.968153 0.506899 0.808353
Si Si5 0.401348 0.073704 0.241546
Si Si6 0.725069 0.358811 0.916111
Si Si7 0.505149 0.140430 0.354416
Si Si8 0.481071 0.833306 0.402188
O O1 0.090381 0.406559 0.689648
O O2 0.121348 0.626091 0.252561
O O3 0.991788 0.787926 0.220263
O O4 0.717186 0.779758 0.316437
O O5 0.001510 0.318742 0.493644
O O6 0.373723 0.946525 0.865855
O O7 0.000000 0.000000 0.000000
O O8 0.938643 0.392960 0.925924
O O9 0.872399 0.244376 0.067113
O O10 0.285508 0.023563 0.190916
O O11 0.747946 0.635951 0.803084
O O12 0.186708 0.327358 0.985937
O O13 0.373994 0.009890 0.429147
O O14 0.423602 0.908017 0.410853
O O15 0.504609 0.612173 0.699307
O O16 0.651221 0.220819 0.127948
O O17 0.500000 0.000000 0.500000
#
# Coordination Sequence:
#
# PCOD8030478 Si02
#       8
#     2   2   2   2   2   2   2   2
#     4   9  19  32  52  86 118 141 174 223 276 341
#     4   9  18  33  60  82 109 145 188 228 271 321
#     4   9  18  36  60  85 111 137 175 233 287 329
#     4   9  20  39  59  80 108 144 186 234 278 321
#     4   9  20  39  59  80 108 144 186 234 278 321
#     4  11  22  33  54  85 112 147 188 215 274 338
#     4  11  25  40  56  75 113 156 190 229 270 319
#     4   9  18  36  60  85 111 137 175 233 287 329
#
# _framework density 18.794798
#
# number of rings (size 3 to 8) (size 9 to 14) (size 15 to 20)
#    0.000    2.500    0.000    3.750    3.500    6.000 
#    0.000    2.500    0.000    0.000    0.000    0.000 
#    0.000    0.000    0.000    0.000    0.000    0.000 
#
# Total GULP energy -198323.686619 kJ/mol
# GULP energy per Si atom -12395.230414 kJ/mol
# Density = 1.875202 g / cm^3
# Si number density = 18.794798 Si / 1000 Ang^3
#
#
#
# Elastic Constant Matrix: (Units=GPa)
#
#
# Indices 1 2 3 4 5 6 
#
# 1 120.3037 53.3234 77.1897 -11.2765 -10.5085 -1.5382
# 2 53.3234 76.8906 55.4165 -15.0004 10.5309 7.1412
# 3 77.1897 55.4165 100.1945 -25.6827 6.1051 -16.0454
# 4 -11.2765 -15.0004 -25.6827 27.1722 -12.0531 7.5381
# 5 -10.5085 10.5309 6.1051 -12.0531 40.3695 -1.8028
# 6 -1.5382 7.1412 -16.0454 7.5381 -1.8028 25.8550
#
#
#
# Elastic Compliance Matrix: (Units=1/GPa)
#
#
# Indices 1 2 3 4 5 6 
#
# 1 0.020576 -0.003823 -0.016159 -0.003885 0.007365 -0.006102
# 2 -0.003823 0.030422 -0.015957 0.002684 -0.006600 -0.019776
# 3 -0.016159 -0.015957 0.038690 0.014356 -0.000571 0.023231
# 4 -0.003885 0.002684 0.014356 0.058347 0.013174 -0.008156
# 5 0.007365 -0.006600 -0.000571 0.013174 0.032444 0.000328
# 6 -0.006102 -0.019776 0.023231 -0.008156 0.000328 0.060594
#
#
# Mechanical properties :
#
#
# Convention : Reuss Voigt Hill
#
# Bulk Modulus (GPa) = 56.15171 74.36089 65.25630
# Shear Modulus (GPa) = 15.67950 26.10997 20.89473
#
# Velocity S-wave (km/s) = 2.89147 3.73126 3.33788
# Velocity P-wave (km/s) = 6.41003 7.62978 7.04635
#
# Compressibility (1/GPa) = 0.01780890
#
# Stress axis : x y z
#
# Youngs Moduli (GPa) = 48.60071 32.87113 25.84646
#
# Poissons Ratio (x) = 0.12568 0.41764
# Poissons Ratio (y) = 0.18581 0.41244
# Poissons Ratio (z) = 0.78532 0.52454
#
# Static dielectric constant tensor:
#      x y z
#    x 3.701070 -0.070290 0.310910 
#    y -0.070290 3.544360 -0.449300 
#    z 0.310910 -0.449300 3.772170 
# 
# 
# High freq. dielectric constant tensor:
#      x y z
#    x 1.732780 0.006270 0.004600 
#    y 0.006270 1.722740 -0.011130 
#    z 0.004600 -0.011130 1.722900 
# 
# From -- ./inp_files/571186.got.cif
#   From: 2010.06.25/outbox.cif.g09.slc.cpg/sg2_286_cif.got.tgz:571186.got - 2010.06.27 13:26:56.
