data_PCOD8030435
_publ_section_title
;
Structure prediction by ZEFSAII (Michael W. Deem and Ramdas Pophale) SiO2 
 PCOD8030435
Probable space group: P -1
;
_chemical_formula_sum "Si O2"
_cell_formula_units_Z 16
_cell_length_a 11.605975
_cell_length_b 18.113400
_cell_length_c 9.193289
_cell_angle_alpha 29.314518
_cell_angle_beta 56.405016
_cell_angle_gamma 53.079529
_cell_volume 754.326255
_symmetry_space_group_name_H-M "P -1"
_symmetry_group_IT_number 2
_symmetry_cell_setting 'triclinic'
loop_
_space_group_symop_operation_xyz
x,y,z
-x,-y,-z
loop_
_atom_site_type_symbol
_atom_site_label
_atom_site_fract_x
_atom_site_fract_y
_atom_site_fract_z
Si Si1 0.126819 0.570907 0.335850
Si Si2 0.705638 0.192068 0.676595
Si Si3 0.614930 0.727967 0.331234
Si Si4 0.144983 0.859066 0.640865
Si Si5 0.139417 0.614189 0.589433
Si Si6 0.671515 0.950497 0.676959
Si Si7 0.822396 0.712807 0.749157
Si Si8 0.640776 0.888298 0.331338
O O1 0.283405 0.447582 0.414808
O O2 0.107592 0.629473 0.414545
O O3 0.000000 0.500000 0.500000
O O4 0.112893 0.715426 0.991680
O O5 0.538147 0.279540 0.610147
O O6 0.805688 0.195706 0.462385
O O7 0.752647 0.285460 0.615566
O O8 0.729201 0.011684 0.018631
O O9 0.585724 0.824579 0.334536
O O10 0.694395 0.817284 0.013376
O O11 0.270537 0.908084 0.551989
O O12 0.000000 0.000000 0.500000
O O13 0.992289 0.681746 0.665688
O O14 0.212890 0.432391 0.895309
O O15 0.760613 0.873372 0.605962
O O16 0.502683 0.022531 0.630930
O O17 0.742706 0.741095 0.600450
#
# Coordination Sequence:
#
# PCOD8030435 Si02
#       8
#     2   2   2   2   2   2   2   2
#     4  12  28  46  71  97 136 182 225 274 339 395
#     4  11  25  44  67 103 136 175 225 278 338 392
#     4  11  22  47  71  96 139 178 223 280 329 404
#     4  12  26  42  71 101 135 173 227 279 329 405
#     4  11  27  46  63 100 136 177 226 279 334 396
#     4  11  21  46  66 102 132 176 227 274 335 398
#     4  11  25  43  70  93 138 178 224 276 337 401
#     4  11  23  43  73  98 138 174 222 281 335 396
#
# _framework density 21.210981
#
# number of rings (size 3 to 8) (size 9 to 14) (size 15 to 20)
#    0.000    0.750    3.750    3.375    8.750    2.500 
#    0.000    0.000    0.000    0.000    0.000    0.000 
#    0.000    0.000    0.000    0.000    0.000    0.000 
#
# Total GULP energy -198521.460426 kJ/mol
# GULP energy per Si atom -12407.591277 kJ/mol
# Density = 2.116270 g / cm^3
# Si number density = 21.210981 Si / 1000 Ang^3
#
#
#
# Elastic Constant Matrix: (Units=GPa)
#
#
# Indices 1 2 3 4 5 6 
#
# 1 122.4027 35.8919 47.0505 -0.0004 -10.8285 13.0462
# 2 35.8919 101.9795 30.2674 2.9386 -7.6867 3.6057
# 3 47.0505 30.2674 129.6705 1.5995 -2.2452 -5.0722
# 4 -0.0004 2.9386 1.5995 29.9178 -0.2427 5.8983
# 5 -10.8285 -7.6867 -2.2452 -0.2427 35.4621 -10.2669
# 6 13.0462 3.6057 -5.0722 5.8983 -10.2669 42.8192
#
#
#
# Elastic Compliance Matrix: (Units=1/GPa)
#
#
# Indices 1 2 3 4 5 6 
#
# 1 0.010710 -0.002559 -0.003401 0.001081 0.001575 -0.003222
# 2 -0.002559 0.011349 -0.001674 -0.001043 0.001611 0.000155
# 3 -0.003401 -0.001674 0.009438 -0.000810 -0.000121 0.002378
# 4 0.001081 -0.001043 -0.000810 0.034628 -0.001278 -0.005414
# 5 0.001575 0.001611 -0.000121 -0.001278 0.031036 0.006988
# 6 -0.003222 0.000155 0.002378 -0.005414 0.006988 0.027025
#
#
# Mechanical properties :
#
#
# Convention : Reuss Voigt Hill
#
# Bulk Modulus (GPa) = 61.61490 64.49693 63.05592
# Shear Modulus (GPa) = 34.51552 37.69601 36.10577
#
# Velocity S-wave (km/s) = 4.03829 4.22025 4.13027
# Velocity P-wave (km/s) = 7.13130 7.36347 7.24831
#
# Compressibility (1/GPa) = 0.01622984
#
# Stress axis : x y z
#
# Youngs Moduli (GPa) = 93.37030 88.11232 105.96006
#
# Poissons Ratio (x) = 0.22544 0.36037
# Poissons Ratio (y) = 0.23889 0.17737
# Poissons Ratio (z) = 0.31755 0.14749
#
# Static dielectric constant tensor:
#      x y z
#    x 3.815910 -0.008020 0.044900 
#    y -0.008020 3.869910 0.021740 
#    z 0.044900 0.021740 3.874650 
# 
# 
# High freq. dielectric constant tensor:
#      x y z
#    x 1.838630 -0.001870 0.003510 
#    y -0.001870 1.842840 0.001550 
#    z 0.003510 0.001550 1.829990 
# 
# From -- ./inp_files/184358.got.cif
#   From: 2010.06.25/outbox.cif.g09.slc.cpg/sg2_93_cif.got.tgz:184358.got - 2010.06.27 13:26:56.
