data_PCOD8030875
_publ_section_title
;
Structure prediction by ZEFSAII (Michael W. Deem and Ramdas Pophale) SiO2 
 PCOD8030875
Probable space group: P -1
;
_chemical_formula_sum "Si O2"
_cell_formula_units_Z 16
_cell_length_a 14.370269
_cell_length_b 23.329524
_cell_length_c 9.623543
_cell_angle_alpha 145.343717
_cell_angle_beta 128.274153
_cell_angle_gamma 26.800880
_cell_volume 739.691195
_symmetry_space_group_name_H-M "P -1"
_symmetry_group_IT_number 2
_symmetry_cell_setting 'triclinic'
loop_
_space_group_symop_operation_xyz
x,y,z
-x,-y,-z
loop_
_atom_site_type_symbol
_atom_site_label
_atom_site_fract_x
_atom_site_fract_y
_atom_site_fract_z
Si Si1 0.166278 0.317170 0.889626
Si Si2 0.661858 0.374321 0.078879
Si Si3 0.922526 0.479982 0.271431
Si Si4 0.035180 0.776169 0.178463
Si Si5 0.580502 0.197372 0.660790
Si Si6 0.788687 0.247974 0.457486
Si Si7 0.659701 0.026457 0.684186
Si Si8 0.018633 0.875546 0.891162
O O1 0.421920 0.172786 0.828342
O O2 0.176434 0.190090 0.617626
O O3 0.000000 0.500000 0.000000
O O4 0.072305 0.404327 0.129039
O O5 0.457898 0.595247 0.387739
O O6 0.881940 0.246979 0.122030
O O7 0.741710 0.339193 0.925596
O O8 0.575553 0.322295 0.916757
O O9 0.650502 0.676711 0.374398
O O10 0.000000 0.500000 0.500000
O O11 0.996521 0.316951 0.071911
O O12 0.089997 0.749310 0.339847
O O13 0.796476 0.008117 0.385013
O O14 0.608716 0.125525 0.694333
O O15 0.778008 0.281913 0.351447
O O16 0.968246 0.025696 0.193222
O O17 0.783133 0.003016 0.868625
#
# Coordination Sequence:
#
# PCOD8030875 Si02
#       8
#     2   2   2   2   2   2   2   2
#     4  11  24  47  73  97 134 182 238 281 353 406
#     4  12  26  40  72 104 137 192 227 273 350 419
#     4  12  28  46  70 104 135 182 238 292 341 409
#     4  12  25  47  68  98 145 183 231 282 347 425
#     4  12  23  45  74  97 138 187 223 287 355 404
#     4  11  22  41  64  97 143 178 227 273 345 408
#     4  11  24  43  73 101 134 182 229 292 344 406
#     4  11  23  41  66 103 139 172 229 289 332 414
#
# _framework density 21.630648000000001
#
# number of rings (size 3 to 8) (size 9 to 14) (size 15 to 20)
#    0.000    0.500    6.250    1.875    0.000    4.500 
#    0.000    0.000    0.000    0.000    0.000    0.000 
#    0.000    0.000    0.000    0.000    0.000    0.000 
#
# Total GULP energy -198340.146195 kJ/mol
# GULP energy per Si atom -12396.259137 kJ/mol
# Density = 2.158142 g / cm^3
# Si number density = 21.630648 Si / 1000 Ang^3
#
#
#
# Elastic Constant Matrix: (Units=GPa)
#
#
# Indices 1 2 3 4 5 6 
#
# 1 116.9515 27.3641 58.1871 2.4612 -11.4733 -2.2538
# 2 27.3641 99.4066 50.7394 -7.7976 1.4633 -10.8242
# 3 58.1871 50.7394 133.3507 -0.9958 -9.0188 -5.4658
# 4 2.4612 -7.7976 -0.9958 37.3624 -11.9917 -1.4115
# 5 -11.4733 1.4633 -9.0188 -11.9917 32.9813 10.3029
# 6 -2.2538 -10.8242 -5.4658 -1.4115 10.3029 34.6688
#
#
#
# Elastic Compliance Matrix: (Units=1/GPa)
#
#
# Indices 1 2 3 4 5 6 
#
# 1 0.011244 -0.001068 -0.004341 -0.000129 0.003104 -0.001214
# 2 -0.001068 0.013383 -0.004628 0.001987 -0.002854 0.004308
# 3 -0.004341 -0.004628 0.011272 0.000255 0.002041 -0.000546
# 4 -0.000129 0.001987 0.000255 0.030874 0.011647 -0.001552
# 5 0.003104 -0.002854 0.002041 0.011647 0.040000 -0.011780
# 6 -0.001214 0.004308 -0.000546 -0.001552 -0.011780 0.033462
#
#
# Mechanical properties :
#
#
# Convention : Reuss Voigt Hill
#
# Bulk Modulus (GPa) = 63.18830 69.14334 66.16582
# Shear Modulus (GPa) = 30.19651 35.23040 32.71346
#
# Velocity S-wave (km/s) = 3.74037 4.04013 3.89313
# Velocity P-wave (km/s) = 6.92312 7.33474 7.13190
#
# Compressibility (1/GPa) = 0.01582571
#
# Stress axis : x y z
#
# Youngs Moduli (GPa) = 88.93728 74.72323 88.71899
#
# Poissons Ratio (x) = 0.07977 0.38511
# Poissons Ratio (y) = 0.09494 0.41058
# Poissons Ratio (z) = 0.38606 0.34581
#
# Static dielectric constant tensor:
#      x y z
#    x 4.010050 -0.056130 -0.186470 
#    y -0.056130 4.018360 0.211820 
#    z -0.186470 0.211820 4.100960 
# 
# 
# High freq. dielectric constant tensor:
#      x y z
#    x 1.848020 -0.006950 -0.012130 
#    y -0.006950 1.858390 0.011490 
#    z -0.012130 0.011490 1.855170 
# 
# From -- ./inp_files/320361.got.cif
#   From: 2010.06.25/outbox.cif.g09.slc.cpg/sg2_161_cif.got.tgz:320361.got - 2010.06.27 13:26:56.
