data_PCOD8030560
_publ_section_title
;
Structure prediction by ZEFSAII (Michael W. Deem and Ramdas Pophale) SiO2 
 PCOD8030560
Probable space group: P -1
;
_chemical_formula_sum "Si O2"
_cell_formula_units_Z 16
_cell_length_a 14.220208
_cell_length_b 14.295755
_cell_length_c 9.040301
_cell_angle_alpha 84.028287
_cell_angle_beta 103.680588
_cell_angle_gamma 31.579429
_cell_volume 747.771643
_symmetry_space_group_name_H-M "P -1"
_symmetry_group_IT_number 2
_symmetry_cell_setting 'triclinic'
loop_
_space_group_symop_operation_xyz
x,y,z
-x,-y,-z
loop_
_atom_site_type_symbol
_atom_site_label
_atom_site_fract_x
_atom_site_fract_y
_atom_site_fract_z
Si Si1 0.500507 0.285857 0.393709
Si Si2 0.632032 0.962622 0.469888
Si Si3 0.728840 0.802733 0.210301
Si Si4 0.930885 0.964143 0.799480
Si Si5 0.160825 0.953487 0.913820
Si Si6 0.870268 0.467785 0.285910
Si Si7 0.053100 0.679322 0.346517
Si Si8 0.386103 0.446111 0.003969
O O1 0.277392 0.509659 0.366587
O O2 0.485618 0.350163 0.220752
O O3 0.490926 0.182504 0.389936
O O4 0.731126 0.117743 0.584803
O O5 0.663042 0.904966 0.323759
O O6 0.884124 0.754228 0.669533
O O7 0.500000 0.000000 0.500000
O O8 0.826426 0.612552 0.297524
O O9 0.922905 0.701026 0.229787
O O10 0.500000 0.000000 0.000000
O O11 0.970991 0.040671 0.801901
O O12 0.163397 0.708496 0.874994
O O13 0.849662 0.003434 0.926244
O O14 0.413325 0.690850 0.006616
O O15 0.115393 0.082646 0.769159
O O16 0.874694 0.397736 0.443796
O O17 0.682117 0.596604 0.079142
#
# Coordination Sequence:
#
# PCOD8030560 Si02
#       8
#     2   2   2   2   2   2   2   2
#     4  12  24  43  69  99 139 174 228 285 332 408
#     4  11  22  38  62  94 131 173 222 274 330 391
#     4  11  23  40  63  95 134 179 226 269 337 406
#     4  11  26  49  68 102 136 178 229 280 345 399
#     4  11  25  47  72  98 137 179 224 284 340 406
#     4  11  22  42  65  94 136 177 222 273 335 401
#     4  11  23  43  68  98 135 182 226 276 346 400
#     4  12  24  46  70 103 134 178 228 279 341 400
#
# _framework density 21.396906999999999
#
# number of rings (size 3 to 8) (size 9 to 14) (size 15 to 20)
#    0.000    0.750    2.500    7.125    0.000    3.000 
#    2.250    2.500    0.000    0.000    0.000    0.000 
#    0.000    0.000    0.000    0.000    0.000    0.000 
#
# Total GULP energy -198455.513117 kJ/mol
# GULP energy per Si atom -12403.469570 kJ/mol
# Density = 2.134821 g / cm^3
# Si number density = 21.396907 Si / 1000 Ang^3
#
#
#
# Elastic Constant Matrix: (Units=GPa)
#
#
# Indices 1 2 3 4 5 6 
#
# 1 97.7170 23.6909 46.2853 5.1287 2.8446 -4.3735
# 2 23.6909 102.6831 34.0742 -3.7904 8.2222 -17.7440
# 3 46.2853 34.0742 125.1092 -3.4273 11.4644 -2.4344
# 4 5.1287 -3.7904 -3.4273 25.1070 -0.2166 5.1225
# 5 2.8446 8.2222 11.4644 -0.2166 29.0378 -2.9150
# 6 -4.3735 -17.7440 -2.4344 5.1225 -2.9150 42.3399
#
#
#
# Elastic Compliance Matrix: (Units=1/GPa)
#
#
# Indices 1 2 3 4 5 6 
#
# 1 0.012971 -0.001534 -0.004558 -0.003689 0.001031 0.000952
# 2 -0.001534 0.011824 -0.002377 0.000854 -0.001808 0.004432
# 3 -0.004558 -0.002377 0.010657 0.002275 -0.003206 -0.001350
# 4 -0.003689 0.000854 0.002275 0.042044 -0.000972 -0.005046
# 5 0.001031 -0.001808 -0.003206 -0.000972 0.036286 0.001780
# 6 0.000952 0.004432 -0.001350 -0.005046 0.001780 0.026230
#
#
# Mechanical properties :
#
#
# Convention : Reuss Voigt Hill
#
# Bulk Modulus (GPa) = 54.01882 59.29000 56.65441
# Shear Modulus (GPa) = 30.65229 34.06085 32.35657
#
# Velocity S-wave (km/s) = 3.78902 3.99414 3.89293
# Velocity P-wave (km/s) = 6.66657 7.00290 6.83680
#
# Compressibility (1/GPa) = 0.01851207
#
# Stress axis : x y z
#
# Youngs Moduli (GPa) = 77.09691 84.57534 93.83922
#
# Poissons Ratio (x) = 0.12977 0.42770
# Poissons Ratio (y) = 0.11830 0.22309
# Poissons Ratio (z) = 0.35139 0.20106
#
# Static dielectric constant tensor:
#      x y z
#    x 4.826630 -0.219250 0.834280 
#    y -0.219250 4.075180 -0.352650 
#    z 0.834280 -0.352650 4.360190 
# 
# 
# High freq. dielectric constant tensor:
#      x y z
#    x 1.845720 -0.001270 0.008360 
#    y -0.001270 1.852540 -0.008320 
#    z 0.008360 -0.008320 1.840000 
# 
# From -- ./inp_files/315117.got.cif
#   From: 2010.06.25/outbox.cif.g09.slc.cpg/sg2_158_cif.got.tgz:315117.got - 2010.06.27 13:26:56.
