data_PCOD8030513
_publ_section_title
;
Structure prediction by ZEFSAII (Michael W. Deem and Ramdas Pophale) SiO2 
 PCOD8030513
Probable space group: P -1
;
_chemical_formula_sum "Si O2"
_cell_formula_units_Z 14
_cell_length_a 6.799540
_cell_length_b 10.982548
_cell_length_c 19.573559
_cell_angle_alpha 149.808545
_cell_angle_beta 112.535275
_cell_angle_gamma 65.706242
_cell_volume 668.754791
_symmetry_space_group_name_H-M "P -1"
_symmetry_group_IT_number 2
_symmetry_cell_setting 'triclinic'
loop_
_space_group_symop_operation_xyz
x,y,z
-x,-y,-z
loop_
_atom_site_type_symbol
_atom_site_label
_atom_site_fract_x
_atom_site_fract_y
_atom_site_fract_z
Si Si1 0.641038 0.902577 0.289890
Si Si2 0.572006 0.192263 0.294093
Si Si3 0.053186 0.537283 0.190596
Si Si4 0.447267 0.786241 0.342250
Si Si5 0.201078 0.625097 0.471417
Si Si6 0.868849 0.433909 0.257310
Si Si7 0.713697 0.980642 0.064368
O O1 0.461516 0.855561 0.297798
O O2 0.823183 0.659121 0.187214
O O3 0.529312 0.978299 0.238234
O O4 0.753451 0.129558 0.442837
O O5 0.354906 0.384343 0.345110
O O6 0.751031 0.338747 0.423679
O O7 0.654284 0.069477 0.175521
O O8 0.209739 0.737428 0.303345
O O9 0.024955 0.464193 0.229750
O O10 0.155492 0.294552 0.045144
O O11 0.620075 0.543285 0.263401
O O12 0.500000 0.000000 0.500000
O O13 0.957621 0.578936 0.403061
O O14 0.876423 0.147496 0.135384
O O15 0.500000 0.000000 0.000000
#
# Coordination Sequence:
#
# PCOD8030513 Si02
#       7
#     2   2   2   2   2   2   2
#     4   9  21  42  61  94 129 165 203 262 321 365
#     4   9  22  41  66  92 131 165 208 267 312 376
#     4  11  23  41  62  95 132 164 213 259 308 383
#     4  11  22  36  67  96 127 169 205 263 318 367
#     4   9  19  42  65  94 131 154 213 267 317 362
#     4  11  23  39  67  95 122 168 211 269 310 367
#     4  12  24  42  66  91 126 173 217 253 319 380
#
# _framework density 20.934429999999999
#
# number of rings (size 3 to 8) (size 9 to 14) (size 15 to 20)
#    0.857    0.857    1.429    3.000    2.000    3.429 
#    2.571    0.714    0.000    0.000    0.000    0.000 
#    0.000    0.000    0.000    0.000    0.000    0.000 
#
# Total GULP energy -173546.871397 kJ/mol
# GULP energy per Si atom -12396.205100 kJ/mol
# Density = 2.088678 g / cm^3
# Si number density = 20.934430 Si / 1000 Ang^3
#
#
#
# Elastic Constant Matrix: (Units=GPa)
#
#
# Indices 1 2 3 4 5 6 
#
# 1 90.5725 35.9020 30.0048 -3.1250 -5.7442 27.4196
# 2 35.9020 94.1262 32.1645 10.3421 -11.5148 13.6431
# 3 30.0048 32.1645 91.3921 6.3003 -16.1615 18.6531
# 4 -3.1250 10.3421 6.3003 37.4761 -1.7414 -0.7025
# 5 -5.7442 -11.5148 -16.1615 -1.7414 43.5090 8.2573
# 6 27.4196 13.6431 18.6531 -0.7025 8.2573 26.2901
#
#
#
# Elastic Compliance Matrix: (Units=1/GPa)
#
#
# Indices 1 2 3 4 5 6 
#
# 1 0.018853 -0.004050 -0.000183 0.002600 0.005049 -0.018947
# 2 -0.004050 0.014051 -0.002454 -0.003726 0.002545 -0.002225
# 3 -0.000183 -0.002454 0.015776 -0.001873 0.007409 -0.012105
# 4 0.002600 -0.003726 -0.001873 0.028248 -0.000485 0.001458
# 5 0.005049 0.002545 0.007409 -0.000485 0.031164 -0.021644
# 6 -0.018947 -0.002225 -0.012105 0.001458 -0.021644 0.074379
#
#
# Mechanical properties :
#
#
# Convention : Reuss Voigt Hill
#
# Bulk Modulus (GPa) = 28.32528 52.47039 40.39783
# Shear Modulus (GPa) = 24.08310 33.32303 28.70306
#
# Velocity S-wave (km/s) = 3.39544 3.99404 3.70685
# Velocity P-wave (km/s) = 5.37884 6.81090 6.13679
#
# Compressibility (1/GPa) = 0.03530416
#
# Stress axis : x y z
#
# Youngs Moduli (GPa) = 53.04188 71.17038 63.38885
#
# Poissons Ratio (x) = 0.28824 0.01163
# Poissons Ratio (y) = 0.21482 0.15557
# Poissons Ratio (z) = 0.00973 0.17466
#
# Static dielectric constant tensor:
#      x y z
#    x 3.581220 0.023550 -0.026360 
#    y 0.023550 3.838130 0.213430 
#    z -0.026360 0.213430 3.686880 
# 
# 
# High freq. dielectric constant tensor:
#      x y z
#    x 1.806440 0.001130 -0.005110 
#    y 0.001130 1.822620 0.015750 
#    z -0.005110 0.015750 1.813200 
# 
# From -- ./inp_files/459546.got.cif
#   From: 2010.06.25/outbox.cif.g09.slc.cpg/sg2_230_cif.got.tgz:459546.got - 2010.06.27 13:26:56.
