data_PCOD8030411
_publ_section_title
;
Structure prediction by ZEFSAII (Michael W. Deem and Ramdas Pophale) SiO2 
 PCOD8030411
Probable space group: P -1
;
_chemical_formula_sum "Si O2"
_cell_formula_units_Z 16
_cell_length_a 17.958410
_cell_length_b 12.128321
_cell_length_c 11.549912
_cell_angle_alpha 140.999745
_cell_angle_beta 152.054136
_cell_angle_gamma 45.957498
_cell_volume 741.601035
_symmetry_space_group_name_H-M "P -1"
_symmetry_group_IT_number 2
_symmetry_cell_setting 'triclinic'
loop_
_space_group_symop_operation_xyz
x,y,z
-x,-y,-z
loop_
_atom_site_type_symbol
_atom_site_label
_atom_site_fract_x
_atom_site_fract_y
_atom_site_fract_z
Si Si1 0.795570 0.906175 0.588598
Si Si2 0.052902 0.081789 0.954459
Si Si3 0.674834 0.171169 0.213135
Si Si4 0.371643 0.369065 0.006708
Si Si5 0.691141 0.786348 0.974229
Si Si6 0.373388 0.003370 0.228295
Si Si7 0.564720 0.247819 0.568254
Si Si8 0.007999 0.294807 0.838950
O O1 0.893825 0.843250 0.786069
O O2 0.686696 0.081101 0.604913
O O3 0.697339 0.736976 0.282536
O O4 0.910515 0.951048 0.675873
O O5 0.200191 0.972403 0.014690
O O6 0.002237 0.228777 0.910798
O O7 0.559094 0.317128 0.233031
O O8 0.854990 0.231945 0.507522
O O9 0.666186 0.993873 0.132158
O O10 0.607585 0.139372 0.964533
O O11 0.351730 0.578332 0.128512
O O12 0.272077 0.317294 0.941610
O O13 0.836445 0.770195 0.069744
O O14 0.518161 0.713767 0.638091
O O15 0.404652 0.197439 0.378389
O O16 0.500000 0.000000 0.500000
O O17 0.000000 0.500000 0.000000
#
# Coordination Sequence:
#
# PCOD8030411 Si02
#       8
#     2   2   2   2   2   2   2   2
#     4  11  25  46  69  98 132 186 215 280 339 392
#     4  11  24  45  71  90 139 180 223 270 341 400
#     4  11  23  40  66  97 129 181 224 265 346 394
#     4  12  24  42  68 103 134 169 232 273 334 407
#     4  11  23  41  66  97 136 179 221 277 339 392
#     4  11  21  45  71  93 132 176 220 274 329 399
#     4  11  23  42  67 100 132 173 226 275 337 390
#     4  12  26  42  64 102 138 176 226 283 332 396
#
# _framework density 21.574940999999999
#
# number of rings (size 3 to 8) (size 9 to 14) (size 15 to 20)
#    0.000    0.750    6.250    2.625    5.250    0.000 
#    2.250    3.750    0.000    0.000    0.000    0.000 
#    0.000    0.000    0.000    0.000    0.000    0.000 
#
# Total GULP energy -198239.205859 kJ/mol
# GULP energy per Si atom -12389.950366 kJ/mol
# Density = 2.152584 g / cm^3
# Si number density = 21.574941 Si / 1000 Ang^3
#
#
#
# Elastic Constant Matrix: (Units=GPa)
#
#
# Indices 1 2 3 4 5 6 
#
# 1 108.2352 29.7035 35.9198 2.2995 9.2128 12.4655
# 2 29.7035 77.4076 61.3889 13.1441 -10.0324 0.2838
# 3 35.9198 61.3889 143.6514 8.9600 -4.1981 -1.9391
# 4 2.2995 13.1441 8.9600 38.3715 -2.2996 -7.1896
# 5 9.2128 -10.0324 -4.1981 -2.2996 34.7470 -10.4853
# 6 12.4655 0.2838 -1.9391 -7.1896 -10.4853 24.9704
#
#
#
# Elastic Compliance Matrix: (Units=1/GPa)
#
#
# Indices 1 2 3 4 5 6 
#
# 1 0.012899 -0.004464 -0.001613 -0.001278 -0.008091 -0.010279
# 2 -0.004464 0.022760 -0.008063 -0.004615 0.007420 0.003131
# 3 -0.001613 -0.008063 0.010794 0.000707 0.000041 0.001956
# 4 -0.001278 -0.004615 0.000707 0.029926 0.004463 0.011236
# 5 -0.008091 0.007420 0.000041 0.004463 0.040021 0.022048
# 6 -0.010279 0.003131 0.001956 0.011236 0.022048 0.057788
#
#
# Mechanical properties :
#
#
# Convention : Reuss Voigt Hill
#
# Bulk Modulus (GPa) = 55.02976 64.81318 59.92147
# Shear Modulus (GPa) = 23.97768 33.10324 28.54046
#
# Velocity S-wave (km/s) = 3.33733 3.92131 3.64105
# Velocity P-wave (km/s) = 6.35705 7.11396 6.74613
#
# Compressibility (1/GPa) = 0.01817199
#
# Stress axis : x y z
#
# Youngs Moduli (GPa) = 77.52327 43.93626 92.64482
#
# Poissons Ratio (x) = 0.19615 0.14944
# Poissons Ratio (y) = 0.34610 0.74701
# Poissons Ratio (z) = 0.12505 0.35427
#
# Static dielectric constant tensor:
#      x y z
#    x 4.019410 0.188510 -0.116820 
#    y 0.188510 2.883360 0.889630 
#    z -0.116820 0.889630 2.788560 
# 
# 
# High freq. dielectric constant tensor:
#      x y z
#    x 1.854900 0.006540 0.008950 
#    y 0.006540 1.822150 -0.015590 
#    z 0.008950 -0.015590 1.859560 
# 
# From -- ./inp_files/464926.got.cif
#   From: 2010.06.25/outbox.cif.g09.slc.cpg/sg2_233_cif.got.tgz:464926.got - 2010.06.27 13:26:56.
