data_PCOD8030486
_publ_section_title
;
Structure prediction by ZEFSAII (Michael W. Deem and Ramdas Pophale) SiO2 
 PCOD8030486
Probable space group: P -1
;
_chemical_formula_sum "Si O2"
_cell_formula_units_Z 14
_cell_length_a 16.385477
_cell_length_b 13.197548
_cell_length_c 13.223966
_cell_angle_alpha 151.070372
_cell_angle_beta 147.430118
_cell_angle_gamma 35.795101
_cell_volume 714.366843
_symmetry_space_group_name_H-M "P -1"
_symmetry_group_IT_number 2
_symmetry_cell_setting 'triclinic'
loop_
_space_group_symop_operation_xyz
x,y,z
-x,-y,-z
loop_
_atom_site_type_symbol
_atom_site_label
_atom_site_fract_x
_atom_site_fract_y
_atom_site_fract_z
Si Si1 0.292613 0.087819 0.636757
Si Si2 0.581876 0.125459 0.618677
Si Si3 0.465123 0.241793 0.284059
Si Si4 0.116020 0.759423 0.894659
Si Si5 0.016912 0.587636 0.437970
Si Si6 0.313179 0.461813 0.509329
Si Si7 0.533307 0.218627 0.119598
O O1 0.106352 0.198457 0.552291
O O2 0.324303 0.052643 0.519693
O O3 0.362425 0.855015 0.564925
O O4 0.380436 0.258850 0.922539
O O5 0.444421 0.310180 0.584745
O O6 0.500000 0.000000 0.500000
O O7 0.704316 0.234765 0.896416
O O8 0.333625 0.381500 0.344340
O O9 0.485401 0.355489 0.296364
O O10 0.396096 0.037164 0.003808
O O11 0.107388 0.668134 0.693580
O O12 0.071021 0.591038 0.777635
O O13 0.000000 0.000000 0.000000
O O14 0.140738 0.476048 0.382986
O O15 0.337998 0.702136 0.740061
#
# Coordination Sequence:
#
# PCOD8030486 Si02
#       7
#     2   2   2   2   2   2   2
#     4   9  19  39  57  83 114 153 187 231 295 339
#     4  11  23  38  61  85 116 156 200 239 279 340
#     4   8  19  38  63  83 115 145 198 242 285 342
#     4  11  23  40  57  77 122 162 189 236 285 335
#     4  11  24  37  56  87 118 156 193 231 293 347
#     4  11  22  35  60  90 112 150 197 238 285 344
#     4   9  18  38  66  81 112 153 195 241 285 341
#
# _framework density 19.597774000000001
#
# number of rings (size 3 to 8) (size 9 to 14) (size 15 to 20)
#    0.857    1.143    1.429    2.143    4.000    1.714 
#    0.000    1.429    0.000    0.000    0.000    0.000 
#    0.000    0.000    0.000    0.000    0.000    0.000 
#
# Total GULP energy -173472.622345 kJ/mol
# GULP energy per Si atom -12390.901596 kJ/mol
# Density = 1.955317 g / cm^3
# Si number density = 19.597774 Si / 1000 Ang^3
#
#
#
# Elastic Constant Matrix: (Units=GPa)
#
#
# Indices 1 2 3 4 5 6 
#
# 1 111.8343 37.6651 57.7450 -2.6239 9.3647 -7.4502
# 2 37.6651 72.1918 18.1728 -7.8061 6.5662 -18.1450
# 3 57.7450 18.1728 99.1838 -15.5356 6.2871 -1.8359
# 4 -2.6239 -7.8061 -15.5356 19.2263 -0.3444 4.6320
# 5 9.3647 6.5662 6.2871 -0.3444 31.9141 0.1861
# 6 -7.4502 -18.1450 -1.8359 4.6320 0.1861 29.2868
#
#
#
# Elastic Compliance Matrix: (Units=1/GPa)
#
#
# Indices 1 2 3 4 5 6 
#
# 1 0.015886 -0.006522 -0.009212 -0.008125 -0.001597 0.000718
# 2 -0.006522 0.020326 0.001357 0.005983 -0.002530 0.010089
# 3 -0.009212 0.001357 0.017388 0.013959 -0.000836 -0.002615
# 4 -0.008125 0.005983 0.013959 0.066525 -0.000832 -0.008001
# 5 -0.001597 -0.002530 -0.000836 -0.000832 0.032491 -0.002101
# 6 0.000718 0.010089 -0.002615 -0.008001 -0.002101 0.041693
#
#
# Mechanical properties :
#
#
# Convention : Reuss Voigt Hill
#
# Bulk Modulus (GPa) = 40.24772 56.70840 48.47806
# Shear Modulus (GPa) = 21.61278 27.39389 24.50334
#
# Velocity S-wave (km/s) = 3.32447 3.74278 3.53981
# Velocity P-wave (km/s) = 5.94286 6.90484 6.44183
#
# Compressibility (1/GPa) = 0.02484613
#
# Stress axis : x y z
#
# Youngs Moduli (GPa) = 62.94899 49.19788 57.51147
#
# Poissons Ratio (x) = 0.32088 0.52979
# Poissons Ratio (y) = 0.41057 -0.07806
# Poissons Ratio (z) = 0.57988 -0.06678
#
# Static dielectric constant tensor:
#      x y z
#    x 3.734800 0.092580 -0.182910 
#    y 0.092580 3.461100 0.101440 
#    z -0.182910 0.101440 3.579350 
# 
# 
# High freq. dielectric constant tensor:
#      x y z
#    x 1.765700 0.005590 -0.012160 
#    y 0.005590 1.750230 0.015180 
#    z -0.012160 0.015180 1.760100 
# 
# From -- ./inp_files/349422.got.cif
#   From: 2010.06.25/outbox.cif.g09.slc.cpg/sg2_175_cif.got.tgz:349422.got - 2010.06.27 13:26:56.
