data_PCOD8030275
_publ_section_title
;
Structure prediction by ZEFSAII (Michael W. Deem and Ramdas Pophale) SiO2 
 PCOD8030275
Probable space group: P -1
;
_chemical_formula_sum "Si O2"
_cell_formula_units_Z 14
_cell_length_a 7.511891
_cell_length_b 8.803830
_cell_length_c 11.886248
_cell_angle_alpha 60.994927
_cell_angle_beta 65.173380
_cell_angle_gamma 94.330588
_cell_volume 584.105141
_symmetry_space_group_name_H-M "P -1"
_symmetry_group_IT_number 2
_symmetry_cell_setting 'triclinic'
loop_
_space_group_symop_operation_xyz
x,y,z
-x,-y,-z
loop_
_atom_site_type_symbol
_atom_site_label
_atom_site_fract_x
_atom_site_fract_y
_atom_site_fract_z
Si Si1 0.896446 0.281481 0.622323
Si Si2 0.996058 0.055939 0.339343
Si Si3 0.660121 0.427864 0.263161
Si Si4 0.363290 0.873836 0.450291
Si Si5 0.784225 0.184439 0.168525
Si Si6 0.079509 0.668572 0.151413
Si Si7 0.340813 0.412237 0.174259
O O1 0.029006 0.160385 0.581188
O O2 0.685307 0.220415 0.626300
O O3 0.857212 0.228751 0.782972
O O4 0.000000 0.500000 0.500000
O O5 0.831774 0.077092 0.466269
O O6 0.961095 0.119047 0.200183
O O7 0.232311 0.189450 0.264651
O O8 0.571988 0.262759 0.435770
O O9 0.799657 0.384678 0.141363
O O10 0.465052 0.464635 0.242089
O O11 0.828132 0.603903 0.219637
O O12 0.559669 0.058020 0.319867
O O13 0.800404 0.185953 0.029103
O O14 0.150360 0.489755 0.198634
O O15 0.500000 0.500000 0.000000
#
# Coordination Sequence:
#
# PCOD8030275 Si02
#       7
#     2   2   2   2   2   2   2
#     4  12  26  47  69  99 147 192 233 296 365 412
#     4  11  24  46  76 100 142 191 241 292 352 425
#     4  11  21  43  74 102 141 184 240 288 349 417
#     4  11  24  46  73 101 140 188 244 297 342 426
#     4  11  23  43  73 108 140 182 243 295 351 416
#     4  12  25  47  70 106 156 178 230 304 350 427
#     4  12  23  43  79 111 136 188 240 289 356 425
#
# _framework density 23.968285999999999
#
# number of rings (size 3 to 8) (size 9 to 14) (size 15 to 20)
#    0.000    0.571    5.714    4.286    0.000    4.571 
#    2.571    1.429    0.000    0.000    0.000    0.000 
#    0.000    0.000    0.000    0.000    0.000    0.000 
#
# Total GULP energy -173553.332438 kJ/mol
# GULP energy per Si atom -12396.666603 kJ/mol
# Density = 2.391373 g / cm^3
# Si number density = 23.968286 Si / 1000 Ang^3
#
#
#
# Elastic Constant Matrix: (Units=GPa)
#
#
# Indices 1 2 3 4 5 6 
#
# 1 110.3232 26.0198 35.1193 0.6988 17.2433 29.2544
# 2 26.0198 76.4860 39.7200 6.1678 7.4410 22.8288
# 3 35.1193 39.7200 141.8139 16.1698 26.2114 20.3299
# 4 0.6988 6.1678 16.1698 36.9439 17.5099 16.0597
# 5 17.2433 7.4410 26.2114 17.5099 36.8191 5.1047
# 6 29.2544 22.8288 20.3299 16.0597 5.1047 40.2050
#
#
#
# Elastic Compliance Matrix: (Units=1/GPa)
#
#
# Indices 1 2 3 4 5 6 
#
# 1 0.014033 -0.000527 -0.001103 0.009641 -0.008585 -0.012115
# 2 -0.000527 0.017672 -0.003733 0.002926 -0.000835 -0.008825
# 3 -0.001103 -0.003733 0.009521 -0.000719 -0.005031 -0.000966
# 4 0.009641 0.002926 -0.000719 0.049120 -0.024513 -0.024821
# 5 -0.008585 -0.000835 -0.005031 -0.024513 0.044734 0.013377
# 6 -0.012115 -0.008825 -0.000966 -0.024821 0.013377 0.047403
#
#
# Mechanical properties :
#
#
# Convention : Reuss Voigt Hill
#
# Bulk Modulus (GPa) = 32.78913 58.92680 45.85797
# Shear Modulus (GPa) = 24.58503 37.97786 31.28145
#
# Velocity S-wave (km/s) = 3.20618 3.98490 3.61656
# Velocity P-wave (km/s) = 5.23603 6.76840 6.05092
#
# Compressibility (1/GPa) = 0.03049791
#
# Stress axis : x y z
#
# Youngs Moduli (GPa) = 71.26026 56.58749 105.03582
#
# Poissons Ratio (x) = 0.02984 0.11588
# Poissons Ratio (y) = 0.03758 0.39211
# Poissons Ratio (z) = 0.07862 0.21125
#
# Static dielectric constant tensor:
#      x y z
#    x 4.581640 0.374630 0.516370 
#    y 0.374630 4.404020 0.254210 
#    z 0.516370 0.254210 4.366100 
# 
# 
# High freq. dielectric constant tensor:
#      x y z
#    x 1.956730 0.028020 0.031770 
#    y 0.028020 1.934010 -0.001500 
#    z 0.031770 -0.001500 1.951870 
# 
# From -- ./inp_files/384823.got.cif
#   From: 2010.06.25/outbox.cif.g09.slc.cpg/sg2_193_cif.got.tgz:384823.got - 2010.06.27 13:26:56.
