data_PCOD8030099
_publ_section_title
;
Structure prediction by ZEFSAII (Michael W. Deem and Ramdas Pophale) SiO2 
 PCOD8030099
Probable space group: P -1
;
_chemical_formula_sum "Si O2"
_cell_formula_units_Z 16
_cell_length_a 9.699012
_cell_length_b 17.874981
_cell_length_c 12.215144
_cell_angle_alpha 27.675511
_cell_angle_beta 55.117254
_cell_angle_gamma 43.569912
_cell_volume 661.658998
_symmetry_space_group_name_H-M "P -1"
_symmetry_group_IT_number 2
_symmetry_cell_setting 'triclinic'
loop_
_space_group_symop_operation_xyz
x,y,z
-x,-y,-z
loop_
_atom_site_type_symbol
_atom_site_label
_atom_site_fract_x
_atom_site_fract_y
_atom_site_fract_z
Si Si1 0.429284 0.357424 0.233721
Si Si2 0.355527 0.613573 0.318167
Si Si3 0.889501 0.991319 0.833818
Si Si4 0.018682 0.229441 0.579023
Si Si5 0.378586 0.940001 0.923739
Si Si6 0.258961 0.035208 0.290357
Si Si7 0.165885 0.535608 0.330830
Si Si8 0.040231 0.532561 0.060617
O O1 0.631084 0.133731 0.446496
O O2 0.277519 0.406336 0.341682
O O3 0.287213 0.396832 0.141853
O O4 0.500000 0.500000 0.000000
O O5 0.500000 0.500000 0.500000
O O6 0.357135 0.474264 0.405330
O O7 0.117905 0.751860 0.281373
O O8 0.415915 0.760386 0.063975
O O9 0.795994 0.046675 0.682074
O O10 0.998615 0.104535 0.655455
O O11 0.058040 0.760416 0.057744
O O12 0.718397 0.052972 0.924065
O O13 0.941606 0.445150 0.293109
O O14 0.243640 0.125719 0.664100
O O15 0.589699 0.910370 0.893138
O O16 0.060073 0.237766 0.165940
O O17 0.000000 0.500000 0.500000
O O18 0.000000 0.500000 0.000000
#
# Coordination Sequence:
#
# PCOD8030099 Si02
#       8
#     2   2   2   2   2   2   2   2
#     4  12  30  50  73 111 152 194 251 308 373 443
#     4  11  23  36  65 107 149 193 241 298 367 438
#     4  11  23  41  74 109 150 193 238 303 372 445
#     4  11  22  46  67 104 147 187 247 307 366 432
#     4  11  21  42  69 108 149 189 240 300 374 438
#     4  12  27  48  75 108 144 193 245 307 368 446
#     4  12  24  44  73 109 153 201 243 307 372 437
#     4  12  29  52  76 100 139 197 255 309 366 444
#
# _framework density 24.181640999999999
#
# number of rings (size 3 to 8) (size 9 to 14) (size 15 to 20)
#    0.000    0.500    5.000    3.375    7.000    3.000 
#    0.000    0.000    0.000    0.000    0.000    0.000 
#    0.000    0.000    0.000    0.000    0.000    0.000 
#
# Total GULP energy -198314.594422 kJ/mol
# GULP energy per Si atom -12394.662151 kJ/mol
# Density = 2.412660 g / cm^3
# Si number density = 24.181641 Si / 1000 Ang^3
#
#
#
# Elastic Constant Matrix: (Units=GPa)
#
#
# Indices 1 2 3 4 5 6 
#
# 1 157.3345 21.4989 35.6725 -3.2118 19.8115 20.1173
# 2 21.4989 49.7702 21.9676 -6.8327 7.1098 10.7247
# 3 35.6725 21.9676 126.0463 -23.2492 5.9675 0.2259
# 4 -3.2118 -6.8327 -23.2492 35.5173 0.4213 0.5741
# 5 19.8115 7.1098 5.9675 0.4213 45.3034 -1.7866
# 6 20.1173 10.7247 0.2259 0.5741 -1.7866 34.5960
#
#
#
# Elastic Compliance Matrix: (Units=1/GPa)
#
#
# Indices 1 2 3 4 5 6 
#
# 1 0.007921 -0.001246 -0.002000 -0.000725 -0.003170 -0.004359
# 2 -0.001246 0.024388 -0.003257 0.002598 -0.003154 -0.007020
# 3 -0.002000 -0.003257 0.010128 0.005789 0.000077 0.002015
# 4 -0.000725 0.002598 0.005789 0.032409 -0.001195 -0.001021
# 5 -0.003170 -0.003154 0.000077 -0.001195 0.024117 0.004086
# 6 -0.004359 -0.007020 0.002015 -0.001021 0.004086 0.033831
#
#
# Mechanical properties :
#
#
# Convention : Reuss Voigt Hill
#
# Bulk Modulus (GPa) = 33.97800 54.60321 44.29061
# Shear Modulus (GPa) = 32.13142 40.01749 36.07445
#
# Velocity S-wave (km/s) = 3.64916 4.07242 3.86659
# Velocity P-wave (km/s) = 5.64241 6.68897 6.18786
#
# Compressibility (1/GPa) = 0.02943081
#
# Stress axis : x y z
#
# Youngs Moduli (GPa) = 126.23988 41.00353 98.73878
#
# Poissons Ratio (x) = 0.05110 0.19752
# Poissons Ratio (y) = 0.15733 0.32155
# Poissons Ratio (z) = 0.25254 0.13353
#
# Static dielectric constant tensor:
#      x y z
#    x 4.995500 0.107320 -0.004840 
#    y 0.107320 4.270950 -0.379300 
#    z -0.004840 -0.379300 4.618180 
# 
# 
# High freq. dielectric constant tensor:
#      x y z
#    x 1.989710 0.004130 -0.002700 
#    y 0.004130 1.922370 -0.019450 
#    z -0.002700 -0.019450 1.967390 
# 
# From -- ./inp_files/402656.got.cif
#   From: 2010.06.25/outbox.cif.g09.slc.cpg/sg2_202_cif.got.tgz:402656.got - 2010.06.27 13:26:56.
