data_PCOD8030955
_publ_section_title
;
Structure prediction by ZEFSAII (Michael W. Deem and Ramdas Pophale) SiO2 
 PCOD8030955
Probable space group: P -1
;
_chemical_formula_sum "Si O2"
_cell_formula_units_Z 16
_cell_length_a 8.815348
_cell_length_b 11.734862
_cell_length_c 13.870294
_cell_angle_alpha 67.574764
_cell_angle_beta 147.561460
_cell_angle_gamma 111.206252
_cell_volume 709.145794
_symmetry_space_group_name_H-M "P -1"
_symmetry_group_IT_number 2
_symmetry_cell_setting 'triclinic'
loop_
_space_group_symop_operation_xyz
x,y,z
-x,-y,-z
loop_
_atom_site_type_symbol
_atom_site_label
_atom_site_fract_x
_atom_site_fract_y
_atom_site_fract_z
Si Si1 0.189427 0.602850 0.508424
Si Si2 0.952693 0.538523 0.203473
Si Si3 0.444664 0.685536 0.912222
Si Si4 0.474928 0.779264 0.111099
Si Si5 0.285611 0.537595 0.195030
Si Si6 0.453316 0.083530 0.230769
Si Si7 0.936944 0.048268 0.093262
Si Si8 0.071735 0.878480 0.390598
O O1 0.511726 0.568895 0.686287
O O2 0.188013 0.742194 0.500915
O O3 0.000000 0.500000 0.500000
O O4 0.071387 0.608299 0.337181
O O5 0.857019 0.394236 0.216959
O O6 0.208523 0.549171 0.261619
O O7 0.672097 0.606934 0.003547
O O8 0.400255 0.800141 0.784287
O O9 0.540854 0.727360 0.057544
O O10 0.434175 0.668088 0.199949
O O11 0.750874 0.867406 0.263157
O O12 0.197449 0.856639 0.936311
O O13 0.000000 0.500000 0.000000
O O14 0.711954 0.036886 0.450622
O O15 0.313058 0.989405 0.106060
O O16 0.200083 0.117036 0.155424
O O17 0.056292 0.937139 0.255553
#
# Coordination Sequence:
#
# PCOD8030955 Si02
#       8
#     2   2   2   2   2   2   2   2
#     4  12  24  45  69 103 142 179 232 286 344 421
#     4  11  23  41  67 101 144 181 229 278 352 417
#     4  11  22  41  69 100 136 187 224 283 353 413
#     4  12  24  46  69 101 142 181 231 290 343 413
#     4  12  26  43  67 107 137 182 228 282 349 414
#     4  11  25  45  71  99 132 186 233 285 354 407
#     4  11  26  48  70 100 139 179 236 291 343 414
#     4  12  25  45  73 101 137 183 232 284 347 412
#
# _framework density 22.562356000000001
#
# number of rings (size 3 to 8) (size 9 to 14) (size 15 to 20)
#    0.000    0.500    5.000    2.625    5.250    1.500 
#    0.000    0.000    0.000    0.000    0.000    0.000 
#    0.000    0.000    0.000    0.000    0.000    0.000 
#
# Total GULP energy -198351.221154 kJ/mol
# GULP energy per Si atom -12396.951322 kJ/mol
# Density = 2.251100 g / cm^3
# Si number density = 22.562356 Si / 1000 Ang^3
#
#
#
# Elastic Constant Matrix: (Units=GPa)
#
#
# Indices 1 2 3 4 5 6 
#
# 1 132.1729 26.9541 28.2003 -7.3721 9.7865 15.0980
# 2 26.9541 59.3467 9.4122 -6.7754 -0.2466 9.7832
# 3 28.2003 9.4122 93.3025 12.6233 -1.8758 -0.0813
# 4 -7.3721 -6.7754 12.6233 39.7562 -10.6463 5.6828
# 5 9.7865 -0.2466 -1.8758 -10.6463 32.8356 -5.3455
# 6 15.0980 9.7832 -0.0813 5.6828 -5.3455 33.3044
#
#
#
# Elastic Compliance Matrix: (Units=1/GPa)
#
#
# Indices 1 2 3 4 5 6 
#
# 1 0.009643 -0.002979 -0.002951 0.002002 -0.003123 -0.004346
# 2 -0.002979 0.019811 -0.001678 0.004494 0.001586 -0.004985
# 3 -0.002951 -0.001678 0.012478 -0.005092 0.000383 0.002792
# 4 0.002002 0.004494 -0.005092 0.030986 0.008181 -0.006214
# 5 -0.003123 0.001586 0.000383 0.008181 0.034912 0.005158
# 6 -0.004346 -0.004985 0.002792 -0.006214 0.005158 0.035356
#
#
# Mechanical properties :
#
#
# Convention : Reuss Voigt Hill
#
# Bulk Modulus (GPa) = 37.43437 45.99502 41.71469
# Shear Modulus (GPa) = 29.88492 35.86294 32.87393
#
# Velocity S-wave (km/s) = 3.64338 3.99118 3.82124
# Velocity P-wave (km/s) = 5.85888 6.45518 6.16425
#
# Compressibility (1/GPa) = 0.02671342
#
# Stress axis : x y z
#
# Youngs Moduli (GPa) = 103.70738 50.47718 80.13970
#
# Poissons Ratio (x) = 0.15039 0.23652
# Poissons Ratio (y) = 0.30897 0.13451
# Poissons Ratio (z) = 0.30608 0.08473
#
# Static dielectric constant tensor:
#      x y z
#    x 3.921200 0.089970 -0.021640 
#    y 0.089970 3.964410 0.061360 
#    z -0.021640 0.061360 4.183630 
# 
# 
# High freq. dielectric constant tensor:
#      x y z
#    x 1.901380 0.010730 0.002160 
#    y 0.010730 1.877690 0.007710 
#    z 0.002160 0.007710 1.892810 
# 
# From -- ./inp_files/299463.got.cif
#   From: 2010.06.25/outbox.cif.g09.slc.cpg/sg2_150_cif.got.tgz:299463.got - 2010.06.27 13:26:56.
