data_PCOD8030315
_publ_section_title
;
Structure prediction by ZEFSAII (Michael W. Deem and Ramdas Pophale) SiO2 
 PCOD8030315
Probable space group: P -1
;
_chemical_formula_sum "Si O2"
_cell_formula_units_Z 14
_cell_length_a 8.595478
_cell_length_b 6.991113
_cell_length_c 20.912905
_cell_angle_alpha 56.250714
_cell_angle_beta 140.906837
_cell_angle_gamma 124.831888
_cell_volume 634.986202
_symmetry_space_group_name_H-M "P -1"
_symmetry_group_IT_number 2
_symmetry_cell_setting 'triclinic'
loop_
_space_group_symop_operation_xyz
x,y,z
-x,-y,-z
loop_
_atom_site_type_symbol
_atom_site_label
_atom_site_fract_x
_atom_site_fract_y
_atom_site_fract_z
Si Si1 0.218038 0.631143 0.994759
Si Si2 0.759028 0.094466 0.389530
Si Si3 0.620013 0.231101 0.455737
Si Si4 0.049784 0.230835 0.928689
Si Si5 0.209351 0.120041 0.860954
Si Si6 0.888904 0.621396 0.331914
Si Si7 0.474911 0.673161 0.287958
O O1 0.495932 0.760416 0.089474
O O2 0.000000 0.500000 0.000000
O O3 0.259845 0.435626 0.994439
O O4 0.129384 0.833891 0.889196
O O5 0.620512 0.134529 0.402611
O O6 0.837754 0.356975 0.333588
O O7 0.570176 0.910241 0.317252
O O8 0.000000 0.000000 0.500000
O O9 0.464148 0.433644 0.370602
O O10 0.898427 0.351241 0.550829
O O11 0.500000 0.000000 0.500000
O O12 0.800402 0.327474 0.825654
O O13 0.161360 0.200304 0.901421
O O14 0.000000 0.000000 0.000000
O O15 0.031964 0.198700 0.736344
O O16 0.649145 0.675500 0.281194
#
# Coordination Sequence:
#
# PCOD8030315 Si02
#       7
#     2   2   2   2   2   2   2
#     4  11  24  49  72  95 142 180 230 292 347 407
#     4  11  21  44  69  94 134 180 226 280 339 409
#     4  11  25  42  66 101 141 175 228 282 345 419
#     4  12  27  45  70 102 139 180 238 284 343 416
#     4  11  27  44  72 106 134 185 231 286 354 411
#     4  11  24  43  69 101 135 177 230 283 348 414
#     4  11  25  44  69  98 136 187 227 282 349 406
#
# _framework density 22.047725
#
# number of rings (size 3 to 8) (size 9 to 14) (size 15 to 20)
#    0.000    0.857    4.286    2.143    8.000    4.000 
#    0.000    0.000    0.000    0.000    0.000    0.000 
#    0.000    0.000    0.000    0.000    0.000    0.000 
#
# Total GULP energy -173556.238292 kJ/mol
# GULP energy per Si atom -12396.874164 kJ/mol
# Density = 2.199754 g / cm^3
# Si number density = 22.047725 Si / 1000 Ang^3
#
#
#
# Elastic Constant Matrix: (Units=GPa)
#
#
# Indices 1 2 3 4 5 6 
#
# 1 85.4741 38.6240 28.0249 -16.2019 -11.4752 6.5068
# 2 38.6240 162.9989 36.3769 -25.1780 -17.3376 -4.7908
# 3 28.0249 36.3769 105.0559 -32.0727 -10.7431 11.2563
# 4 -16.2019 -25.1780 -32.0727 40.1703 4.5812 -5.7204
# 5 -11.4752 -17.3376 -10.7431 4.5812 42.2147 -2.1420
# 6 6.5068 -4.7908 11.2563 -5.7204 -2.1420 40.2759
#
#
#
# Elastic Compliance Matrix: (Units=1/GPa)
#
#
# Indices 1 2 3 4 5 6 
#
# 1 0.014246 -0.002437 -0.001885 0.002245 0.002065 -0.001636
# 2 -0.002437 0.007707 -0.001120 0.003034 0.001998 0.002160
# 3 -0.001885 -0.001120 0.013489 0.008826 0.001388 -0.002271
# 4 0.002245 0.003034 0.008826 0.035060 0.000426 0.002534
# 5 0.002065 0.001998 0.001388 0.000426 0.025425 0.000929
# 6 -0.001636 0.002160 -0.002271 0.002534 0.000929 0.026394
#
#
# Mechanical properties :
#
#
# Convention : Reuss Voigt Hill
#
# Bulk Modulus (GPa) = 40.71631 62.17559 51.44595
# Shear Modulus (GPa) = 35.36341 41.23238 38.29789
#
# Velocity S-wave (km/s) = 4.00928 4.32921 4.17231
# Velocity P-wave (km/s) = 6.31980 7.29733 6.82609
#
# Compressibility (1/GPa) = 0.02456018
#
# Stress axis : x y z
#
# Youngs Moduli (GPa) = 70.19578 129.75372 74.13451
#
# Poissons Ratio (x) = 0.31616 0.13971
# Poissons Ratio (y) = 0.17104 0.08300
# Poissons Ratio (z) = 0.13229 0.14527
#
# Static dielectric constant tensor:
#      x y z
#    x 3.801210 -0.169380 0.141860 
#    y -0.169380 4.445150 0.524080 
#    z 0.141860 0.524080 3.815760 
# 
# 
# High freq. dielectric constant tensor:
#      x y z
#    x 1.858180 -0.004880 -0.007700 
#    y -0.004880 1.888680 -0.010220 
#    z -0.007700 -0.010220 1.875730 
# 
# From -- ./inp_files/89658.got.cif
#   From: 2010.06.25/outbox.cif.g09.slc.cpg/sg2_45_cif.got.tgz:89658.got - 2010.06.27 13:26:56.
