data_PCOD8030674
_publ_section_title
;
Structure prediction by ZEFSAII (Michael W. Deem and Ramdas Pophale) SiO2 
 PCOD8030674
Probable space group: P -1
;
_chemical_formula_sum "Si O2"
_cell_formula_units_Z 16
_cell_length_a 11.776556
_cell_length_b 6.440776
_cell_length_c 11.085583
_cell_angle_alpha 116.275029
_cell_angle_beta 70.695571
_cell_angle_gamma 94.688725
_cell_volume 709.498980
_symmetry_space_group_name_H-M "P -1"
_symmetry_group_IT_number 2
_symmetry_cell_setting 'triclinic'
loop_
_space_group_symop_operation_xyz
x,y,z
-x,-y,-z
loop_
_atom_site_type_symbol
_atom_site_label
_atom_site_fract_x
_atom_site_fract_y
_atom_site_fract_z
Si Si1 0.410891 0.311443 0.941980
Si Si2 0.374502 0.004248 0.281298
Si Si3 0.639185 0.524374 0.484049
Si Si4 0.189189 0.573838 0.987048
Si Si5 0.914646 0.484509 0.725521
Si Si6 0.762314 0.935769 0.888105
Si Si7 0.154131 0.331779 0.704233
Si Si8 0.218139 0.825106 0.492797
O O1 0.486406 0.091362 0.801211
O O2 0.320589 0.434707 0.909055
O O3 0.500000 0.500000 0.000000
O O4 0.337926 0.208869 0.051300
O O5 0.325843 0.889283 0.386683
O O6 0.362312 0.281476 0.361887
O O7 0.294524 0.940469 0.179402
O O8 0.500000 0.500000 0.500000
O O9 0.710925 0.603409 0.360944
O O10 0.713840 0.298199 0.450108
O O11 0.117942 0.429728 0.875804
O O12 0.130041 0.583331 0.142770
O O13 0.196349 0.836266 0.998477
O O14 0.877465 0.754323 0.777399
O O15 0.869423 0.328502 0.592559
O O16 0.059745 0.447922 0.668838
O O17 0.143811 0.054273 0.630486
#
# Coordination Sequence:
#
# PCOD8030674 Si02
#       8
#     2   2   2   2   2   2   2   2
#     4  11  23  35  64 100 134 174 223 277 332 401
#     4  11  22  40  65  97 130 177 224 274 336 396
#     4  11  28  43  67  98 137 177 221 278 339 408
#     4  11  25  42  66 102 136 174 226 281 343 399
#     4  11  23  47  72  98 133 176 235 285 329 399
#     4  11  22  39  67  99 133 174 228 280 333 395
#     4  11  28  44  68 101 137 183 222 279 346 395
#     4  11  24  46  70  98 132 177 230 279 335 399
#
# _framework density 22.551124000000002
#
# number of rings (size 3 to 8) (size 9 to 14) (size 15 to 20)
#    0.000    1.000    3.750    1.875    5.250    4.000 
#    0.000    0.000    0.000    0.000    0.000    0.000 
#    0.000    0.000    0.000    0.000    0.000    0.000 
#
# Total GULP energy -198374.257484 kJ/mol
# GULP energy per Si atom -12398.391093 kJ/mol
# Density = 2.249980 g / cm^3
# Si number density = 22.551124 Si / 1000 Ang^3
#
#
#
# Elastic Constant Matrix: (Units=GPa)
#
#
# Indices 1 2 3 4 5 6 
#
# 1 102.2629 22.7092 20.1894 13.3124 5.9311 -13.0125
# 2 22.7092 103.3968 36.0403 23.5118 3.1633 -13.4412
# 3 20.1894 36.0403 100.3352 22.6626 12.8834 -0.6797
# 4 13.3124 23.5118 22.6626 37.0640 -6.2010 -8.6101
# 5 5.9311 3.1633 12.8834 -6.2010 35.8906 0.5778
# 6 -13.0125 -13.4412 -0.6797 -8.6101 0.5778 28.5382
#
#
#
# Elastic Compliance Matrix: (Units=1/GPa)
#
#
# Indices 1 2 3 4 5 6 
#
# 1 0.011102 -0.001003 -0.001173 -0.001996 -0.001734 0.003994
# 2 -0.001003 0.012635 -0.003087 -0.004982 -0.000764 0.003932
# 3 -0.001173 -0.003087 0.013830 -0.007966 -0.005811 -0.003945
# 4 -0.001996 -0.004982 -0.007966 0.039360 0.010297 0.008221
# 5 -0.001734 -0.000764 -0.005811 0.010297 0.032063 0.001168
# 6 0.003994 0.003932 -0.003945 0.008221 0.001168 0.041077
#
#
# Mechanical properties :
#
#
# Convention : Reuss Voigt Hill
#
# Bulk Modulus (GPa) = 36.98056 51.54142 44.26099
# Shear Modulus (GPa) = 29.48001 35.43560 32.45780
#
# Velocity S-wave (km/s) = 3.61952 3.96832 3.79792
# Velocity P-wave (km/s) = 5.82254 6.62584 6.23714
#
# Compressibility (1/GPa) = 0.02704124
#
# Stress axis : x y z
#
# Youngs Moduli (GPa) = 90.07556 79.14440 72.30646
#
# Poissons Ratio (x) = 0.07940 0.08481
# Poissons Ratio (y) = 0.09037 0.22319
# Poissons Ratio (z) = 0.10565 0.24430
#
# Static dielectric constant tensor:
#      x y z
#    x 4.151920 -0.101490 -0.078850 
#    y -0.101490 4.102290 0.398220 
#    z -0.078850 0.398220 4.166900 
# 
# 
# High freq. dielectric constant tensor:
#      x y z
#    x 1.890150 -0.008500 -0.006390 
#    y -0.008500 1.892030 0.017000 
#    z -0.006390 0.017000 1.889370 
# 
# From -- ./inp_files/84984.got.cif
#   From: 2010.06.25/outbox.cif.g09.slc.cpg/sg2_43_cif.got.tgz:84984.got - 2010.06.27 13:26:56.
