data_PCOD8030023
_publ_section_title
;
Structure prediction by ZEFSAII (Michael W. Deem and Ramdas Pophale) SiO2 
 PCOD8030023
Probable space group: P -1
;
_chemical_formula_sum "Si O2"
_cell_formula_units_Z 14
_cell_length_a 9.019021
_cell_length_b 9.076556
_cell_length_c 16.687555
_cell_angle_alpha 124.786320
_cell_angle_beta 30.369016
_cell_angle_gamma 119.568983
_cell_volume 567.210617
_symmetry_space_group_name_H-M "P -1"
_symmetry_group_IT_number 2
_symmetry_cell_setting 'triclinic'
loop_
_space_group_symop_operation_xyz
x,y,z
-x,-y,-z
loop_
_atom_site_type_symbol
_atom_site_label
_atom_site_fract_x
_atom_site_fract_y
_atom_site_fract_z
Si Si1 0.666959 0.155764 0.517586
Si Si2 0.120461 0.153263 0.862337
Si Si3 0.340738 0.132710 0.015351
Si Si4 0.067782 0.370881 0.097294
Si Si5 0.543323 0.541077 0.646502
Si Si6 0.175086 0.089444 0.372378
Si Si7 0.668296 0.357434 0.051880
O O1 0.468109 0.166681 0.694099
O O2 0.687886 0.342134 0.514280
O O3 0.983200 0.098086 0.383401
O O4 0.500000 0.000000 0.500000
O O5 0.033135 0.186683 0.005564
O O6 0.999210 0.313448 0.911971
O O7 0.954074 0.974354 0.855839
O O8 0.539796 0.025815 0.823937
O O9 0.205778 0.318945 0.101682
O O10 0.514478 0.181318 0.030531
O O11 0.747877 0.464387 0.275978
O O12 0.312358 0.492299 0.977965
O O13 0.743292 0.707429 0.573398
O O14 0.508356 0.581954 0.769529
O O15 0.000000 0.000000 0.500000
#
# Coordination Sequence:
#
# PCOD8030023 Si02
#       7
#     2   2   2   2   2   2   2
#     4  12  26  46  71 101 138 184 232 279 342 418
#     4  11  21  42  70  96 133 175 237 272 337 403
#     4  12  25  40  71 106 136 174 228 287 338 398
#     4  11  21  41  71 101 132 172 230 286 339 392
#     4  11  24  47  70  98 137 188 228 280 341 408
#     4  12  28  46  67 103 148 181 221 280 354 412
#     4  11  21  41  71 103 130 170 237 289 326 397
#
# _framework density 24.682188
#
# number of rings (size 3 to 8) (size 9 to 14) (size 15 to 20)
#    0.000    0.571    5.714    4.286    4.000    0.000 
#    0.000    0.714    0.000    0.000    0.000    0.000 
#    0.000    0.000    0.000    0.000    0.000    0.000 
#
# Total GULP energy -173496.123528 kJ/mol
# GULP energy per Si atom -12392.580252 kJ/mol
# Density = 2.462601 g / cm^3
# Si number density = 24.682188 Si / 1000 Ang^3
#
#
#
# Elastic Constant Matrix: (Units=GPa)
#
#
# Indices 1 2 3 4 5 6 
#
# 1 54.7711 10.3471 14.4797 15.0632 -24.5331 1.8796
# 2 10.3471 147.3667 33.3623 -6.6837 -6.6567 -3.3771
# 3 14.4797 33.3623 39.4533 -10.7682 -17.8424 -13.1454
# 4 15.0632 -6.6837 -10.7682 37.5182 -0.7436 -3.7276
# 5 -24.5331 -6.6567 -17.8424 -0.7436 31.1748 3.7248
# 6 1.8796 -3.3771 -13.1454 -3.7276 3.7248 41.1849
#
#
#
# Elastic Compliance Matrix: (Units=1/GPa)
#
#
# Indices 1 2 3 4 5 6 
#
# 1 0.037108 -0.000118 -0.010891 -0.018471 0.023576 -0.008984
# 2 -0.000118 0.008864 -0.010525 -0.001714 -0.003976 -0.002423
# 3 -0.010891 -0.010525 0.060670 0.022238 0.022165 0.019007
# 4 -0.018471 -0.001714 0.022238 0.041265 -0.002596 0.011770
# 5 0.023576 -0.003976 0.022165 -0.002596 0.062430 -0.000209
# 6 -0.008984 -0.002423 0.019007 0.011770 -0.000209 0.031643
#
#
# Mechanical properties :
#
#
# Convention : Reuss Voigt Hill
#
# Bulk Modulus (GPa) = 15.73002 39.77437 27.75219
# Shear Modulus (GPa) = 16.32705 34.20237 25.26471
#
# Velocity S-wave (km/s) = 2.57474 3.72655 3.20285
# Velocity P-wave (km/s) = 3.90204 5.88777 4.99458
#
# Compressibility (1/GPa) = 0.06357272
#
# Stress axis : x y z
#
# Youngs Moduli (GPa) = 26.94846 112.81539 16.48261
#
# Poissons Ratio (x) = 0.01336 0.17951
# Poissons Ratio (y) = 0.00319 0.17348
# Poissons Ratio (z) = 0.29350 1.18738
#
# Static dielectric constant tensor:
#      x y z
#    x 4.263170 -0.034380 -0.246490 
#    y -0.034380 4.718500 0.025580 
#    z -0.246490 0.025580 4.440620 
# 
# 
# High freq. dielectric constant tensor:
#      x y z
#    x 1.975680 -0.000550 -0.019280 
#    y -0.000550 2.001800 -0.009290 
#    z -0.019280 -0.009290 1.958880 
# 
# From -- ./inp_files/156969.got.cif
#   From: 2010.06.25/outbox.cif.g09.slc.cpg/sg2_79_cif.got.tgz:156969.got - 2010.06.27 13:26:56.
