data_PCOD8030854
_publ_section_title
;
Structure prediction by ZEFSAII (Michael W. Deem and Ramdas Pophale) SiO2 
 PCOD8030854
Probable space group: P -1
;
_chemical_formula_sum "Si O2"
_cell_formula_units_Z 16
_cell_length_a 8.828793
_cell_length_b 14.479091
_cell_length_c 9.379800
_cell_angle_alpha 69.469392
_cell_angle_beta 72.341856
_cell_angle_gamma 40.355518
_cell_volume 725.814554
_symmetry_space_group_name_H-M "P -1"
_symmetry_group_IT_number 2
_symmetry_cell_setting 'triclinic'
loop_
_space_group_symop_operation_xyz
x,y,z
-x,-y,-z
loop_
_atom_site_type_symbol
_atom_site_label
_atom_site_fract_x
_atom_site_fract_y
_atom_site_fract_z
Si Si1 0.022069 0.797248 0.811782
Si Si2 0.892678 0.158515 0.928263
Si Si3 0.503033 0.697459 0.231681
Si Si4 0.257013 0.833460 0.526615
Si Si5 0.483221 0.921322 0.157712
Si Si6 0.006374 0.581938 0.836500
Si Si7 0.242582 0.110206 0.674565
Si Si8 0.612191 0.803258 0.625027
O O1 0.222340 0.751668 0.677771
O O2 0.989918 0.695633 0.854854
O O3 0.087711 0.789277 0.961009
O O4 0.774261 0.964082 0.757935
O O5 0.625673 0.281166 0.886163
O O6 0.006723 0.165441 0.759682
O O7 0.000000 0.000000 0.000000
O O8 0.351893 0.755100 0.388534
O O9 0.540350 0.794771 0.130744
O O10 0.752761 0.530310 0.262387
O O11 0.460126 0.809127 0.552119
O O12 0.000000 0.000000 0.500000
O O13 0.682528 0.841928 0.259941
O O14 0.500000 0.000000 0.000000
O O15 0.793326 0.657372 0.746312
O O16 0.000000 0.500000 0.000000
O O17 0.229572 0.179089 0.495594
O O18 0.431424 0.936511 0.711246
#
# Coordination Sequence:
#
# PCOD8030854 Si02
#       8
#     2   2   2   2   2   2   2   2
#     4  12  25  45  74 104 145 196 242 304 367 427
#     4  12  24  42  75 111 143 186 251 311 366 423
#     4  12  27  46  69 104 150 194 238 305 368 433
#     4  12  24  47  77 111 146 180 249 315 368 430
#     4  12  20  41  72 104 137 183 247 305 355 424
#     4  12  31  50  71 104 157 199 246 294 372 455
#     4  11  22  40  75 107 138 181 255 304 370 422
#     4  11  25  44  72 108 146 192 238 311 368 435
#
# _framework density 22.044197
#
# number of rings (size 3 to 8) (size 9 to 14) (size 15 to 20)
#    0.000    0.250    6.250    2.250    7.000    1.500 
#    0.000    0.000    0.000    0.000    0.000    0.000 
#    0.000    0.000    0.000    0.000    0.000    0.000 
#
# Total GULP energy -198336.294142 kJ/mol
# GULP energy per Si atom -12396.018384 kJ/mol
# Density = 2.199402 g / cm^3
# Si number density = 22.044197 Si / 1000 Ang^3
#
#
#
# Elastic Constant Matrix: (Units=GPa)
#
#
# Indices 1 2 3 4 5 6 
#
# 1 113.0388 29.4280 29.4789 -6.8871 14.8131 2.8073
# 2 29.4280 92.8367 22.4750 -6.1575 21.0370 -7.4265
# 3 29.4789 22.4750 86.7948 -3.2783 4.3404 -7.6571
# 4 -6.8871 -6.1575 -3.2783 33.2238 -4.8697 3.2945
# 5 14.8131 21.0370 4.3404 -4.8697 45.3924 -0.7540
# 6 2.8073 -7.4265 -7.6571 3.2945 -0.7540 32.1285
#
#
#
# Elastic Compliance Matrix: (Units=1/GPa)
#
#
# Indices 1 2 3 4 5 6 
#
# 1 0.010652 -0.002269 -0.003086 0.001424 -0.002016 -0.002384
# 2 -0.002269 0.013450 -0.002197 0.000794 -0.005155 0.002581
# 3 -0.003086 -0.002197 0.013362 0.000097 0.000807 0.002956
# 4 0.001424 0.000794 0.000097 0.031214 0.002456 -0.003061
# 5 -0.002016 -0.005155 0.000807 0.002456 0.025255 -0.000482
# 6 -0.002384 0.002581 0.002956 -0.003061 -0.000482 0.032937
#
#
# Mechanical properties :
#
#
# Convention : Reuss Voigt Hill
#
# Bulk Modulus (GPa) = 44.72022 50.60379 47.66201
# Shear Modulus (GPa) = 33.46092 36.23485 34.84788
#
# Velocity S-wave (km/s) = 3.90025 4.05870 3.98026
# Velocity P-wave (km/s) = 6.37286 6.70593 6.54151
#
# Compressibility (1/GPa) = 0.02236125
#
# Stress axis : x y z
#
# Youngs Moduli (GPa) = 93.87732 74.35038 74.83655
#
# Poissons Ratio (x) = 0.16869 0.23095
# Poissons Ratio (y) = 0.21299 0.16439
# Poissons Ratio (z) = 0.28972 0.16332
#
# Static dielectric constant tensor:
#      x y z
#    x 4.293690 -0.111070 -0.175570 
#    y -0.111070 3.921960 0.095300 
#    z -0.175570 0.095300 3.897550 
# 
# 
# High freq. dielectric constant tensor:
#      x y z
#    x 1.888220 -0.004700 -0.004460 
#    y -0.004700 1.837920 0.011430 
#    z -0.004460 0.011430 1.879330 
# 
# From -- ./inp_files/206316.got.cif
#   From: 2010.06.25/outbox.cif.g09.slc.cpg/sg2_104_cif.got.tgz:206316.got - 2010.06.27 13:26:56.
