data_PCOD8030469
_publ_section_title
;
Structure prediction by ZEFSAII (Michael W. Deem and Ramdas Pophale) SiO2 
 PCOD8030469
Probable space group: P -1
;
_chemical_formula_sum "Si O2"
_cell_formula_units_Z 14
_cell_length_a 14.517155
_cell_length_b 8.604756
_cell_length_c 12.672576
_cell_angle_alpha 59.160895
_cell_angle_beta 49.874857
_cell_angle_gamma 31.759419
_cell_volume 634.656736
_symmetry_space_group_name_H-M "P -1"
_symmetry_group_IT_number 2
_symmetry_cell_setting 'triclinic'
loop_
_space_group_symop_operation_xyz
x,y,z
-x,-y,-z
loop_
_atom_site_type_symbol
_atom_site_label
_atom_site_fract_x
_atom_site_fract_y
_atom_site_fract_z
Si Si1 0.036179 0.642703 0.982991
Si Si2 0.072415 0.698631 0.359632
Si Si3 0.680919 0.389878 0.182982
Si Si4 0.295437 0.341225 0.523906
Si Si5 0.288724 0.705178 0.041764
Si Si6 0.933530 0.724750 0.251171
Si Si7 0.659472 0.321563 0.536230
O O1 0.208865 0.579439 0.841786
O O2 0.818788 0.981923 0.014937
O O3 0.000000 0.500000 0.000000
O O4 0.084560 0.564142 0.098982
O O5 0.237762 0.441259 0.409644
O O6 0.157754 0.763280 0.206421
O O7 0.038374 0.582756 0.337686
O O8 0.867500 0.983633 0.472001
O O9 0.449237 0.651249 0.295105
O O10 0.782756 0.075664 0.245929
O O11 0.694377 0.422145 0.037484
O O12 0.154742 0.366400 0.675861
O O13 0.290375 0.532380 0.524603
O O14 0.500000 0.000000 0.500000
O O15 0.500000 0.500000 0.000000
O O16 0.500000 0.500000 0.500000
#
# Coordination Sequence:
#
# PCOD8030469 Si02
#       7
#     2   2   2   2   2   2   2
#     4  11  24  44  74 102 136 181 232 287 337 414
#     4  12  24  46  69 103 142 184 231 289 344 416
#     4  11  21  47  71  98 141 183 223 277 357 411
#     4  12  26  43  68 103 139 183 237 284 348 412
#     4  11  23  43  72  98 137 185 230 272 351 416
#     4  11  22  43  72 100 137 184 228 284 346 410
#     4  12  24  43  72 105 140 184 225 285 351 410
#
# _framework density 22.059166999999999
#
# number of rings (size 3 to 8) (size 9 to 14) (size 15 to 20)
#    0.000    0.571    5.714    2.571    6.000    0.000 
#    0.000    2.143    0.000    0.000    0.000    0.000 
#    0.000    0.000    0.000    0.000    0.000    0.000 
#
# Total GULP energy -173438.227903 kJ/mol
# GULP energy per Si atom -12388.444850 kJ/mol
# Density = 2.200896 g / cm^3
# Si number density = 22.059167 Si / 1000 Ang^3
#
#
#
# Elastic Constant Matrix: (Units=GPa)
#
#
# Indices 1 2 3 4 5 6 
#
# 1 178.1312 60.2630 57.3577 -0.3549 -21.2577 5.8487
# 2 60.2630 83.9236 48.7114 6.5380 8.6081 -12.5832
# 3 57.3577 48.7114 125.5263 8.5618 -3.3554 4.1598
# 4 -0.3549 6.5380 8.5618 31.7433 -3.1272 2.0907
# 5 -21.2577 8.6081 -3.3554 -3.1272 45.0197 -12.0598
# 6 5.8487 -12.5832 4.1598 2.0907 -12.0598 39.3731
#
#
#
# Elastic Compliance Matrix: (Units=1/GPa)
#
#
# Indices 1 2 3 4 5 6 
#
# 1 0.008999 -0.006559 -0.001540 0.002488 0.005065 -0.001851
# 2 -0.006559 0.021857 -0.005596 -0.004124 -0.006134 0.006891
# 3 -0.001540 -0.005596 0.011047 -0.001641 0.000376 -0.002524
# 4 0.002488 -0.004124 -0.001641 0.033318 0.003569 -0.002190
# 5 0.005065 -0.006134 0.000376 0.003569 0.027523 0.005488
# 6 -0.001851 0.006891 -0.002524 -0.002190 0.005488 0.029939
#
#
# Mechanical properties :
#
#
# Convention : Reuss Voigt Hill
#
# Bulk Modulus (GPa) = 68.89814 80.02725 74.46270
# Shear Modulus (GPa) = 30.31950 37.97715 34.14833
#
# Velocity S-wave (km/s) = 3.71140 4.15372 3.93877
# Velocity P-wave (km/s) = 7.04749 7.70466 7.38339
#
# Compressibility (1/GPa) = 0.01451418
#
# Stress axis : x y z
#
# Youngs Moduli (GPa) = 111.12649 45.75204 90.52207
#
# Poissons Ratio (x) = 0.30009 0.13936
# Poissons Ratio (y) = 0.72888 0.50654
# Poissons Ratio (z) = 0.17108 0.25602
#
# Static dielectric constant tensor:
#      x y z
#    x 3.352640 -0.001930 1.497900 
#    y -0.001930 3.682930 -0.218890 
#    z 1.497900 -0.218890 1.847390 
# 
# 
# High freq. dielectric constant tensor:
#      x y z
#    x 1.889800 -0.006430 -0.005990 
#    y -0.006430 1.834320 -0.004710 
#    z -0.005990 -0.004710 1.886420 
# 
# From -- ./inp_files/240679.got.cif
#   From: 2010.06.25/outbox.cif.g09.slc.cpg/sg2_121_cif.got.tgz:240679.got - 2010.06.27 13:26:56.
