data_PCOD8030449
_publ_section_title
;
Structure prediction by ZEFSAII (Michael W. Deem and Ramdas Pophale) SiO2 
 PCOD8030449
Probable space group: P -1
;
_chemical_formula_sum "Si O2"
_cell_formula_units_Z 14
_cell_length_a 11.059045
_cell_length_b 13.980929
_cell_length_c 20.486827
_cell_angle_alpha 157.302276
_cell_angle_beta 137.074497
_cell_angle_gamma 33.047758
_cell_volume 653.740629
_symmetry_space_group_name_H-M "P -1"
_symmetry_group_IT_number 2
_symmetry_cell_setting 'triclinic'
loop_
_space_group_symop_operation_xyz
x,y,z
-x,-y,-z
loop_
_atom_site_type_symbol
_atom_site_label
_atom_site_fract_x
_atom_site_fract_y
_atom_site_fract_z
Si Si1 0.291402 0.249423 0.531333
Si Si2 0.906152 0.899135 0.846361
Si Si3 0.144194 0.634705 0.309509
Si Si4 0.893621 0.084048 0.816347
Si Si5 0.625673 0.931971 0.863894
Si Si6 0.395112 0.658233 0.769949
Si Si7 0.153334 0.374973 0.919583
O O1 0.390470 0.367838 0.595916
O O2 0.091983 0.533159 0.673933
O O3 0.500000 0.000000 0.500000
O O4 0.187523 0.106914 0.363382
O O5 0.698290 0.943641 0.826778
O O6 0.839741 0.116240 0.892763
O O7 0.000000 0.000000 0.000000
O O8 0.204015 0.423025 0.264023
O O9 0.384016 0.473336 0.267624
O O10 0.976582 0.627284 0.193607
O O11 0.000000 0.000000 0.500000
O O12 0.765295 0.417671 0.938972
O O13 0.159245 0.916790 0.802206
O O14 0.377838 0.032872 0.815223
O O15 0.605032 0.183635 0.063569
O O16 0.000000 0.500000 0.000000
#
# Coordination Sequence:
#
# PCOD8030449 Si02
#       7
#     2   2   2   2   2   2   2
#     4  11  25  42  69 102 139 185 233 288 349 421
#     4  11  22  42  68 102 142 180 233 289 353 413
#     4  12  28  46  71 106 141 179 241 299 344 420
#     4  11  24  44  72 105 140 186 238 287 354 424
#     4  12  24  45  73 103 142 187 234 291 350 426
#     4  11  21  46  70  97 141 186 227 290 353 410
#     4  12  25  44  75 103 137 196 236 278 358 420
#
# _framework density 21.415220999999999
#
# number of rings (size 3 to 8) (size 9 to 14) (size 15 to 20)
#    0.000    0.571    5.714    3.857    2.000    3.429 
#    0.000    0.000    0.000    0.000    0.000    0.000 
#    0.000    0.000    0.000    0.000    0.000    0.000 
#
# Total GULP energy -173516.542010 kJ/mol
# GULP energy per Si atom -12394.038715 kJ/mol
# Density = 2.136648 g / cm^3
# Si number density = 21.415221 Si / 1000 Ang^3
#
#
#
# Elastic Constant Matrix: (Units=GPa)
#
#
# Indices 1 2 3 4 5 6 
#
# 1 127.3932 35.5889 46.3366 -0.7133 -3.4405 7.0420
# 2 35.5889 135.0552 30.0182 -0.2897 7.1408 5.5881
# 3 46.3366 30.0182 98.2602 -3.3908 14.4166 17.1370
# 4 -0.7133 -0.2897 -3.3908 31.7121 -1.0853 6.4552
# 5 -3.4405 7.1408 14.4166 -1.0853 29.4926 -2.5113
# 6 7.0420 5.5881 17.1370 6.4552 -2.5113 35.6098
#
#
#
# Elastic Compliance Matrix: (Units=1/GPa)
#
#
# Indices 1 2 3 4 5 6 
#
# 1 0.010272 -0.001841 -0.005103 -0.000408 0.004216 0.001085
# 2 -0.001841 0.008293 -0.001370 -0.000090 -0.001588 -0.000373
# 3 -0.005103 -0.001370 0.015623 0.002759 -0.008428 -0.007388
# 4 -0.000408 -0.000090 0.002759 0.033282 -0.000773 -0.007321
# 5 0.004216 -0.001588 -0.008428 -0.000773 0.039419 0.006391
# 6 0.001085 -0.000373 -0.007388 -0.007321 0.006391 0.033260
#
#
# Mechanical properties :
#
#
# Convention : Reuss Voigt Hill
#
# Bulk Modulus (GPa) = 56.95355 64.95510 60.95432
# Shear Modulus (GPa) = 30.74449 35.94723 33.34586
#
# Velocity S-wave (km/s) = 3.79309 4.10150 3.95030
# Velocity P-wave (km/s) = 6.77023 7.26821 7.02363
#
# Compressibility (1/GPa) = 0.01755817
#
# Stress axis : x y z
#
# Youngs Moduli (GPa) = 97.35300 120.57843 64.01012
#
# Poissons Ratio (x) = 0.22201 0.32666
# Poissons Ratio (y) = 0.17924 0.08772
# Poissons Ratio (z) = 0.49682 0.16523
#
# Static dielectric constant tensor:
#      x y z
#    x 0.055150 -3.197720 2.478310 
#    y -3.197720 1.236970 2.518080 
#    z 2.478310 2.518080 1.636580 
# 
# 
# High freq. dielectric constant tensor:
#      x y z
#    x 1.849640 -0.003210 0.008300 
#    y -0.003210 1.860180 -0.000140 
#    z 0.008300 -0.000140 1.833540 
# 
# From -- ./inp_files/186301.got.cif
#   From: 2010.06.25/outbox.cif.g09.slc.cpg/sg2_94_cif.got.tgz:186301.got - 2010.06.27 13:26:56.
