data_PCOD8030243
_publ_section_title
;
Structure prediction by ZEFSAII (Michael W. Deem and Ramdas Pophale) SiO2 
 PCOD8030243
Probable space group: P -1
;
_chemical_formula_sum "Si O2"
_cell_formula_units_Z 16
_cell_length_a 20.089473
_cell_length_b 6.687011
_cell_length_c 9.271043
_cell_angle_alpha 127.325765
_cell_angle_beta 128.959249
_cell_angle_gamma 54.951425
_cell_volume 731.637842
_symmetry_space_group_name_H-M "P -1"
_symmetry_group_IT_number 2
_symmetry_cell_setting 'triclinic'
loop_
_space_group_symop_operation_xyz
x,y,z
-x,-y,-z
loop_
_atom_site_type_symbol
_atom_site_label
_atom_site_fract_x
_atom_site_fract_y
_atom_site_fract_z
Si Si1 0.158071 0.029340 0.762543
Si Si2 0.564263 0.379307 0.165904
Si Si3 0.181110 0.467236 0.489999
Si Si4 0.507963 0.749270 0.701149
Si Si5 0.629380 0.842422 0.507317
Si Si6 0.336516 0.062990 0.090058
Si Si7 0.073569 0.224714 0.440653
Si Si8 0.980443 0.253386 0.795306
O O1 0.146430 0.111776 0.616144
O O2 0.057324 0.141127 0.733605
O O3 0.196465 0.710317 0.709835
O O4 0.227085 0.171538 0.990539
O O5 0.516302 0.243951 0.159055
O O6 0.598823 0.587931 0.393112
O O7 0.500000 0.500000 0.000000
O O8 0.647167 0.175910 0.106434
O O9 0.271344 0.256066 0.464054
O O10 0.130840 0.280901 0.412779
O O11 0.119261 0.629903 0.350534
O O12 0.500000 0.500000 0.500000
O O13 0.611494 0.746502 0.824910
O O14 0.439265 0.000245 0.638585
O O15 0.627361 0.005650 0.725278
O O16 0.000000 0.500000 0.500000
O O17 0.025349 0.002319 0.231419
O O18 0.000000 0.500000 0.000000
#
# Coordination Sequence:
#
# PCOD8030243 Si02
#       8
#     2   2   2   2   2   2   2   2
#     4  11  23  42  69  98 136 183 234 286 355 420
#     4  12  25  45  74  97 136 185 230 286 358 414
#     4  11  23  43  69  97 134 182 234 285 352 422
#     4  12  26  47  72 104 142 182 237 290 351 425
#     4  12  26  46  71 100 141 184 232 295 352 416
#     4  12  25  46  69 100 140 183 233 292 352 413
#     4  11  21  43  71  94 135 187 234 287 352 420
#     4  11  23  42  66  97 141 180 229 291 352 417
#
# _framework density 21.868744
#
# number of rings (size 3 to 8) (size 9 to 14) (size 15 to 20)
#    0.000    0.500    6.250    3.000    1.750    0.500 
#    4.500    0.000    0.000    0.000    0.000    0.000 
#    0.000    0.000    0.000    0.000    0.000    0.000 
#
# Total GULP energy -198213.202335 kJ/mol
# GULP energy per Si atom -12388.325146 kJ/mol
# Density = 2.181897 g / cm^3
# Si number density = 21.868744 Si / 1000 Ang^3
#
#
#
# Elastic Constant Matrix: (Units=GPa)
#
#
# Indices 1 2 3 4 5 6 
#
# 1 113.4412 39.7994 33.0735 13.1671 16.3872 11.4289
# 2 39.7994 98.7213 39.7190 23.5283 8.3840 19.5645
# 3 33.0735 39.7190 108.6471 13.5915 13.5796 11.4273
# 4 13.1671 23.5283 13.5915 34.2708 3.7590 -0.9234
# 5 16.3872 8.3840 13.5796 3.7590 45.0623 0.0999
# 6 11.4289 19.5645 11.4273 -0.9234 0.0999 32.8968
#
#
#
# Elastic Compliance Matrix: (Units=1/GPa)
#
#
# Indices 1 2 3 4 5 6 
#
# 1 0.011037 -0.002941 -0.001597 -0.001315 -0.002872 -0.001559
# 2 -0.002941 0.016273 -0.003069 -0.009007 -0.000265 -0.007842
# 3 -0.001597 -0.003069 0.011459 -0.001631 -0.002162 -0.001639
# 4 -0.001315 -0.009007 -0.001631 0.036763 -0.000438 0.007414
# 5 -0.002872 -0.000265 -0.002162 -0.000438 0.023969 0.001821
# 6 -0.001559 -0.007842 -0.001639 0.007414 0.001821 0.036376
#
#
# Mechanical properties :
#
#
# Convention : Reuss Voigt Hill
#
# Bulk Modulus (GPa) = 42.45383 60.66593 51.55988
# Shear Modulus (GPa) = 31.45771 36.32717 33.89244
#
# Velocity S-wave (km/s) = 3.79684 4.08014 3.94104
# Velocity P-wave (km/s) = 6.21904 7.07092 6.65862
#
# Compressibility (1/GPa) = 0.02355500
#
# Stress axis : x y z
#
# Youngs Moduli (GPa) = 90.60327 61.45019 87.26747
#
# Poissons Ratio (x) = 0.18070 0.13940
# Poissons Ratio (y) = 0.26643 0.26785
# Poissons Ratio (z) = 0.14472 0.18861
#
# Static dielectric constant tensor:
#      x y z
#    x 4.877000 0.382050 0.319560 
#    y 0.382050 4.760840 0.462270 
#    z 0.319560 0.462270 4.252450 
# 
# 
# High freq. dielectric constant tensor:
#      x y z
#    x 1.873490 0.001430 0.014520 
#    y 0.001430 1.854960 0.014690 
#    z 0.014520 0.014690 1.859720 
# 
# From -- ./inp_files/340698.got.cif
#   From: 2010.06.25/outbox.cif.g09.slc.cpg/sg2_171_cif.got.tgz:340698.got - 2010.06.27 13:26:56.
