data_PCOD8030555
_publ_section_title
;
Structure prediction by ZEFSAII (Michael W. Deem and Ramdas Pophale) SiO2 
 PCOD8030555
Probable space group: P -1
;
_chemical_formula_sum "Si O2"
_cell_formula_units_Z 16
_cell_length_a 9.699282
_cell_length_b 15.011639
_cell_length_c 14.584418
_cell_angle_alpha 30.190936
_cell_angle_beta 84.864157
_cell_angle_gamma 64.922919
_cell_volume 768.083621
_symmetry_space_group_name_H-M "P -1"
_symmetry_group_IT_number 2
_symmetry_cell_setting 'triclinic'
loop_
_space_group_symop_operation_xyz
x,y,z
-x,-y,-z
loop_
_atom_site_type_symbol
_atom_site_label
_atom_site_fract_x
_atom_site_fract_y
_atom_site_fract_z
Si Si1 0.695689 0.014197 0.703135
Si Si2 0.477238 0.619075 0.990025
Si Si3 0.035359 0.557091 0.195485
Si Si4 0.066829 0.712192 0.488228
Si Si5 0.591246 0.931423 0.455892
Si Si6 0.788466 0.233127 0.965038
Si Si7 0.542037 0.464835 0.422494
Si Si8 0.134232 0.830696 0.559530
O O1 0.530319 0.051763 0.631341
O O2 0.605928 0.212768 0.612283
O O3 0.795364 0.044824 0.593546
O O4 0.848980 0.745859 0.976113
O O5 0.339228 0.632840 0.054549
O O6 0.688005 0.449402 0.172020
O O7 0.500000 0.500000 0.000000
O O8 0.382490 0.891330 0.735368
O O9 0.202867 0.343622 0.307659
O O10 0.095012 0.686728 0.127240
O O11 0.988475 0.446734 0.372361
O O12 0.291416 0.540439 0.605058
O O13 0.019949 0.825264 0.493029
O O14 0.938485 0.938472 0.223701
O O15 0.500000 0.000000 0.500000
O O16 0.651926 0.309930 0.819324
O O17 0.500000 0.500000 0.500000
O O18 0.000000 0.000000 0.500000
#
# Coordination Sequence:
#
# PCOD8030555 Si02
#       8
#     2   2   2   2   2   2   2   2
#     4  11  24  43  66  97 140 176 229 292 342 403
#     4  12  23  40  63  95 140 187 232 274 338 410
#     4  12  24  42  71  97 141 177 228 287 342 403
#     4  11  24  44  68 102 130 180 227 279 351 406
#     4  12  26  40  63 103 140 189 235 277 339 411
#     4  12  22  46  70  96 140 178 224 291 337 413
#     4  11  25  49  76 100 136 182 229 290 358 412
#     4  11  22  38  61  93 137 180 225 277 334 408
#
# _framework density 20.831066
#
# number of rings (size 3 to 8) (size 9 to 14) (size 15 to 20)
#    0.000    0.500    7.500    3.000    3.500    1.000 
#    0.000    1.250    0.000    0.000    0.000    0.000 
#    0.000    0.000    0.000    0.000    0.000    0.000 
#
# Total GULP energy -198460.670812 kJ/mol
# GULP energy per Si atom -12403.791926 kJ/mol
# Density = 2.078365 g / cm^3
# Si number density = 20.831066 Si / 1000 Ang^3
#
#
#
# Elastic Constant Matrix: (Units=GPa)
#
#
# Indices 1 2 3 4 5 6 
#
# 1 124.4894 46.9195 50.8749 8.3174 -5.9362 0.0769
# 2 46.9195 115.2354 28.4167 15.9297 -0.5801 -1.4531
# 3 50.8749 28.4167 153.2580 5.3026 7.6565 5.7958
# 4 8.3174 15.9297 5.3026 24.5048 0.1079 1.7434
# 5 -5.9362 -0.5801 7.6565 0.1079 40.9739 1.0917
# 6 0.0769 -1.4531 5.7958 1.7434 1.0917 16.7332
#
#
#
# Elastic Compliance Matrix: (Units=1/GPa)
#
#
# Indices 1 2 3 4 5 6 
#
# 1 0.010733 -0.003502 -0.003014 -0.000768 0.002054 0.000636
# 2 -0.003502 0.011146 -0.000755 -0.006027 -0.000243 0.001889
# 3 -0.003014 -0.000755 0.007857 0.000010 -0.001845 -0.002654
# 4 -0.000768 -0.006027 0.000010 0.045358 -0.000178 -0.005237
# 5 0.002054 -0.000243 -0.001845 -0.000178 0.025072 -0.001009
# 6 0.000636 0.001889 -0.002654 -0.005237 -0.001009 0.061453
#
#
# Mechanical properties :
#
#
# Convention : Reuss Voigt Hill
#
# Bulk Modulus (GPa) = 65.81164 71.71167 68.76166
# Shear Modulus (GPa) = 27.58978 34.22715 30.90846
#
# Velocity S-wave (km/s) = 3.64325 4.05789 3.85615
# Velocity P-wave (km/s) = 7.02562 7.51368 7.27374
#
# Compressibility (1/GPa) = 0.01519488
#
# Stress axis : x y z
#
# Youngs Moduli (GPa) = 93.16770 89.72003 127.26744
#
# Poissons Ratio (x) = 0.31424 0.38354
# Poissons Ratio (y) = 0.32632 0.09605
# Poissons Ratio (z) = 0.28078 0.06772
#
# Static dielectric constant tensor:
#      x y z
#    x 3.940450 -0.039640 0.047510 
#    y -0.039640 3.426590 0.001190 
#    z 0.047510 0.001190 4.056230 
# 
# 
# High freq. dielectric constant tensor:
#      x y z
#    x 1.826610 -0.004610 0.010100 
#    y -0.004610 1.782200 -0.000230 
#    z 0.010100 -0.000230 1.835110 
# 
# From -- ./inp_files/315445.got.cif
#   From: 2010.06.25/outbox.cif.g09.slc.cpg/sg2_158_cif.got.tgz:315445.got - 2010.06.27 13:26:56.
