data_PCOD8030945
_publ_section_title
;
Structure prediction by ZEFSAII (Michael W. Deem and Ramdas Pophale) SiO2 
 PCOD8030945
Probable space group: P -1
;
_chemical_formula_sum "Si O2"
_cell_formula_units_Z 16
_cell_length_a 12.691680
_cell_length_b 18.466943
_cell_length_c 21.847138
_cell_angle_alpha 161.848947
_cell_angle_beta 143.731919
_cell_angle_gamma 28.541857
_cell_volume 748.061491
_symmetry_space_group_name_H-M "P -1"
_symmetry_group_IT_number 2
_symmetry_cell_setting 'triclinic'
loop_
_space_group_symop_operation_xyz
x,y,z
-x,-y,-z
loop_
_atom_site_type_symbol
_atom_site_label
_atom_site_fract_x
_atom_site_fract_y
_atom_site_fract_z
Si Si1 0.014959 0.301145 0.919353
Si Si2 0.199879 0.254028 0.353653
Si Si3 0.997873 0.116766 0.342296
Si Si4 0.726043 0.226640 0.917838
Si Si5 0.098352 0.117018 0.682618
Si Si6 0.495924 0.076281 0.988847
Si Si7 0.941915 0.650894 0.777174
Si Si8 0.458766 0.450680 0.583626
O O1 0.943942 0.273904 0.796393
O O2 0.927829 0.176718 0.825134
O O3 0.283997 0.115454 0.892105
O O4 0.893829 0.639198 0.152665
O O5 0.124284 0.255382 0.249566
O O6 0.371418 0.334102 0.498896
O O7 0.000000 0.500000 0.500000
O O8 0.321118 0.927465 0.175406
O O9 0.052493 0.305668 0.558286
O O10 0.730767 0.325385 0.373798
O O11 0.125649 0.026083 0.265353
O O12 0.500000 0.500000 0.000000
O O13 0.868969 0.320776 0.090029
O O14 0.344624 0.833994 0.590170
O O15 0.000000 0.000000 0.500000
O O16 0.454799 0.385827 0.210997
O O17 0.500000 0.000000 0.000000
O O18 0.725980 0.830734 0.864726
#
# Coordination Sequence:
#
# PCOD8030945 Si02
#       8
#     2   2   2   2   2   2   2   2
#     4  11  24  41  65 100 136 177 220 274 343 403
#     4  11  22  47  71  96 134 177 236 288 329 416
#     4  11  24  45  69 100 132 172 240 274 333 415
#     4  12  26  46  69 101 139 174 229 296 350 398
#     4  11  25  42  61  95 141 180 216 275 342 401
#     4  12  22  41  74 103 136 176 229 277 329 412
#     4  11  24  44  75 101 131 187 232 276 349 406
#     4  11  22  41  68  97 128 176 228 269 332 396
#
# _framework density 21.388618000000001
#
# number of rings (size 3 to 8) (size 9 to 14) (size 15 to 20)
#    0.000    0.750    6.250    1.875    3.500    2.500 
#    0.000    0.000    0.000    0.000    0.000    0.000 
#    0.000    0.000    0.000    0.000    0.000    0.000 
#
# Total GULP energy -198335.472529 kJ/mol
# GULP energy per Si atom -12395.967033 kJ/mol
# Density = 2.133994 g / cm^3
# Si number density = 21.388618 Si / 1000 Ang^3
#
#
#
# Elastic Constant Matrix: (Units=GPa)
#
#
# Indices 1 2 3 4 5 6 
#
# 1 110.6301 31.4057 63.2261 -7.4792 8.7963 16.6541
# 2 31.4057 75.2290 36.4592 4.1818 -2.4032 11.5660
# 3 63.2261 36.4592 167.5967 -2.5010 11.1194 9.6815
# 4 -7.4792 4.1818 -2.5010 38.4002 1.1521 6.4497
# 5 8.7963 -2.4032 11.1194 1.1521 44.9774 2.9932
# 6 16.6541 11.5660 9.6815 6.4497 2.9932 26.2176
#
#
#
# Elastic Compliance Matrix: (Units=1/GPa)
#
#
# Indices 1 2 3 4 5 6 
#
# 1 0.013487 -0.002989 -0.003901 0.003849 -0.001493 -0.006585
# 2 -0.002989 0.016556 -0.002412 -0.001888 0.002402 -0.004324
# 3 -0.003901 -0.002412 0.008011 -0.000061 -0.001395 0.000758
# 4 0.003849 -0.001888 -0.000061 0.028446 -0.001003 -0.008473
# 5 -0.001493 0.002402 -0.001395 -0.001003 0.023157 -0.001992
# 6 -0.006585 -0.004324 0.000758 -0.008473 -0.001992 0.046265
#
#
# Mechanical properties :
#
#
# Convention : Reuss Voigt Hill
#
# Bulk Modulus (GPa) = 51.41272 68.40420 59.90846
# Shear Modulus (GPa) = 31.05412 36.74334 33.89873
#
# Velocity S-wave (km/s) = 3.81451 4.14924 3.98539
# Velocity P-wave (km/s) = 6.59472 7.41660 7.01770
#
# Compressibility (1/GPa) = 0.01945044
#
# Stress axis : x y z
#
# Youngs Moduli (GPa) = 74.14342 60.40139 124.83082
#
# Poissons Ratio (x) = 0.18056 0.48696
# Poissons Ratio (y) = 0.22164 0.30104
# Poissons Ratio (z) = 0.28923 0.14566
#
# Static dielectric constant tensor:
#      x y z
#    x 3.960760 -0.057840 0.166570 
#    y -0.057840 4.009810 0.140770 
#    z 0.166570 0.140770 4.361230 
# 
# 
# High freq. dielectric constant tensor:
#      x y z
#    x 1.836530 0.003230 0.008730 
#    y 0.003230 1.825370 0.001200 
#    z 0.008730 0.001200 1.864480 
# 
# From -- ./inp_files/596068.got.cif
#   From: 2010.06.25/outbox.cif.g09.slc.cpg/sg2_299_cif.got.tgz:596068.got - 2010.06.27 13:26:56.
