data_PCOD8030065
_publ_section_title
;
Structure prediction by ZEFSAII (Michael W. Deem and Ramdas Pophale) SiO2 
 PCOD8030065
Probable space group: P -1
;
_chemical_formula_sum "Si O2"
_cell_formula_units_Z 16
_cell_length_a 9.400939
_cell_length_b 14.522375
_cell_length_c 15.652347
_cell_angle_alpha 35.778930
_cell_angle_beta 143.028806
_cell_angle_gamma 128.256719
_cell_volume 748.832687
_symmetry_space_group_name_H-M "P -1"
_symmetry_group_IT_number 2
_symmetry_cell_setting 'triclinic'
loop_
_space_group_symop_operation_xyz
x,y,z
-x,-y,-z
loop_
_atom_site_type_symbol
_atom_site_label
_atom_site_fract_x
_atom_site_fract_y
_atom_site_fract_z
Si Si1 0.340837 0.652933 0.782145
Si Si2 0.635564 0.467413 0.384666
Si Si3 0.756163 0.829708 0.772707
Si Si4 0.186872 0.076991 0.092611
Si Si5 0.943883 0.184673 0.321199
Si Si6 0.419438 0.158584 0.500042
Si Si7 0.859247 0.370095 0.983108
Si Si8 0.101014 0.426828 0.726550
O O1 0.509766 0.768898 0.731337
O O2 0.144959 0.587637 0.675426
O O3 0.201963 0.737509 0.729863
O O4 0.500000 0.500000 0.000000
O O5 0.583903 0.297444 0.448369
O O6 0.392774 0.563232 0.226901
O O7 0.762323 0.573518 0.297400
O O8 0.816484 0.430963 0.577262
O O9 0.852752 0.944246 0.806978
O O10 0.690854 0.912583 0.587087
O O11 0.970853 0.694142 0.964303
O O12 0.443035 0.981291 0.272823
O O13 0.198548 0.263612 0.942493
O O14 0.000000 0.000000 0.000000
O O15 0.209755 0.242739 0.394975
O O16 0.000000 0.000000 0.500000
O O17 0.807753 0.233635 0.130401
O O18 0.000000 0.500000 0.000000
#
# Coordination Sequence:
#
# PCOD8030065 Si02
#       8
#     2   2   2   2   2   2   2   2
#     4  12  22  40  71 102 126 172 233 287 324 400
#     4  11  22  42  66  93 135 182 220 278 341 409
#     4  11  23  41  70  96 127 175 230 269 335 409
#     4  12  25  42  64  99 139 178 220 285 345 402
#     4  11  25  40  65 102 135 169 220 284 348 389
#     4  11  23  43  64  96 136 178 222 277 337 408
#     4  11  21  42  66  95 131 174 219 279 335 406
#     4  11  24  41  67  98 132 180 231 279 339 399
#
# _framework density 21.366589999999999
#
# number of rings (size 3 to 8) (size 9 to 14) (size 15 to 20)
#    0.000    0.750    6.250    2.625    1.750    1.000 
#    2.250    1.250    0.000    1.500    0.000    0.000 
#    0.000    0.000    0.000    0.000    0.000    0.000 
#
# Total GULP energy -198241.350992 kJ/mol
# GULP energy per Si atom -12390.084437 kJ/mol
# Density = 2.131796 g / cm^3
# Si number density = 21.366590 Si / 1000 Ang^3
#
#
#
# Elastic Constant Matrix: (Units=GPa)
#
#
# Indices 1 2 3 4 5 6 
#
# 1 121.9843 41.0209 49.9691 4.0028 25.3954 -11.9047
# 2 41.0209 98.7546 37.9817 11.9480 10.2495 -13.5171
# 3 49.9691 37.9817 156.8305 7.2667 24.1381 -0.5277
# 4 4.0028 11.9480 7.2667 38.5685 5.0125 -2.3979
# 5 25.3954 10.2495 24.1381 5.0125 36.9561 -5.1889
# 6 -11.9047 -13.5171 -0.5277 -2.3979 -5.1889 30.3498
#
#
#
# Elastic Compliance Matrix: (Units=1/GPa)
#
#
# Indices 1 2 3 4 5 6 
#
# 1 0.011440 -0.003221 -0.002066 0.001044 -0.005456 0.002167
# 2 -0.003221 0.013192 -0.002164 -0.003199 0.001034 0.004498
# 3 -0.002066 -0.002164 0.008113 -0.000323 -0.003553 -0.002266
# 4 0.001044 -0.003199 -0.000323 0.027329 -0.003244 0.000584
# 5 -0.005456 0.001034 -0.003553 -0.003244 0.033814 0.003783
# 6 0.002167 0.004498 -0.002266 0.000584 0.003783 0.036456
#
#
# Mechanical properties :
#
#
# Convention : Reuss Voigt Hill
#
# Bulk Modulus (GPa) = 56.04694 70.61252 63.32973
# Shear Modulus (GPa) = 33.06985 37.74807 35.40896
#
# Velocity S-wave (km/s) = 3.93840 4.20776 4.07530
# Velocity P-wave (km/s) = 6.85342 7.53172 7.20056
#
# Compressibility (1/GPa) = 0.01784219
#
# Stress axis : x y z
#
# Youngs Moduli (GPa) = 87.40943 75.80408 123.25719
#
# Poissons Ratio (x) = 0.24415 0.25470
# Poissons Ratio (y) = 0.28153 0.26678
# Poissons Ratio (z) = 0.18063 0.16407
#
# Static dielectric constant tensor:
#      x y z
#    x 4.012500 0.173950 0.032160 
#    y 0.173950 4.134400 -0.039030 
#    z 0.032160 -0.039030 4.280820 
# 
# 
# High freq. dielectric constant tensor:
#      x y z
#    x 1.831160 0.004740 0.007820 
#    y 0.004740 1.818010 -0.007740 
#    z 0.007820 -0.007740 1.860160 
# 
# From -- ./inp_files/503941.got.cif
#   From: 2010.06.25/outbox.cif.g09.slc.cpg/sg2_252_cif.got.tgz:503941.got - 2010.06.27 13:26:56.
