data_PCOD8030834
_publ_section_title
;
Structure prediction by ZEFSAII (Michael W. Deem and Ramdas Pophale) SiO2 
 PCOD8030834
Probable space group: P -1
;
_chemical_formula_sum "Si O2"
_cell_formula_units_Z 12
_cell_length_a 7.455139
_cell_length_b 11.454919
_cell_length_c 11.432573
_cell_angle_alpha 120.024299
_cell_angle_beta 118.405939
_cell_angle_gamma 108.785664
_cell_volume 503.839604
_symmetry_space_group_name_H-M "P -1"
_symmetry_group_IT_number 2
_symmetry_cell_setting 'triclinic'
loop_
_space_group_symop_operation_xyz
x,y,z
-x,-y,-z
loop_
_atom_site_type_symbol
_atom_site_label
_atom_site_fract_x
_atom_site_fract_y
_atom_site_fract_z
Si Si1 0.218106 0.376787 0.435281
Si Si2 0.198522 0.110759 0.448777
Si Si3 0.622215 0.766714 0.858478
Si Si4 0.267497 0.001730 0.202080
Si Si5 0.666104 0.212463 0.033362
Si Si6 0.575963 0.691319 0.143592
O O1 0.500000 0.500000 0.500000
O O2 0.106564 0.187181 0.369840
O O3 0.316857 0.528762 0.645454
O O4 0.966767 0.318566 0.245406
O O5 0.379466 0.088767 0.412970
O O6 0.421629 0.273377 0.699856
O O7 0.898536 0.894769 0.296073
O O8 0.671526 0.838522 0.777745
O O9 0.583336 0.875730 0.988544
O O10 0.903608 0.809150 0.003200
O O11 0.433630 0.954802 0.171593
O O12 0.688590 0.354823 0.027988
O O13 0.500000 0.500000 0.000000
#
# Coordination Sequence:
#
# PCOD8030834 Si02
#       6
#     2   2   2   2   2   2
#     4  12  23  44  74 113 146 184 246 307 363 425
#     4  11  25  48  75 104 152 191 237 306 360 432
#     4  11  22  41  67 110 153 181 233 304 364 429
#     4  11  22  40  71 106 146 184 236 306 358 427
#     4  12  25  42  76 107 140 199 242 297 371 429
#     4  11  27  51  75 103 148 198 246 295 359 441
#
# _framework density 23.817104
#
# number of rings (size 3 to 8) (size 9 to 14) (size 15 to 20)
#    0.000    0.667    5.000    3.000    2.333    0.667 
#    3.000    3.333    0.000    0.000    0.000    0.000 
#    0.000    0.000    0.000    0.000    0.000    0.000 
#
# Total GULP energy -148672.081128 kJ/mol
# GULP energy per Si atom -12389.340094 kJ/mol
# Density = 2.376290 g / cm^3
# Si number density = 23.817104 Si / 1000 Ang^3
#
#
#
# Elastic Constant Matrix: (Units=GPa)
#
#
# Indices 1 2 3 4 5 6 
#
# 1 116.0011 41.0890 44.8406 -12.8937 -37.9440 19.0398
# 2 41.0890 121.6286 62.0017 -19.8791 -11.6443 -4.0986
# 3 44.8406 62.0017 110.6745 -7.7652 -31.8523 1.4311
# 4 -12.8937 -19.8791 -7.7652 43.6575 1.8269 -7.4395
# 5 -37.9440 -11.6443 -31.8523 1.8269 50.0255 -13.8741
# 6 19.0398 -4.0986 1.4311 -7.4395 -13.8741 37.5600
#
#
#
# Elastic Compliance Matrix: (Units=1/GPa)
#
#
# Indices 1 2 3 4 5 6 
#
# 1 0.013516 -0.003004 -0.001518 0.001342 0.007393 -0.004125
# 2 -0.003004 0.013256 -0.006727 0.004598 -0.002782 0.003109
# 3 -0.001518 -0.006727 0.015603 -0.000689 0.007854 0.002206
# 4 0.001342 0.004598 -0.000689 0.026180 0.002327 0.005893
# 5 0.007393 -0.002782 0.007854 0.002327 0.032073 0.007958
# 6 -0.004125 0.003109 0.002206 0.005893 0.007958 0.033077
#
#
# Mechanical properties :
#
#
# Convention : Reuss Voigt Hill
#
# Bulk Modulus (GPa) = 50.31230 71.57409 60.94320
# Shear Modulus (GPa) = 30.70722 39.60680 35.15701
#
# Velocity S-wave (km/s) = 3.59457 4.08236 3.84620
# Velocity P-wave (km/s) = 6.19663 7.23448 6.73557
#
# Compressibility (1/GPa) = 0.01987585
#
# Stress axis : x y z
#
# Youngs Moduli (GPa) = 73.98719 75.43793 64.09069
#
# Poissons Ratio (x) = 0.22663 0.09728
# Poissons Ratio (y) = 0.22227 0.43116
# Poissons Ratio (z) = 0.11230 0.50750
#
# Static dielectric constant tensor:
#      x y z
#    x 4.582670 0.147170 -0.485180 
#    y 0.147170 4.440180 -0.201210 
#    z -0.485180 -0.201210 4.708600 
# 
# 
# High freq. dielectric constant tensor:
#      x y z
#    x 1.946200 0.009360 -0.035150 
#    y 0.009360 1.937050 -0.009480 
#    z -0.035150 -0.009480 1.942650 
# 
# From -- ./inp_files/385654.got.cif
#   From: 2010.06.25/outbox.cif.g09.slc.cpg/sg2_193_cif.got.tgz:385654.got - 2010.06.27 13:26:56.
