data_PCOD8030256
_publ_section_title
;
Structure prediction by ZEFSAII (Michael W. Deem and Ramdas Pophale) SiO2 
 PCOD8030256
Probable space group: P -1
;
_chemical_formula_sum "Si O2"
_cell_formula_units_Z 14
_cell_length_a 8.780268
_cell_length_b 8.754735
_cell_length_c 9.252673
_cell_angle_alpha 102.678670
_cell_angle_beta 80.860545
_cell_angle_gamma 111.173597
_cell_volume 644.576116
_symmetry_space_group_name_H-M "P -1"
_symmetry_group_IT_number 2
_symmetry_cell_setting 'triclinic'
loop_
_space_group_symop_operation_xyz
x,y,z
-x,-y,-z
loop_
_atom_site_type_symbol
_atom_site_label
_atom_site_fract_x
_atom_site_fract_y
_atom_site_fract_z
Si Si1 0.374188 0.578621 0.717892
Si Si2 0.910139 0.629961 0.081941
Si Si3 0.440384 0.898666 0.343218
Si Si4 0.929490 0.752143 0.796496
Si Si5 0.682469 0.474621 0.614478
Si Si6 0.299611 0.895496 0.847441
Si Si7 0.815141 0.054537 0.813931
O O1 0.254436 0.453733 0.822472
O O2 0.551926 0.562453 0.694755
O O3 0.298212 0.538446 0.561739
O O4 0.399315 0.767139 0.797855
O O5 0.030616 0.776792 0.190349
O O6 0.863362 0.709528 0.960933
O O7 0.000000 0.500000 0.000000
O O8 0.371403 0.703589 0.339457
O O9 0.299256 0.958684 0.309429
O O10 0.500000 0.000000 0.500000
O O11 0.595643 0.938704 0.219888
O O12 0.858043 0.588559 0.674126
O O13 0.125701 0.808402 0.777808
O O14 0.876395 0.898917 0.770448
O O15 0.283617 0.942359 0.024240
#
# Coordination Sequence:
#
# PCOD8030256 Si02
#       7
#     2   2   2   2   2   2   2
#     4  11  24  44  69  95 144 175 227 275 339 396
#     4  11  21  43  72 104 133 174 229 282 338 397
#     4  12  26  45  68  97 134 181 227 274 338 402
#     4  11  25  44  70 103 136 177 227 279 345 400
#     4  11  27  44  67  99 139 183 227 272 338 409
#     4  11  23  46  69  98 137 176 223 284 338 399
#     4  11  25  44  69 100 139 173 228 283 341 399
#
# _framework density 21.7197
#
# number of rings (size 3 to 8) (size 9 to 14) (size 15 to 20)
#    0.000    0.857    4.286    3.857    6.000    2.286 
#    0.000    1.429    0.000    0.000    0.000    0.000 
#    0.000    0.000    0.000    0.000    0.000    0.000 
#
# Total GULP energy -173683.560317 kJ/mol
# GULP energy per Si atom -12405.968594 kJ/mol
# Density = 2.167027 g / cm^3
# Si number density = 21.719700 Si / 1000 Ang^3
#
#
#
# Elastic Constant Matrix: (Units=GPa)
#
#
# Indices 1 2 3 4 5 6 
#
# 1 58.3482 32.1037 14.3571 -2.9126 21.3860 -18.0694
# 2 32.1037 132.5531 13.7671 6.9863 11.4009 -7.8401
# 3 14.3571 13.7671 44.2062 4.7508 16.4798 -3.8756
# 4 -2.9126 6.9863 4.7508 38.5197 3.0373 -1.9671
# 5 21.3860 11.4009 16.4798 3.0373 44.1020 3.1875
# 6 -18.0694 -7.8401 -3.8756 -1.9671 3.1875 36.1696
#
#
#
# Elastic Compliance Matrix: (Units=1/GPa)
#
#
# Indices 1 2 3 4 5 6 
#
# 1 0.031056 -0.005419 -0.002283 0.005541 -0.014319 0.015659
# 2 -0.005419 0.008943 -0.001284 -0.002010 0.001014 -0.001105
# 3 -0.002283 -0.001284 0.027514 -0.002527 -0.008825 0.002169
# 4 0.005541 -0.002010 -0.002527 0.027521 -0.003398 0.003858
# 5 -0.014319 0.001014 -0.008825 -0.003398 0.033685 -0.011033
# 6 0.015659 -0.001105 0.002169 0.003858 -0.011033 0.036645
#
#
# Mechanical properties :
#
#
# Convention : Reuss Voigt Hill
#
# Bulk Modulus (GPa) = 20.18527 39.50704 29.84615
# Shear Modulus (GPa) = 25.01865 35.41691 30.21778
#
# Velocity S-wave (km/s) = 3.39763 4.04249 3.73401
# Velocity P-wave (km/s) = 4.97047 6.32598 5.68874
#
# Compressibility (1/GPa) = 0.04954108
#
# Stress axis : x y z
#
# Youngs Moduli (GPa) = 32.20005 111.81567 36.34466
#
# Poissons Ratio (x) = 0.60590 0.08299
# Poissons Ratio (y) = 0.17448 0.04667
# Poissons Ratio (z) = 0.07352 0.14359
#
# Static dielectric constant tensor:
#      x y z
#    x 3.931020 0.083880 0.109440 
#    y 0.083880 4.260390 -0.110660 
#    z 0.109440 -0.110660 3.871170 
# 
# 
# High freq. dielectric constant tensor:
#      x y z
#    x 1.856080 0.004290 0.008670 
#    y 0.004290 1.874520 -0.001860 
#    z 0.008670 -0.001860 1.848840 
# 
# From -- ./inp_files/149567.got.cif
#   From: 2010.06.25/outbox.cif.g09.slc.cpg/sg2_75_cif.got.tgz:149567.got - 2010.06.27 13:26:56.
