data_PCOD8030111
_publ_section_title
;
Structure prediction by ZEFSAII (Michael W. Deem and Ramdas Pophale) SiO2 
 PCOD8030111
Probable space group: P -1
;
_chemical_formula_sum "Si O2"
_cell_formula_units_Z 16
_cell_length_a 20.349831
_cell_length_b 23.834590
_cell_length_c 9.096233
_cell_angle_alpha 40.419453
_cell_angle_beta 151.185986
_cell_angle_gamma 157.897652
_cell_volume 768.464496
_symmetry_space_group_name_H-M "P -1"
_symmetry_group_IT_number 2
_symmetry_cell_setting 'triclinic'
loop_
_space_group_symop_operation_xyz
x,y,z
-x,-y,-z
loop_
_atom_site_type_symbol
_atom_site_label
_atom_site_fract_x
_atom_site_fract_y
_atom_site_fract_z
Si Si1 0.499683 0.823114 0.281188
Si Si2 0.056051 0.843703 0.663154
Si Si3 0.848853 0.862587 0.867625
Si Si4 0.213749 0.359435 0.718020
Si Si5 0.369430 0.728865 0.547813
Si Si6 0.244445 0.823103 0.313984
Si Si7 0.862130 0.917431 0.243966
Si Si8 0.021567 0.624947 0.564815
O O1 0.579237 0.764654 0.522724
O O2 0.467104 0.814867 0.409955
O O3 0.697755 0.995664 0.260532
O O4 0.249078 0.707700 0.935993
O O5 0.906764 0.693622 0.573813
O O6 0.884098 0.834917 0.377504
O O7 0.100407 0.822838 0.948520
O O8 0.880049 0.782459 0.136160
O O9 0.982044 0.929702 0.840939
O O10 0.000000 0.000000 0.000000
O O11 0.131173 0.391126 0.600503
O O12 0.500000 0.500000 0.000000
O O13 0.270593 0.757710 0.385202
O O14 0.149961 0.545729 0.468313
O O15 0.578191 0.794007 0.927753
O O16 0.103422 0.718399 0.392508
O O17 0.500000 0.000000 0.500000
O O18 0.000000 0.000000 0.500000
#
# Coordination Sequence:
#
# PCOD8030111 Si02
#       8
#     2   2   2   2   2   2   2   2
#     4  11  22  43  75  99 133 178 235 279 343 399
#     4  11  23  44  67 103 135 176 231 286 331 400
#     4  11  21  42  69  98 131 174 228 282 329 392
#     4  12  25  45  71 101 135 174 232 286 340 400
#     4  12  25  46  68  98 142 175 225 288 340 398
#     4  12  27  44  68 100 142 181 226 269 338 417
#     4  11  23  40  70  97 132 178 226 271 340 402
#     4  12  28  45  68 104 138 181 225 281 351 403
#
# _framework density 20.820741000000002
#
# number of rings (size 3 to 8) (size 9 to 14) (size 15 to 20)
#    0.000    0.500    5.000    3.750    7.000    2.000 
#    2.250    1.250    0.000    0.000    0.000    0.000 
#    0.000    0.000    0.000    0.000    0.000    0.000 
#
# Total GULP energy -198308.273071 kJ/mol
# GULP energy per Si atom -12394.267067 kJ/mol
# Density = 2.077335 g / cm^3
# Si number density = 20.820741 Si / 1000 Ang^3
#
#
#
# Elastic Constant Matrix: (Units=GPa)
#
#
# Indices 1 2 3 4 5 6 
#
# 1 57.6223 26.5339 11.4082 9.1001 -8.4174 -3.1350
# 2 26.5339 77.2964 29.7394 8.1049 -9.5893 -9.1966
# 3 11.4082 29.7394 135.4482 13.8690 -9.2678 5.6155
# 4 9.1001 8.1049 13.8690 37.7755 1.0692 -1.5504
# 5 -8.4174 -9.5893 -9.2678 1.0692 46.3583 -6.2811
# 6 -3.1350 -9.1966 5.6155 -1.5504 -6.2811 36.5431
#
#
#
# Elastic Compliance Matrix: (Units=1/GPa)
#
#
# Indices 1 2 3 4 5 6 
#
# 1 0.021397 -0.006636 0.000218 -0.003869 0.002704 0.000433
# 2 -0.006636 0.017390 -0.003203 -0.000832 0.002405 0.004677
# 3 0.000218 -0.003203 0.008476 -0.002586 0.000853 -0.002053
# 4 -0.003869 -0.000832 -0.002586 0.028618 -0.001952 0.000734
# 5 0.002704 0.002405 0.000853 -0.001952 0.023404 0.004646
# 6 0.000433 0.004677 -0.002053 0.000734 0.004646 0.029724
#
#
# Mechanical properties :
#
#
# Convention : Reuss Voigt Hill
#
# Bulk Modulus (GPa) = 35.68909 45.08108 40.38509
# Shear Modulus (GPa) = 31.72753 37.64775 34.68764
#
# Velocity S-wave (km/s) = 3.90788 4.25689 4.08611
# Velocity P-wave (km/s) = 6.12702 6.77204 6.45759
#
# Compressibility (1/GPa) = 0.02801976
#
# Stress axis : x y z
#
# Youngs Moduli (GPa) = 46.73627 57.50476 117.97893
#
# Poissons Ratio (x) = 0.38162 -0.02574
# Poissons Ratio (y) = 0.31015 0.37793
# Poissons Ratio (z) = -0.01020 0.18421
#
# Static dielectric constant tensor:
#      x y z
#    x 3.930430 0.095360 0.022710 
#    y 0.095360 3.731230 -0.116250 
#    z 0.022710 -0.116250 4.319020 
# 
# 
# High freq. dielectric constant tensor:
#      x y z
#    x 1.822640 -0.000960 -0.004060 
#    y -0.000960 1.812180 -0.003180 
#    z -0.004060 -0.003180 1.840250 
# 
# From -- ./inp_files/184127.got.cif
#   From: 2010.06.25/outbox.cif.g09.slc.cpg/sg2_93_cif.got.tgz:184127.got - 2010.06.27 13:26:56.
