data_PCOD8030310
_publ_section_title
;
Structure prediction by ZEFSAII (Michael W. Deem and Ramdas Pophale) SiO2 
 PCOD8030310
Probable space group: P -1
;
_chemical_formula_sum "Si O2"
_cell_formula_units_Z 14
_cell_length_a 20.299455
_cell_length_b 9.449026
_cell_length_c 9.845189
_cell_angle_alpha 136.992491
_cell_angle_beta 43.512609
_cell_angle_gamma 150.467320
_cell_volume 612.283756
_symmetry_space_group_name_H-M "P -1"
_symmetry_group_IT_number 2
_symmetry_cell_setting 'triclinic'
loop_
_space_group_symop_operation_xyz
x,y,z
-x,-y,-z
loop_
_atom_site_type_symbol
_atom_site_label
_atom_site_fract_x
_atom_site_fract_y
_atom_site_fract_z
Si Si1 0.885415 0.147691 0.914037
Si Si2 0.702260 0.221499 0.198950
Si Si3 0.341933 0.755329 0.020882
Si Si4 0.811195 0.787969 0.529768
Si Si5 0.262348 0.188723 0.835872
Si Si6 0.495692 0.353648 0.771019
Si Si7 0.846416 0.178421 0.529061
O O1 0.901650 0.984258 0.667279
O O2 0.756586 0.072681 0.990584
O O3 0.000000 0.500000 0.000000
O O4 0.854637 0.010878 0.012802
O O5 0.825376 0.563021 0.317409
O O6 0.573396 0.979718 0.324405
O O7 0.652681 0.242400 0.147882
O O8 0.254869 0.814188 0.244804
O O9 0.265418 0.432751 0.963000
O O10 0.500000 0.000000 0.000000
O O11 0.646295 0.549977 0.624578
O O12 0.862717 0.004463 0.478815
O O13 0.410628 0.341215 0.772844
O O14 0.219575 0.981769 0.628213
O O15 0.500000 0.500000 0.000000
O O16 0.000000 0.500000 0.500000
#
# Coordination Sequence:
#
# PCOD8030310 Si02
#       7
#     2   2   2   2   2   2   2
#     4  11  25  46  68  96 139 184 236 283 342 420
#     4  11  24  42  70 102 134 183 225 293 350 413
#     4  12  26  44  72 105 141 181 232 289 354 413
#     4  12  23  43  72  98 137 184 227 290 350 414
#     4  11  25  42  69 104 135 181 234 290 343 420
#     4  11  21  44  69 100 143 176 227 292 355 407
#     4  12  27  46  69 102 144 188 231 287 351 415
#
# _framework density 22.865217000000001
#
# number of rings (size 3 to 8) (size 9 to 14) (size 15 to 20)
#    0.000    0.571    5.714    3.000    2.000    5.714 
#    0.000    0.000    0.000    0.000    0.000    0.000 
#    0.000    0.000    0.000    0.000    0.000    0.000 
#
# Total GULP energy -173575.591519 kJ/mol
# GULP energy per Si atom -12398.256537 kJ/mol
# Density = 2.281317 g / cm^3
# Si number density = 22.865217 Si / 1000 Ang^3
#
#
#
# Elastic Constant Matrix: (Units=GPa)
#
#
# Indices 1 2 3 4 5 6 
#
# 1 49.4679 15.9903 26.2985 6.6479 20.8246 -24.8552
# 2 15.9903 128.2968 14.1630 14.3303 0.7871 -23.7109
# 3 26.2985 14.1630 94.5893 23.2138 10.6392 -4.8089
# 4 6.6479 14.3303 23.2138 41.4977 3.8788 5.2697
# 5 20.8246 0.7871 10.6392 3.8788 40.3655 4.8817
# 6 -24.8552 -23.7109 -4.8089 5.2697 4.8817 49.0349
#
#
#
# Elastic Compliance Matrix: (Units=1/GPa)
#
#
# Indices 1 2 3 4 5 6 
#
# 1 0.050833 0.000534 -0.008613 -0.004591 -0.026953 0.028357
# 2 0.000534 0.009117 -0.000282 -0.003665 -0.000645 0.005109
# 3 -0.008613 -0.000282 0.014245 -0.006314 0.001614 -0.002587
# 4 -0.004591 -0.003665 -0.006314 0.030471 0.002169 -0.008209
# 5 -0.026953 -0.000645 0.001614 0.002169 0.040241 -0.018055
# 6 0.028357 0.005109 -0.002587 -0.008209 -0.018055 0.039664
#
#
# Mechanical properties :
#
#
# Convention : Reuss Voigt Hill
#
# Bulk Modulus (GPa) = 17.39933 42.80640 30.10286
# Shear Modulus (GPa) = 22.68098 40.57310 31.62704
#
# Velocity S-wave (km/s) = 3.15293 4.21699 3.72317
# Velocity P-wave (km/s) = 4.56953 6.51709 5.62819
#
# Compressibility (1/GPa) = 0.05747349
#
# Stress axis : x y z
#
# Youngs Moduli (GPa) = 19.67240 109.69063 70.19833
#
# Poissons Ratio (x) = -0.05859 0.60460
# Poissons Ratio (y) = -0.01051 0.01979
# Poissons Ratio (z) = 0.16943 0.03092
#
# Static dielectric constant tensor:
#      x y z
#    x 5.021350 0.659410 -0.782520 
#    y 0.659410 4.947920 -0.554890 
#    z -0.782520 -0.554890 4.914610 
# 
# 
# High freq. dielectric constant tensor:
#      x y z
#    x 1.903790 -0.003810 0.003770 
#    y -0.003810 1.930380 0.009300 
#    z 0.003770 0.009300 1.910490 
# 
# From -- ./inp_files/223298.got.cif
#   From: 2010.06.25/outbox.cif.g09.slc.cpg/sg2_112_cif.got.tgz:223298.got - 2010.06.27 13:26:56.
