data_PCOD8030274
_publ_section_title
;
Structure prediction by ZEFSAII (Michael W. Deem and Ramdas Pophale) SiO2 
 PCOD8030274
Probable space group: P -1
;
_chemical_formula_sum "Si O2"
_cell_formula_units_Z 16
_cell_length_a 17.027430
_cell_length_b 11.984977
_cell_length_c 8.234692
_cell_angle_alpha 40.577915
_cell_angle_beta 99.404527
_cell_angle_gamma 127.848187
_cell_volume 697.460108
_symmetry_space_group_name_H-M "P -1"
_symmetry_group_IT_number 2
_symmetry_cell_setting 'triclinic'
loop_
_space_group_symop_operation_xyz
x,y,z
-x,-y,-z
loop_
_atom_site_type_symbol
_atom_site_label
_atom_site_fract_x
_atom_site_fract_y
_atom_site_fract_z
Si Si1 0.143358 0.219996 0.800975
Si Si2 0.002405 0.207907 0.284457
Si Si3 0.641390 0.964367 0.767374
Si Si4 0.283467 0.708851 0.886346
Si Si5 0.225747 0.136946 0.189366
Si Si6 0.737343 0.231402 0.841260
Si Si7 0.162184 0.951665 0.863402
Si Si8 0.365800 0.455924 0.177604
O O1 0.193514 0.474967 0.459812
O O2 0.180316 0.113390 0.834169
O O3 0.200807 0.274392 0.935294
O O4 0.000000 0.000000 0.000000
O O5 0.899352 0.109148 0.482262
O O6 0.966567 0.225855 0.076488
O O7 0.000000 0.000000 0.500000
O O8 0.136053 0.494260 0.064272
O O9 0.654899 0.112810 0.452567
O O10 0.652227 0.077860 0.820876
O O11 0.741659 0.976917 0.780541
O O12 0.505367 0.662410 0.050967
O O13 0.330625 0.880222 0.880113
O O14 0.316013 0.564082 0.074637
O O15 0.346691 0.378749 0.068039
O O16 0.836557 0.240823 0.858624
O O17 0.283449 0.178580 0.545209
#
# Coordination Sequence:
#
# PCOD8030274 Si02
#       8
#     2   2   2   2   2   2   2   2
#     4  12  25  44  71 106 150 189 236 306 369 434
#     4  11  21  43  74 102 140 191 235 300 369 435
#     4  12  28  46  71 109 148 193 248 303 357 437
#     4  12  24  46  72 107 144 188 244 299 366 433
#     4  11  23  45  72 103 143 191 243 302 367 432
#     4  12  27  47  70 112 145 189 250 295 363 440
#     4  11  24  46  72 104 147 189 241 298 368 433
#     4  11  24  48  73 100 146 198 245 300 365 427
#
# _framework density 22.940382
#
# number of rings (size 3 to 8) (size 9 to 14) (size 15 to 20)
#    0.000    0.500    5.000    4.500    1.750    4.500 
#    2.250    0.000    0.000    0.000    0.000    0.000 
#    0.000    0.000    0.000    0.000    0.000    0.000 
#
# Total GULP energy -198340.681219 kJ/mol
# GULP energy per Si atom -12396.292576 kJ/mol
# Density = 2.288817 g / cm^3
# Si number density = 22.940382 Si / 1000 Ang^3
#
#
#
# Elastic Constant Matrix: (Units=GPa)
#
#
# Indices 1 2 3 4 5 6 
#
# 1 66.6127 2.2180 6.9730 -4.0018 5.7857 -3.9160
# 2 2.2180 120.0401 7.9749 14.1693 -15.3343 -13.4128
# 3 6.9730 7.9749 31.4125 7.1398 -2.5182 0.6530
# 4 -4.0018 14.1693 7.1398 26.4234 8.7809 5.1845
# 5 5.7857 -15.3343 -2.5182 8.7809 41.5233 -6.7168
# 6 -3.9160 -13.4128 0.6530 5.1845 -6.7168 37.3536
#
#
#
# Elastic Compliance Matrix: (Units=1/GPa)
#
#
# Indices 1 2 3 4 5 6 
#
# 1 0.016301 -0.001264 -0.005005 0.005999 -0.004354 -0.000273
# 2 -0.001264 0.011240 0.000185 -0.010083 0.007547 0.006657
# 3 -0.005005 0.000185 0.036301 -0.013016 0.006010 0.001795
# 4 0.005999 -0.010083 -0.013016 0.057016 -0.019706 -0.014221
# 5 -0.004354 0.007547 0.006010 -0.019706 0.033781 0.010958
# 6 -0.000273 0.006657 0.001795 -0.014221 0.010958 0.033046
#
#
# Mechanical properties :
#
#
# Convention : Reuss Voigt Hill
#
# Bulk Modulus (GPa) = 19.35138 28.04410 23.69774
# Shear Modulus (GPa) = 23.03351 34.45336 28.74344
#
# Velocity S-wave (km/s) = 3.17213 3.87959 3.54356
# Velocity P-wave (km/s) = 4.67657 5.68504 5.20529
#
# Compressibility (1/GPa) = 0.05167590
#
# Stress axis : x y z
#
# Youngs Moduli (GPa) = 61.34737 88.97139 27.54734
#
# Poissons Ratio (x) = 0.11242 0.13786
# Poissons Ratio (y) = 0.07751 -0.00511
# Poissons Ratio (z) = 0.30702 -0.01649
#
# Static dielectric constant tensor:
#      x y z
#    x 4.124230 -0.041630 0.106990 
#    y -0.041630 4.472900 0.210850 
#    z 0.106990 0.210850 3.989570 
# 
# 
# High freq. dielectric constant tensor:
#      x y z
#    x 1.912410 -0.004090 0.016050 
#    y -0.004090 1.923370 0.012210 
#    z 0.016050 0.012210 1.887430 
# 
# From -- ./inp_files/332745.got.cif
#   From: 2010.06.25/outbox.cif.g09.slc.cpg/sg2_167_cif.got.tgz:332745.got - 2010.06.27 13:26:56.
