data_PCOD8030430
_publ_section_title
;
Structure prediction by ZEFSAII (Michael W. Deem and Ramdas Pophale) SiO2 
 PCOD8030430
Probable space group: P -1
;
_chemical_formula_sum "Si O2"
_cell_formula_units_Z 12
_cell_length_a 8.699173
_cell_length_b 12.243487
_cell_length_c 12.560233
_cell_angle_alpha 143.786210
_cell_angle_beta 94.397506
_cell_angle_gamma 58.640055
_cell_volume 494.657227
_symmetry_space_group_name_H-M "P -1"
_symmetry_group_IT_number 2
_symmetry_cell_setting 'triclinic'
loop_
_space_group_symop_operation_xyz
x,y,z
-x,-y,-z
loop_
_atom_site_type_symbol
_atom_site_label
_atom_site_fract_x
_atom_site_fract_y
_atom_site_fract_z
Si Si1 0.043962 0.340920 0.772411
Si Si2 0.346352 0.782062 0.470130
Si Si3 0.479359 0.265416 0.013678
Si Si4 0.719298 0.757972 0.493839
Si Si5 0.786367 0.201159 0.298912
Si Si6 0.902690 0.809275 0.819546
O O1 0.219563 0.295654 0.669865
O O2 0.166118 0.032304 0.567994
O O3 0.000000 0.500000 0.000000
O O4 0.804826 0.524754 0.833421
O O5 0.534218 0.761130 0.506743
O O6 0.179604 0.869149 0.628837
O O7 0.502305 0.466565 0.179804
O O8 0.595534 0.071511 0.759977
O O9 0.625314 0.034839 0.939286
O O10 0.952744 0.512889 0.393391
O O11 0.500000 0.500000 0.500000
O O12 0.946115 0.228916 0.295827
O O13 0.889516 0.934127 0.027011
#
# Coordination Sequence:
#
# PCOD8030430 Si02
#       6
#     2   2   2   2   2   2
#     4  12  28  52  74 106 147 197 245 300 366 426
#     4  12  25  51  77 103 151 193 243 300 360 437
#     4  12  28  47  73 113 143 197 243 298 364 435
#     4  12  27  49  75 108 149 189 240 310 358 434
#     4  11  21  45  76 109 147 191 239 298 366 426
#     4  11  24  44  74 113 146 188 243 299 366 430
#
# _framework density 24.259226000000002
#
# number of rings (size 3 to 8) (size 9 to 14) (size 15 to 20)
#    0.000    0.333    5.000    3.500    2.333    1.333 
#    0.000    0.000    0.000    0.000    0.000    0.000 
#    0.000    0.000    0.000    0.000    0.000    0.000 
#
# Total GULP energy -148820.794949 kJ/mol
# GULP energy per Si atom -12401.732912 kJ/mol
# Density = 2.420401 g / cm^3
# Si number density = 24.259226 Si / 1000 Ang^3
#
#
#
# Elastic Constant Matrix: (Units=GPa)
#
#
# Indices 1 2 3 4 5 6 
#
# 1 74.4803 57.5555 55.2736 -5.2090 7.4326 -2.5080
# 2 57.5555 139.3991 64.3903 8.1703 -14.5939 10.4667
# 3 55.2736 64.3903 145.5963 7.1762 16.6051 14.4794
# 4 -5.2090 8.1703 7.1762 51.0616 -0.5346 -12.1180
# 5 7.4326 -14.5939 16.6051 -0.5346 37.5874 -1.0865
# 6 -2.5080 10.4667 14.4794 -12.1180 -1.0865 46.0753
#
#
#
# Elastic Compliance Matrix: (Units=1/GPa)
#
#
# Indices 1 2 3 4 5 6 
#
# 1 0.027048 -0.009858 -0.006286 0.006903 -0.006088 0.007359
# 2 -0.009858 0.013923 -0.002850 -0.003586 0.008461 -0.003547
# 3 -0.006286 -0.002850 0.011671 -0.002887 -0.005183 -0.004244
# 4 0.006903 -0.003586 -0.002887 0.023199 -0.000916 0.008177
# 5 -0.006088 0.008461 -0.005183 -0.000916 0.033368 -0.000079
# 6 0.007359 -0.003547 -0.004244 0.008177 -0.000079 0.026393
#
#
# Mechanical properties :
#
#
# Convention : Reuss Voigt Hill
#
# Bulk Modulus (GPa) = 68.25084 79.32383 73.78734
# Shear Modulus (GPa) = 28.01516 39.09530 33.55523
#
# Velocity S-wave (km/s) = 3.40196 4.01878 3.72317
# Velocity P-wave (km/s) = 6.60501 7.36910 6.99749
#
# Compressibility (1/GPa) = 0.01465183
#
# Stress axis : x y z
#
# Youngs Moduli (GPa) = 36.97147 71.82398 85.68456
#
# Poissons Ratio (x) = 0.70808 0.53862
# Poissons Ratio (y) = 0.36448 0.24422
# Poissons Ratio (z) = 0.23241 0.20471
#
# Static dielectric constant tensor:
#      x y z
#    x 4.160920 -0.027550 -0.061170 
#    y -0.027550 4.523500 0.179470 
#    z -0.061170 0.179470 4.772130 
# 
# 
# High freq. dielectric constant tensor:
#      x y z
#    x 1.944310 -0.010100 0.002240 
#    y -0.010100 1.968240 0.008420 
#    z 0.002240 0.008420 1.982890 
# 
# From -- ./inp_files/49581.got.cif
#   From: 2010.06.25/outbox.cif.g09.slc.cpg/sg2_25_cif.got.tgz:49581.got - 2010.06.27 13:26:56.
