data_PCOD8030395
_publ_section_title
;
Structure prediction by ZEFSAII (Michael W. Deem and Ramdas Pophale) SiO2 
 PCOD8030395
Probable space group: P -1
;
_chemical_formula_sum "Si O2"
_cell_formula_units_Z 16
_cell_length_a 9.531468
_cell_length_b 8.715592
_cell_length_c 12.088493
_cell_angle_alpha 97.807329
_cell_angle_beta 51.457507
_cell_angle_gamma 88.585165
_cell_volume 770.381479
_symmetry_space_group_name_H-M "P -1"
_symmetry_group_IT_number 2
_symmetry_cell_setting 'triclinic'
loop_
_space_group_symop_operation_xyz
x,y,z
-x,-y,-z
loop_
_atom_site_type_symbol
_atom_site_label
_atom_site_fract_x
_atom_site_fract_y
_atom_site_fract_z
Si Si1 0.917755 0.344149 0.051474
Si Si2 0.491414 0.672910 0.723714
Si Si3 0.163048 0.887176 0.354682
Si Si4 0.959303 0.855216 0.237894
Si Si5 0.371958 0.105826 0.155517
Si Si6 0.000415 0.794917 0.770383
Si Si7 0.436678 0.178548 0.523437
Si Si8 0.300297 0.653509 0.453125
O O1 0.703498 0.385056 0.181021
O O2 0.016871 0.263234 0.102313
O O3 0.952572 0.222454 0.922951
O O4 0.000000 0.500000 0.000000
O O5 0.523465 0.762693 0.829800
O O6 0.500214 0.787283 0.627210
O O7 0.649163 0.527378 0.619539
O O8 0.102461 0.815987 0.262766
O O9 0.236816 0.744947 0.382382
O O10 0.319670 0.993594 0.267727
O O11 0.000000 0.000000 0.500000
O O12 0.779125 0.784715 0.352838
O O13 0.917131 0.041974 0.258183
O O14 0.196856 0.189038 0.185003
O O15 0.500000 0.000000 0.000000
O O16 0.137193 0.668690 0.622916
O O17 0.522642 0.286589 0.578594
O O18 0.500000 0.000000 0.500000
#
# Coordination Sequence:
#
# PCOD8030395 Si02
#       8
#     2   2   2   2   2   2   2   2
#     4  12  27  46  65  95 141 182 220 274 347 407
#     4  12  26  43  67 103 138 177 224 284 337 391
#     4  11  21  45  69 100 132 177 229 271 336 407
#     4  11  23  42  72  98 132 175 227 276 334 405
#     4  11  25  45  70  99 136 178 230 277 331 410
#     4  11  24  45  68  99 134 180 225 278 338 398
#     4  12  22  41  70 104 130 175 230 277 329 401
#     4  12  24  41  69 102 142 168 228 284 336 393
#
# _framework density 20.768930999999998
#
# number of rings (size 3 to 8) (size 9 to 14) (size 15 to 20)
#    0.000    0.500    5.000    4.500    1.750    4.500 
#    0.000    1.875    0.000    0.000    0.000    0.000 
#    0.000    0.000    0.000    0.000    0.000    0.000 
#
# Total GULP energy -198509.248782 kJ/mol
# GULP energy per Si atom -12406.828049 kJ/mol
# Density = 2.072166 g / cm^3
# Si number density = 20.768931 Si / 1000 Ang^3
#
#
#
# Elastic Constant Matrix: (Units=GPa)
#
#
# Indices 1 2 3 4 5 6 
#
# 1 127.9427 62.1801 45.3547 -7.9984 13.1432 -1.9423
# 2 62.1801 108.8798 57.6704 4.8003 9.2591 -0.3103
# 3 45.3547 57.6704 132.2113 2.4261 4.8023 -1.4887
# 4 -7.9984 4.8003 2.4261 43.6051 2.7020 0.4439
# 5 13.1432 9.2591 4.8023 2.7020 45.0405 -4.3117
# 6 -1.9423 -0.3103 -1.4887 0.4439 -4.3117 24.3206
#
#
#
# Elastic Compliance Matrix: (Units=1/GPa)
#
#
# Indices 1 2 3 4 5 6 
#
# 1 0.011543 -0.005793 -0.001405 0.002965 -0.002175 0.000322
# 2 -0.005793 0.015060 -0.004514 -0.002410 -0.000842 -0.000652
# 3 -0.001405 -0.004514 0.010014 -0.000344 0.000340 0.000510
# 4 0.002965 -0.002410 -0.000344 0.023880 -0.001820 -0.000574
# 5 -0.002175 -0.000842 0.000340 -0.001820 0.023469 0.004030
# 6 0.000322 -0.000652 0.000510 -0.000574 0.004030 0.041891
#
#
# Mechanical properties :
#
#
# Convention : Reuss Voigt Hill
#
# Bulk Modulus (GPa) = 75.79624 77.71602 76.75613
# Shear Modulus (GPa) = 32.53542 36.18180 34.35861
#
# Velocity S-wave (km/s) = 3.96225 4.17839 4.07175
# Velocity P-wave (km/s) = 7.58333 7.79610 7.69045
#
# Compressibility (1/GPa) = 0.01319327
#
# Stress axis : x y z
#
# Youngs Moduli (GPa) = 86.63326 66.40179 99.85603
#
# Poissons Ratio (x) = 0.38466 0.14027
# Poissons Ratio (y) = 0.50185 0.45079
# Poissons Ratio (z) = 0.12169 0.29976
#
# Static dielectric constant tensor:
#      x y z
#    x 3.332150 0.762260 -0.671830 
#    y 0.762260 3.036480 0.637190 
#    z -0.671830 0.637190 3.287130 
# 
# 
# High freq. dielectric constant tensor:
#      x y z
#    x 1.826590 0.001210 0.002500 
#    y 0.001210 1.808830 -0.003090 
#    z 0.002500 -0.003090 1.825320 
# 
# From -- ./inp_files/206375.got.cif
#   From: 2010.06.25/outbox.cif.g09.slc.cpg/sg2_104_cif.got.tgz:206375.got - 2010.06.27 13:26:56.
