data_PCOD8030173
_publ_section_title
;
Structure prediction by ZEFSAII (Michael W. Deem and Ramdas Pophale) SiO2 
 PCOD8030173
Probable space group: P -1
;
_chemical_formula_sum "Si O2"
_cell_formula_units_Z 12
_cell_length_a 16.284163
_cell_length_b 8.503962
_cell_length_c 9.161226
_cell_angle_alpha 113.321636
_cell_angle_beta 34.879995
_cell_angle_gamma 131.004744
_cell_volume 516.847298
_symmetry_space_group_name_H-M "P -1"
_symmetry_group_IT_number 2
_symmetry_cell_setting 'triclinic'
loop_
_space_group_symop_operation_xyz
x,y,z
-x,-y,-z
loop_
_atom_site_type_symbol
_atom_site_label
_atom_site_fract_x
_atom_site_fract_y
_atom_site_fract_z
Si Si1 0.500168 0.683821 0.148871
Si Si2 0.478174 0.795997 0.526092
Si Si3 0.837467 0.417951 0.549668
Si Si4 0.904289 0.086594 0.742048
Si Si5 0.174205 0.478114 0.078136
Si Si6 0.844446 0.918244 0.076960
O O1 0.461889 0.641106 0.362774
O O2 0.345261 0.696984 0.320148
O O3 0.500000 0.500000 0.000000
O O4 0.693013 0.926934 0.936160
O O5 0.660056 0.879909 0.387790
O O6 0.500000 0.000000 0.500000
O O7 0.294503 0.652532 0.837822
O O8 0.778347 0.386169 0.792490
O O9 0.996663 0.672925 0.372434
O O10 0.950775 0.327601 0.316437
O O11 0.000000 0.000000 0.500000
O O12 0.924956 0.089634 0.888409
O O13 0.222802 0.316696 0.970325
O O14 0.000000 0.000000 0.000000
#
# Coordination Sequence:
#
# PCOD8030173 Si02
#       6
#     2   2   2   2   2   2
#     4  11  23  41  73  99 130 186 232 276 347 412
#     4  11  26  48  70 101 141 180 234 288 343 420
#     4  11  24  44  69 100 139 183 231 286 346 414
#     4  11  21  43  65  97 137 174 233 279 337 416
#     4  11  24  44  66 101 140 176 229 290 342 411
#     4  11  25  41  67 101 138 176 224 287 347 404
#
# _framework density 23.217690000000001
#
# number of rings (size 3 to 8) (size 9 to 14) (size 15 to 20)
#    0.000    1.000    3.333    3.500    4.667    2.000 
#    0.000    2.500    0.000    0.000    0.000    0.000 
#    0.000    0.000    0.000    0.000    0.000    0.000 
#
# Total GULP energy -148743.608065 kJ/mol
# GULP energy per Si atom -12395.300672 kJ/mol
# Density = 2.316485 g / cm^3
# Si number density = 23.217690 Si / 1000 Ang^3
#
#
#
# Elastic Constant Matrix: (Units=GPa)
#
#
# Indices 1 2 3 4 5 6 
#
# 1 146.2473 21.7261 63.8313 -7.9568 -33.1652 12.5004
# 2 21.7261 60.8542 26.2462 -2.3904 5.0898 -9.1065
# 3 63.8313 26.2462 160.3914 -2.6957 -8.2526 6.5859
# 4 -7.9568 -2.3904 -2.6957 32.7354 -6.7222 -5.8631
# 5 -33.1652 5.0898 -8.2526 -6.7222 62.2907 -2.0297
# 6 12.5004 -9.1065 6.5859 -5.8631 -2.0297 36.4831
#
#
#
# Elastic Compliance Matrix: (Units=1/GPa)
#
#
# Indices 1 2 3 4 5 6 
#
# 1 0.010331 -0.003145 -0.003144 0.002614 0.005525 -0.003030
# 2 -0.003145 0.019878 -0.002420 0.000964 -0.003305 0.006447
# 3 -0.003144 -0.002420 0.007889 -0.000593 -0.000530 -0.001076
# 4 0.002614 0.000964 -0.000593 0.033132 0.004975 0.005053
# 5 0.005525 -0.003305 -0.000530 0.004975 0.019708 -0.000726
# 6 -0.003030 0.006447 -0.001076 0.005053 -0.000726 0.031023
#
#
# Mechanical properties :
#
#
# Convention : Reuss Voigt Hill
#
# Bulk Modulus (GPa) = 48.35539 65.67776 57.01657
# Shear Modulus (GPa) = 34.18253 43.34781 38.76517
#
# Velocity S-wave (km/s) = 3.84117 4.32559 4.09056
# Velocity P-wave (km/s) = 6.36749 7.30047 6.84988
#
# Compressibility (1/GPa) = 0.02068022
#
# Stress axis : x y z
#
# Youngs Moduli (GPa) = 96.79249 50.30598 126.75892
#
# Poissons Ratio (x) = 0.15822 0.39857
# Poissons Ratio (y) = 0.30442 0.30673
# Poissons Ratio (z) = 0.30435 0.12173
#
# Static dielectric constant tensor:
#      x y z
#    x 4.248830 -0.026630 -0.196850 
#    y -0.026630 3.784090 0.222390 
#    z -0.196850 0.222390 4.549980 
# 
# 
# High freq. dielectric constant tensor:
#      x y z
#    x 1.925170 -0.012690 -0.015170 
#    y -0.012690 1.899380 0.015740 
#    z -0.015170 0.015740 1.940730 
# 
# From -- ./inp_files/290566.got.cif
#   From: 2010.06.25/outbox.cif.g09.slc.cpg/sg2_146_cif.got.tgz:290566.got - 2010.06.27 13:26:56.
