data_PCOD8030128
_publ_section_title
;
Structure prediction by ZEFSAII (Michael W. Deem and Ramdas Pophale) SiO2 
 PCOD8030128
Probable space group: P -1
;
_chemical_formula_sum "Si O2"
_cell_formula_units_Z 16
_cell_length_a 14.004758
_cell_length_b 18.019062
_cell_length_c 9.307591
_cell_angle_alpha 139.722849
_cell_angle_beta 29.482495
_cell_angle_gamma 140.906738
_cell_volume 699.501216
_symmetry_space_group_name_H-M "P -1"
_symmetry_group_IT_number 2
_symmetry_cell_setting 'triclinic'
loop_
_space_group_symop_operation_xyz
x,y,z
-x,-y,-z
loop_
_atom_site_type_symbol
_atom_site_label
_atom_site_fract_x
_atom_site_fract_y
_atom_site_fract_z
Si Si1 0.074229 0.361917 0.541335
Si Si2 0.444773 0.278475 0.889906
Si Si3 0.717700 0.999325 0.320305
Si Si4 0.390208 0.785100 0.149953
Si Si5 0.067744 0.992133 0.661748
Si Si6 0.357714 0.228110 0.467225
Si Si7 0.978011 0.747081 0.249039
Si Si8 0.291407 0.635469 0.586018
O O1 0.128742 0.503735 0.644008
O O2 0.851191 0.291011 0.661894
O O3 0.080417 0.348016 0.683740
O O4 0.240087 0.310447 0.177514
O O5 0.404814 0.140909 0.685680
O O6 0.506775 0.290620 0.995289
O O7 0.632898 0.367406 0.680687
O O8 0.854647 0.056174 0.367668
O O9 0.575105 0.084513 0.619913
O O10 0.856934 0.014279 0.016239
O O11 0.504818 0.812978 0.888909
O O12 0.231661 0.113004 0.559035
O O13 0.017500 0.885642 0.452061
O O14 0.510100 0.332514 0.522530
O O15 0.207004 0.287910 0.676030
O O16 0.182009 0.736934 0.892335
#
# Coordination Sequence:
#
# PCOD8030128 Si02
#       8
#     2   2   2   2   2   2   2   2
#     4  12  25  50  68  96 142 178 231 283 330 392
#     4  12  26  47  69 104 136 177 229 278 339 402
#     4  11  21  42  71 100 139 178 215 280 343 404
#     4  12  26  43  75 100 137 182 221 275 348 402
#     4  11  22  42  71 102 140 175 217 281 344 399
#     4  12  26  44  72 105 135 179 223 278 342 405
#     4  12  25  45  69 103 139 174 225 287 334 399
#     4  12  29  44  72 100 133 185 232 278 330 401
#
# _framework density 22.873441
#
# number of rings (size 3 to 8) (size 9 to 14) (size 15 to 20)
#    0.000    0.250    6.250    2.250    3.500    3.000 
#    0.000    0.000    0.000    0.000    0.000    0.000 
#    0.000    0.000    0.000    0.000    0.000    0.000 
#
# Total GULP energy -198494.299170 kJ/mol
# GULP energy per Si atom -12405.893698 kJ/mol
# Density = 2.282138 g / cm^3
# Si number density = 22.873441 Si / 1000 Ang^3
#
#
#
# Elastic Constant Matrix: (Units=GPa)
#
#
# Indices 1 2 3 4 5 6 
#
# 1 69.5629 17.8116 31.7038 5.2449 -9.8416 1.3460
# 2 17.8116 108.2404 31.0484 -13.7369 2.9048 0.3382
# 3 31.7038 31.0484 109.1440 -17.7607 -7.1650 -7.9235
# 4 5.2449 -13.7369 -17.7607 34.1592 -4.1333 3.9068
# 5 -9.8416 2.9048 -7.1650 -4.1333 35.3585 -8.6280
# 6 1.3460 0.3382 -7.9235 3.9068 -8.6280 20.4470
#
#
#
# Elastic Compliance Matrix: (Units=1/GPa)
#
#
# Indices 1 2 3 4 5 6 
#
# 1 0.018436 -0.002313 -0.005537 -0.006155 0.003296 -0.000754
# 2 -0.002313 0.010748 -0.002116 0.003597 -0.002128 -0.002431
# 3 -0.005537 -0.002116 0.013078 0.006566 0.003431 0.005661
# 4 -0.006155 0.003597 0.006566 0.035737 0.002830 -0.002744
# 5 0.003296 -0.002128 0.003431 0.002830 0.034055 0.014977
# 6 -0.000754 -0.002431 0.005661 -0.002744 0.014977 0.058035
#
#
# Mechanical properties :
#
#
# Convention : Reuss Voigt Hill
#
# Bulk Modulus (GPa) = 44.78593 49.78609 47.28601
# Shear Modulus (GPa) = 25.32117 31.75184 28.53651
#
# Velocity S-wave (km/s) = 3.33079 3.72983 3.53595
# Velocity P-wave (km/s) = 5.86640 6.35311 6.11460
#
# Compressibility (1/GPa) = 0.02232844
#
# Stress axis : x y z
#
# Youngs Moduli (GPa) = 54.24086 93.04417 76.46718
#
# Poissons Ratio (x) = 0.21518 0.42343
# Poissons Ratio (y) = 0.12544 0.16184
# Poissons Ratio (z) = 0.30035 0.19692
#
# Static dielectric constant tensor:
#      x y z
#    x 4.281760 -0.025510 -0.113520 
#    y -0.025510 3.903050 -0.076330 
#    z -0.113520 -0.076330 4.238780 
# 
# 
# High freq. dielectric constant tensor:
#      x y z
#    x 1.913540 0.000290 -0.004770 
#    y 0.000290 1.892800 -0.010180 
#    z -0.004770 -0.010180 1.912250 
# 
# From -- ./inp_files/226776.got.cif
#   From: 2010.06.25/outbox.cif.g09.slc.cpg/sg2_114_cif.got.tgz:226776.got - 2010.06.27 13:26:56.
