data_PCOD8030788
_publ_section_title
;
Structure prediction by ZEFSAII (Michael W. Deem and Ramdas Pophale) SiO2 
 PCOD8030788
Probable space group: P -1
;
_chemical_formula_sum "Si O2"
_cell_formula_units_Z 14
_cell_length_a 11.587959
_cell_length_b 9.704074
_cell_length_c 16.917411
_cell_angle_alpha 110.913525
_cell_angle_beta 145.824644
_cell_angle_gamma 46.416555
_cell_volume 659.068542
_symmetry_space_group_name_H-M "P -1"
_symmetry_group_IT_number 2
_symmetry_cell_setting 'triclinic'
loop_
_space_group_symop_operation_xyz
x,y,z
-x,-y,-z
loop_
_atom_site_type_symbol
_atom_site_label
_atom_site_fract_x
_atom_site_fract_y
_atom_site_fract_z
Si Si1 0.555563 0.824853 0.945470
Si Si2 0.164824 0.495208 0.520817
Si Si3 0.761748 0.996223 0.364500
Si Si4 0.766533 0.253592 0.893676
Si Si5 0.367008 0.619197 0.866889
Si Si6 0.126085 0.333278 0.159445
Si Si7 0.824739 0.756462 0.647512
O O1 0.382139 0.945560 0.790671
O O2 0.413264 0.763644 0.899607
O O3 0.921197 0.593459 0.088137
O O4 0.500000 0.000000 0.000000
O O5 0.539666 0.325222 0.707939
O O6 0.135357 0.425210 0.406761
O O7 0.000000 0.500000 0.500000
O O8 0.966453 0.748761 0.454022
O O9 0.482067 0.172626 0.305224
O O10 0.000000 0.000000 0.500000
O O11 0.509570 0.425506 0.848244
O O12 0.975059 0.289331 0.006719
O O13 0.000000 0.000000 0.000000
O O14 0.006317 0.780607 0.704030
O O15 0.500000 0.500000 0.000000
O O16 0.089037 0.297503 0.221717
O O17 0.500000 0.000000 0.500000
#
# Coordination Sequence:
#
# PCOD8030788 Si02
#       7
#     2   2   2   2   2   2   2
#     4  11  25  47  72 101 141 184 228 280 346 417
#     4  12  25  42  71 105 140 179 230 285 345 401
#     4  12  27  48  70 100 144 181 229 291 347 410
#     4  11  22  40  68 106 136 174 227 283 341 402
#     4  11  23  43  72 101 137 178 231 282 341 404
#     4  11  25  46  69  99 139 189 230 277 346 416
#     4  12  24  42  69 106 139 175 232 292 340 400
#
# _framework density 21.242099
#
# number of rings (size 3 to 8) (size 9 to 14) (size 15 to 20)
#    0.000    0.571    4.286    5.571    2.000    0.000 
#    2.571    1.429    0.000    0.000    0.000    0.000 
#    0.000    0.000    0.000    0.000    0.000    0.000 
#
# Total GULP energy -173491.125470 kJ/mol
# GULP energy per Si atom -12392.223248 kJ/mol
# Density = 2.119375 g / cm^3
# Si number density = 21.242099 Si / 1000 Ang^3
#
#
#
# Elastic Constant Matrix: (Units=GPa)
#
#
# Indices 1 2 3 4 5 6 
#
# 1 110.8503 52.3751 46.8559 0.1470 16.7152 6.4659
# 2 52.3751 170.0950 62.2917 -16.7554 14.0989 9.4868
# 3 46.8559 62.2917 128.8415 -17.2945 17.0898 2.8652
# 4 0.1470 -16.7554 -17.2945 46.1341 -2.9549 -7.7771
# 5 16.7152 14.0989 17.0898 -2.9549 50.1192 -8.1634
# 6 6.4659 9.4868 2.8652 -7.7771 -8.1634 26.5225
#
#
#
# Elastic Compliance Matrix: (Units=1/GPa)
#
#
# Indices 1 2 3 4 5 6 
#
# 1 0.012174 -0.002426 -0.003160 -0.002898 -0.003049 -0.003547
# 2 -0.002426 0.007882 -0.002585 0.001568 -0.000712 -0.001708
# 3 -0.003160 -0.002585 0.010770 0.003176 -0.001543 0.000988
# 4 -0.002898 0.001568 0.003176 0.024895 0.002176 0.007772
# 5 -0.003049 -0.000712 -0.001543 0.002176 0.023285 0.008970
# 6 -0.003547 -0.001708 0.000988 0.007772 0.008970 0.044112
#
#
# Mechanical properties :
#
#
# Convention : Reuss Voigt Hill
#
# Bulk Modulus (GPa) = 69.05168 81.42583 75.23875
# Shear Modulus (GPa) = 34.65311 41.10610 37.87961
#
# Velocity S-wave (km/s) = 4.04337 4.40378 4.22742
# Velocity P-wave (km/s) = 7.37401 8.01706 7.70225
#
# Compressibility (1/GPa) = 0.01448191
#
# Stress axis : x y z
#
# Youngs Moduli (GPa) = 82.14497 126.87700 92.85373
#
# Poissons Ratio (x) = 0.30783 0.29341
# Poissons Ratio (y) = 0.19930 0.24006
# Poissons Ratio (z) = 0.25957 0.32803
#
# Static dielectric constant tensor:
#      x y z
#    x 3.885760 -0.215200 0.313780 
#    y -0.215200 3.867600 -0.145150 
#    z 0.313780 -0.145150 4.372340 
# 
# 
# High freq. dielectric constant tensor:
#      x y z
#    x 1.829740 -0.004630 0.003120 
#    y -0.004630 1.840430 -0.007110 
#    z 0.003120 -0.007110 1.858120 
# 
# From -- ./inp_files/157456.got.cif
#   From: 2010.06.25/outbox.cif.g09.slc.cpg/sg2_79_cif.got.tgz:157456.got - 2010.06.27 13:26:56.
