data_PCOD8030793
_publ_section_title
;
Structure prediction by ZEFSAII (Michael W. Deem and Ramdas Pophale) SiO2 
 PCOD8030793
Probable space group: P -1
;
_chemical_formula_sum "Si O2"
_cell_formula_units_Z 14
_cell_length_a 11.676857
_cell_length_b 12.110013
_cell_length_c 11.625865
_cell_angle_alpha 140.450204
_cell_angle_beta 144.380193
_cell_angle_gamma 50.411398
_cell_volume 609.417825
_symmetry_space_group_name_H-M "P -1"
_symmetry_group_IT_number 2
_symmetry_cell_setting 'triclinic'
loop_
_space_group_symop_operation_xyz
x,y,z
-x,-y,-z
loop_
_atom_site_type_symbol
_atom_site_label
_atom_site_fract_x
_atom_site_fract_y
_atom_site_fract_z
Si Si1 0.052566 0.334618 0.984480
Si Si2 0.393248 0.185578 0.505595
Si Si3 0.257082 0.835635 0.071208
Si Si4 0.071640 0.806624 0.657377
Si Si5 0.724449 0.983018 0.195472
Si Si6 0.746985 0.062560 0.542986
Si Si7 0.918268 0.590931 0.681305
O O1 0.152375 0.392670 0.231569
O O2 0.199557 0.206789 0.933279
O O3 0.000000 0.500000 0.000000
O O4 0.852436 0.244611 0.783496
O O5 0.531606 0.101742 0.449409
O O6 0.273003 0.358635 0.511132
O O7 0.521662 0.229290 0.759299
O O8 0.236108 0.029980 0.265646
O O9 0.229107 0.841919 0.915873
O O10 0.098425 0.713606 0.900830
O O11 0.018626 0.605522 0.453943
O O12 0.165393 0.865606 0.660845
O O13 0.866371 0.913568 0.593964
O O14 0.755059 0.001030 0.369313
O O15 0.500000 0.000000 0.000000
#
# Coordination Sequence:
#
# PCOD8030793 Si02
#       7
#     2   2   2   2   2   2   2
#     4  11  22  40  68  95 129 171 218 269 323 385
#     4  11  25  42  73  96 128 176 223 269 322 394
#     4  11  25  45  66  98 134 174 220 268 332 386
#     4  11  25  43  67  95 137 175 213 275 328 390
#     4  11  23  42  64  96 133 170 222 265 329 392
#     4  11  22  44  65  96 129 175 217 265 333 384
#     4  12  24  45  65 100 135 170 221 271 328 384
#
# _framework density 22.972743999999999
#
# number of rings (size 3 to 8) (size 9 to 14) (size 15 to 20)
#    0.000    0.857    1.429    7.714    4.000    1.714 
#    5.143    2.857    0.000    0.000    0.000    0.000 
#    0.000    0.000    0.000    0.000    0.000    0.000 
#
# Total GULP energy -173549.653795 kJ/mol
# GULP energy per Si atom -12396.403842 kJ/mol
# Density = 2.292046 g / cm^3
# Si number density = 22.972744 Si / 1000 Ang^3
#
#
#
# Elastic Constant Matrix: (Units=GPa)
#
#
# Indices 1 2 3 4 5 6 
#
# 1 75.8904 39.9522 39.7709 2.5990 -4.3092 -5.0046
# 2 39.9522 183.4669 73.7357 12.8391 8.8087 8.5826
# 3 39.7709 73.7357 115.5699 -11.5220 -8.4132 2.8021
# 4 2.5990 12.8391 -11.5220 42.4075 11.7910 -9.1561
# 5 -4.3092 8.8087 -8.4132 11.7910 35.3393 -14.9083
# 6 -5.0046 8.5826 2.8021 -9.1561 -14.9083 24.5127
#
#
#
# Elastic Compliance Matrix: (Units=1/GPa)
#
#
# Indices 1 2 3 4 5 6 
#
# 1 0.017733 -0.002686 -0.004302 -0.001276 0.005601 0.007982
# 2 -0.002686 0.009323 -0.005698 -0.004335 -0.006158 -0.008526
# 3 -0.004302 -0.005698 0.014539 0.005660 0.004211 0.004130
# 4 -0.001276 -0.004335 0.005660 0.029552 -0.003596 0.009461
# 5 0.005601 -0.006158 0.004211 -0.003596 0.044846 0.028750
# 6 0.007982 -0.008526 0.004130 0.009461 0.028750 0.065957
#
#
# Mechanical properties :
#
#
# Convention : Reuss Voigt Hill
#
# Bulk Modulus (GPa) = 61.63498 75.76052 68.69775
# Shear Modulus (GPa) = 23.50385 35.21646 29.36016
#
# Velocity S-wave (km/s) = 3.20209 3.91956 3.57885
# Velocity P-wave (km/s) = 6.36860 7.31669 6.85905
#
# Compressibility (1/GPa) = 0.01622455
#
# Stress axis : x y z
#
# Youngs Moduli (GPa) = 56.39054 107.25803 68.77863
#
# Poissons Ratio (x) = 0.28805 0.29590
# Poissons Ratio (y) = 0.15144 0.39190
# Poissons Ratio (z) = 0.24260 0.61116
#
# Static dielectric constant tensor:
#      x y z
#    x 2.785130 -0.142540 0.833060 
#    y -0.142540 4.322190 -0.076140 
#    z 0.833060 -0.076140 3.767230 
# 
# 
# High freq. dielectric constant tensor:
#      x y z
#    x 1.917790 0.015910 -0.005990 
#    y 0.015910 1.917440 -0.012510 
#    z -0.005990 -0.012510 1.910040 
# 
# From -- ./inp_files/427092.got.cif
#   From: 2010.06.25/outbox.cif.g09.slc.cpg/sg2_214_cif.got.tgz:427092.got - 2010.06.27 13:26:56.
