data_PCOD8030867
_publ_section_title
;
Structure prediction by ZEFSAII (Michael W. Deem and Ramdas Pophale) SiO2 
 PCOD8030867
Probable space group: P -1
;
_chemical_formula_sum "Si O2"
_cell_formula_units_Z 16
_cell_length_a 8.567855
_cell_length_b 18.110668
_cell_length_c 6.128812
_cell_angle_alpha 95.807768
_cell_angle_beta 90.281089
_cell_angle_gamma 47.648763
_cell_volume 696.619525
_symmetry_space_group_name_H-M "P -1"
_symmetry_group_IT_number 2
_symmetry_cell_setting 'triclinic'
loop_
_space_group_symop_operation_xyz
x,y,z
-x,-y,-z
loop_
_atom_site_type_symbol
_atom_site_label
_atom_site_fract_x
_atom_site_fract_y
_atom_site_fract_z
Si Si1 0.375129 0.085349 0.842689
Si Si2 0.267176 0.251736 0.194089
Si Si3 0.166567 0.794005 0.748540
Si Si4 0.477171 0.565166 0.209927
Si Si5 0.815607 0.374451 0.410460
Si Si6 0.379238 0.844535 0.500266
Si Si7 0.485872 0.724341 0.069804
Si Si8 0.219068 0.037679 0.466952
O O1 0.201604 0.094583 0.701350
O O2 0.542230 0.053393 0.647293
O O3 0.251861 0.192867 0.990605
O O4 0.500000 0.000000 0.000000
O O5 0.456895 0.170612 0.334973
O O6 0.054654 0.325872 0.360339
O O7 0.323641 0.314471 0.107941
O O8 0.218503 0.690564 0.744059
O O9 0.292761 0.791178 0.550142
O O10 0.919251 0.886838 0.715415
O O11 0.253078 0.802476 0.974791
O O12 0.659073 0.489669 0.366280
O O13 0.244906 0.627669 0.339462
O O14 0.525585 0.631686 0.145691
O O15 0.500000 0.500000 0.000000
O O16 0.492704 0.790143 0.257095
O O17 0.176636 0.965806 0.517032
#
# Coordination Sequence:
#
# PCOD8030867 Si02
#       8
#     2   2   2   2   2   2   2   2
#     4  11  22  41  63  95 143 183 226 287 334 392
#     4  11  25  43  69 103 141 180 227 281 344 408
#     4  11  24  41  67 101 135 180 238 278 336 404
#     4  11  24  48  74 100 135 172 226 289 355 410
#     4  11  25  44  73 107 128 174 232 287 342 421
#     4  11  23  44  63  98 144 183 226 286 336 400
#     4  11  24  46  70  97 142 183 223 289 348 406
#     4  11  24  39  65 100 137 188 236 277 329 400
#
# _framework density 22.968060999999999
#
# number of rings (size 3 to 8) (size 9 to 14) (size 15 to 20)
#    0.000    1.000    5.000    1.125    1.750    5.000 
#    0.000    1.250    0.000    0.000    0.000    0.000 
#    0.000    0.000    0.000    0.000    0.000    0.000 
#
# Total GULP energy -198242.939497 kJ/mol
# GULP energy per Si atom -12390.183719 kJ/mol
# Density = 2.291578 g / cm^3
# Si number density = 22.968061 Si / 1000 Ang^3
#
#
#
# Elastic Constant Matrix: (Units=GPa)
#
#
# Indices 1 2 3 4 5 6 
#
# 1 109.0839 53.5139 46.0461 5.9372 -13.5482 8.8820
# 2 53.5139 121.5047 37.3622 -11.3635 -2.7869 18.4408
# 3 46.0461 37.3622 103.1603 10.9716 -1.3847 13.7647
# 4 5.9372 -11.3635 10.9716 37.8947 3.0105 -8.0022
# 5 -13.5482 -2.7869 -1.3847 3.0105 37.3324 5.2471
# 6 8.8820 18.4408 13.7647 -8.0022 5.2471 28.9489
#
#
#
# Elastic Compliance Matrix: (Units=1/GPa)
#
#
# Indices 1 2 3 4 5 6 
#
# 1 0.014211 -0.005068 -0.003956 -0.003224 0.005041 -0.001055
# 2 -0.005068 0.012055 -0.002059 0.004264 -0.000823 -0.003817
# 3 -0.003956 -0.002059 0.013439 -0.005003 0.000051 -0.005257
# 4 -0.003224 0.004264 -0.005003 0.032243 -0.005112 0.010491
# 5 0.005041 -0.000823 0.000051 -0.005112 0.030080 -0.007912
# 6 -0.001055 -0.003817 -0.005257 0.010491 -0.007912 0.044132
#
#
# Mechanical properties :
#
#
# Convention : Reuss Voigt Hill
#
# Bulk Modulus (GPa) = 57.01759 67.51036 62.26397
# Shear Modulus (GPa) = 28.70701 33.95699 31.33200
#
# Velocity S-wave (km/s) = 3.53918 3.84923 3.69745
# Velocity P-wave (km/s) = 6.44823 7.01515 6.73766
#
# Compressibility (1/GPa) = 0.01753845
#
# Stress axis : x y z
#
# Youngs Moduli (GPa) = 70.36810 82.95557 74.40776
#
# Poissons Ratio (x) = 0.42043 0.29437
# Poissons Ratio (y) = 0.35663 0.15321
# Poissons Ratio (z) = 0.27839 0.17081
#
# Static dielectric constant tensor:
#      x y z
#    x 4.173710 0.213280 -0.169910 
#    y 0.213280 4.117690 -0.154990 
#    z -0.169910 -0.154990 4.238740 
# 
# 
# High freq. dielectric constant tensor:
#      x y z
#    x 1.908400 0.022050 -0.008930 
#    y 0.022050 1.893820 -0.014280 
#    z -0.008930 -0.014280 1.914240 
# 
# From -- ./inp_files/48266.got.cif
#   From: 2010.06.25/outbox.cif.g09.slc.cpg/sg2_25_cif.got.tgz:48266.got - 2010.06.27 13:26:56.
