data_PCOD8030643
_publ_section_title
;
Structure prediction by ZEFSAII (Michael W. Deem and Ramdas Pophale) SiO2 
 PCOD8030643
Probable space group: P -1
;
_chemical_formula_sum "Si O2"
_cell_formula_units_Z 14
_cell_length_a 9.308402
_cell_length_b 8.047680
_cell_length_c 17.630960
_cell_angle_alpha 63.270829
_cell_angle_beta 62.901494
_cell_angle_gamma 32.936308
_cell_volume 633.031804
_symmetry_space_group_name_H-M "P -1"
_symmetry_group_IT_number 2
_symmetry_cell_setting 'triclinic'
loop_
_space_group_symop_operation_xyz
x,y,z
-x,-y,-z
loop_
_atom_site_type_symbol
_atom_site_label
_atom_site_fract_x
_atom_site_fract_y
_atom_site_fract_z
Si Si1 0.494756 0.486018 0.831854
Si Si2 0.265225 0.498899 0.543551
Si Si3 0.326607 0.317877 0.168147
Si Si4 0.808777 0.042452 0.456447
Si Si5 0.736981 0.646570 0.999999
Si Si6 0.792169 0.635729 0.259029
Si Si7 0.051200 0.894749 0.740972
O O1 0.573247 0.573255 0.853498
O O2 0.287527 0.759326 0.764330
O O3 0.323629 0.491310 0.916699
O O4 0.760313 0.160274 0.795248
O O5 0.510355 0.232936 0.480992
O O6 0.239238 0.739237 0.521525
O O7 0.311343 0.330033 0.640848
O O8 0.991348 0.713929 0.519005
O O9 0.240326 0.408007 0.083303
O O10 0.051848 0.523675 0.235669
O O11 0.555549 0.955530 0.204757
O O12 0.952194 0.970883 0.359150
O O13 0.000000 0.500000 0.000000
O O14 0.500000 0.000000 0.000000
O O15 0.880347 0.380343 0.239314
#
# Coordination Sequence:
#
# PCOD8030643 Si02
#       7
#     2   2   2   2   2   2   2
#     4  12  25  42  63  92 129 164 200 249 313 371
#     4   9  17  31  55  88 120 153 202 261 306 344
#     4  12  25  42  63  92 129 164 200 249 313 371
#     4   9  17  31  55  88 120 153 202 261 306 344
#     4  12  25  44  69  94 121 156 207 256 301 362
#     4  11  22  39  65  93 123 164 213 257 302 362
#     4  11  22  39  65  93 123 164 213 257 302 362
#
# _framework density 22.115791999999999
#
# number of rings (size 3 to 8) (size 9 to 14) (size 15 to 20)
#    0.000    1.143    0.000    8.143    0.000    4.571 
#    0.000    4.286    0.000   17.143    0.000    0.000 
#    0.000    0.000    0.000    0.000    0.000    0.000 
#
# Total GULP energy -173582.798463 kJ/mol
# GULP energy per Si atom -12398.771319 kJ/mol
# Density = 2.206546 g / cm^3
# Si number density = 22.115792 Si / 1000 Ang^3
#
#
#
# Elastic Constant Matrix: (Units=GPa)
#
#
# Indices 1 2 3 4 5 6 
#
# 1 111.7378 42.9960 47.9027 -0.2745 -0.4437 -22.5425
# 2 42.9960 144.5426 71.8104 0.6873 0.5555 -38.4037
# 3 47.9027 71.8104 121.2109 0.8563 0.8842 -8.8973
# 4 -0.2745 0.6873 0.8563 29.7982 -18.8548 -0.1354
# 5 -0.4437 0.5555 0.8842 -18.8548 18.2363 -0.1781
# 6 -22.5425 -38.4037 -8.8973 -0.1354 -0.1781 38.9328
#
#
#
# Elastic Compliance Matrix: (Units=1/GPa)
#
#
# Indices 1 2 3 4 5 6 
#
# 1 0.012043 0.000303 -0.004510 0.001789 0.002413 0.006259
# 2 0.000303 0.013646 -0.007327 -0.000019 0.000044 0.011962
# 3 -0.004510 -0.007327 0.013917 -0.002022 -0.002717 -0.006677
# 4 0.001789 -0.000019 -0.002022 0.097569 0.101034 0.001356
# 5 0.002413 0.000044 -0.002717 0.101034 0.159503 0.001901
# 6 0.006259 0.011962 -0.006677 0.001356 0.001901 0.039596
#
#
# Mechanical properties :
#
#
# Convention : Reuss Voigt Hill
#
# Bulk Modulus (GPa) = 60.46017 78.10106 69.28062
# Shear Modulus (GPa) = 13.70409 31.71229 22.70819
#
# Velocity S-wave (km/s) = 2.49198 3.79082 3.20783
# Velocity P-wave (km/s) = 5.97305 7.38591 6.71673
#
# Compressibility (1/GPa) = 0.01653981
#
# Stress axis : x y z
#
# Youngs Moduli (GPa) = 83.03667 73.28008 71.85453
#
# Poissons Ratio (x) = -0.02224 0.32406
# Poissons Ratio (y) = -0.02520 0.52645
# Poissons Ratio (z) = 0.37449 0.53690
#
# Static dielectric constant tensor:
#      x y z
#    x 3.870860 -0.300880 -0.001080 
#    y -0.300880 4.233980 0.003980 
#    z -0.001080 0.003980 3.755970 
# 
# 
# High freq. dielectric constant tensor:
#      x y z
#    x 1.852920 -0.023280 0.000610 
#    y -0.023280 1.886090 0.000420 
#    z 0.000610 0.000420 1.880190 
# 
# From -- ./inp_files/217204.got.cif
#   From: 2010.06.25/outbox.cif.g09.slc.cpg/sg2_109_cif.got.tgz:217204.got - 2010.06.27 13:26:56.
