data_PCOD8030605
_publ_section_title
;
Structure prediction by ZEFSAII (Michael W. Deem and Ramdas Pophale) SiO2 
 PCOD8030605
Probable space group: P -1
;
_chemical_formula_sum "Si O2"
_cell_formula_units_Z 14
_cell_length_a 6.502232
_cell_length_b 20.298044
_cell_length_c 8.646739
_cell_angle_alpha 138.339835
_cell_angle_beta 113.574164
_cell_angle_gamma 90.089606
_cell_volume 604.905492
_symmetry_space_group_name_H-M "P -1"
_symmetry_group_IT_number 2
_symmetry_cell_setting 'triclinic'
loop_
_space_group_symop_operation_xyz
x,y,z
-x,-y,-z
loop_
_atom_site_type_symbol
_atom_site_label
_atom_site_fract_x
_atom_site_fract_y
_atom_site_fract_z
Si Si1 0.949341 0.365205 0.900471
Si Si2 0.894539 0.428042 0.500524
Si Si3 0.612813 0.790699 0.433524
Si Si4 0.314822 0.290828 0.008856
Si Si5 0.113202 0.921598 0.349783
Si Si6 0.982107 0.264845 0.422230
Si Si7 0.660212 0.017368 0.811080
O O1 0.690869 0.272875 0.744011
O O2 0.205313 0.370232 0.054341
O O3 0.931616 0.335550 0.663087
O O4 0.987604 0.489052 0.169849
O O5 0.000000 0.500000 0.500000
O O6 0.975107 0.329031 0.374208
O O7 0.586831 0.367871 0.306698
O O8 0.661539 0.782598 0.252627
O O9 0.746456 0.734459 0.479456
O O10 0.730515 0.925286 0.744592
O O11 0.112902 0.207448 0.927319
O O12 0.196554 0.936077 0.224764
O O13 0.352445 0.951664 0.587291
O O14 0.000000 0.000000 0.500000
O O15 0.757474 0.132411 0.142419
#
# Coordination Sequence:
#
# PCOD8030605 Si02
#       7
#     2   2   2   2   2   2   2
#     4  11  25  49  70 100 144 185 232 292 350 417
#     4  12  26  48  76 101 136 184 244 297 346 405
#     4  11  23  46  70 103 146 184 231 283 350 425
#     4  11  23  44  72 106 136 183 235 290 352 410
#     4  11  22  38  71 105 146 176 233 289 344 407
#     4  11  28  45  69 105 143 187 231 283 361 417
#     4  11  24  42  70 107 145 184 229 285 345 424
#
# _framework density 23.144110999999999
#
# number of rings (size 3 to 8) (size 9 to 14) (size 15 to 20)
#    0.000    0.857    4.286    2.143    4.000    3.429 
#    2.571    0.000    0.000    0.000    0.000    0.000 
#    0.000    0.000    0.000    0.000    0.000    0.000 
#
# Total GULP energy -173568.083088 kJ/mol
# GULP energy per Si atom -12397.720221 kJ/mol
# Density = 2.309143 g / cm^3
# Si number density = 23.144111 Si / 1000 Ang^3
#
#
#
# Elastic Constant Matrix: (Units=GPa)
#
#
# Indices 1 2 3 4 5 6 
#
# 1 103.5841 47.3905 38.7322 4.0094 9.6748 -2.9535
# 2 47.3905 115.5977 46.4710 22.6178 2.6099 -19.6638
# 3 38.7322 46.4710 137.6381 19.6168 8.2000 -1.5925
# 4 4.0094 22.6178 19.6168 34.9359 -4.4704 -0.2018
# 5 9.6748 2.6099 8.2000 -4.4704 36.7935 9.1462
# 6 -2.9535 -19.6638 -1.5925 -0.2018 9.1462 19.9382
#
#
#
# Elastic Compliance Matrix: (Units=1/GPa)
#
#
# Indices 1 2 3 4 5 6 
#
# 1 0.012910 -0.005514 -0.002167 0.003109 -0.001390 -0.003030
# 2 -0.005514 0.016790 -0.002280 -0.009466 -0.004772 0.017653
# 3 -0.002167 -0.002280 0.009241 -0.003660 -0.001477 -0.001191
# 4 0.003109 -0.009466 -0.003660 0.037447 0.008357 -0.012622
# 5 -0.001390 -0.004772 -0.001477 0.008357 0.034376 -0.020714
# 6 -0.003030 0.017653 -0.001191 -0.012622 -0.020714 0.076396
#
#
# Mechanical properties :
#
#
# Convention : Reuss Voigt Hill
#
# Bulk Modulus (GPa) = 52.57503 69.11193 60.84348
# Shear Modulus (GPa) = 23.42788 33.28193 28.35491
#
# Velocity S-wave (km/s) = 3.18506 3.79625 3.50401
# Velocity P-wave (km/s) = 6.02427 7.01012 6.53581
#
# Compressibility (1/GPa) = 0.01902044
#
# Stress axis : x y z
#
# Youngs Moduli (GPa) = 77.46013 59.55775 108.21725
#
# Poissons Ratio (x) = 0.32840 0.23447
# Poissons Ratio (y) = 0.42711 0.24670
# Poissons Ratio (z) = 0.16783 0.13577
#
# Static dielectric constant tensor:
#      x y z
#    x 4.234020 -0.209560 -0.280290 
#    y -0.209560 3.907260 0.092320 
#    z -0.280290 0.092320 5.083210 
# 
# 
# High freq. dielectric constant tensor:
#      x y z
#    x 1.918330 -0.012410 0.000690 
#    y -0.012410 1.912490 0.014120 
#    z 0.000690 0.014120 1.921060 
# 
# From -- ./inp_files/48882.got.cif
#   From: 2010.06.25/outbox.cif.g09.slc.cpg/sg2_25_cif.got.tgz:48882.got - 2010.06.27 13:26:56.
