data_PCOD8030032
_publ_section_title
;
Structure prediction by ZEFSAII (Michael W. Deem and Ramdas Pophale) SiO2 
 PCOD8030032
Probable space group: P -1
;
_chemical_formula_sum "Si O2"
_cell_formula_units_Z 16
_cell_length_a 9.370998
_cell_length_b 8.220228
_cell_length_c 12.490452
_cell_angle_alpha 61.633406
_cell_angle_beta 121.724290
_cell_angle_gamma 105.572681
_cell_volume 719.910757
_symmetry_space_group_name_H-M "P -1"
_symmetry_group_IT_number 2
_symmetry_cell_setting 'triclinic'
loop_
_space_group_symop_operation_xyz
x,y,z
-x,-y,-z
loop_
_atom_site_type_symbol
_atom_site_label
_atom_site_fract_x
_atom_site_fract_y
_atom_site_fract_z
Si Si1 0.830149 0.694099 0.813255
Si Si2 0.991121 0.538035 0.729847
Si Si3 0.483400 0.147370 0.038854
Si Si4 0.116011 0.180753 0.975143
Si Si5 0.310225 0.939062 0.443222
Si Si6 0.705943 0.207637 0.297688
Si Si7 0.660994 0.469561 0.499609
Si Si8 0.503470 0.490056 0.788419
O O1 0.975378 0.622837 0.815895
O O2 0.887633 0.697861 0.956835
O O3 0.681583 0.539738 0.788257
O O4 0.794314 0.906722 0.704978
O O5 0.821607 0.568977 0.586049
O O6 0.139397 0.651702 0.697138
O O7 0.037551 0.321153 0.814241
O O8 0.303223 0.125233 0.032405
O O9 0.637731 0.109353 0.193316
O O10 0.510131 0.345375 0.932193
O O11 0.500000 0.000000 0.000000
O O12 0.000000 0.000000 0.000000
O O13 0.246074 0.931044 0.544242
O O14 0.296345 0.745180 0.435091
O O15 0.500000 0.000000 0.500000
O O16 0.544393 0.318181 0.236888
O O17 0.500000 0.500000 0.500000
O O18 0.625469 0.567485 0.340026
#
# Coordination Sequence:
#
# PCOD8030032 Si02
#       8
#     2   2   2   2   2   2   2   2
#     4  12  24  44  71 100 136 184 226 275 345 411
#     4  12  26  44  70 103 136 180 230 281 344 405
#     4  12  27  45  71 101 136 179 229 284 343 406
#     4  12  27  46  68 101 141 176 228 289 339 407
#     4  11  21  41  71  99 134 180 227 275 338 405
#     4  11  24  46  70  97 136 181 225 282 341 402
#     4  11  23  43  69 102 138 180 228 276 339 408
#     4  11  22  45  72  93 134 187 222 272 347 405
#
# _framework density 22.224975000000001
#
# number of rings (size 3 to 8) (size 9 to 14) (size 15 to 20)
#    0.000    0.500    6.250    2.250    3.500    5.500 
#    2.250    0.000    0.000    0.000    0.000    0.000 
#    0.000    0.000    0.000    0.000    0.000    0.000 
#
# Total GULP energy -198387.503792 kJ/mol
# GULP energy per Si atom -12399.218987 kJ/mol
# Density = 2.217439 g / cm^3
# Si number density = 22.224975 Si / 1000 Ang^3
#
#
#
# Elastic Constant Matrix: (Units=GPa)
#
#
# Indices 1 2 3 4 5 6 
#
# 1 79.8441 34.2742 33.3815 -2.1585 -9.8725 19.1829
# 2 34.2742 83.9963 34.4207 10.7985 -6.4584 12.1925
# 3 33.3815 34.4207 100.3531 11.3789 -8.0786 15.1370
# 4 -2.1585 10.7985 11.3789 41.7767 1.7465 -9.8098
# 5 -9.8725 -6.4584 -8.0786 1.7465 34.6798 0.3708
# 6 19.1829 12.1925 15.1370 -9.8098 0.3708 41.1936
#
#
#
# Elastic Compliance Matrix: (Units=1/GPa)
#
#
# Indices 1 2 3 4 5 6 
#
# 1 0.017815 -0.005137 -0.003326 0.001806 0.003304 -0.005154
# 2 -0.005137 0.016166 -0.002912 -0.004248 0.001109 -0.002344
# 3 -0.003326 -0.002912 0.013161 -0.003869 0.001808 -0.003364
# 4 0.001806 -0.004248 -0.003869 0.028315 -0.002696 0.008605
# 5 0.003304 0.001109 0.001808 -0.002696 0.030576 -0.003449
# 6 -0.005154 -0.002344 -0.003364 0.008605 -0.003449 0.030686
#
#
# Mechanical properties :
#
#
# Convention : Reuss Voigt Hill
#
# Bulk Modulus (GPa) = 40.99214 52.03845 46.51529
# Shear Modulus (GPa) = 29.83296 34.33782 32.08539
#
# Velocity S-wave (km/s) = 3.66774 3.93493 3.80368
# Velocity P-wave (km/s) = 6.03495 6.64154 6.34550
#
# Compressibility (1/GPa) = 0.02439492
#
# Stress axis : x y z
#
# Youngs Moduli (GPa) = 56.13139 61.85774 75.97990
#
# Poissons Ratio (x) = 0.31774 0.25268
# Poissons Ratio (y) = 0.28833 0.22123
# Poissons Ratio (z) = 0.18667 0.18011
#
# Static dielectric constant tensor:
#      x y z
#    x 3.791020 0.326260 -0.292480 
#    y 0.326260 2.548170 1.061520 
#    z -0.292480 1.061520 3.103730 
# 
# 
# High freq. dielectric constant tensor:
#      x y z
#    x 1.877960 0.000660 -0.009960 
#    y 0.000660 1.868950 0.004310 
#    z -0.009960 0.004310 1.887690 
# 
# From -- ./inp_files/243411.got.cif
#   From: 2010.06.25/outbox.cif.g09.slc.cpg/sg2_122_cif.got.tgz:243411.got - 2010.06.27 13:26:56.
