data_PCOD8030950
_publ_section_title
;
Structure prediction by ZEFSAII (Michael W. Deem and Ramdas Pophale) SiO2 
 PCOD8030950
Probable space group: P -1
;
_chemical_formula_sum "Si O2"
_cell_formula_units_Z 16
_cell_length_a 20.567023
_cell_length_b 17.479901
_cell_length_c 12.027734
_cell_angle_alpha 146.297800
_cell_angle_beta 146.786778
_cell_angle_gamma 19.069629
_cell_volume 753.049825
_symmetry_space_group_name_H-M "P -1"
_symmetry_group_IT_number 2
_symmetry_cell_setting 'triclinic'
loop_
_space_group_symop_operation_xyz
x,y,z
-x,-y,-z
loop_
_atom_site_type_symbol
_atom_site_label
_atom_site_fract_x
_atom_site_fract_y
_atom_site_fract_z
Si Si1 0.385286 0.386555 0.097160
Si Si2 0.917668 0.420953 0.288165
Si Si3 0.880145 0.295386 0.698839
Si Si4 0.741948 0.137150 0.925031
Si Si5 0.273329 0.539839 0.731286
Si Si6 0.258789 0.833132 0.779772
Si Si7 0.887570 0.462556 0.709832
Si Si8 0.337671 0.097826 0.975089
O O1 0.218386 0.462354 0.876773
O O2 0.555682 0.130940 0.089225
O O3 0.271855 0.580606 0.264932
O O4 0.505079 0.381150 0.183681
O O5 0.778684 0.519205 0.316308
O O6 0.000000 0.500000 0.500000
O O7 0.100192 0.134112 0.208531
O O8 0.855608 0.195405 0.456143
O O9 0.832722 0.472266 0.770555
O O10 0.113699 0.091249 0.833048
O O11 0.516432 0.302294 0.763453
O O12 0.794964 0.236884 0.066471
O O13 0.738023 0.165341 0.083381
O O14 0.160724 0.599646 0.530394
O O15 0.734697 0.739758 0.825567
O O16 0.133158 0.254426 0.800313
O O17 0.500000 0.000000 0.000000
#
# Coordination Sequence:
#
# PCOD8030950 Si02
#       8
#     2   2   2   2   2   2   2   2
#     4  12  24  43  67  99 134 174 220 277 336 402
#     4  12  29  45  69 102 137 183 229 282 334 404
#     4  11  22  41  68  99 130 169 217 274 340 394
#     4  11  24  48  71  98 136 182 229 283 334 403
#     4  11  26  47  71  98 137 182 232 277 337 401
#     4  11  22  42  67  99 132 167 220 277 338 398
#     4  11  24  42  67  97 131 180 219 272 334 402
#     4  11  25  41  64  97 137 174 220 274 335 403
#
# _framework density 21.246934
#
# number of rings (size 3 to 8) (size 9 to 14) (size 15 to 20)
#    0.000    0.750    6.250    0.750    3.500    1.500 
#    2.250    0.000    0.000    0.000    0.000    0.000 
#    0.000    0.000    0.000    0.000    0.000    0.000 
#
# Total GULP energy -198298.188269 kJ/mol
# GULP energy per Si atom -12393.636767 kJ/mol
# Density = 2.119857 g / cm^3
# Si number density = 21.246934 Si / 1000 Ang^3
#
#
#
# Elastic Constant Matrix: (Units=GPa)
#
#
# Indices 1 2 3 4 5 6 
#
# 1 85.6810 7.0120 28.3731 -4.8488 3.7607 -3.9612
# 2 7.0120 106.0705 42.4389 -3.5251 1.1951 -9.7238
# 3 28.3731 42.4389 86.7263 -12.0191 6.7048 -4.1411
# 4 -4.8488 -3.5251 -12.0191 33.1721 0.1146 0.6356
# 5 3.7607 1.1951 6.7048 0.1146 31.6559 -2.7477
# 6 -3.9612 -9.7238 -4.1411 0.6356 -2.7477 28.3663
#
#
#
# Elastic Compliance Matrix: (Units=1/GPa)
#
#
# Indices 1 2 3 4 5 6 
#
# 1 0.013261 0.001184 -0.004766 0.000310 -0.000481 0.001508
# 2 0.001184 0.012189 -0.006393 -0.000919 0.001063 0.003534
# 3 -0.004766 -0.006393 0.017076 0.004835 -0.002892 -0.000752
# 4 0.000310 -0.000919 0.004835 0.031857 -0.001176 -0.000394
# 5 -0.000481 0.001063 -0.002892 -0.001176 0.032488 0.003048
# 6 0.001508 0.003534 -0.000752 -0.000394 0.003048 0.036869
#
#
# Mechanical properties :
#
#
# Convention : Reuss Voigt Hill
#
# Bulk Modulus (GPa) = 44.29344 48.23620 46.26482
# Shear Modulus (GPa) = 29.20335 32.01579 30.60957
#
# Velocity S-wave (km/s) = 3.71141 3.88602 3.79972
# Velocity P-wave (km/s) = 6.26565 6.54880 6.40879
#
# Compressibility (1/GPa) = 0.02257670
#
# Stress axis : x y z
#
# Youngs Moduli (GPa) = 75.41022 82.04435 58.56319
#
# Poissons Ratio (x) = -0.09715 0.27909
# Poissons Ratio (y) = -0.08929 0.37437
# Poissons Ratio (z) = 0.35937 0.52448
#
# Static dielectric constant tensor:
#      x y z
#    x 4.035970 0.025360 0.101740 
#    y 0.025360 4.218920 -0.067640 
#    z 0.101740 -0.067640 3.717410 
# 
# 
# High freq. dielectric constant tensor:
#      x y z
#    x 1.841220 0.000650 0.002630 
#    y 0.000650 1.845970 -0.007720 
#    z 0.002630 -0.007720 1.828180 
# 
# From -- ./inp_files/111046.got.cif
#   From: 2010.06.25/outbox.cif.g09.slc.cpg/sg2_56_cif.got.tgz:111046.got - 2010.06.27 13:26:56.
