data_PCOD8030283
_publ_section_title
;
Structure prediction by ZEFSAII (Michael W. Deem and Ramdas Pophale) SiO2 
 PCOD8030283
Probable space group: P -1
;
_chemical_formula_sum "Si O2"
_cell_formula_units_Z 14
_cell_length_a 9.779123
_cell_length_b 17.634628
_cell_length_c 10.465224
_cell_angle_alpha 53.338459
_cell_angle_beta 79.609907
_cell_angle_gamma 35.406707
_cell_volume 630.825022
_symmetry_space_group_name_H-M "P -1"
_symmetry_group_IT_number 2
_symmetry_cell_setting 'triclinic'
loop_
_space_group_symop_operation_xyz
x,y,z
-x,-y,-z
loop_
_atom_site_type_symbol
_atom_site_label
_atom_site_fract_x
_atom_site_fract_y
_atom_site_fract_z
Si Si1 0.168560 0.741953 0.267712
Si Si2 0.829858 0.753396 0.329357
Si Si3 0.092369 0.978041 0.158942
Si Si4 0.326423 0.301306 0.777964
Si Si5 0.033516 0.540635 0.080029
Si Si6 0.643053 0.948950 0.657792
Si Si7 0.733805 0.098414 0.506174
O O1 0.500000 0.500000 0.500000
O O2 0.050347 0.890479 0.245432
O O3 0.923517 0.804722 0.237777
O O4 0.199503 0.777329 0.086683
O O5 0.652815 0.815603 0.174711
O O6 0.127390 0.502968 0.537576
O O7 0.629866 0.868588 0.376540
O O8 0.326631 0.866833 0.115045
O O9 0.239381 0.915326 0.331938
O O10 0.200818 0.366650 0.875972
O O11 0.385039 0.338643 0.277642
O O12 0.000000 0.500000 0.000000
O O13 0.918595 0.715949 0.897585
O O14 0.500000 0.000000 0.500000
O O15 0.805933 0.949006 0.598503
O O16 0.000000 0.000000 0.500000
#
# Coordination Sequence:
#
# PCOD8030283 Si02
#       7
#     2   2   2   2   2   2   2
#     4  11  25  41  66 103 144 182 224 294 364 428
#     4  11  22  42  72 105 137 183 235 299 350 429
#     4  11  25  46  67 105 143 186 237 299 357 424
#     4  11  21  43  76 104 137 180 244 293 354 420
#     4  12  26  47  77 106 144 191 243 301 356 435
#     4  12  25  46  72 104 139 193 245 291 365 428
#     4  12  28  49  70 104 149 191 241 302 362 427
#
# _framework density 22.193156999999999
#
# number of rings (size 3 to 8) (size 9 to 14) (size 15 to 20)
#    0.000    0.571    5.714    1.714    4.000    4.000 
#    2.571    0.000    0.000    0.000    0.000    0.000 
#    0.000    0.000    0.000    0.000    0.000    0.000 
#
# Total GULP energy -173503.737616 kJ/mol
# GULP energy per Si atom -12393.124115 kJ/mol
# Density = 2.214264 g / cm^3
# Si number density = 22.193157 Si / 1000 Ang^3
#
#
#
# Elastic Constant Matrix: (Units=GPa)
#
#
# Indices 1 2 3 4 5 6 
#
# 1 162.5544 41.3377 45.1140 6.1736 -20.9039 13.0487
# 2 41.3377 104.8928 24.1559 17.2641 7.5137 3.4662
# 3 45.1140 24.1559 150.4793 -0.7915 -1.2795 9.1459
# 4 6.1736 17.2641 -0.7915 35.4450 10.4647 4.6492
# 5 -20.9039 7.5137 -1.2795 10.4647 46.6907 5.4693
# 6 13.0487 3.4662 9.1459 4.6492 5.4693 41.9382
#
#
#
# Elastic Compliance Matrix: (Units=1/GPa)
#
#
# Indices 1 2 3 4 5 6 
#
# 1 0.008223 -0.002889 -0.001822 -0.001117 0.004628 -0.002402
# 2 -0.002889 0.011847 -0.001140 -0.004749 -0.002283 0.000993
# 3 -0.001822 -0.001140 0.007439 0.001355 -0.000611 -0.001032
# 4 -0.001117 -0.004749 0.001355 0.033075 -0.006839 -0.002330
# 5 0.004628 -0.002283 -0.000611 -0.006839 0.025809 -0.003726
# 6 -0.002402 0.000993 -0.001032 -0.002330 -0.003726 0.025479
#
#
# Mechanical properties :
#
#
# Convention : Reuss Voigt Hill
#
# Bulk Modulus (GPa) = 63.26642 71.01573 67.14108
# Shear Modulus (GPa) = 38.80656 45.30270 42.05463
#
# Velocity S-wave (km/s) = 4.18614 4.52297 4.35781
# Velocity P-wave (km/s) = 7.20653 7.70355 7.45918
#
# Compressibility (1/GPa) = 0.01580617
#
# Stress axis : x y z
#
# Youngs Moduli (GPa) = 121.61724 84.40889 134.42095
#
# Poissons Ratio (x) = 0.24388 0.24490
# Poissons Ratio (y) = 0.35138 0.15328
# Poissons Ratio (z) = 0.22157 0.09625
#
# Static dielectric constant tensor:
#      x y z
#    x 4.408860 0.136520 -0.100440 
#    y 0.136520 3.851500 -0.024150 
#    z -0.100440 -0.024150 4.423860 
# 
# 
# High freq. dielectric constant tensor:
#      x y z
#    x 1.895760 0.012370 -0.003800 
#    y 0.012370 1.847320 0.000280 
#    z -0.003800 0.000280 1.904820 
# 
# From -- ./inp_files/402987.got.cif
#   From: 2010.06.25/outbox.cif.g09.slc.cpg/sg2_202_cif.got.tgz:402987.got - 2010.06.27 13:26:56.
