data_PCOD8030199
_publ_section_title
;
Structure prediction by ZEFSAII (Michael W. Deem and Ramdas Pophale) SiO2 
 PCOD8030199
Probable space group: P -1
;
_chemical_formula_sum "Si O2"
_cell_formula_units_Z 14
_cell_length_a 8.400273
_cell_length_b 7.623186
_cell_length_c 20.658911
_cell_angle_alpha 36.345777
_cell_angle_beta 125.740731
_cell_angle_gamma 128.672627
_cell_volume 602.717629
_symmetry_space_group_name_H-M "P -1"
_symmetry_group_IT_number 2
_symmetry_cell_setting 'triclinic'
loop_
_space_group_symop_operation_xyz
x,y,z
-x,-y,-z
loop_
_atom_site_type_symbol
_atom_site_label
_atom_site_fract_x
_atom_site_fract_y
_atom_site_fract_z
Si Si1 0.620451 0.779768 0.120226
Si Si2 0.482474 0.178317 0.525651
Si Si3 0.472974 0.311597 0.115791
Si Si4 0.648507 0.871617 0.350494
Si Si5 0.320436 0.309171 0.278128
Si Si6 0.900334 0.680862 0.653275
Si Si7 0.087860 0.968459 0.200608
O O1 0.622104 0.531619 0.139211
O O2 0.498008 0.608100 0.204719
O O3 0.855227 0.977781 0.134361
O O4 0.500000 0.000000 0.000000
O O5 0.629098 0.515290 0.434887
O O6 0.500908 0.134263 0.621294
O O7 0.243013 0.143870 0.467429
O O8 0.563507 0.910886 0.592528
O O9 0.557114 0.013529 0.225253
O O10 0.231635 0.199971 0.112164
O O11 0.500000 0.500000 0.000000
O O12 0.881045 0.059944 0.365833
O O13 0.190031 0.430787 0.263436
O O14 0.162552 0.101294 0.249628
O O15 0.909703 0.385195 0.701966
#
# Coordination Sequence:
#
# PCOD8030199 Si02
#       7
#     2   2   2   2   2   2   2
#     4  11  26  46  69  97 138 185 227 289 349 398
#     4  11  21  43  68  98 149 176 225 290 335 406
#     4  11  24  43  70 103 133 175 237 282 334 415
#     4  11  22  42  68 103 135 185 230 276 350 405
#     4  11  26  44  66 108 140 175 236 281 338 415
#     4  12  24  40  75 102 135 189 228 274 351 411
#     4  11  23  48  69  95 144 183 223 289 344 401
#
# _framework density 23.228124999999999
#
# number of rings (size 3 to 8) (size 9 to 14) (size 15 to 20)
#    0.000    0.857    5.714    1.714    2.000    8.000 
#    0.000    0.000    0.000    0.000    0.000    0.000 
#    0.000    0.000    0.000    0.000    0.000    0.000 
#
# Total GULP energy -173621.867660 kJ/mol
# GULP energy per Si atom -12401.561976 kJ/mol
# Density = 2.317526 g / cm^3
# Si number density = 23.228125 Si / 1000 Ang^3
#
#
#
# Elastic Constant Matrix: (Units=GPa)
#
#
# Indices 1 2 3 4 5 6 
#
# 1 66.5838 32.0049 29.3656 1.5746 3.7708 17.5471
# 2 32.0049 96.4680 29.3027 4.2968 4.6470 43.8205
# 3 29.3656 29.3027 150.4907 -4.2999 -2.2116 19.0132
# 4 1.5746 4.2968 -4.2999 30.9570 5.2526 3.6127
# 5 3.7708 4.6470 -2.2116 5.2526 40.4148 1.5789
# 6 17.5471 43.8205 19.0132 3.6127 1.5789 44.6031
#
#
#
# Elastic Compliance Matrix: (Units=1/GPa)
#
#
# Indices 1 2 3 4 5 6 
#
# 1 0.018924 -0.004637 -0.002599 -0.000264 -0.001273 -0.001715
# 2 -0.004637 0.020245 -0.000840 -0.000430 -0.001196 -0.017630
# 3 -0.002599 -0.000840 0.007554 0.001366 0.000634 -0.001506
# 4 -0.000264 -0.000430 0.001366 0.033570 -0.004111 -0.002629
# 5 -0.001273 -0.001196 0.000634 -0.004111 0.025536 0.000835
# 6 -0.001715 -0.017630 -0.001506 -0.002629 0.000835 0.041241
#
#
# Mechanical properties :
#
#
# Convention : Reuss Voigt Hill
#
# Bulk Modulus (GPa) = 32.70998 54.98767 43.84882
# Shear Modulus (GPa) = 28.83296 38.05294 33.44295
#
# Velocity S-wave (km/s) = 3.52702 4.05189 3.79853
# Velocity P-wave (km/s) = 5.54068 6.75387 6.17713
#
# Compressibility (1/GPa) = 0.03057171
#
# Stress axis : x y z
#
# Youngs Moduli (GPa) = 52.84256 49.39529 132.37596
#
# Poissons Ratio (x) = 0.22903 0.34411
# Poissons Ratio (y) = 0.24501 0.11115
# Poissons Ratio (z) = 0.13736 0.04147
#
# Static dielectric constant tensor:
#      x y z
#    x 3.881370 0.765040 -0.865330 
#    y 0.765040 1.780640 2.804240 
#    z -0.865330 2.804240 0.995360 
# 
# 
# High freq. dielectric constant tensor:
#      x y z
#    x 1.909520 0.006400 0.000750 
#    y 0.006400 1.930600 -0.000260 
#    z 0.000750 -0.000260 1.923070 
# 
# From -- ./inp_files/352404.got.cif
#   From: 2010.06.25/outbox.cif.g09.slc.cpg/sg2_177_cif.got.tgz:352404.got - 2010.06.27 13:26:56.
