data_PCOD8030474
_publ_section_title
;
Structure prediction by ZEFSAII (Michael W. Deem and Ramdas Pophale) SiO2 
 PCOD8030474
Probable space group: P -1
;
_chemical_formula_sum "Si O2"
_cell_formula_units_Z 16
_cell_length_a 8.554709
_cell_length_b 14.403283
_cell_length_c 12.268765
_cell_angle_alpha 99.816574
_cell_angle_beta 107.051061
_cell_angle_gamma 31.306877
_cell_volume 741.177190
_symmetry_space_group_name_H-M "P -1"
_symmetry_group_IT_number 2
_symmetry_cell_setting 'triclinic'
loop_
_space_group_symop_operation_xyz
x,y,z
-x,-y,-z
loop_
_atom_site_type_symbol
_atom_site_label
_atom_site_fract_x
_atom_site_fract_y
_atom_site_fract_z
Si Si1 0.859286 0.300729 0.532728
Si Si2 0.170120 0.317738 0.480834
Si Si3 0.858082 0.847619 0.028245
Si Si4 0.226314 0.526271 0.762508
Si Si5 0.795342 0.515673 0.007680
Si Si6 0.875677 0.185002 0.721712
Si Si7 0.115983 0.023230 0.373437
Si Si8 0.858286 0.224834 0.143983
O O1 0.500000 0.500000 0.500000
O O2 0.954709 0.227950 0.660570
O O3 0.052693 0.296583 0.536474
O O4 0.894140 0.195106 0.437889
O O5 0.000000 0.500000 0.500000
O O6 0.097371 0.322422 0.342146
O O7 0.538038 0.141798 0.539140
O O8 0.945654 0.879110 0.144651
O O9 0.061299 0.652997 0.037887
O O10 0.916175 0.873272 0.932735
O O11 0.500000 0.000000 0.000000
O O12 0.201797 0.478269 0.858817
O O13 0.505937 0.352602 0.706608
O O14 0.296644 0.599587 0.819963
O O15 0.435771 0.699382 0.927958
O O16 0.000000 0.500000 0.000000
O O17 0.001168 0.026834 0.661357
O O18 0.087224 0.073048 0.253482
#
# Coordination Sequence:
#
# PCOD8030474 Si02
#       8
#     2   2   2   2   2   2   2   2
#     4  12  25  45  70 100 138 182 238 288 346 417
#     4  12  25  45  70 103 138 186 235 285 353 416
#     4  11  26  44  70 104 138 183 233 292 358 417
#     4  11  21  48  70  95 145 189 224 294 354 411
#     4  11  25  45  73 104 132 188 241 287 354 422
#     4  12  24  45  68 101 145 181 230 293 353 417
#     4  12  27  44  70 104 139 190 231 287 358 418
#     4  11  23  47  72  96 144 186 233 290 353 419
#
# _framework density 21.587281000000001
#
# number of rings (size 3 to 8) (size 9 to 14) (size 15 to 20)
#    0.000    0.500    6.250    1.500    3.500    3.500 
#    2.250    0.000    0.000    0.000    0.000    0.000 
#    0.000    0.000    0.000    0.000    0.000    0.000 
#
# Total GULP energy -198438.880649 kJ/mol
# GULP energy per Si atom -12402.430041 kJ/mol
# Density = 2.153815 g / cm^3
# Si number density = 21.587281 Si / 1000 Ang^3
#
#
#
# Elastic Constant Matrix: (Units=GPa)
#
#
# Indices 1 2 3 4 5 6 
#
# 1 112.1440 40.8496 56.9293 3.7829 -5.4418 -0.4196
# 2 40.8496 109.9919 49.5863 2.0646 7.6267 -5.1359
# 3 56.9293 49.5863 158.5991 -10.3886 -5.8294 -9.8283
# 4 3.7829 2.0646 -10.3886 36.8658 0.3145 6.7802
# 5 -5.4418 7.6267 -5.8294 0.3145 39.6360 -5.2557
# 6 -0.4196 -5.1359 -9.8283 6.7802 -5.2557 34.3267
#
#
#
# Elastic Compliance Matrix: (Units=1/GPa)
#
#
# Indices 1 2 3 4 5 6 
#
# 1 0.011889 -0.002969 -0.003446 -0.001918 0.001625 -0.000658
# 2 -0.002969 0.011688 -0.002733 -0.001227 -0.002953 0.000720
# 3 -0.003446 -0.002733 0.008735 0.002630 0.001551 0.001768
# 4 -0.001918 -0.001227 0.002630 0.029110 -0.000573 -0.005292
# 5 0.001625 -0.002953 0.001551 -0.000573 0.026816 0.004241
# 6 -0.000658 0.000720 0.001768 -0.005292 0.004241 0.031432
#
#
# Mechanical properties :
#
#
# Convention : Reuss Voigt Hill
#
# Bulk Modulus (GPa) = 71.34531 75.05172 73.19851
# Shear Modulus (GPa) = 35.05369 37.72368 36.38869
#
# Velocity S-wave (km/s) = 4.03403 4.18484 4.11013
# Velocity P-wave (km/s) = 7.40400 7.62841 7.51704
#
# Compressibility (1/GPa) = 0.01401634
#
# Stress axis : x y z
#
# Youngs Moduli (GPa) = 84.11071 85.55983 114.47806
#
# Poissons Ratio (x) = 0.25406 0.39448
# Poissons Ratio (y) = 0.24976 0.31283
# Poissons Ratio (z) = 0.28984 0.23380
#
# Static dielectric constant tensor:
#      x y z
#    x 3.763520 0.098850 -0.056610 
#    y 0.098850 3.801010 -0.223910 
#    z -0.056610 -0.223910 3.739140 
# 
# 
# High freq. dielectric constant tensor:
#      x y z
#    x 1.847930 0.005050 -0.001480 
#    y 0.005050 1.846780 -0.000330 
#    z -0.001480 -0.000330 1.866810 
# 
# From -- ./inp_files/215158.got.cif
#   From: 2010.06.25/outbox.cif.g09.slc.cpg/sg2_108_cif.got.tgz:215158.got - 2010.06.27 13:26:56.
