data_PCOD8030639
_publ_section_title
;
Structure prediction by ZEFSAII (Michael W. Deem and Ramdas Pophale) SiO2 
 PCOD8030639
Probable space group: P -1
;
_chemical_formula_sum "Si O2"
_cell_formula_units_Z 16
_cell_length_a 8.929240
_cell_length_b 14.991436
_cell_length_c 15.750579
_cell_angle_alpha 46.276716
_cell_angle_beta 108.457880
_cell_angle_gamma 142.686711
_cell_volume 782.012943
_symmetry_space_group_name_H-M "P -1"
_symmetry_group_IT_number 2
_symmetry_cell_setting 'triclinic'
loop_
_space_group_symop_operation_xyz
x,y,z
-x,-y,-z
loop_
_atom_site_type_symbol
_atom_site_label
_atom_site_fract_x
_atom_site_fract_y
_atom_site_fract_z
Si Si1 0.141136 0.719401 0.351505
Si Si2 0.148354 0.168091 0.188736
Si Si3 0.805220 0.182808 0.181089
Si Si4 0.822447 0.243303 0.866681
Si Si5 0.662086 0.579304 0.107324
Si Si6 0.324806 0.236820 0.873328
Si Si7 0.157201 0.576777 0.106574
Si Si8 0.775389 0.714236 0.352927
O O1 0.162355 0.726188 0.250013
O O2 0.000000 0.500000 0.500000
O O3 0.946196 0.706704 0.354824
O O4 0.466030 0.942615 0.301497
O O5 0.416161 0.321246 0.201611
O O6 0.945302 0.146801 0.198699
O O7 0.293704 0.288404 0.044273
O O8 0.977646 0.927836 0.310873
O O9 0.965835 0.338253 0.192696
O O10 0.845054 0.308872 0.031807
O O11 0.955340 0.450664 0.803415
O O12 0.020758 0.261558 0.919475
O O13 0.500000 0.000000 0.000000
O O14 0.539119 0.559163 0.184449
O O15 0.508901 0.239747 0.933841
O O16 0.339275 0.274798 0.751268
O O17 0.000000 0.000000 0.000000
O O18 0.500000 0.500000 0.500000
#
# Coordination Sequence:
#
# PCOD8030639 Si02
#       8
#     2   2   2   2   2   2   2   2
#     4  12  27  46  68  94 133 174 219 271 330 392
#     4  11  23  40  66  97 139 170 214 268 330 385
#     4  11  23  42  62 101 137 171 213 268 330 386
#     4  12  23  42  68 102 130 171 221 274 320 388
#     4  11  22  39  65 101 133 169 216 272 326 380
#     4  12  22  41  67 100 129 169 226 269 318 387
#     4  11  24  37  69 100 135 169 213 272 329 380
#     4  12  28  45  68  95 131 177 219 270 330 391
#
# _framework density 20.46002
#
# number of rings (size 3 to 8) (size 9 to 14) (size 15 to 20)
#    0.000    0.500    6.250    2.250    5.250    0.000 
#    0.000    2.500    0.000    0.000    0.000    0.000 
#    0.000    0.000    0.000    0.000    0.000    0.000 
#
# Total GULP energy -198354.759123 kJ/mol
# GULP energy per Si atom -12397.172445 kJ/mol
# Density = 2.041345 g / cm^3
# Si number density = 20.460020 Si / 1000 Ang^3
#
#
#
# Elastic Constant Matrix: (Units=GPa)
#
#
# Indices 1 2 3 4 5 6 
#
# 1 104.2924 26.8359 30.4336 3.6736 -1.3410 -7.5105
# 2 26.8359 108.6207 58.3478 -4.3572 3.8289 -5.7643
# 3 30.4336 58.3478 111.0330 -8.6095 -8.4289 -8.1703
# 4 3.6736 -4.3572 -8.6095 28.5642 -4.7516 0.2649
# 5 -1.3410 3.8289 -8.4289 -4.7516 28.4620 -1.8190
# 6 -7.5105 -5.7643 -8.1703 0.2649 -1.8190 49.1898
#
#
#
# Elastic Compliance Matrix: (Units=1/GPa)
#
#
# Indices 1 2 3 4 5 6 
#
# 1 0.010798 -0.001443 -0.002329 -0.002373 -0.000313 0.001094
# 2 -0.001443 0.013459 -0.007024 -0.000552 -0.004048 0.000043
# 3 -0.002329 -0.007024 0.014232 0.004484 0.005887 0.001379
# 4 -0.002373 -0.000552 0.004484 0.037848 0.007634 0.000396
# 5 -0.000313 -0.004048 0.005887 0.007634 0.038800 0.001849
# 6 0.001094 0.000043 0.001379 0.000396 0.001849 0.020797
#
#
# Mechanical properties :
#
#
# Convention : Reuss Voigt Hill
#
# Bulk Modulus (GPa) = 59.18191 61.68675 60.43433
# Shear Modulus (GPa) = 30.64548 35.13178 32.88863
#
# Velocity S-wave (km/s) = 3.87437 4.14828 4.01366
# Velocity P-wave (km/s) = 7.00020 7.29107 7.14711
#
# Compressibility (1/GPa) = 0.01689706
#
# Stress axis : x y z
#
# Youngs Moduli (GPa) = 92.61367 74.30095 70.26565
#
# Poissons Ratio (x) = 0.10721 0.16362
# Poissons Ratio (y) = 0.13363 0.49355
# Poissons Ratio (z) = 0.21566 0.52189
#
# Static dielectric constant tensor:
#      x y z
#    x 0.134800 4.118990 1.482600 
#    y 4.118990 -0.421930 -1.814850 
#    z 1.482600 -1.814850 2.958790 
# 
# 
# High freq. dielectric constant tensor:
#      x y z
#    x 1.819350 -0.007390 -0.010530 
#    y -0.007390 1.830810 -0.004340 
#    z -0.010530 -0.004340 1.754900 
# 
# From -- ./inp_files/207779.got.cif
#   From: 2010.06.25/outbox.cif.g09.slc.cpg/sg2_104_cif.got.tgz:207779.got - 2010.06.27 13:26:56.
