data_PCOD8030232
_publ_section_title
;
Structure prediction by ZEFSAII (Michael W. Deem and Ramdas Pophale) SiO2 
 PCOD8030232
Probable space group: P -1
;
_chemical_formula_sum "Si O2"
_cell_formula_units_Z 16
_cell_length_a 9.256561
_cell_length_b 11.935098
_cell_length_c 18.302990
_cell_angle_alpha 151.372504
_cell_angle_beta 59.036002
_cell_angle_gamma 131.176038
_cell_volume 717.854745
_symmetry_space_group_name_H-M "P -1"
_symmetry_group_IT_number 2
_symmetry_cell_setting 'triclinic'
loop_
_space_group_symop_operation_xyz
x,y,z
-x,-y,-z
loop_
_atom_site_type_symbol
_atom_site_label
_atom_site_fract_x
_atom_site_fract_y
_atom_site_fract_z
Si Si1 0.952696 0.429325 0.825069
Si Si2 0.124244 0.538250 0.691278
Si Si3 0.449522 0.058405 0.192331
Si Si4 0.301439 0.475806 0.853500
Si Si5 0.002255 0.689141 0.671188
Si Si6 0.700595 0.831644 0.562354
Si Si7 0.284877 0.295172 0.905758
Si Si8 0.415833 0.397657 0.280637
O O1 0.055965 0.587290 0.815008
O O2 0.097645 0.390508 0.818989
O O3 0.787960 0.126315 0.672631
O O4 0.861901 0.593461 0.978617
O O5 0.324510 0.802913 0.769460
O O6 0.983827 0.527215 0.657762
O O7 0.143793 0.270953 0.537932
O O8 0.352921 0.162778 0.336301
O O9 0.421075 0.140433 0.165175
O O10 0.359838 0.741266 0.038111
O O11 0.289187 0.267108 0.799828
O O12 0.465113 0.513189 0.774646
O O13 0.000000 0.500000 0.500000
O O14 0.808399 0.706269 0.732001
O O15 0.191574 0.992265 0.789716
O O16 0.511419 0.639477 0.453287
O O17 0.500000 0.500000 0.000000
#
# Coordination Sequence:
#
# PCOD8030232 Si02
#       8
#     2   2   2   2   2   2   2   2
#     4  12  26  45  74 105 139 186 238 296 359 414
#     4  11  25  43  71 103 140 185 236 296 348 425
#     4  11  21  43  71 100 142 179 238 293 356 409
#     4  12  25  46  72 107 137 184 240 301 346 422
#     4  12  28  47  73 103 145 194 238 283 359 434
#     4  11  23  45  72 103 142 186 235 296 356 412
#     4  12  30  49  71 103 151 189 231 291 366 427
#     4  11  25  42  72 106 141 182 241 293 351 421
#
# _framework density 22.288630999999999
#
# number of rings (size 3 to 8) (size 9 to 14) (size 15 to 20)
#    0.000    0.500    3.750    5.625    8.750    0.500 
#    0.000    1.250    0.000    0.000    0.000    0.000 
#    0.000    0.000    0.000    0.000    0.000    0.000 
#
# Total GULP energy -198413.942746 kJ/mol
# GULP energy per Si atom -12400.871422 kJ/mol
# Density = 2.223790 g / cm^3
# Si number density = 22.288631 Si / 1000 Ang^3
#
#
#
# Elastic Constant Matrix: (Units=GPa)
#
#
# Indices 1 2 3 4 5 6 
#
# 1 -121.8322 -296.9252 174.8978 -100.0210 -248.4659 40.9413
# 2 -296.9252 -388.4474 274.5130 -159.8652 -395.7095 66.0322
# 3 174.8978 274.5130 -25.8673 67.6203 192.6294 -33.1916
# 4 -100.0210 -159.8652 67.6203 6.3027 -112.2536 24.7006
# 5 -248.4659 -395.7095 192.6294 -112.2536 -287.1830 51.4334
# 6 40.9413 66.0322 -33.1916 24.7006 51.4334 31.3487
#
#
#
# Elastic Compliance Matrix: (Units=1/GPa)
#
#
# Indices 1 2 3 4 5 6 
#
# 1 0.012574 -0.003577 -0.000682 0.000191 -0.006361 0.000677
# 2 -0.003577 0.007466 -0.000344 0.000464 -0.007509 0.000535
# 3 -0.000682 -0.000344 0.009880 0.001490 0.007003 -0.000588
# 4 0.000191 0.000464 0.001490 0.020425 -0.008199 -0.002291
# 5 -0.006361 -0.007509 0.007003 -0.008199 0.020926 0.003665
# 6 0.000677 0.000535 -0.000588 -0.002291 0.003665 0.025056
#
#
# Mechanical properties :
#
#
# Convention : Reuss Voigt Hill
#
# Bulk Modulus (GPa) = 48.27739 -25.68618 11.29561
# Shear Modulus (GPa) = 44.46941 -95.81514 -25.67287
#
# Velocity S-wave (km/s) = 4.47157 -6.56366 -3.39755
# Velocity P-wave (km/s) = 6.95464 8.30612 3.21127
#
# Compressibility (1/GPa) = 0.02071363
#
# Stress axis : x y z
#
# Youngs Moduli (GPa) = 79.52904 133.94463 101.21955
#
# Poissons Ratio (x) = 0.47910 0.06905
# Poissons Ratio (y) = 0.28446 0.03480
# Poissons Ratio (z) = 0.05426 0.04605
#
# Static dielectric constant tensor:
#      x y z
#    x 3.990900 0.059300 0.071950 
#    y 0.059300 4.633380 -0.081730 
#    z 0.071950 -0.081730 3.986450 
# 
# 
# High freq. dielectric constant tensor:
#      x y z
#    x 1.874060 -0.001140 0.005850 
#    y -0.001140 1.895900 -0.002510 
#    z 0.005850 -0.002510 1.876560 
# 
# From -- ./inp_files/205402.got.cif
#   From: 2010.06.25/outbox.cif.g09.slc.cpg/sg2_103_cif.got.tgz:205402.got - 2010.06.27 13:26:56.
