data_PCOD8030980
_publ_section_title
;
Structure prediction by ZEFSAII (Michael W. Deem and Ramdas Pophale) SiO2 
 PCOD8030980
Probable space group: P -1
;
_chemical_formula_sum "Si O2"
_cell_formula_units_Z 16
_cell_length_a 9.321890
_cell_length_b 8.940009
_cell_length_c 12.223707
_cell_angle_alpha 44.923765
_cell_angle_beta 89.364015
_cell_angle_gamma 98.740802
_cell_volume 700.656190
_symmetry_space_group_name_H-M "P -1"
_symmetry_group_IT_number 2
_symmetry_cell_setting 'triclinic'
loop_
_space_group_symop_operation_xyz
x,y,z
-x,-y,-z
loop_
_atom_site_type_symbol
_atom_site_label
_atom_site_fract_x
_atom_site_fract_y
_atom_site_fract_z
Si Si1 0.134744 0.385225 0.077052
Si Si2 0.188062 0.663417 0.294450
Si Si3 0.672487 0.599648 0.726289
Si Si4 0.749943 0.088243 0.424708
Si Si5 0.897256 0.993642 0.259463
Si Si6 0.067849 0.691753 0.502710
Si Si7 0.346656 0.492232 0.826760
Si Si8 0.827243 0.943115 0.048029
O O1 0.192993 0.410847 0.187720
O O2 0.277570 0.476269 0.955743
O O3 0.066145 0.136188 0.172084
O O4 0.000000 0.500000 0.000000
O O5 0.295651 0.512834 0.328977
O O6 0.198517 0.699055 0.408361
O O7 0.012939 0.552268 0.330244
O O8 0.238572 0.891795 0.112037
O O9 0.515586 0.472574 0.841529
O O10 0.659056 0.846384 0.576243
O O11 0.882384 0.149500 0.478701
O O12 0.655807 0.271245 0.346327
O O13 0.814222 0.103668 0.294293
O O14 0.800653 0.983399 0.155828
O O15 0.924660 0.760684 0.413960
O O16 0.251937 0.304684 0.848571
O O17 0.000000 0.000000 0.000000
#
# Coordination Sequence:
#
# PCOD8030980 Si02
#       8
#     2   2   2   2   2   2   2   2
#     4  12  23  42  74 106 137 183 241 293 346 409
#     4  11  24  41  70  99 142 185 228 295 353 411
#     4  12  27  47  69 106 148 188 233 287 360 431
#     4  12  25  44  70 105 141 191 234 286 353 425
#     4  12  22  41  71 107 137 177 240 304 339 404
#     4  11  22  41  70 106 136 178 242 299 345 403
#     4  12  28  46  69 103 151 191 227 290 362 420
#     4  12  24  44  69 104 141 181 246 291 346 418
#
# _framework density 22.835737999999999
#
# number of rings (size 3 to 8) (size 9 to 14) (size 15 to 20)
#    0.000    0.250    6.250    3.375    1.750    0.500 
#    0.000    3.750    0.000    0.000    0.000    0.000 
#    0.000    0.000    0.000    0.000    0.000    0.000 
#
# Total GULP energy -198355.992413 kJ/mol
# GULP energy per Si atom -12397.249526 kJ/mol
# Density = 2.278376 g / cm^3
# Si number density = 22.835738 Si / 1000 Ang^3
#
#
#
# Elastic Constant Matrix: (Units=GPa)
#
#
# Indices 1 2 3 4 5 6 
#
# 1 95.4706 38.1164 34.8598 0.1023 -13.3892 -8.4569
# 2 38.1164 138.3171 44.2211 10.4746 -4.2963 -14.8166
# 3 34.8598 44.2211 91.6127 9.3158 -3.1189 -8.0375
# 4 0.1023 10.4746 9.3158 39.8331 -6.1559 -3.9463
# 5 -13.3892 -4.2963 -3.1189 -6.1559 29.1708 3.5523
# 6 -8.4569 -14.8166 -8.0375 -3.9463 3.5523 24.3031
#
#
#
# Elastic Compliance Matrix: (Units=1/GPa)
#
#
# Indices 1 2 3 4 5 6 
#
# 1 0.013874 -0.002368 -0.004060 0.002613 0.005942 0.001598
# 2 -0.002368 0.009384 -0.003180 -0.001474 -0.000809 0.003725
# 3 -0.004060 -0.003180 0.014313 -0.002616 -0.001497 0.001177
# 4 0.002613 -0.001474 -0.002616 0.027312 0.006140 0.002683
# 5 0.005942 -0.000809 -0.001497 0.006140 0.038456 -0.003545
# 6 0.001598 0.003725 0.001177 0.002683 -0.003545 0.045317
#
#
# Mechanical properties :
#
#
# Convention : Reuss Voigt Hill
#
# Bulk Modulus (GPa) = 54.47298 62.19943 58.33621
# Shear Modulus (GPa) = 28.73730 32.54162 30.63946
#
# Velocity S-wave (km/s) = 3.55129 3.77905 3.66694
# Velocity P-wave (km/s) = 6.38135 6.80724 6.59773
#
# Compressibility (1/GPa) = 0.01835772
#
# Stress axis : x y z
#
# Youngs Moduli (GPa) = 72.07680 106.56128 69.86470
#
# Poissons Ratio (x) = 0.25229 0.28363
# Poissons Ratio (y) = 0.17065 0.22215
# Poissons Ratio (z) = 0.29261 0.33884
#
# Static dielectric constant tensor:
#      x y z
#    x 3.605220 -0.074540 -0.035720 
#    y -0.074540 4.284540 -0.102410 
#    z -0.035720 -0.102410 4.525010 
# 
# 
# High freq. dielectric constant tensor:
#      x y z
#    x 1.854830 -0.016950 -0.006550 
#    y -0.016950 1.917070 -0.007840 
#    z -0.006550 -0.007840 1.916480 
# 
# From -- ./inp_files/381059.got.cif
#   From: 2010.06.25/outbox.cif.g09.slc.cpg/sg2_191_cif.got.tgz:381059.got - 2010.06.27 13:26:56.
