data_PCOD8030153
_publ_section_title
;
Structure prediction by ZEFSAII (Michael W. Deem and Ramdas Pophale) SiO2 
 PCOD8030153
Probable space group: P -1
;
_chemical_formula_sum "Si O2"
_cell_formula_units_Z 16
_cell_length_a 11.706576
_cell_length_b 14.267189
_cell_length_c 14.833643
_cell_angle_alpha 137.940328
_cell_angle_beta 151.516951
_cell_angle_gamma 58.174776
_cell_volume 728.142743
_symmetry_space_group_name_H-M "P -1"
_symmetry_group_IT_number 2
_symmetry_cell_setting 'triclinic'
loop_
_space_group_symop_operation_xyz
x,y,z
-x,-y,-z
loop_
_atom_site_type_symbol
_atom_site_label
_atom_site_fract_x
_atom_site_fract_y
_atom_site_fract_z
Si Si1 0.298200 0.540495 0.215501
Si Si2 0.850244 0.374316 0.006315
Si Si3 0.587694 0.091823 0.840945
Si Si4 0.636615 0.770803 0.342440
Si Si5 0.072551 0.657535 0.610102
Si Si6 0.366495 0.633023 0.621057
Si Si7 0.440404 0.177393 0.280421
Si Si8 0.149371 0.935592 0.182584
O O1 0.389715 0.405546 0.206299
O O2 0.487359 0.676490 0.503507
O O3 0.317403 0.579144 0.151210
O O4 0.000000 0.500000 0.000000
O O5 0.140423 0.497542 0.313758
O O6 0.663496 0.352858 0.947758
O O7 0.866402 0.213498 0.877864
O O8 0.361557 0.151175 0.697557
O O9 0.753559 0.069744 0.855299
O O10 0.426335 0.933921 0.669198
O O11 0.792687 0.209582 0.132607
O O12 0.822976 0.681879 0.415321
O O13 0.666721 0.903542 0.531599
O O14 0.256114 0.674728 0.664486
O O15 0.000000 0.500000 0.500000
O O16 0.480888 0.777388 0.736523
O O17 0.140027 0.070223 0.013517
#
# Coordination Sequence:
#
# PCOD8030153 Si02
#       8
#     2   2   2   2   2   2   2   2
#     4  12  23  41  70 103 134 175 221 272 351 397
#     4  11  22  40  68 102 136 170 224 289 334 396
#     4  11  25  43  69 102 132 180 229 280 334 397
#     4  11  24  43  70 102 130 177 229 279 341 398
#     4  12  27  46  68  97 137 185 227 275 336 404
#     4  12  27  44  64 103 142 180 222 278 335 403
#     4  12  23  43  71  98 140 172 224 283 347 396
#     4  11  21  42  73 101 137 169 226 292 338 391
#
# _framework density 21.973713
#
# number of rings (size 3 to 8) (size 9 to 14) (size 15 to 20)
#    0.000    0.500    3.750    6.750    1.750    3.500 
#    0.000    0.625    0.000    0.000    0.000    0.000 
#    0.000    0.000    0.000    0.000    0.000    0.000 
#
# Total GULP energy -198290.103154 kJ/mol
# GULP energy per Si atom -12393.131447 kJ/mol
# Density = 2.192370 g / cm^3
# Si number density = 21.973713 Si / 1000 Ang^3
#
#
#
# Elastic Constant Matrix: (Units=GPa)
#
#
# Indices 1 2 3 4 5 6 
#
# 1 104.4441 65.7737 26.7138 -1.2027 8.9381 18.0860
# 2 65.7737 194.3007 20.6368 -10.7213 17.8351 23.8501
# 3 26.7138 20.6368 58.1853 -5.0018 13.9055 2.4253
# 4 -1.2027 -10.7213 -5.0018 36.3223 2.2081 3.8276
# 5 8.9381 17.8351 13.9055 2.2081 20.0192 -4.3249
# 6 18.0860 23.8501 2.4253 3.8276 -4.3249 38.4966
#
#
#
# Elastic Compliance Matrix: (Units=1/GPa)
#
#
# Indices 1 2 3 4 5 6 
#
# 1 0.013845 -0.003732 -0.004912 -0.000908 -0.000168 -0.003812
# 2 -0.003732 0.007633 0.001173 0.003169 -0.007201 -0.004174
# 3 -0.004912 0.001173 0.023343 0.004600 -0.016038 -0.002149
# 4 -0.000908 0.003169 0.004600 0.030325 -0.010252 -0.005993
# 5 -0.000168 -0.007201 -0.016038 -0.010252 0.071877 0.014645
# 6 -0.003812 -0.004174 -0.002149 -0.005993 0.014645 0.032730
#
#
# Mechanical properties :
#
#
# Convention : Reuss Voigt Hill
#
# Bulk Modulus (GPa) = 33.46608 64.79764 49.13186
# Shear Modulus (GPa) = 24.43143 35.22133 29.82638
#
# Velocity S-wave (km/s) = 3.33806 4.00795 3.68824
# Velocity P-wave (km/s) = 5.48816 7.13939 6.36753
#
# Compressibility (1/GPa) = 0.02988100
#
# Stress axis : x y z
#
# Youngs Moduli (GPa) = 72.22900 131.00219 42.83875
#
# Poissons Ratio (x) = 0.48887 0.21041
# Poissons Ratio (y) = 0.26954 -0.05026
# Poissons Ratio (z) = 0.35477 -0.15368
#
# Static dielectric constant tensor:
#      x y z
#    x 3.796420 0.306550 0.288920 
#    y 0.306550 4.617850 0.258220 
#    z 0.288920 0.258220 3.246850 
# 
# 
# High freq. dielectric constant tensor:
#      x y z
#    x 1.842500 0.017630 0.003560 
#    y 0.017630 1.890130 -0.008170 
#    z 0.003560 -0.008170 1.865060 
# 
# From -- ./inp_files/522548.got.cif
#   From: 2010.06.25/outbox.cif.g09.slc.cpg/sg2_262_cif.got.tgz:522548.got - 2010.06.27 13:26:56.
