data_PCOD8030237
_publ_section_title
;
Structure prediction by ZEFSAII (Michael W. Deem and Ramdas Pophale) SiO2 
 PCOD8030237
Probable space group: P -1
;
_chemical_formula_sum "Si O2"
_cell_formula_units_Z 14
_cell_length_a 6.628387
_cell_length_b 19.805573
_cell_length_c 8.202261
_cell_angle_alpha 39.404240
_cell_angle_beta 57.632223
_cell_angle_gamma 63.445699
_cell_volume 576.208663
_symmetry_space_group_name_H-M "P -1"
_symmetry_group_IT_number 2
_symmetry_cell_setting 'triclinic'
loop_
_space_group_symop_operation_xyz
x,y,z
-x,-y,-z
loop_
_atom_site_type_symbol
_atom_site_label
_atom_site_fract_x
_atom_site_fract_y
_atom_site_fract_z
Si Si1 0.313954 0.076491 0.337386
Si Si2 0.950266 0.781187 0.281158
Si Si3 0.569106 0.204366 0.509971
Si Si4 0.825596 0.999602 0.806404
Si Si5 0.413629 0.760534 0.913865
Si Si6 0.350586 0.460393 0.789000
Si Si7 0.874762 0.364914 0.225366
O O1 0.292248 0.059163 0.186193
O O2 0.408638 0.195274 0.107931
O O3 0.500000 0.000000 0.500000
O O4 0.051378 0.066395 0.540803
O O5 0.687968 0.744806 0.413421
O O6 0.022206 0.721794 0.526543
O O7 0.907298 0.910870 0.073655
O O8 0.145324 0.753447 0.109982
O O9 0.583636 0.165472 0.386099
O O10 0.752071 0.296223 0.272197
O O11 0.635222 0.092268 0.786452
O O12 0.505358 0.646114 0.015352
O O13 0.500000 0.500000 0.500000
O O14 0.327512 0.553160 0.760700
O O15 0.077057 0.430403 0.926406
#
# Coordination Sequence:
#
# PCOD8030237 Si02
#       7
#     2   2   2   2   2   2   2
#     4  11  21  43  71 104 144 189 242 287 335 436
#     4  12  26  45  69 109 144 186 240 284 348 434
#     4  12  27  46  69 109 145 188 235 289 349 427
#     4  11  24  41  71 106 145 194 233 281 358 413
#     4  12  24  47  74 100 145 190 234 294 361 405
#     4  11  24  49  80 101 134 190 235 298 365 412
#     4  11  27  49  73 106 145 177 242 301 346 425
#
# _framework density 24.296752999999999
#
# number of rings (size 3 to 8) (size 9 to 14) (size 15 to 20)
#    0.000    0.571    5.714    2.143    2.000    2.286 
#    0.000    1.429    0.000    0.000    0.000    0.000 
#    0.000    0.000    0.000    0.000    0.000    0.000 
#
# Total GULP energy -173475.510454 kJ/mol
# GULP energy per Si atom -12391.107890 kJ/mol
# Density = 2.424145 g / cm^3
# Si number density = 24.296753 Si / 1000 Ang^3
#
#
#
# Elastic Constant Matrix: (Units=GPa)
#
#
# Indices 1 2 3 4 5 6 
#
# 1 99.3591 64.2955 37.2548 -3.4741 -16.9700 -14.3367
# 2 64.2955 119.8420 47.5623 -6.6880 -17.8400 -14.9331
# 3 37.2548 47.5623 123.5730 10.9280 -18.6668 0.7102
# 4 -3.4741 -6.6880 10.9280 44.7314 -10.1243 -11.9594
# 5 -16.9700 -17.8400 -18.6668 -10.1243 21.4013 -8.8660
# 6 -14.3367 -14.9331 0.7102 -11.9594 -8.8660 30.6779
#
#
#
# Elastic Compliance Matrix: (Units=1/GPa)
#
#
# Indices 1 2 3 4 5 6 
#
# 1 0.021446 -0.002435 -0.002537 0.014733 0.029306 0.023109
# 2 -0.002435 0.018741 -0.003958 0.015400 0.026535 0.021748
# 3 -0.002537 -0.003958 0.010771 -0.005009 -0.000554 -0.005474
# 4 0.014733 0.015400 -0.005009 0.058979 0.072230 0.058364
# 5 0.029306 0.026535 -0.000554 0.072230 0.168659 0.103526
# 6 0.023109 0.021748 -0.005474 0.058364 0.103526 0.106781
#
#
# Mechanical properties :
#
#
# Convention : Reuss Voigt Hill
#
# Bulk Modulus (GPa) = 30.21232 71.22215 50.71723
# Shear Modulus (GPa) = 12.06944 32.27289 22.17116
#
# Velocity S-wave (km/s) = 2.23121 3.64851 3.02406
# Velocity P-wave (km/s) = 4.37029 6.86483 5.75436
#
# Compressibility (1/GPa) = 0.03309908
#
# Stress axis : x y z
#
# Youngs Moduli (GPa) = 46.62812 53.35991 92.83791
#
# Poissons Ratio (x) = 0.12991 0.23556
# Poissons Ratio (y) = 0.11352 0.36743
# Poissons Ratio (z) = 0.11831 0.21118
#
# Static dielectric constant tensor:
#      x y z
#    x 4.641870 -0.305490 -0.242770 
#    y -0.305490 4.486460 -0.325110 
#    z -0.242770 -0.325110 4.766070 
# 
# 
# High freq. dielectric constant tensor:
#      x y z
#    x 1.958000 -0.028170 -0.015120 
#    y -0.028170 1.960340 -0.002940 
#    z -0.015120 -0.002940 1.979700 
# 
# From -- ./inp_files/138627.got.cif
#   From: 2010.06.25/outbox.cif.g09.slc.cpg/sg2_70_cif.got.tgz:138627.got - 2010.06.27 13:26:56.
