data_PCOD8030618
_publ_section_title
;
Structure prediction by ZEFSAII (Michael W. Deem and Ramdas Pophale) SiO2 
 PCOD8030618
Probable space group: P -1
;
_chemical_formula_sum "Si O2"
_cell_formula_units_Z 14
_cell_length_a 14.230223
_cell_length_b 13.674075
_cell_length_c 9.115020
_cell_angle_alpha 115.404446
_cell_angle_beta 87.074648
_cell_angle_gamma 147.610170
_cell_volume 657.149358
_symmetry_space_group_name_H-M "P -1"
_symmetry_group_IT_number 2
_symmetry_cell_setting 'triclinic'
loop_
_space_group_symop_operation_xyz
x,y,z
-x,-y,-z
loop_
_atom_site_type_symbol
_atom_site_label
_atom_site_fract_x
_atom_site_fract_y
_atom_site_fract_z
Si Si1 0.625702 0.564303 0.752746
Si Si2 0.367051 0.624494 0.553628
Si Si3 0.840110 0.634519 0.991125
Si Si4 0.467338 0.092433 0.567529
Si Si5 0.101440 0.990369 0.468805
Si Si6 0.723498 0.918879 0.942766
Si Si7 0.112876 0.836871 0.613053
O O1 0.730617 0.593291 0.639857
O O2 0.717352 0.618150 0.938085
O O3 0.696714 0.761052 0.845511
O O4 0.355027 0.265040 0.561144
O O5 0.516103 0.840076 0.553962
O O6 0.519366 0.763800 0.773975
O O7 0.146708 0.466789 0.513649
O O8 0.657361 0.345794 0.820342
O O9 0.940876 0.752992 0.220679
O O10 0.036146 0.803198 0.972205
O O11 0.500000 0.000000 0.500000
O O12 0.220128 0.858628 0.510405
O O13 0.100271 0.936509 0.592946
O O14 0.000000 0.000000 0.500000
O O15 0.722190 0.969739 0.136673
#
# Coordination Sequence:
#
# PCOD8030618 Si02
#       7
#     2   2   2   2   2   2   2
#     4  11  22  39  62  98 147 184 214 263 330 407
#     4  11  24  45  66 100 139 174 226 280 333 410
#     4  11  23  44  66  95 142 178 227 279 334 394
#     4  11  26  52  73  93 132 178 232 299 343 382
#     4  12  25  38  64 103 146 185 220 261 331 415
#     4  12  23  39  69 102 140 183 218 267 341 409
#     4  12  25  43  69 100 137 176 229 281 328 408
#
# _framework density 21.304137000000001
#
# number of rings (size 3 to 8) (size 9 to 14) (size 15 to 20)
#    0.000    0.571    7.143    2.571    6.000    1.714 
#    0.000    3.571    0.000    0.000    0.000    0.000 
#    0.000    0.000    0.000    0.000    0.000    0.000 
#
# Total GULP energy -173617.118533 kJ/mol
# GULP energy per Si atom -12401.222752 kJ/mol
# Density = 2.125565 g / cm^3
# Si number density = 21.304137 Si / 1000 Ang^3
#
#
#
# Elastic Constant Matrix: (Units=GPa)
#
#
# Indices 1 2 3 4 5 6 
#
# 1 124.4527 50.4593 48.1538 -9.2143 -1.2159 11.6809
# 2 50.4593 100.3450 41.3271 -10.1001 -1.6736 22.4180
# 3 48.1538 41.3271 103.4278 -14.5640 21.6094 4.8019
# 4 -9.2143 -10.1001 -14.5640 35.9125 0.3580 7.4631
# 5 -1.2159 -1.6736 21.6094 0.3580 24.6581 2.7431
# 6 11.6809 22.4180 4.8019 7.4631 2.7431 30.7589
#
#
#
# Elastic Compliance Matrix: (Units=1/GPa)
#
#
# Indices 1 2 3 4 5 6 
#
# 1 0.011500 -0.003236 -0.004949 0.000350 0.004875 -0.001756
# 2 -0.003236 0.017192 -0.005758 0.004101 0.007335 -0.012051
# 3 -0.004949 -0.005758 0.018209 0.003872 -0.017073 0.003817
# 4 0.000350 0.004101 0.003872 0.033082 -0.002293 -0.011548
# 5 0.004875 0.007335 -0.017073 -0.002293 0.057299 -0.009085
# 6 -0.001756 -0.012051 0.003817 -0.011548 -0.009085 0.044977
#
#
# Mechanical properties :
#
#
# Convention : Reuss Voigt Hill
#
# Bulk Modulus (GPa) = 52.59189 67.56734 60.07962
# Shear Modulus (GPa) = 23.09639 30.81827 26.95733
#
# Velocity S-wave (km/s) = 3.29618 3.80753 3.56104
# Velocity P-wave (km/s) = 6.26308 7.14941 6.72088
#
# Compressibility (1/GPa) = 0.01901434
#
# Stress axis : x y z
#
# Youngs Moduli (GPa) = 86.95287 58.16697 54.91844
#
# Poissons Ratio (x) = 0.18823 0.27180
# Poissons Ratio (y) = 0.28138 0.31624
# Poissons Ratio (z) = 0.43034 0.33494
#
# Static dielectric constant tensor:
#      x y z
#    x 3.556700 0.148900 0.552110 
#    y 0.148900 3.937740 0.209000 
#    z 0.552110 0.209000 2.804980 
# 
# 
# High freq. dielectric constant tensor:
#      x y z
#    x 1.815720 0.019050 0.026910 
#    y 0.019050 1.842300 -0.006930 
#    z 0.026910 -0.006930 1.836820 
# 
# From -- ./inp_files/313200.got.cif
#   From: 2010.06.25/outbox.cif.g09.slc.cpg/sg2_157_cif.got.tgz:313200.got - 2010.06.27 13:26:56.
