data_PCOD8030090
_publ_section_title
;
Structure prediction by ZEFSAII (Michael W. Deem and Ramdas Pophale) SiO2 
 PCOD8030090
Probable space group: P -1
;
_chemical_formula_sum "Si O2"
_cell_formula_units_Z 14
_cell_length_a 18.449105
_cell_length_b 11.998201
_cell_length_c 9.213528
_cell_angle_alpha 68.128105
_cell_angle_beta 49.455936
_cell_angle_gamma 28.688202
_cell_volume 625.231886
_symmetry_space_group_name_H-M "P -1"
_symmetry_group_IT_number 2
_symmetry_cell_setting 'triclinic'
loop_
_space_group_symop_operation_xyz
x,y,z
-x,-y,-z
loop_
_atom_site_type_symbol
_atom_site_label
_atom_site_fract_x
_atom_site_fract_y
_atom_site_fract_z
Si Si1 0.630745 0.816244 0.562544
Si Si2 0.078970 0.224619 0.335996
Si Si3 0.612112 0.982634 0.784741
Si Si4 0.366905 0.501632 0.804855
Si Si5 0.355442 0.578317 0.462570
Si Si6 0.514821 0.274770 0.133703
Si Si7 0.911725 0.187316 0.725378
O O1 0.511902 0.838620 0.783997
O O2 0.881396 0.493165 0.357624
O O3 0.500000 0.000000 0.500000
O O4 0.644100 0.913499 0.607843
O O5 0.986914 0.236843 0.568920
O O6 0.163974 0.241143 0.311931
O O7 0.256389 0.957335 0.131259
O O8 0.466281 0.266675 0.852856
O O9 0.500000 0.000000 0.000000
O O10 0.327293 0.537347 0.668295
O O11 0.540694 0.409526 0.654436
O O12 0.135999 0.778069 0.057020
O O13 0.513418 0.320038 0.280218
O O14 0.107598 0.874075 0.576862
O O15 0.320778 0.573208 0.167285
#
# Coordination Sequence:
#
# PCOD8030090 Si02
#       7
#     2   2   2   2   2   2   2
#     4  11  25  42  67  99 136 174 226 282 338 398
#     4  11  23  44  71 100 132 179 227 277 338 398
#     4  12  21  46  70  96 134 179 231 277 324 411
#     4  11  24  42  65 100 132 175 227 270 341 394
#     4  11  24  42  66  96 141 173 216 283 332 397
#     4  11  23  43  65  98 133 176 227 270 335 402
#     4  11  21  42  68  97 131 172 230 270 332 401
#
# _framework density 22.391693
#
# number of rings (size 3 to 8) (size 9 to 14) (size 15 to 20)
#    0.000    0.857    4.286    3.000    0.000    5.143 
#    0.000    2.857    0.000    0.000    0.000    0.000 
#    0.000    0.000    0.000    0.000    0.000    0.000 
#
# Total GULP energy -173585.422866 kJ/mol
# GULP energy per Si atom -12398.958776 kJ/mol
# Density = 2.234073 g / cm^3
# Si number density = 22.391693 Si / 1000 Ang^3
#
#
#
# Elastic Constant Matrix: (Units=GPa)
#
#
# Indices 1 2 3 4 5 6 
#
# 1 73.5896 30.7681 35.5899 7.5449 19.1811 -10.5698
# 2 30.7681 101.5430 47.5109 4.5963 -4.3326 -16.2600
# 3 35.5899 47.5109 144.4222 6.2712 16.2398 -11.1955
# 4 7.5449 4.5963 6.2712 38.9090 2.0983 -0.1721
# 5 19.1811 -4.3326 16.2398 2.0983 40.6774 0.6468
# 6 -10.5698 -16.2600 -11.1955 -0.1721 0.6468 38.3405
#
#
#
# Elastic Compliance Matrix: (Units=1/GPa)
#
#
# Indices 1 2 3 4 5 6 
#
# 1 0.019501 -0.004828 -0.001888 -0.002415 -0.008878 0.002916
# 2 -0.004828 0.013796 -0.003653 -0.000369 0.005170 0.003364
# 3 -0.001888 -0.003653 0.009006 -0.000485 -0.003079 0.000610
# 4 -0.002415 -0.000369 -0.000485 0.026290 -0.000049 -0.000845
# 5 -0.008878 0.005170 -0.003079 -0.000049 0.030579 -0.001670
# 6 0.002916 0.003364 0.000610 -0.000845 -0.001670 0.028515
#
#
# Mechanical properties :
#
#
# Convention : Reuss Voigt Hill
#
# Bulk Modulus (GPa) = 46.37330 60.81030 53.59180
# Shear Modulus (GPa) = 32.13069 37.29779 34.71424
#
# Velocity S-wave (km/s) = 3.79217 4.08572 3.94168
# Velocity P-wave (km/s) = 6.31894 7.03378 6.68592
#
# Compressibility (1/GPa) = 0.02156413
#
# Stress axis : x y z
#
# Youngs Moduli (GPa) = 51.27921 72.48295 111.03907
#
# Poissons Ratio (x) = 0.34995 0.20966
# Poissons Ratio (y) = 0.24758 0.40567
# Poissons Ratio (z) = 0.09682 0.26481
#
# Static dielectric constant tensor:
#      x y z
#    x 4.090700 -0.008570 0.122680 
#    y -0.008570 4.090200 0.112370 
#    z 0.122680 0.112370 4.201400 
# 
# 
# High freq. dielectric constant tensor:
#      x y z
#    x 1.876080 0.000310 0.005040 
#    y 0.000310 1.878740 0.001590 
#    z 0.005040 0.001590 1.892470 
# 
# From -- ./inp_files/36948.got.cif
#   From: 2010.06.25/outbox.cif.g09.slc.cpg/sg2_19_cif.got.tgz:36948.got - 2010.06.27 13:26:56.
