data_PCOD8030034
_publ_section_title
;
Structure prediction by ZEFSAII (Michael W. Deem and Ramdas Pophale) SiO2 
 PCOD8030034
Probable space group: P -1
;
_chemical_formula_sum "Si O2"
_cell_formula_units_Z 16
_cell_length_a 8.972907
_cell_length_b 8.562710
_cell_length_c 16.181453
_cell_angle_alpha 51.463056
_cell_angle_beta 106.697655
_cell_angle_gamma 71.067190
_cell_volume 689.823495
_symmetry_space_group_name_H-M "P -1"
_symmetry_group_IT_number 2
_symmetry_cell_setting 'triclinic'
loop_
_space_group_symop_operation_xyz
x,y,z
-x,-y,-z
loop_
_atom_site_type_symbol
_atom_site_label
_atom_site_fract_x
_atom_site_fract_y
_atom_site_fract_z
Si Si1 0.612293 0.367744 0.442493
Si Si2 0.997413 0.268709 0.585042
Si Si3 0.093050 0.441604 0.857627
Si Si4 0.437922 0.454388 0.919450
Si Si5 0.386410 0.936363 0.182689
Si Si6 0.748533 0.857199 0.183379
Si Si7 0.677385 0.136792 0.359393
Si Si8 0.631719 0.946847 0.673523
O O1 0.405334 0.678367 0.282377
O O2 0.730622 0.187064 0.439286
O O3 0.765429 0.378634 0.516224
O O4 0.556796 0.229043 0.537527
O O5 0.115778 0.123374 0.738202
O O6 0.000000 0.500000 0.500000
O O7 0.110208 0.078699 0.586156
O O8 0.205880 0.556614 0.856246
O O9 0.108428 0.375890 0.784534
O O10 0.849467 0.681995 0.757619
O O11 0.195217 0.171289 0.015885
O O12 0.465206 0.590842 0.806795
O O13 0.500000 0.500000 0.000000
O O14 0.589359 0.144032 0.018100
O O15 0.614236 0.807886 0.227554
O O16 0.344300 0.078998 0.215900
O O17 0.551490 0.042954 0.387316
#
# Coordination Sequence:
#
# PCOD8030034 Si02
#       8
#     2   2   2   2   2   2   2   2
#     4  12  26  43  70 103 136 184 231 285 341 411
#     4  12  24  42  72 100 136 181 232 283 342 406
#     4  11  25  44  73 105 135 181 227 288 344 410
#     4  11  21  41  72 101 133 176 231 284 344 400
#     4  11  22  48  70 100 138 180 224 285 346 406
#     4  11  22  44  71 100 135 176 230 282 341 406
#     4  12  24  46  68 102 141 179 230 288 341 406
#     4  12  26  46  68 102 145 183 227 279 349 412
#
# _framework density 23.194337999999998
#
# number of rings (size 3 to 8) (size 9 to 14) (size 15 to 20)
#    0.000    0.500    3.750    6.000    1.750    0.000 
#    4.500    1.250    0.000    0.000    0.000    0.000 
#    0.000    0.000    0.000    0.000    0.000    0.000 
#
# Total GULP energy -198449.234999 kJ/mol
# GULP energy per Si atom -12403.077187 kJ/mol
# Density = 2.314155 g / cm^3
# Si number density = 23.194338 Si / 1000 Ang^3
#
#
#
# Elastic Constant Matrix: (Units=GPa)
#
#
# Indices 1 2 3 4 5 6 
#
# 1 92.0537 19.8282 41.7422 -9.0468 -15.4383 11.4882
# 2 19.8282 106.3923 6.1178 7.0819 -5.4878 -13.9351
# 3 41.7422 6.1178 94.2972 -9.9100 -24.3749 9.2286
# 4 -9.0468 7.0819 -9.9100 46.5302 5.7419 -3.5600
# 5 -15.4383 -5.4878 -24.3749 5.7419 32.2116 -2.1740
# 6 11.4882 -13.9351 9.2286 -3.5600 -2.1740 40.9233
#
#
#
# Elastic Compliance Matrix: (Units=1/GPa)
#
#
# Indices 1 2 3 4 5 6 
#
# 1 0.014892 -0.002964 -0.005329 0.001673 0.002050 -0.003734
# 2 -0.002964 0.010693 0.000324 -0.001965 0.001286 0.004298
# 3 -0.005329 0.000324 0.015493 0.001008 0.008956 -0.001324
# 4 0.001673 -0.001965 0.001008 0.022710 -0.002787 0.000462
# 5 0.002050 0.001286 0.008956 -0.002787 0.039500 -0.000301
# 6 -0.003734 0.004298 -0.001324 0.000462 -0.000301 0.027270
#
#
# Mechanical properties :
#
#
# Convention : Reuss Voigt Hill
#
# Bulk Modulus (GPa) = 39.77637 47.56886 43.67261
# Shear Modulus (GPa) = 32.28387 38.93669 35.61028
#
# Velocity S-wave (km/s) = 3.73485 4.10166 3.92254
# Velocity P-wave (km/s) = 5.98207 6.55628 6.27575
#
# Compressibility (1/GPa) = 0.02514056
#
# Stress axis : x y z
#
# Youngs Moduli (GPa) = 67.14947 93.51981 64.54428
#
# Poissons Ratio (x) = 0.27716 0.34395
# Poissons Ratio (y) = 0.19901 -0.02089
# Poissons Ratio (z) = 0.35783 -0.03027
#
# Static dielectric constant tensor:
#      x y z
#    x 3.991240 0.034130 -0.181200 
#    y 0.034130 4.067290 -0.098260 
#    z -0.181200 -0.098260 4.453090 
# 
# 
# High freq. dielectric constant tensor:
#      x y z
#    x 1.893770 0.005300 -0.011540 
#    y 0.005300 1.934120 -0.000240 
#    z -0.011540 -0.000240 1.930160 
# 
# From -- ./inp_files/494402.got.cif
#   From: 2010.06.25/outbox.cif.g09.slc.cpg/sg2_248_cif.got.tgz:494402.got - 2010.06.27 13:26:56.
