data_PCOD8030264
_publ_section_title
;
Structure prediction by ZEFSAII (Michael W. Deem and Ramdas Pophale) SiO2 
 PCOD8030264
Probable space group: P -1
;
_chemical_formula_sum "Si O2"
_cell_formula_units_Z 16
_cell_length_a 11.163272
_cell_length_b 11.436331
_cell_length_c 13.739911
_cell_angle_alpha 54.387453
_cell_angle_beta 147.488050
_cell_angle_gamma 113.914784
_cell_volume 751.599030
_symmetry_space_group_name_H-M "P -1"
_symmetry_group_IT_number 2
_symmetry_cell_setting 'triclinic'
loop_
_space_group_symop_operation_xyz
x,y,z
-x,-y,-z
loop_
_atom_site_type_symbol
_atom_site_label
_atom_site_fract_x
_atom_site_fract_y
_atom_site_fract_z
Si Si1 0.941951 0.592439 0.179190
Si Si2 0.286675 0.103375 0.850667
Si Si3 0.303050 0.634871 0.960789
Si Si4 0.152599 0.857529 0.126201
Si Si5 0.474580 0.205424 0.117010
Si Si6 0.793888 0.565953 0.396552
Si Si7 0.442206 0.046983 0.548325
Si Si8 0.065553 0.860556 0.844055
O O1 0.877954 0.469986 0.122916
O O2 0.030542 0.721193 0.123600
O O3 0.154173 0.516828 0.426444
O O4 0.708824 0.651711 0.047731
O O5 0.222170 0.261225 0.679654
O O6 0.074477 0.022942 0.730395
O O7 0.342894 0.117435 0.996023
O O8 0.500000 0.000000 0.000000
O O9 0.321491 0.734974 0.828307
O O10 0.219492 0.736556 0.946002
O O11 0.554141 0.539910 0.202428
O O12 0.396163 0.848114 0.349269
O O13 0.178841 0.860072 0.027727
O O14 0.000000 0.000000 0.000000
O O15 0.557059 0.099389 0.315954
O O16 0.000000 0.500000 0.500000
O O17 0.195941 0.152943 0.328876
O O18 0.500000 0.000000 0.500000
#
# Coordination Sequence:
#
# PCOD8030264 Si02
#       8
#     2   2   2   2   2   2   2   2
#     4  12  25  45  72 101 149 192 241 296 355 434
#     4  11  21  43  73 105 147 184 228 304 367 419
#     4  11  27  45  68 112 144 186 235 302 371 423
#     4  12  25  50  72 100 142 192 247 301 353 426
#     4  11  22  43  70 104 147 179 238 301 351 430
#     4  11  24  42  71 106 144 194 234 284 367 431
#     4  12  26  42  74 107 133 191 250 290 353 429
#     4  12  25  45  74 105 146 187 243 302 360 426
#
# _framework density 21.287946000000002
#
# number of rings (size 3 to 8) (size 9 to 14) (size 15 to 20)
#    0.000    0.500    8.750    0.375    1.750    5.000 
#    0.000    1.250    0.000    0.000    0.000    0.000 
#    0.000    0.000    0.000    0.000    0.000    0.000 
#
# Total GULP energy -198334.718403 kJ/mol
# GULP energy per Si atom -12395.919900 kJ/mol
# Density = 2.123949 g / cm^3
# Si number density = 21.287946 Si / 1000 Ang^3
#
#
#
# Elastic Constant Matrix: (Units=GPa)
#
#
# Indices 1 2 3 4 5 6 
#
# 1 99.5140 35.9721 29.2578 -5.8964 -3.7250 -5.2041
# 2 35.9721 139.9724 22.7563 8.3682 -5.0738 15.1586
# 3 29.2578 22.7563 88.8453 4.6752 -3.1116 3.5578
# 4 -5.8964 8.3682 4.6752 42.0016 1.6115 7.7996
# 5 -3.7250 -5.0738 -3.1116 1.6115 36.0296 2.9279
# 6 -5.2041 15.1586 3.5578 7.7996 2.9279 35.3974
#
#
#
# Elastic Compliance Matrix: (Units=1/GPa)
#
#
# Indices 1 2 3 4 5 6 
#
# 1 0.012506 -0.003086 -0.003557 0.002198 0.000208 0.003016
# 2 -0.003086 0.008631 -0.000926 -0.001380 0.001191 -0.003851
# 3 -0.003557 -0.000926 0.012819 -0.001561 0.000771 -0.001135
# 4 0.002198 -0.001380 -0.001561 0.025428 -0.000877 -0.004459
# 5 0.000208 0.001191 0.000771 -0.000877 0.028270 -0.002702
# 6 0.003016 -0.003851 -0.001135 -0.004459 -0.002702 0.031663
#
#
# Mechanical properties :
#
#
# Convention : Reuss Voigt Hill
#
# Bulk Modulus (GPa) = 53.14282 56.03378 54.58830
# Shear Modulus (GPa) = 35.52997 38.70875 37.11936
#
# Velocity S-wave (km/s) = 4.08979 4.26883 4.18027
# Velocity P-wave (km/s) = 6.87895 7.11872 6.99986
#
# Compressibility (1/GPa) = 0.01881722
#
# Stress axis : x y z
#
# Youngs Moduli (GPa) = 79.96146 115.86591 78.01181
#
# Poissons Ratio (x) = 0.35759 0.27749
# Poissons Ratio (y) = 0.24678 0.07222
# Poissons Ratio (z) = 0.28443 0.10726
#
# Static dielectric constant tensor:
#      x y z
#    x 3.900770 0.328520 0.152670 
#    y 0.328520 6.083760 0.288040 
#    z 0.152670 0.288040 3.995140 
# 
# 
# High freq. dielectric constant tensor:
#      x y z
#    x 1.837230 0.001110 0.001040 
#    y 0.001110 1.841970 0.005980 
#    z 0.001040 0.005980 1.830550 
# 
# From -- ./inp_files/278748.got.cif
#   From: 2010.06.25/outbox.cif.g09.slc.cpg/sg2_140_cif.got.tgz:278748.got - 2010.06.27 13:26:56.
