data_PCOD8030959
_publ_section_title
;
Structure prediction by ZEFSAII (Michael W. Deem and Ramdas Pophale) SiO2 
 PCOD8030959
Probable space group: P -1
;
_chemical_formula_sum "Si O2"
_cell_formula_units_Z 16
_cell_length_a 12.189373
_cell_length_b 5.089436
_cell_length_c 11.773398
_cell_angle_alpha 69.150486
_cell_angle_beta 106.049293
_cell_angle_gamma 82.838333
_cell_volume 635.400911
_symmetry_space_group_name_H-M "P -1"
_symmetry_group_IT_number 2
_symmetry_cell_setting 'triclinic'
loop_
_space_group_symop_operation_xyz
x,y,z
-x,-y,-z
loop_
_atom_site_type_symbol
_atom_site_label
_atom_site_fract_x
_atom_site_fract_y
_atom_site_fract_z
Si Si1 0.189851 0.814041 0.902522
Si Si2 0.282919 0.781591 0.180057
Si Si3 0.072114 0.106806 0.227067
Si Si4 0.467613 0.171683 0.728368
Si Si5 0.237968 0.307350 0.373959
Si Si6 0.747295 0.601537 0.219299
Si Si7 0.423050 0.818932 0.568639
Si Si8 0.113376 0.616962 0.493919
O O1 0.258949 0.585655 0.865383
O O2 0.056091 0.781928 0.880121
O O3 0.185399 0.146937 0.821399
O O4 0.255286 0.718093 0.053326
O O5 0.392546 0.933493 0.187026
O O6 0.324017 0.476740 0.308114
O O7 0.165473 0.967999 0.178188
O O8 0.118126 0.372867 0.253257
O O9 0.067608 0.916839 0.367972
O O10 0.386920 0.244832 0.806314
O O11 0.428203 0.916776 0.687271
O O12 0.449928 0.476838 0.607497
O O13 0.294977 0.959285 0.452189
O O14 0.212036 0.402502 0.480626
O O15 0.818561 0.373690 0.368638
O O16 0.500000 0.000000 0.500000
O O17 0.000000 0.500000 0.500000
#
# Coordination Sequence:
#
# PCOD8030959 Si02
#       8
#     2   2   2   2   2   2   2   2
#     4  12  29  49  73 100 147 193 249 288 347 425
#     4  11  28  47  70 106 139 194 242 295 350 424
#     4  11  25  45  75 105 141 188 235 307 357 422
#     4  12  26  45  73 105 149 182 239 296 356 429
#     4  11  24  41  71 107 139 182 230 293 369 416
#     4  12  27  47  72 107 141 197 234 295 359 425
#     4  12  23  41  71 108 144 180 225 296 368 422
#     4  11  22  41  69 104 142 174 234 289 361 424
#
# _framework density 25.180952999999999
#
# number of rings (size 3 to 8) (size 9 to 14) (size 15 to 20)
#    0.000    0.500    3.750    3.750    7.000    2.500 
#    0.000    0.000    0.000    0.000    0.000    0.000 
#    0.000    0.000    0.000    0.000    0.000    0.000 
#
# Total GULP energy -198324.879953 kJ/mol
# GULP energy per Si atom -12395.304997 kJ/mol
# Density = 2.512364 g / cm^3
# Si number density = 25.180953 Si / 1000 Ang^3
#
#
#
# Elastic Constant Matrix: (Units=GPa)
#
#
# Indices 1 2 3 4 5 6 
#
# 1 106.9113 -12.5762 38.1320 13.6898 0.8703 2.0327
# 2 -12.5762 54.0924 7.0887 13.9400 -10.7283 -2.4406
# 3 38.1320 7.0887 100.9207 32.8132 -4.3298 -9.4176
# 4 13.6898 13.9400 32.8132 34.8328 -3.1876 1.6567
# 5 0.8703 -10.7283 -4.3298 -3.1876 37.5219 9.6210
# 6 2.0327 -2.4406 -9.4176 1.6567 9.6210 29.2013
#
#
#
# Elastic Compliance Matrix: (Units=1/GPa)
#
#
# Indices 1 2 3 4 5 6 
#
# 1 0.011563 0.003795 -0.004129 -0.002021 0.000662 -0.001923
# 2 0.003795 0.023257 0.000866 -0.011146 0.005516 0.000774
# 3 -0.004129 0.000866 0.016918 -0.015059 -0.000758 0.006920
# 4 -0.002021 -0.011146 -0.015059 0.048715 0.001548 -0.008921
# 5 0.000662 0.005516 -0.000758 0.001548 0.030841 -0.010079
# 6 -0.001923 0.000774 0.006920 -0.008921 -0.010079 0.040502
#
#
# Mechanical properties :
#
#
# Convention : Reuss Voigt Hill
#
# Bulk Modulus (GPa) = 18.93968 36.35705 27.64837
# Shear Modulus (GPa) = 26.54861 35.59654 31.07258
#
# Velocity S-wave (km/s) = 3.25054 3.76391 3.51660
# Velocity P-wave (km/s) = 4.65035 5.77572 5.24332
#
# Compressibility (1/GPa) = 0.05279919
#
# Stress axis : x y z
#
# Youngs Moduli (GPa) = 86.48502 42.99757 59.11002
#
# Poissons Ratio (x) = -0.16316 0.24409
# Poissons Ratio (y) = -0.32818 -0.05116
# Poissons Ratio (z) = 0.35713 -0.03722
#
# Static dielectric constant tensor:
#      x y z
#    x 5.025770 0.258250 0.063460 
#    y 0.258250 4.739390 0.244440 
#    z 0.063460 0.244440 4.555230 
# 
# 
# High freq. dielectric constant tensor:
#      x y z
#    x 2.027430 0.009520 -0.000280 
#    y 0.009520 1.998780 0.014970 
#    z -0.000280 0.014970 1.990020 
# 
# From -- ./inp_files/367697.got.cif
#   From: 2010.06.25/outbox.cif.g09.slc.cpg/sg2_184_cif.got.tgz:367697.got - 2010.06.27 13:26:56.
