data_PCOD8030488
_publ_section_title
;
Structure prediction by ZEFSAII (Michael W. Deem and Ramdas Pophale) SiO2 
 PCOD8030488
Probable space group: P -1
;
_chemical_formula_sum "Si O2"
_cell_formula_units_Z 16
_cell_length_a 14.331782
_cell_length_b 12.832907
_cell_length_c 11.955751
_cell_angle_alpha 96.619115
_cell_angle_beta 159.906177
_cell_angle_gamma 84.722636
_cell_volume 749.555452
_symmetry_space_group_name_H-M "P -1"
_symmetry_group_IT_number 2
_symmetry_cell_setting 'triclinic'
loop_
_space_group_symop_operation_xyz
x,y,z
-x,-y,-z
loop_
_atom_site_type_symbol
_atom_site_label
_atom_site_fract_x
_atom_site_fract_y
_atom_site_fract_z
Si Si1 0.007979 0.516558 0.644109
Si Si2 0.237702 0.926885 0.223523
Si Si3 0.117976 0.173006 0.370432
Si Si4 0.938151 0.710557 0.229438
Si Si5 0.481344 0.984707 0.108160
Si Si6 0.123817 0.788299 0.674857
Si Si7 0.520542 0.646058 0.194231
Si Si8 0.406735 0.808188 0.613221
O O1 0.026560 0.410563 0.721415
O O2 0.000000 0.500000 0.500000
O O3 0.724850 0.563246 0.366847
O O4 0.281931 0.587235 0.991688
O O5 0.294184 0.844069 0.372745
O O6 0.500000 0.000000 0.500000
O O7 0.146079 0.858861 0.003651
O O8 0.000000 0.000000 0.000000
O O9 0.048465 0.241366 0.411525
O O10 0.258380 0.066914 0.550371
O O11 0.319765 0.259213 0.543725
O O12 0.950736 0.778251 0.366484
O O13 0.164354 0.753141 0.403345
O O14 0.640579 0.726266 0.844787
O O15 0.449369 0.094199 0.146796
O O16 0.215990 0.908994 0.818231
O O17 0.500000 0.000000 0.000000
O O18 0.371601 0.708969 0.933375
#
# Coordination Sequence:
#
# PCOD8030488 Si02
#       8
#     2   2   2   2   2   2   2   2
#     4  12  23  39  68  96 136 176 220 274 333 402
#     4  12  26  46  72  95 130 180 236 275 318 389
#     4  11  24  42  66  99 130 173 227 279 320 397
#     4  12  26  41  65  96 142 169 221 268 343 402
#     4  11  22  35  62  93 140 171 204 255 338 407
#     4  11  23  38  63 101 133 174 217 264 336 401
#     4  11  23  40  64  99 127 170 221 273 332 383
#     4  12  26  44  62  98 134 183 212 277 332 389
#
# _framework density 21.345986
#
# number of rings (size 3 to 8) (size 9 to 14) (size 15 to 20)
#    0.000    0.500    5.000    3.375    7.000    1.000 
#    0.000    0.000    0.000    4.500    0.000    0.000 
#    0.000    0.000    0.000    0.000    0.000    0.000 
#
# Total GULP energy -198359.390451 kJ/mol
# GULP energy per Si atom -12397.461903 kJ/mol
# Density = 2.129740 g / cm^3
# Si number density = 21.345986 Si / 1000 Ang^3
#
#
#
# Elastic Constant Matrix: (Units=GPa)
#
#
# Indices 1 2 3 4 5 6 
#
# 1 70.5769 41.7685 42.5866 -0.3573 11.4964 21.2114
# 2 41.7685 115.2565 51.8265 -11.6462 4.8961 25.5381
# 3 42.5866 51.8265 121.6310 -0.5199 7.5723 11.3067
# 4 -0.3573 -11.6462 -0.5199 46.3472 -1.0366 11.2679
# 5 11.4964 4.8961 7.5723 -1.0366 42.2977 -5.5667
# 6 21.2114 25.5381 11.3067 11.2679 -5.5667 32.7025
#
#
#
# Elastic Compliance Matrix: (Units=1/GPa)
#
#
# Indices 1 2 3 4 5 6 
#
# 1 0.024585 -0.002647 -0.005718 0.002717 -0.007135 -0.014053
# 2 -0.002647 0.014522 -0.004165 0.006111 -0.001453 -0.010537
# 3 -0.005718 -0.004165 0.011628 -0.001837 0.000389 0.003640
# 4 0.002717 0.006111 -0.001837 0.026843 -0.002509 -0.015576
# 5 -0.007135 -0.001453 0.000389 -0.002509 0.027079 0.011102
# 6 -0.014053 -0.010537 0.003640 -0.015576 0.011102 0.053921
#
#
# Mechanical properties :
#
#
# Convention : Reuss Voigt Hill
#
# Bulk Modulus (GPa) = 38.94746 64.42530 51.68638
# Shear Modulus (GPa) = 26.01492 35.68834 30.85163
#
# Velocity S-wave (km/s) = 3.49481 4.09332 3.80585
# Velocity P-wave (km/s) = 5.87966 7.25171 6.60143
#
# Compressibility (1/GPa) = 0.02567562
#
# Stress axis : x y z
#
# Youngs Moduli (GPa) = 40.67473 68.85902 85.99963
#
# Poissons Ratio (x) = 0.18226 0.49175
# Poissons Ratio (y) = 0.10766 0.35820
# Poissons Ratio (z) = 0.23258 0.28681
#
# Static dielectric constant tensor:
#      x y z
#    x 3.596760 0.022840 0.105960 
#    y 0.022840 3.840120 -0.049420 
#    z 0.105960 -0.049420 4.040740 
# 
# 
# High freq. dielectric constant tensor:
#      x y z
#    x 1.809060 0.012270 0.025840 
#    y 0.012270 1.853630 -0.003390 
#    z 0.025840 -0.003390 1.847060 
# 
# From -- ./inp_files/452432.got.cif
#   From: 2010.06.25/outbox.cif.g09.slc.cpg/sg2_227_cif.got.tgz:452432.got - 2010.06.27 13:26:56.
