data_PCOD8030083
_publ_section_title
;
Structure prediction by ZEFSAII (Michael W. Deem and Ramdas Pophale) SiO2 
 PCOD8030083
Probable space group: P -1
;
_chemical_formula_sum "Si O2"
_cell_formula_units_Z 16
_cell_length_a 15.566822
_cell_length_b 13.350045
_cell_length_c 8.659851
_cell_angle_alpha 77.446966
_cell_angle_beta 83.935979
_cell_angle_gamma 25.374541
_cell_volume 734.859542
_symmetry_space_group_name_H-M "P -1"
_symmetry_group_IT_number 2
_symmetry_cell_setting 'triclinic'
loop_
_space_group_symop_operation_xyz
x,y,z
-x,-y,-z
loop_
_atom_site_type_symbol
_atom_site_label
_atom_site_fract_x
_atom_site_fract_y
_atom_site_fract_z
Si Si1 0.815908 0.486417 0.341287
Si Si2 0.320169 0.024128 0.832019
Si Si3 0.150591 0.754410 0.122565
Si Si4 0.394660 0.418913 0.894320
Si Si5 0.864349 0.945828 0.333364
Si Si6 0.978178 0.530603 0.683692
Si Si7 0.476754 0.995564 0.332861
Si Si8 0.489918 0.524960 0.675687
O O1 0.774227 0.450552 0.226435
O O2 0.918725 0.479110 0.264332
O O3 0.972308 0.263981 0.501137
O O4 0.599135 0.757019 0.364403
O O5 0.454296 0.980825 0.787506
O O6 0.294979 0.972985 0.709257
O O7 0.089356 0.312401 0.811538
O O8 0.417120 0.862155 0.014906
O O9 0.306817 0.632866 0.259522
O O10 0.001880 0.830284 0.200115
O O11 0.287342 0.556873 0.030355
O O12 0.000000 0.000000 0.000000
O O13 0.490973 0.415476 0.799998
O O14 0.724536 0.189108 0.339514
O O15 0.000000 0.500000 0.500000
O O16 0.760180 0.769986 0.725290
O O17 0.500000 0.000000 0.500000
O O18 0.500000 0.500000 0.500000
#
# Coordination Sequence:
#
# PCOD8030083 Si02
#       8
#     2   2   2   2   2   2   2   2
#     4  11  26  43  69 104 141 179 242 290 341 426
#     4  11  24  42  72  98 140 181 235 287 342 424
#     4  12  26  46  74  97 145 186 230 298 353 417
#     4  12  27  48  67 108 147 181 234 294 363 413
#     4  12  24  46  74 104 133 190 244 277 357 420
#     4  11  21  42  68 102 139 179 235 286 338 418
#     4  11  21  42  69 101 138 184 233 290 346 409
#     4  12  28  49  71 105 143 185 239 294 343 429
#
# _framework density 21.772867999999999
#
# number of rings (size 3 to 8) (size 9 to 14) (size 15 to 20)
#    0.000    0.500    6.250    1.875    5.250    6.000 
#    2.250    1.250    0.000    0.000    0.000    0.000 
#    0.000    0.000    0.000    0.000    0.000    0.000 
#
# Total GULP energy -198331.570830 kJ/mol
# GULP energy per Si atom -12395.723177 kJ/mol
# Density = 2.172331 g / cm^3
# Si number density = 21.772868 Si / 1000 Ang^3
#
#
#
# Elastic Constant Matrix: (Units=GPa)
#
#
# Indices 1 2 3 4 5 6 
#
# 1 80.4244 23.3086 16.7057 -2.1738 7.8362 0.0760
# 2 23.3086 106.4577 36.3105 -27.5723 -10.6861 -13.7539
# 3 16.7057 36.3105 97.7772 -19.7741 0.5975 4.6608
# 4 -2.1738 -27.5723 -19.7741 47.3646 7.7568 -4.4969
# 5 7.8362 -10.6861 0.5975 7.7568 39.7469 -6.5057
# 6 0.0760 -13.7539 4.6608 -4.4969 -6.5057 34.5554
#
#
#
# Elastic Compliance Matrix: (Units=1/GPa)
#
#
# Indices 1 2 3 4 5 6 
#
# 1 0.014115 -0.003793 -0.001204 -0.001654 -0.003841 -0.002317
# 2 -0.003793 0.014886 -0.003918 0.006850 0.004824 0.008261
# 3 -0.001204 -0.003918 0.012661 0.002987 -0.002126 -0.003276
# 4 -0.001654 0.006850 0.002987 0.027162 -0.002289 0.005431
# 5 -0.003841 0.004824 -0.002126 -0.002289 0.028896 0.007358
# 6 -0.002317 0.008261 -0.003276 0.005431 0.007358 0.034766
#
#
# Mechanical properties :
#
#
# Convention : Reuss Voigt Hill
#
# Bulk Modulus (GPa) = 41.95858 48.58987 45.27423
# Shear Modulus (GPa) = 31.59348 38.22235 34.90792
#
# Velocity S-wave (km/s) = 3.81340 4.19442 4.00844
# Velocity P-wave (km/s) = 6.22111 6.76925 6.50096
#
# Compressibility (1/GPa) = 0.02383303
#
# Stress axis : x y z
#
# Youngs Moduli (GPa) = 70.84610 67.17738 78.98192
#
# Poissons Ratio (x) = 0.25481 0.09506
# Poissons Ratio (y) = 0.26873 0.30944
# Poissons Ratio (z) = 0.08527 0.26320
#
# Static dielectric constant tensor:
#      x y z
#    x 4.060190 0.179980 0.031160 
#    y 0.179980 4.171780 -0.310240 
#    z 0.031160 -0.310240 3.881140 
# 
# 
# High freq. dielectric constant tensor:
#      x y z
#    x 1.869080 0.002380 0.003230 
#    y 0.002380 1.869570 -0.024190 
#    z 0.003230 -0.024190 1.848390 
# 
# From -- ./inp_files/307346.got.cif
#   From: 2010.06.25/outbox.cif.g09.slc.cpg/sg2_154_cif.got.tgz:307346.got - 2010.06.27 13:26:56.
