data_PCOD8030939
_publ_section_title
;
Structure prediction by ZEFSAII (Michael W. Deem and Ramdas Pophale) SiO2 
 PCOD8030939
Probable space group: P -1
;
_chemical_formula_sum "Si O2"
_cell_formula_units_Z 12
_cell_length_a 19.744360
_cell_length_b 13.163003
_cell_length_c 16.040015
_cell_angle_alpha 27.385985
_cell_angle_beta 161.084345
_cell_angle_gamma 150.427289
_cell_volume 609.120150
_symmetry_space_group_name_H-M "P -1"
_symmetry_group_IT_number 2
_symmetry_cell_setting 'triclinic'
loop_
_space_group_symop_operation_xyz
x,y,z
-x,-y,-z
loop_
_atom_site_type_symbol
_atom_site_label
_atom_site_fract_x
_atom_site_fract_y
_atom_site_fract_z
Si Si1 0.978579 0.651739 0.785977
Si Si2 0.922148 0.406506 0.241423
Si Si3 0.214978 0.081589 0.827127
Si Si4 0.411529 0.928492 0.331747
Si Si5 0.834334 0.135810 0.744658
Si Si6 0.545048 0.581345 0.261019
O O1 0.031222 0.539365 0.841915
O O2 0.731143 0.673413 0.477517
O O3 0.137044 0.891498 0.805134
O O4 0.000000 0.500000 0.000000
O O5 0.007910 0.186195 0.531714
O O6 0.048452 0.606573 0.299411
O O7 0.671708 0.369710 0.990357
O O8 0.400631 0.277252 0.864216
O O9 0.300482 0.965573 0.089401
O O10 0.249459 0.963291 0.190734
O O11 0.469431 0.681745 0.583099
O O12 0.631296 0.111710 0.463922
O O13 0.000000 0.000000 0.000000
#
# Coordination Sequence:
#
# PCOD8030939 Si02
#       6
#     2   2   2   2   2   2
#     4  11  22  42  67  91 127 167 205 259 317 367
#     4  11  23  41  64  96 128 161 213 258 308 372
#     4  11  24  43  64  94 127 163 210 259 311 371
#     4  11  23  43  67  89 129 168 206 257 316 365
#     4  11  22  41  68  92 126 168 208 258 308 370
#     4  11  22  42  64  93 128 164 205 258 313 368
#
# _framework density 19.700545999999999
#
# number of rings (size 3 to 8) (size 9 to 14) (size 15 to 20)
#    0.000    1.000    6.667    2.000    0.000    5.333 
#    3.000    1.667    0.000    0.000    0.000    0.000 
#    0.000    0.000    0.000    0.000    0.000    0.000 
#
# Total GULP energy -148791.688179 kJ/mol
# GULP energy per Si atom -12399.307348 kJ/mol
# Density = 1.965571 g / cm^3
# Si number density = 19.700546 Si / 1000 Ang^3
#
#
#
# Elastic Constant Matrix: (Units=GPa)
#
#
# Indices 1 2 3 4 5 6 
#
# 1 61.7668 40.5550 51.1816 4.5710 13.3257 -4.8229
# 2 40.5550 112.4297 46.9857 5.8810 0.8407 -10.3573
# 3 51.1816 46.9857 104.0847 13.9753 20.8859 7.0155
# 4 4.5710 5.8810 13.9753 39.7496 0.2948 1.3390
# 5 13.3257 0.8407 20.8859 0.2948 38.7003 4.5376
# 6 -4.8229 -10.3573 7.0155 1.3390 4.5376 32.8634
#
#
#
# Elastic Compliance Matrix: (Units=1/GPa)
#
#
# Indices 1 2 3 4 5 6 
#
# 1 0.031892 -0.005610 -0.012833 0.001499 -0.004676 0.006237
# 2 -0.005610 0.012891 -0.003981 -0.000010 0.003375 0.003624
# 3 -0.012833 -0.003981 0.019863 -0.004662 -0.005424 -0.006439
# 4 0.001499 -0.000010 -0.004662 0.026616 0.001812 -0.000122
# 5 -0.004676 0.003375 -0.005424 0.001812 0.030614 -0.002765
# 6 0.006237 0.003624 -0.006439 -0.000122 -0.002765 0.034248
#
#
# Mechanical properties :
#
#
# Convention : Reuss Voigt Hill
#
# Bulk Modulus (GPa) = 50.50862 61.74733 56.12797
# Shear Modulus (GPa) = 24.08808 31.56657 27.82732
#
# Velocity S-wave (km/s) = 3.50052 4.00724 3.76242
# Velocity P-wave (km/s) = 6.48321 7.26785 6.88671
#
# Compressibility (1/GPa) = 0.01979860
#
# Stress axis : x y z
#
# Youngs Moduli (GPa) = 31.35578 77.57555 50.34360
#
# Poissons Ratio (x) = 0.43517 0.64607
# Poissons Ratio (y) = 0.17589 0.20041
# Poissons Ratio (z) = 0.40240 0.30882
#
# Static dielectric constant tensor:
#      x y z
#    x 3.470490 -0.115410 0.069770 
#    y -0.115410 4.226820 0.076160 
#    z 0.069770 0.076160 3.637780 
# 
# 
# High freq. dielectric constant tensor:
#      x y z
#    x 1.756080 -0.007870 0.002920 
#    y -0.007870 1.787130 0.011600 
#    z 0.002920 0.011600 1.767920 
# 
# From -- ./inp_files/270684.got.cif
#   From: 2010.06.25/outbox.cif.g09.slc.cpg/sg2_136_cif.got.tgz:270684.got - 2010.06.27 13:26:56.
