data_PCOD8030942
_publ_section_title
;
Structure prediction by ZEFSAII (Michael W. Deem and Ramdas Pophale) SiO2 
 PCOD8030942
Probable space group: P -1
;
_chemical_formula_sum "Si O2"
_cell_formula_units_Z 16
_cell_length_a 14.382845
_cell_length_b 15.045858
_cell_length_c 11.377518
_cell_angle_alpha 65.711721
_cell_angle_beta 135.303863
_cell_angle_gamma 148.854232
_cell_volume 752.893885
_symmetry_space_group_name_H-M "P -1"
_symmetry_group_IT_number 2
_symmetry_cell_setting 'triclinic'
loop_
_space_group_symop_operation_xyz
x,y,z
-x,-y,-z
loop_
_atom_site_type_symbol
_atom_site_label
_atom_site_fract_x
_atom_site_fract_y
_atom_site_fract_z
Si Si1 0.142372 0.679277 0.675419
Si Si2 0.645201 0.513616 0.541543
Si Si3 0.086504 0.648858 0.920781
Si Si4 0.666825 0.702585 0.069967
Si Si5 0.416110 0.722213 0.729583
Si Si6 0.053938 0.136458 0.532955
Si Si7 0.626646 0.977181 0.353572
Si Si8 0.293852 0.111526 0.331161
O O1 0.150448 0.671279 0.828203
O O2 0.401550 0.796273 0.776674
O O3 0.856815 0.447681 0.502931
O O4 0.136231 0.786568 0.565052
O O5 0.500000 0.500000 0.500000
O O6 0.845233 0.706262 0.535695
O O7 0.435811 0.307383 0.391575
O O8 0.849530 0.576411 0.765950
O O9 0.371719 0.865686 0.120898
O O10 0.000000 0.500000 0.000000
O O11 0.712148 0.732756 0.232593
O O12 0.500000 0.500000 0.000000
O O13 0.454785 0.649643 0.876639
O O14 0.964421 0.903885 0.164102
O O15 0.666916 0.889668 0.770171
O O16 0.000000 0.000000 0.500000
O O17 0.749617 0.964062 0.402475
O O18 0.566852 0.891268 0.474280
#
# Coordination Sequence:
#
# PCOD8030942 Si02
#       8
#     2   2   2   2   2   2   2   2
#     4  11  24  41  66  96 135 182 231 285 345 416
#     4  12  24  42  68 101 141 179 231 294 359 413
#     4  12  24  43  69  97 138 179 228 288 348 413
#     4  11  24  42  70  96 135 184 235 284 355 424
#     4  11  23  42  65  95 135 180 231 281 343 420
#     4  11  25  42  68 101 139 180 231 294 353 418
#     4  11  22  41  68  94 135 178 227 284 354 411
#     4  11  22  44  66 100 141 177 233 297 350 404
#
# _framework density 21.251335999999998
#
# number of rings (size 3 to 8) (size 9 to 14) (size 15 to 20)
#    0.000    0.750    3.750    4.500    1.750    1.500 
#    0.000    1.250    0.000    0.000    0.000    0.000 
#    0.000    0.000    0.000    0.000    0.000    0.000 
#
# Total GULP energy -198237.143260 kJ/mol
# GULP energy per Si atom -12389.821454 kJ/mol
# Density = 2.120297 g / cm^3
# Si number density = 21.251336 Si / 1000 Ang^3
#
#
#
# Elastic Constant Matrix: (Units=GPa)
#
#
# Indices 1 2 3 4 5 6 
#
# 1 128.0594 34.5128 40.1717 -14.5781 9.1417 -10.8688
# 2 34.5128 122.2058 25.3757 -15.4792 -4.7633 -12.2602
# 3 40.1717 25.3757 103.6823 -14.7181 4.0744 -4.6173
# 4 -14.5781 -15.4792 -14.7181 44.8500 -0.5670 -2.2389
# 5 9.1417 -4.7633 4.0744 -0.5670 28.3581 -1.0614
# 6 -10.8688 -12.2602 -4.6173 -2.2389 -1.0614 23.1458
#
#
#
# Elastic Compliance Matrix: (Units=1/GPa)
#
#
# Indices 1 2 3 4 5 6 
#
# 1 0.009866 -0.001758 -0.002885 0.001774 -0.002907 0.003164
# 2 -0.001758 0.009832 -0.001248 0.002671 0.002620 0.004512
# 3 -0.002885 -0.001248 0.011464 0.002406 -0.000861 0.000464
# 4 0.001774 0.002671 0.002406 0.024844 0.000220 0.005141
# 5 -0.002907 0.002620 -0.000861 0.000220 0.036827 0.001561
# 6 0.003164 0.004512 0.000464 0.005141 0.001561 0.047742
#
#
# Mechanical properties :
#
#
# Convention : Reuss Voigt Hill
#
# Bulk Modulus (GPa) = 51.60249 61.56310 56.58280
# Shear Modulus (GPa) = 31.48282 36.19661 33.83972
#
# Velocity S-wave (km/s) = 3.85314 4.13154 3.99476
# Velocity P-wave (km/s) = 6.64306 7.19662 6.92538
#
# Compressibility (1/GPa) = 0.01937891
#
# Stress axis : x y z
#
# Youngs Moduli (GPa) = 101.35904 101.71261 87.22825
#
# Poissons Ratio (x) = 0.17884 0.25167
# Poissons Ratio (y) = 0.17822 0.10885
# Poissons Ratio (z) = 0.29244 0.12693
#
# Static dielectric constant tensor:
#      x y z
#    x 4.089630 0.194200 0.052110 
#    y 0.194200 4.077840 -0.058950 
#    z 0.052110 -0.058950 3.960560 
# 
# 
# High freq. dielectric constant tensor:
#      x y z
#    x 1.830080 0.006110 0.006060 
#    y 0.006110 1.847690 -0.008910 
#    z 0.006060 -0.008910 1.840750 
# 
# From -- ./inp_files/455649.got.cif
#   From: 2010.06.25/outbox.cif.g09.slc.cpg/sg2_228_cif.got.tgz:455649.got - 2010.06.27 13:26:56.
