data_PCOD8030567
_publ_section_title
;
Structure prediction by ZEFSAII (Michael W. Deem and Ramdas Pophale) SiO2 
 PCOD8030567
Probable space group: P -1
;
_chemical_formula_sum "Si O2"
_cell_formula_units_Z 14
_cell_length_a 11.617124
_cell_length_b 8.645045
_cell_length_c 17.111797
_cell_angle_alpha 138.263063
_cell_angle_beta 135.977612
_cell_angle_gamma 75.501146
_cell_volume 624.632013
_symmetry_space_group_name_H-M "P -1"
_symmetry_group_IT_number 2
_symmetry_cell_setting 'triclinic'
loop_
_space_group_symop_operation_xyz
x,y,z
-x,-y,-z
loop_
_atom_site_type_symbol
_atom_site_label
_atom_site_fract_x
_atom_site_fract_y
_atom_site_fract_z
Si Si1 0.681318 0.744613 0.020025
Si Si2 0.188330 0.952157 0.648892
Si Si3 0.266775 0.439043 0.769779
Si Si4 0.911278 0.672677 0.809184
Si Si5 0.706043 0.035471 0.984179
Si Si6 0.882924 0.435508 0.000179
Si Si7 0.523952 0.142160 0.345552
O O1 0.746259 0.002138 0.210927
O O2 0.441333 0.452138 0.809212
O O3 0.668777 0.834624 0.961512
O O4 0.847144 0.679482 0.082468
O O5 0.320345 0.914501 0.637626
O O6 0.941217 0.677393 0.423997
O O7 0.214466 0.246360 0.748696
O O8 0.381739 0.779782 0.978420
O O9 0.665069 0.448700 0.579555
O O10 0.953811 0.516888 0.837660
O O11 0.000000 0.000000 0.000000
O O12 0.043526 0.720076 0.814632
O O13 0.593652 0.832183 0.774798
O O14 0.654286 0.113016 0.778346
O O15 0.000000 0.500000 0.000000
#
# Coordination Sequence:
#
# PCOD8030567 Si02
#       7
#     2   2   2   2   2   2   2
#     4  12  24  40  66 101 145 177 217 279 334 398
#     4  11  22  38  68 100 135 182 223 271 338 404
#     4  11  22  38  63  98 139 177 221 269 333 402
#     4  11  25  48  72  95 131 178 234 283 335 404
#     4  11  24  40  64 102 141 178 222 274 334 405
#     4  11  26  46  70 101 134 177 231 281 334 405
#     4  11  23  44  72  96 135 181 223 281 342 396
#
# _framework density 22.413198000000001
#
# number of rings (size 3 to 8) (size 9 to 14) (size 15 to 20)
#    0.000    0.857    4.286    3.429    2.000    4.571 
#    0.000    2.857    0.000    0.000    0.000    0.000 
#    0.000    0.000    0.000    0.000    0.000    0.000 
#
# Total GULP energy -173486.870995 kJ/mol
# GULP energy per Si atom -12391.919357 kJ/mol
# Density = 2.236218 g / cm^3
# Si number density = 22.413198 Si / 1000 Ang^3
#
#
#
# Elastic Constant Matrix: (Units=GPa)
#
#
# Indices 1 2 3 4 5 6 
#
# 1 125.5861 29.1618 42.9048 -8.3078 11.6059 18.4200
# 2 29.1618 81.5921 35.5896 -0.9594 -13.2639 7.5272
# 3 42.9048 35.5896 138.9690 -16.8179 4.1412 13.4085
# 4 -8.3078 -0.9594 -16.8179 26.1498 -11.4102 -1.1673
# 5 11.6059 -13.2639 4.1412 -11.4102 29.6264 1.0201
# 6 18.4200 7.5272 13.4085 -1.1673 1.0201 30.5381
#
#
#
# Elastic Compliance Matrix: (Units=1/GPa)
#
#
# Indices 1 2 3 4 5 6 
#
# 1 0.010520 -0.003435 -0.001834 -0.000547 -0.005457 -0.004532
# 2 -0.003435 0.016589 -0.003185 0.001761 0.009926 -0.000883
# 3 -0.001834 -0.003185 0.009414 0.005303 0.000089 -0.002042
# 4 -0.000547 0.001761 0.005303 0.050029 0.019570 -0.001173
# 5 -0.005457 0.009926 0.000089 0.019570 0.047862 -0.000045
# 6 -0.004532 -0.000883 -0.002042 -0.001173 -0.000045 0.036550
#
#
# Mechanical properties :
#
#
# Convention : Reuss Voigt Hill
#
# Bulk Modulus (GPa) = 50.98713 62.38442 56.68578
# Shear Modulus (GPa) = 25.71859 33.16226 29.44043
#
# Velocity S-wave (km/s) = 3.39112 3.85071 3.62820
# Velocity P-wave (km/s) = 6.17503 6.90397 6.54965
#
# Compressibility (1/GPa) = 0.01961279
#
# Stress axis : x y z
#
# Youngs Moduli (GPa) = 95.05801 60.28042 106.22382
#
# Poissons Ratio (x) = 0.20708 0.19486
# Poissons Ratio (y) = 0.32655 0.33837
# Poissons Ratio (z) = 0.17438 0.19202
#
# Static dielectric constant tensor:
#      x y z
#    x 3.887580 0.057240 0.458360 
#    y 0.057240 3.769120 -0.323370 
#    z 0.458360 -0.323370 3.833870 
# 
# 
# High freq. dielectric constant tensor:
#      x y z
#    x 1.894290 -0.011700 0.016630 
#    y -0.011700 1.876980 -0.012620 
#    z 0.016630 -0.012620 1.875040 
# 
# From -- ./inp_files/317397.got.cif
#   From: 2010.06.25/outbox.cif.g09.slc.cpg/sg2_159_cif.got.tgz:317397.got - 2010.06.27 13:26:56.
