data_PCOD8030892
_publ_section_title
;
Structure prediction by ZEFSAII (Michael W. Deem and Ramdas Pophale) SiO2 
 PCOD8030892
Probable space group: P -1
;
_chemical_formula_sum "Si O2"
_cell_formula_units_Z 16
_cell_length_a 20.596412
_cell_length_b 10.255783
_cell_length_c 5.193294
_cell_angle_alpha 81.431620
_cell_angle_beta 114.775530
_cell_angle_gamma 130.810080
_cell_volume 741.314361
_symmetry_space_group_name_H-M "P -1"
_symmetry_group_IT_number 2
_symmetry_cell_setting 'triclinic'
loop_
_space_group_symop_operation_xyz
x,y,z
-x,-y,-z
loop_
_atom_site_type_symbol
_atom_site_label
_atom_site_fract_x
_atom_site_fract_y
_atom_site_fract_z
Si Si1 0.826043 0.489311 0.193786
Si Si2 0.938529 0.797620 0.921346
Si Si3 0.270279 0.035267 0.487670
Si Si4 0.515746 0.608028 0.247053
Si Si5 0.991451 0.617215 0.777560
Si Si6 0.241014 0.283868 0.485781
Si Si7 0.327320 0.493557 0.049240
Si Si8 0.808644 0.192554 0.089226
O O1 0.724942 0.430735 0.125017
O O2 0.805220 0.347533 0.994810
O O3 0.886498 0.490712 0.517198
O O4 0.893698 0.688158 0.142981
O O5 0.850247 0.733809 0.614853
O O6 0.004108 0.765980 0.916248
O O7 0.000000 0.000000 0.000000
O O8 0.381448 0.202041 0.629584
O O9 0.211793 0.099863 0.415181
O O10 0.249412 0.909470 0.720242
O O11 0.239257 0.934070 0.197526
O O12 0.500000 0.500000 0.500000
O O13 0.500000 0.500000 0.000000
O O14 0.440109 0.637405 0.139075
O O15 0.081897 0.721931 0.706216
O O16 0.000000 0.500000 0.000000
O O17 0.292262 0.340941 0.830241
O O18 0.307637 0.424263 0.329366
#
# Coordination Sequence:
#
# PCOD8030892 Si02
#       8
#     2   2   2   2   2   2   2   2
#     4  11  26  45  66  96 139 186 235 279 352 408
#     4  11  25  41  65 100 137 181 233 293 342 414
#     4  12  25  43  68 105 137 176 233 286 352 412
#     4  12  22  43  72 103 137 174 225 287 359 421
#     4  12  24  45  70  96 138 192 242 275 351 414
#     4  11  22  41  65  99 141 172 221 284 354 396
#     4  11  22  43  70  97 133 179 217 286 347 416
#     4  12  27  42  68  96 142 186 231 287 333 422
#
# _framework density 21.583285
#
# number of rings (size 3 to 8) (size 9 to 14) (size 15 to 20)
#    0.000    0.500    5.000    3.375    3.500    1.500 
#    0.000    1.250    0.000    0.000    0.000    0.000 
#    0.000    0.000    0.000    0.000    0.000    0.000 
#
# Total GULP energy -198338.389101 kJ/mol
# GULP energy per Si atom -12396.149319 kJ/mol
# Density = 2.153416 g / cm^3
# Si number density = 21.583285 Si / 1000 Ang^3
#
#
#
# Elastic Constant Matrix: (Units=GPa)
#
#
# Indices 1 2 3 4 5 6 
#
# 1 157.8370 54.9763 40.9171 2.3332 21.4600 -8.3261
# 2 54.9763 110.5833 30.2276 -1.5554 8.2848 -7.6104
# 3 40.9171 30.2276 93.0678 -1.2990 -0.8212 -1.7564
# 4 2.3332 -1.5554 -1.2990 26.5400 0.7585 -5.1193
# 5 21.4600 8.2848 -0.8212 0.7585 40.3844 0.5709
# 6 -8.3261 -7.6104 -1.7564 -5.1193 0.5709 44.9307
#
#
#
# Elastic Compliance Matrix: (Units=1/GPa)
#
#
# Indices 1 2 3 4 5 6 
#
# 1 0.008822 -0.003248 -0.002854 -0.000809 -0.004078 0.000933
# 2 -0.003248 0.011437 -0.002251 0.001133 -0.000707 0.001385
# 3 -0.002854 -0.002251 0.012752 0.000608 0.002231 -0.000371
# 4 -0.000809 0.001133 0.000608 0.038728 -0.000581 0.004486
# 5 -0.004078 -0.000707 0.002231 -0.000581 0.027147 -0.001199
# 6 0.000933 0.001385 -0.000371 0.004486 -0.001199 0.023176
#
#
# Mechanical properties :
#
#
# Convention : Reuss Voigt Hill
#
# Bulk Modulus (GPa) = 61.32542 68.19223 64.75883
# Shear Modulus (GPa) = 34.67351 38.06217 36.36784
#
# Velocity S-wave (km/s) = 4.01246 4.20396 4.10933
# Velocity P-wave (km/s) = 7.06693 7.43155 7.25153
#
# Compressibility (1/GPa) = 0.01630645
#
# Stress axis : x y z
#
# Youngs Moduli (GPa) = 113.35090 87.43472 78.42075
#
# Poissons Ratio (x) = 0.28395 0.22378
# Poissons Ratio (y) = 0.36812 0.17654
# Poissons Ratio (z) = 0.32345 0.19683
#
# Static dielectric constant tensor:
#      x y z
#    x 4.567100 -0.016080 0.285780 
#    y -0.016080 3.900820 0.081780 
#    z 0.285780 0.081780 4.014200 
# 
# 
# High freq. dielectric constant tensor:
#      x y z
#    x 1.868840 -0.006880 0.000100 
#    y -0.006880 1.828950 -0.000910 
#    z 0.000100 -0.000910 1.851190 
# 
# From -- ./inp_files/80999.got.cif
#   From: 2010.06.25/outbox.cif.g09.slc.cpg/sg2_41_cif.got.tgz:80999.got - 2010.06.27 13:26:56.
