data_PCOD8030949
_publ_section_title
;
Structure prediction by ZEFSAII (Michael W. Deem and Ramdas Pophale) SiO2 
 PCOD8030949
Probable space group: P -1
;
_chemical_formula_sum "Si O2"
_cell_formula_units_Z 14
_cell_length_a 25.563995
_cell_length_b 9.007062
_cell_length_c 9.197944
_cell_angle_alpha 132.222937
_cell_angle_beta 30.651568
_cell_angle_gamma 142.328928
_cell_volume 659.583176
_symmetry_space_group_name_H-M "P -1"
_symmetry_group_IT_number 2
_symmetry_cell_setting 'triclinic'
loop_
_space_group_symop_operation_xyz
x,y,z
-x,-y,-z
loop_
_atom_site_type_symbol
_atom_site_label
_atom_site_fract_x
_atom_site_fract_y
_atom_site_fract_z
Si Si1 0.232332 0.524054 0.780489
Si Si2 0.873688 0.243138 0.655053
Si Si3 0.267837 0.458590 0.198589
Si Si4 0.690901 0.063199 0.711179
Si Si5 0.067845 0.146310 0.687132
Si Si6 0.551388 0.359039 0.858646
Si Si7 0.220747 0.200033 0.847531
O O1 0.119803 0.304434 0.813286
O O2 0.361813 0.662256 0.476429
O O3 0.239846 0.413550 0.840813
O O4 0.206868 0.728225 0.012508
O O5 0.803946 0.153951 0.610192
O O6 0.000000 0.500000 0.500000
O O7 0.901027 0.053810 0.523593
O O8 0.302203 0.720462 0.244533
O O9 0.131245 0.314060 0.503772
O O10 0.368121 0.487217 0.092828
O O11 0.270398 0.312037 0.960824
O O12 0.695953 0.891746 0.467717
O O13 0.560651 0.910871 0.007792
O O14 0.922083 0.026184 0.950839
O O15 0.500000 0.500000 0.000000
#
# Coordination Sequence:
#
# PCOD8030949 Si02
#       7
#     2   2   2   2   2   2   2
#     4  11  22  41  68  99 128 173 218 264 323 378
#     4  12  22  39  70 100 128 170 218 264 320 385
#     4  11  26  43  63  97 133 170 217 268 327 385
#     4  12  24  42  67  96 135 172 214 269 322 381
#     4  11  23  42  66  99 138 168 215 269 315 392
#     4  11  24  47  68  92 129 171 222 274 316 384
#     4  12  22  41  69  98 133 173 213 266 329 378
#
# _framework density 21.225528000000001
#
# number of rings (size 3 to 8) (size 9 to 14) (size 15 to 20)
#    0.000    0.571    5.714    3.000    0.000    4.000 
#    0.000    0.000    0.000    0.000    0.000    0.000 
#    0.000    0.000    0.000    0.000    0.000    0.000 
#
# Total GULP energy -173702.382094 kJ/mol
# GULP energy per Si atom -12407.313007 kJ/mol
# Density = 2.117722 g / cm^3
# Si number density = 21.225528 Si / 1000 Ang^3
#
#
#
# Elastic Constant Matrix: (Units=GPa)
#
#
# Indices 1 2 3 4 5 6 
#
# 1 84.4239 26.1715 37.0055 -12.8063 17.9362 4.5574
# 2 26.1715 77.6160 32.1065 -10.1774 6.4914 -16.7392
# 3 37.0055 32.1065 112.9799 -5.5000 8.0257 -0.6504
# 4 -12.8063 -10.1774 -5.5000 51.8631 1.0314 4.1487
# 5 17.9362 6.4914 8.0257 1.0314 30.4399 1.7826
# 6 4.5574 -16.7392 -0.6504 4.1487 1.7826 34.9793
#
#
#
# Elastic Compliance Matrix: (Units=1/GPa)
#
#
# Indices 1 2 3 4 5 6 
#
# 1 0.017259 -0.004019 -0.003780 0.003575 -0.008188 -0.004249
# 2 -0.004019 0.017923 -0.003578 0.001454 -0.001082 0.008917
# 3 -0.003780 -0.003578 0.011072 -0.000386 0.000141 -0.000975
# 4 0.003575 0.001454 -0.000386 0.020632 -0.002892 -0.002077
# 5 -0.008188 -0.001082 0.000141 -0.002892 0.038029 -0.001043
# 6 -0.004249 0.008917 -0.000975 -0.002077 -0.001043 0.033690
#
#
# Mechanical properties :
#
#
# Convention : Reuss Voigt Hill
#
# Bulk Modulus (GPa) = 42.55229 51.73186 47.14208
# Shear Modulus (GPa) = 29.55223 35.43891 32.49557
#
# Velocity S-wave (km/s) = 3.73540 4.09055 3.91700
# Velocity P-wave (km/s) = 6.22057 6.83634 6.53571
#
# Compressibility (1/GPa) = 0.02350050
#
# Stress axis : x y z
#
# Youngs Moduli (GPa) = 57.94144 55.79306 90.32189
#
# Poissons Ratio (x) = 0.22422 0.34139
# Poissons Ratio (y) = 0.23285 0.32319
# Poissons Ratio (z) = 0.21900 0.19964
#
# Static dielectric constant tensor:
#      x y z
#    x 3.875110 0.032700 0.139560 
#    y 0.032700 3.949480 -0.054060 
#    z 0.139560 -0.054060 4.044710 
# 
# 
# High freq. dielectric constant tensor:
#      x y z
#    x 1.834090 0.003560 0.009820 
#    y 0.003560 1.838930 -0.005640 
#    z 0.009820 -0.005640 1.842570 
# 
# From -- ./inp_files/171869.got.cif
#   From: 2010.06.25/outbox.cif.g09.slc.cpg/sg2_86_cif.got.tgz:171869.got - 2010.06.27 13:26:56.
