data_PCOD8030957
_publ_section_title
;
Structure prediction by ZEFSAII (Michael W. Deem and Ramdas Pophale) SiO2 
 PCOD8030957
Probable space group: P -1
;
_chemical_formula_sum "Si O2"
_cell_formula_units_Z 16
_cell_length_a 16.590569
_cell_length_b 14.979485
_cell_length_c 9.178101
_cell_angle_alpha 140.133166
_cell_angle_beta 148.365338
_cell_angle_gamma 40.405149
_cell_volume 726.228569
_symmetry_space_group_name_H-M "P -1"
_symmetry_group_IT_number 2
_symmetry_cell_setting 'triclinic'
loop_
_space_group_symop_operation_xyz
x,y,z
-x,-y,-z
loop_
_atom_site_type_symbol
_atom_site_label
_atom_site_fract_x
_atom_site_fract_y
_atom_site_fract_z
Si Si1 0.652751 0.347752 0.294171
Si Si2 0.808683 0.580137 0.833616
Si Si3 0.708964 0.603573 0.206775
Si Si4 0.165026 0.978463 0.815109
Si Si5 0.277144 0.956047 0.284623
Si Si6 0.204148 0.684345 0.838782
Si Si7 0.346195 0.199598 0.365750
Si Si8 0.159489 0.251667 0.646906
O O1 0.737628 0.456813 0.634123
O O2 0.729497 0.185177 0.271055
O O3 0.673089 0.356941 0.161246
O O4 0.466918 0.394959 0.115298
O O5 0.707043 0.649555 0.619922
O O6 0.763169 0.718369 0.045998
O O7 0.000000 0.500000 0.000000
O O8 0.784399 0.445466 0.195923
O O9 0.694870 0.744379 0.462867
O O10 0.826165 0.620027 0.278488
O O11 0.164390 0.993390 0.010847
O O12 0.000000 0.000000 0.500000
O O13 0.241848 0.098603 0.023621
O O14 0.466645 0.898072 0.466246
O O15 0.247830 0.091060 0.518206
O O16 0.234362 0.824663 0.139505
O O17 0.020988 0.733271 0.563246
#
# Coordination Sequence:
#
# PCOD8030957 Si02
#       8
#     2   2   2   2   2   2   2   2
#     4  11  22  42  71  96 132 180 234 278 339 414
#     4  12  25  44  69 100 143 185 232 284 348 411
#     4  12  22  43  73 103 130 180 237 284 340 407
#     4  11  23  39  68 105 137 174 227 287 337 405
#     4  11  24  44  71 102 136 185 233 281 344 415
#     4  11  22  41  69 101 130 178 232 282 335 411
#     4  12  22  43  75 100 136 189 234 273 344 428
#     4  12  26  43  66 101 149 177 227 293 343 404
#
# _framework density 22.031631000000001
#
# number of rings (size 3 to 8) (size 9 to 14) (size 15 to 20)
#    0.000    0.500    6.250    3.750    1.750    1.000 
#    2.250    0.000    0.000    0.000    0.000    0.000 
#    0.000    0.000    0.000    0.000    0.000    0.000 
#
# Total GULP energy -198302.519796 kJ/mol
# GULP energy per Si atom -12393.907487 kJ/mol
# Density = 2.198149 g / cm^3
# Si number density = 22.031631 Si / 1000 Ang^3
#
#
#
# Elastic Constant Matrix: (Units=GPa)
#
#
# Indices 1 2 3 4 5 6 
#
# 1 52.9682 6.7230 25.9532 7.2241 4.7125 -1.9667
# 2 6.7230 88.5296 38.9647 16.6817 -1.4898 -0.5327
# 3 25.9532 38.9647 143.3716 18.9023 10.1909 -6.5126
# 4 7.2241 16.6817 18.9023 47.8776 3.2853 7.0826
# 5 4.7125 -1.4898 10.1909 3.2853 37.6619 12.3257
# 6 -1.9667 -0.5327 -6.5126 7.0826 12.3257 20.1153
#
#
#
# Elastic Compliance Matrix: (Units=1/GPa)
#
#
# Indices 1 2 3 4 5 6 
#
# 1 0.021119 0.000231 -0.003228 -0.002325 -0.002703 0.003501
# 2 0.000231 0.013454 -0.003424 -0.003396 0.001968 -0.000740
# 3 -0.003228 -0.003424 0.009398 -0.002647 -0.004017 0.006030
# 4 -0.002325 -0.003396 -0.002647 0.024995 0.002448 -0.011475
# 5 -0.002703 0.001968 -0.004017 0.002448 0.035797 -0.024310
# 6 0.003501 -0.000740 0.006030 -0.011475 -0.024310 0.070925
#
#
# Mechanical properties :
#
#
# Convention : Reuss Voigt Hill
#
# Bulk Modulus (GPa) = 32.12496 47.57236 39.84866
# Shear Modulus (GPa) = 25.13738 35.34620 30.24179
#
# Velocity S-wave (km/s) = 3.38149 4.00976 3.70895
# Velocity P-wave (km/s) = 5.46433 6.56333 6.03888
#
# Compressibility (1/GPa) = 0.03112845
#
# Stress axis : x y z
#
# Youngs Moduli (GPa) = 47.35039 74.32883 106.40407
#
# Poissons Ratio (x) = -0.01714 0.34348
# Poissons Ratio (y) = -0.01092 0.36431
# Poissons Ratio (z) = 0.15285 0.25449
#
# Static dielectric constant tensor:
#      x y z
#    x 3.766180 0.015400 0.234350 
#    y 0.015400 4.242510 0.244970 
#    z 0.234350 0.244970 4.259540 
# 
# 
# High freq. dielectric constant tensor:
#      x y z
#    x 1.843270 0.006090 0.021780 
#    y 0.006090 1.877470 0.020480 
#    z 0.021780 0.020480 1.879250 
# 
# From -- ./inp_files/189923.got.cif
#   From: 2010.06.25/outbox.cif.g09.slc.cpg/sg2_95_cif.got.tgz:189923.got - 2010.06.27 13:26:56.
