data_PCOD8030873
_publ_section_title
;
Structure prediction by ZEFSAII (Michael W. Deem and Ramdas Pophale) SiO2 
 PCOD8030873
Probable space group: P -1
;
_chemical_formula_sum "Si O2"
_cell_formula_units_Z 16
_cell_length_a 12.425884
_cell_length_b 14.828363
_cell_length_c 16.128670
_cell_angle_alpha 142.949109
_cell_angle_beta 154.094624
_cell_angle_gamma 40.393164
_cell_volume 771.418867
_symmetry_space_group_name_H-M "P -1"
_symmetry_group_IT_number 2
_symmetry_cell_setting 'triclinic'
loop_
_space_group_symop_operation_xyz
x,y,z
-x,-y,-z
loop_
_atom_site_type_symbol
_atom_site_label
_atom_site_fract_x
_atom_site_fract_y
_atom_site_fract_z
Si Si1 0.787213 0.019115 0.138659
Si Si2 0.132888 0.309851 0.022894
Si Si3 0.766532 0.177247 0.769015
Si Si4 0.490836 0.887878 0.143484
Si Si5 0.952445 0.142658 0.510092
Si Si6 0.258544 0.620639 0.337037
Si Si7 0.134514 0.830438 0.984183
Si Si8 0.385856 0.215355 0.394809
O O1 0.809195 0.110250 0.304247
O O2 0.592131 0.117515 0.013946
O O3 0.057557 0.980802 0.252022
O O4 0.695809 0.857943 0.980094
O O5 0.297715 0.440444 0.252096
O O6 0.913657 0.314113 0.943756
O O7 0.998921 0.332854 0.857799
O O8 0.503799 0.188084 0.547886
O O9 0.713856 0.182786 0.834218
O O10 0.779442 0.814558 0.296843
O O11 0.443253 0.062546 0.268290
O O12 0.334256 0.785203 0.015870
O O13 0.775461 0.284511 0.532456
O O14 0.000000 0.000000 0.500000
O O15 0.499353 0.655100 0.479199
O O16 0.912232 0.729508 0.759807
O O17 0.000000 0.000000 0.000000
#
# Coordination Sequence:
#
# PCOD8030873 Si02
#       8
#     2   2   2   2   2   2   2   2
#     4  10  19  34  53  79 110 135 175 213 263 312
#     4   8  16  33  54  79 105 133 182 214 254 313
#     4   9  16  31  52  76 103 133 170 222 262 295
#     4  11  21  33  50  78 110 141 171 215 267 314
#     4  12  20  36  53  76 114 143 165 212 266 318
#     4  10  18  32  55  79 108 141 172 210 264 314
#     4  10  19  30  49  76 107 134 174 220 264 301
#     4  10  17  31  49  73 107 135 169 218 258 300
#
# _framework density 20.741002999999999
#
# number of rings (size 3 to 8) (size 9 to 14) (size 15 to 20)
#    0.750    1.250    6.250    0.000    0.000    3.500 
#    0.000    2.500    0.000    5.250    0.000    8.750 
#    0.000    0.000    0.000    0.000    0.000    0.000 
#
# Total GULP energy -198311.648458 kJ/mol
# GULP energy per Si atom -12394.478029 kJ/mol
# Density = 2.069380 g / cm^3
# Si number density = 20.741003 Si / 1000 Ang^3
#
#
#
# Elastic Constant Matrix: (Units=GPa)
#
#
# Indices 1 2 3 4 5 6 
#
# 1 109.4020 33.6209 76.0250 -6.9429 -5.5754 17.2654
# 2 33.6209 39.4664 36.0023 2.8739 -12.4347 7.9563
# 3 76.0250 36.0023 126.8292 0.4623 -10.9287 8.5187
# 4 -6.9429 2.8739 0.4623 26.6405 6.4151 -2.7806
# 5 -5.5754 -12.4347 -10.9287 6.4151 42.3100 -13.1484
# 6 17.2654 7.9563 8.5187 -2.7806 -13.1484 18.8211
#
#
#
# Elastic Compliance Matrix: (Units=1/GPa)
#
#
# Indices 1 2 3 4 5 6 
#
# 1 0.021411 -0.009136 -0.009914 0.007102 -0.008538 -0.016207
# 2 -0.009136 0.042537 -0.005557 -0.009622 0.011083 -0.000765
# 3 -0.009914 -0.005557 0.015266 -0.002384 0.003404 0.006559
# 4 0.007102 -0.009622 -0.002384 0.042575 -0.009495 -0.001711
# 5 -0.008538 0.011083 0.003404 -0.009495 0.035955 0.025322
# 6 -0.016207 -0.000765 0.006559 -0.001711 0.025322 0.082791
#
#
# Mechanical properties :
#
#
# Convention : Reuss Voigt Hill
#
# Bulk Modulus (GPa) = 33.33286 62.99935 48.16610
# Shear Modulus (GPa) = 16.68072 26.22426 21.45249
#
# Velocity S-wave (km/s) = 2.83899 3.55965 3.21955
# Velocity P-wave (km/s) = 5.18193 6.88005 6.09046
#
# Compressibility (1/GPa) = 0.03000043
#
# Stress axis : x y z
#
# Youngs Moduli (GPa) = 46.70550 23.50918 65.50429
#
# Poissons Ratio (x) = 0.21477 0.64941
# Poissons Ratio (y) = 0.42668 0.36401
# Poissons Ratio (z) = 0.46304 0.13064
#
# Static dielectric constant tensor:
#      x y z
#    x 4.038800 0.201570 0.302540 
#    y 0.201570 3.239820 -0.111570 
#    z 0.302540 -0.111570 3.992270 
# 
# 
# High freq. dielectric constant tensor:
#      x y z
#    x 1.808770 0.023310 0.002310 
#    y 0.023310 1.753370 -0.025300 
#    z 0.002310 -0.025300 1.817570 
# 
# From -- ./inp_files/522534.got.cif
#   From: 2010.06.25/outbox.cif.g09.slc.cpg/sg2_262_cif.got.tgz:522534.got - 2010.06.27 13:26:56.
