data_PCOD8030649
_publ_section_title
;
Structure prediction by ZEFSAII (Michael W. Deem and Ramdas Pophale) SiO2 
 PCOD8030649
Probable space group: P -1
;
_chemical_formula_sum "Si O2"
_cell_formula_units_Z 16
_cell_length_a 12.154495
_cell_length_b 11.446717
_cell_length_c 5.885000
_cell_angle_alpha 105.281288
_cell_angle_beta 95.365201
_cell_angle_gamma 57.524973
_cell_volume 665.156547
_symmetry_space_group_name_H-M "P -1"
_symmetry_group_IT_number 2
_symmetry_cell_setting 'triclinic'
loop_
_space_group_symop_operation_xyz
x,y,z
-x,-y,-z
loop_
_atom_site_type_symbol
_atom_site_label
_atom_site_fract_x
_atom_site_fract_y
_atom_site_fract_z
Si Si1 0.182978 0.307947 0.205880
Si Si2 0.391107 0.798075 0.621756
Si Si3 0.528196 0.542723 0.777683
Si Si4 0.798431 0.470276 0.922700
Si Si5 0.998139 0.798815 0.924968
Si Si6 0.894742 0.075545 0.323756
Si Si7 0.609289 0.928283 0.169282
Si Si8 0.634566 0.704335 0.373369
O O1 0.288001 0.274888 0.400468
O O2 0.069840 0.279978 0.244498
O O3 0.128336 0.466949 0.175935
O O4 0.251964 0.196806 0.958959
O O5 0.439846 0.718551 0.838417
O O6 0.250127 0.823967 0.545528
O O7 0.511325 0.692145 0.420123
O O8 0.371397 0.951030 0.666750
O O9 0.500000 0.500000 0.500000
O O10 0.500000 0.500000 0.000000
O O11 0.681669 0.482558 0.758414
O O12 0.902512 0.305998 0.916259
O O13 0.734740 0.561839 0.185597
O O14 0.078350 0.817001 0.751628
O O15 0.899273 0.954841 0.097176
O O16 0.000000 0.000000 0.500000
O O17 0.566350 0.855071 0.307448
O O18 0.500000 0.000000 0.000000
#
# Coordination Sequence:
#
# PCOD8030649 Si02
#       8
#     2   2   2   2   2   2   2   2
#     4  11  23  43  73 104 140 186 242 305 375 440
#     4  12  23  46  72 105 142 187 243 307 373 440
#     4  12  27  47  74 109 151 199 251 315 376 453
#     4  11  25  47  70 110 145 185 249 299 382 443
#     4  11  26  49  70 100 146 193 242 302 364 455
#     4  11  28  46  70 101 140 196 244 292 366 451
#     4  11  22  39  66 108 142 178 233 302 380 446
#     4  11  24  42  71 110 143 184 239 314 379 443
#
# _framework density 24.054487999999999
#
# number of rings (size 3 to 8) (size 9 to 14) (size 15 to 20)
#    0.000    0.750    3.750    3.000    3.500    1.500 
#    4.500    0.000    0.000    0.000    0.000    0.000 
#    0.000    0.000    0.000    0.000    0.000    0.000 
#
# Total GULP energy -198232.021055 kJ/mol
# GULP energy per Si atom -12389.501316 kJ/mol
# Density = 2.399974 g / cm^3
# Si number density = 24.054488 Si / 1000 Ang^3
#
#
#
# Elastic Constant Matrix: (Units=GPa)
#
#
# Indices 1 2 3 4 5 6 
#
# 1 175.4500 46.0505 45.4019 -19.2860 4.6613 8.2600
# 2 46.0505 133.6956 25.7360 -32.7061 -8.7744 14.6327
# 3 45.4019 25.7360 93.6641 -13.6537 4.7002 13.7501
# 4 -19.2860 -32.7061 -13.6537 45.1080 0.2629 0.0827
# 5 4.6613 -8.7744 4.7002 0.2629 27.4030 -10.8417
# 6 8.2600 14.6327 13.7501 0.0827 -10.8417 41.8773
#
#
#
# Elastic Compliance Matrix: (Units=1/GPa)
#
#
# Indices 1 2 3 4 5 6 
#
# 1 0.006997 -0.001730 -0.002671 0.000938 -0.001399 -0.000263
# 2 -0.001730 0.010236 -0.000847 0.006414 0.002763 -0.002255
# 3 -0.002671 -0.000847 0.013421 0.002338 -0.003967 -0.004616
# 4 0.000938 0.006414 0.002338 0.027934 -0.000067 -0.003266
# 5 -0.001399 0.002763 -0.003967 -0.000067 0.042937 0.011729
# 6 -0.000263 -0.002255 -0.004616 -0.003266 0.011729 0.029278
#
#
# Mechanical properties :
#
#
# Convention : Reuss Voigt Hill
#
# Bulk Modulus (GPa) = 49.60489 70.79850 60.20170
# Shear Modulus (GPa) = 33.77963 41.91906 37.84934
#
# Velocity S-wave (km/s) = 3.75146 4.17906 3.97102
# Velocity P-wave (km/s) = 6.27943 7.26516 6.79020
#
# Compressibility (1/GPa) = 0.02015930
#
# Stress axis : x y z
#
# Youngs Moduli (GPa) = 142.90889 97.69889 74.50758
#
# Poissons Ratio (x) = 0.16899 0.19902
# Poissons Ratio (y) = 0.24719 0.06309
# Poissons Ratio (z) = 0.38173 0.08272
#
# Static dielectric constant tensor:
#      x y z
#    x 4.242570 0.229220 -0.247980 
#    y 0.229220 4.998960 -0.382140 
#    z -0.247980 -0.382140 4.450230 
# 
# 
# High freq. dielectric constant tensor:
#      x y z
#    x 1.962120 0.017650 -0.000770 
#    y 0.017650 1.977810 -0.010380 
#    z -0.000770 -0.010380 1.938720 
# 
# From -- ./inp_files/71358.got.cif
#   From: 2010.06.25/outbox.cif.g09.slc.cpg/sg2_36_cif.got.tgz:71358.got - 2010.06.27 13:26:56.
