data_PCOD8030630
_publ_section_title
;
Structure prediction by ZEFSAII (Michael W. Deem and Ramdas Pophale) SiO2 
 PCOD8030630
Probable space group: P -1
;
_chemical_formula_sum "Si O2"
_cell_formula_units_Z 16
_cell_length_a 6.750686
_cell_length_b 18.569036
_cell_length_c 18.514716
_cell_angle_alpha 23.199734
_cell_angle_beta 99.497602
_cell_angle_gamma 88.207310
_cell_volume 795.533797
_symmetry_space_group_name_H-M "P -1"
_symmetry_group_IT_number 2
_symmetry_cell_setting 'triclinic'
loop_
_space_group_symop_operation_xyz
x,y,z
-x,-y,-z
loop_
_atom_site_type_symbol
_atom_site_label
_atom_site_fract_x
_atom_site_fract_y
_atom_site_fract_z
Si Si1 0.059128 0.319921 0.070668
Si Si2 0.458736 0.373413 0.790249
Si Si3 0.080574 0.567092 0.709655
Si Si4 0.625009 0.608511 0.867197
Si Si5 0.522392 0.023148 0.866679
Si Si6 0.418997 0.285850 0.487439
Si Si7 0.759156 0.682121 0.297968
Si Si8 0.715641 0.147538 0.493655
O O1 0.254430 0.312155 0.141763
O O2 0.093114 0.089533 0.276911
O O3 0.080779 0.400930 0.919031
O O4 0.807360 0.454540 0.962693
O O5 0.246301 0.455318 0.756653
O O6 0.613585 0.481640 0.717257
O O7 0.370082 0.426558 0.652498
O O8 0.591576 0.120393 0.037128
O O9 0.153350 0.717104 0.618546
O O10 0.828188 0.700751 0.538885
O O11 0.431260 0.802555 0.634242
O O12 0.500000 0.500000 0.000000
O O13 0.576191 0.129897 0.703602
O O14 0.354048 0.211186 0.732759
O O15 0.747516 0.863841 0.073887
O O16 0.543696 0.189430 0.510013
O O17 0.000000 0.500000 0.500000
#
# Coordination Sequence:
#
# PCOD8030630 Si02
#       8
#     2   2   2   2   2   2   2   2
#     4  11  24  41  66  92 121 165 207 248 322 363
#     4   9  21  38  60  90 126 157 206 252 302 361
#     4  11  22  40  62  91 125 164 208 254 301 371
#     4  11  23  44  65  92 128 155 208 265 300 371
#     4   9  20  38  62  89 124 163 199 255 308 353
#     4  11  22  39  64  89 127 166 206 252 305 367
#     4   9  18  39  64  90 125 158 204 257 301 363
#     4  11  24  42  63  94 123 164 210 252 311 365
#
# _framework density 20.112283000000001
#
# number of rings (size 3 to 8) (size 9 to 14) (size 15 to 20)
#    0.750    1.000    2.500    1.875    0.000    3.000 
#    0.000    1.875    0.000    0.000    0.000    0.000 
#    0.000    0.000    0.000    0.000    0.000    0.000 
#
# Total GULP energy -198266.273560 kJ/mol
# GULP energy per Si atom -12391.642098 kJ/mol
# Density = 2.006651 g / cm^3
# Si number density = 20.112283 Si / 1000 Ang^3
#
#
#
# Elastic Constant Matrix: (Units=GPa)
#
#
# Indices 1 2 3 4 5 6 
#
# 1 75.9904 13.0303 26.0264 5.1580 -0.2325 3.6317
# 2 13.0303 65.1875 26.5253 -4.2415 -1.1277 -0.8067
# 3 26.0264 26.5253 115.6929 5.4015 -2.5738 -7.5691
# 4 5.1580 -4.2415 5.4015 36.5851 -4.2763 -5.8154
# 5 -0.2325 -1.1277 -2.5738 -4.2763 28.3639 6.5925
# 6 3.6317 -0.8067 -7.5691 -5.8154 6.5925 15.8429
#
#
#
# Elastic Compliance Matrix: (Units=1/GPa)
#
#
# Indices 1 2 3 4 5 6 
#
# 1 0.015102 -0.001956 -0.003223 -0.002813 0.000836 -0.006482
# 2 -0.001956 0.017429 -0.003654 0.002980 0.000704 0.000391
# 3 -0.003223 -0.003654 0.010593 -0.000714 -0.000622 0.005610
# 4 -0.002813 0.002980 -0.000714 0.030117 0.002099 0.010637
# 5 0.000836 0.000704 -0.000622 0.002099 0.039276 -0.016026
# 6 -0.006482 0.000391 0.005610 0.010637 -0.016026 0.077879
#
#
# Mechanical properties :
#
#
# Convention : Reuss Voigt Hill
#
# Bulk Modulus (GPa) = 39.28010 43.11497 41.19753
# Shear Modulus (GPa) = 23.08955 28.91095 26.00025
#
# Velocity S-wave (km/s) = 3.39194 3.79552 3.59939
# Velocity P-wave (km/s) = 5.90873 6.37900 6.14836
#
# Compressibility (1/GPa) = 0.02545819
#
# Stress axis : x y z
#
# Youngs Moduli (GPa) = 66.21604 57.37533 94.40254
#
# Poissons Ratio (x) = 0.11223 0.30426
# Poissons Ratio (y) = 0.12952 0.34494
# Poissons Ratio (z) = 0.21342 0.20964
#
# Static dielectric constant tensor:
#      x y z
#    x 3.377840 -0.089940 -0.117620 
#    y -0.089940 4.885060 0.613130 
#    z -0.117620 0.613130 4.045320 
# 
# 
# High freq. dielectric constant tensor:
#      x y z
#    x 1.756590 -0.007810 -0.006760 
#    y -0.007810 1.805730 0.003180 
#    z -0.006760 0.003180 1.790820 
# 
# From -- ./inp_files/584294.got.cif
#   From: 2010.06.25/outbox.cif.g09.slc.cpg/sg2_293_cif.got.tgz:584294.got - 2010.06.27 13:26:56.
