data_PCOD8030270
_publ_section_title
;
Structure prediction by ZEFSAII (Michael W. Deem and Ramdas Pophale) SiO2 
 PCOD8030270
Probable space group: P -1
;
_chemical_formula_sum "Si O2"
_cell_formula_units_Z 16
_cell_length_a 13.288393
_cell_length_b 13.497897
_cell_length_c 8.554236
_cell_angle_alpha 52.669334
_cell_angle_beta 94.334783
_cell_angle_gamma 134.878245
_cell_volume 674.682946
_symmetry_space_group_name_H-M "P -1"
_symmetry_group_IT_number 2
_symmetry_cell_setting 'triclinic'
loop_
_space_group_symop_operation_xyz
x,y,z
-x,-y,-z
loop_
_atom_site_type_symbol
_atom_site_label
_atom_site_fract_x
_atom_site_fract_y
_atom_site_fract_z
Si Si1 0.294297 0.101033 0.216289
Si Si2 0.202255 0.625771 0.988350
Si Si3 0.638779 0.587884 0.693975
Si Si4 0.011822 0.025380 0.793352
Si Si5 0.539314 0.755262 0.567631
Si Si6 0.477471 0.940547 0.231494
Si Si7 0.847446 0.303016 0.405054
Si Si8 0.821124 0.649363 0.926271
O O1 0.334054 0.118381 0.386296
O O2 0.212559 0.889904 0.343897
O O3 0.473031 0.320224 0.926922
O O4 0.146833 0.055761 0.219094
O O5 0.129106 0.414967 0.122040
O O6 0.068687 0.536187 0.200542
O O7 0.208468 0.732088 0.747735
O O8 0.409631 0.835938 0.874345
O O9 0.791036 0.710472 0.466153
O O10 0.566568 0.651521 0.583937
O O11 0.735026 0.676156 0.791551
O O12 0.992024 0.874264 0.836299
O O13 0.000000 0.000000 0.000000
O O14 0.577460 0.910736 0.307596
O O15 0.328898 0.555907 0.777102
O O16 0.264808 0.717340 0.476385
O O17 0.500000 0.000000 0.000000
#
# Coordination Sequence:
#
# PCOD8030270 Si02
#       8
#     2   2   2   2   2   2   2   2
#     4  11  22  45  70 102 138 179 239 290 337 424
#     4  11  24  44  74 103 132 194 241 290 342 423
#     4  11  23  41  74  99 133 190 235 281 350 422
#     4  12  27  44  67 108 146 178 228 293 357 417
#     4  11  21  43  73  99 136 185 234 286 345 420
#     4  12  26  47  71 106 148 182 230 303 361 413
#     4  11  24  43  72 102 137 188 248 283 341 424
#     4  11  21  45  72 101 137 181 241 286 336 427
#
# _framework density 23.714842000000001
#
# number of rings (size 3 to 8) (size 9 to 14) (size 15 to 20)
#    0.000    0.750    5.000    3.750    1.750    2.000 
#    6.750    0.000    0.000    0.000    0.000    0.000 
#    0.000    0.000    0.000    0.000    0.000    0.000 
#
# Total GULP energy -198262.038948 kJ/mol
# GULP energy per Si atom -12391.377434 kJ/mol
# Density = 2.366087 g / cm^3
# Si number density = 23.714842 Si / 1000 Ang^3
#
#
#
# Elastic Constant Matrix: (Units=GPa)
#
#
# Indices 1 2 3 4 5 6 
#
# 1 89.4935 32.2928 64.0957 6.0086 4.3258 10.2602
# 2 32.2928 46.6387 39.6726 8.8411 10.8650 -1.2773
# 3 64.0957 39.6726 159.7450 18.4354 -4.6541 6.5902
# 4 6.0086 8.8411 18.4354 22.6047 1.2210 4.9295
# 5 4.3258 10.8650 -4.6541 1.2210 51.8451 -4.5180
# 6 10.2602 -1.2773 6.5902 4.9295 -4.5180 21.9585
#
#
#
# Elastic Compliance Matrix: (Units=1/GPa)
#
#
# Indices 1 2 3 4 5 6 
#
# 1 0.019512 -0.009707 -0.005678 0.005346 -0.001048 -0.009393
# 2 -0.009707 0.035223 -0.004319 -0.009254 -0.005981 0.008727
# 3 -0.005678 -0.004319 0.010282 -0.005559 0.002527 0.001084
# 4 0.005346 -0.009254 -0.005559 0.054062 -0.001482 -0.013809
# 5 -0.001048 -0.005981 0.002527 -0.001482 0.021247 0.004088
# 6 -0.009393 0.008727 0.001084 -0.013809 0.004088 0.054053
#
#
# Mechanical properties :
#
#
# Convention : Reuss Voigt Hill
#
# Bulk Modulus (GPa) = 39.05005 63.11104 51.08054
# Shear Modulus (GPa) = 20.63359 29.93607 25.28483
#
# Velocity S-wave (km/s) = 2.95290 3.55679 3.26882
# Velocity P-wave (km/s) = 5.30362 6.59833 5.98608
#
# Compressibility (1/GPa) = 0.02560816
#
# Stress axis : x y z
#
# Youngs Moduli (GPa) = 51.25058 28.39052 97.26199
#
# Poissons Ratio (x) = 0.27557 0.55228
# Poissons Ratio (y) = 0.49747 0.42011
# Poissons Ratio (z) = 0.29102 0.12263
#
# Static dielectric constant tensor:
#      x y z
#    x 4.412270 0.174690 0.000630 
#    y 0.174690 3.787360 -0.238750 
#    z 0.000630 -0.238750 4.482240 
# 
# 
# High freq. dielectric constant tensor:
#      x y z
#    x 1.945670 0.014880 0.004490 
#    y 0.014880 1.886440 -0.012120 
#    z 0.004490 -0.012120 1.954820 
# 
# From -- ./inp_files/314684.got.cif
#   From: 2010.06.25/outbox.cif.g09.slc.cpg/sg2_158_cif.got.tgz:314684.got - 2010.06.27 13:26:56.
