data_PCOD8030053
_publ_section_title
;
Structure prediction by ZEFSAII (Michael W. Deem and Ramdas Pophale) SiO2 
 PCOD8030053
Probable space group: P -1
;
_chemical_formula_sum "Si O2"
_cell_formula_units_Z 16
_cell_length_a 17.770088
_cell_length_b 13.843979
_cell_length_c 8.291547
_cell_angle_alpha 73.885170
_cell_angle_beta 83.916961
_cell_angle_gamma 23.391583
_cell_volume 716.371731
_symmetry_space_group_name_H-M "P -1"
_symmetry_group_IT_number 2
_symmetry_cell_setting 'triclinic'
loop_
_space_group_symop_operation_xyz
x,y,z
-x,-y,-z
loop_
_atom_site_type_symbol
_atom_site_label
_atom_site_fract_x
_atom_site_fract_y
_atom_site_fract_z
Si Si1 0.109199 0.524294 0.557559
Si Si2 0.429715 0.270081 0.764682
Si Si3 0.413052 0.982999 0.836676
Si Si4 0.191391 0.517802 0.218058
Si Si5 0.830171 0.032027 0.851015
Si Si6 0.305250 0.928182 0.430048
Si Si7 0.307289 0.593696 0.217728
Si Si8 0.488467 0.349559 0.965442
O O1 0.233006 0.463075 0.639091
O O2 0.211573 0.291382 0.686047
O O3 0.111606 0.536919 0.358569
O O4 0.876589 0.805964 0.540049
O O5 0.599049 0.094480 0.675590
O O6 0.361464 0.454493 0.796700
O O7 0.533682 0.062775 0.963938
O O8 0.600575 0.782801 0.768734
O O9 0.378343 0.905317 0.860825
O O10 0.218244 0.592372 0.266144
O O11 0.032385 0.726781 0.010661
O O12 0.850774 0.128193 0.802197
O O13 0.785677 0.044319 0.679522
O O14 0.638476 0.249677 0.913669
O O15 0.474878 0.663797 0.622633
O O16 0.332895 0.585040 0.024514
#
# Coordination Sequence:
#
# PCOD8030053 Si02
#       8
#     2   2   2   2   2   2   2   2
#     4  12  22  40  66  94 131 171 204 253 326 368
#     4   9  20  40  61  90 134 162 206 264 303 365
#     4   9  21  41  63  90 126 174 201 261 315 370
#     4  11  23  41  64  95 127 162 219 258 306 382
#     4  11  22  41  64  92 124 169 209 260 320 371
#     4  11  24  40  65  97 129 161 214 259 309 385
#     4  11  21  42  65  88 128 168 207 265 317 361
#     4   8  20  38  61  88 122 160 215 256 306 365
#
# _framework density 22.334772999999998
#
# number of rings (size 3 to 8) (size 9 to 14) (size 15 to 20)
#    0.750    1.000    1.250    3.375    0.000    0.500 
#    2.250    3.750    0.000    0.000    0.000    0.000 
#    0.000    0.000    0.000    0.000    0.000    0.000 
#
# Total GULP energy -198327.035458 kJ/mol
# GULP energy per Si atom -12395.439716 kJ/mol
# Density = 2.228394 g / cm^3
# Si number density = 22.334773 Si / 1000 Ang^3
#
#
#
# Elastic Constant Matrix: (Units=GPa)
#
#
# Indices 1 2 3 4 5 6 
#
# 1 43.8680 -1.1766 -1.7018 6.8744 1.2288 0.6659
# 2 -1.1766 79.5974 29.6993 9.0656 -17.3866 -5.3456
# 3 -1.7018 29.6993 84.6651 4.2918 -2.2218 -8.5801
# 4 6.8744 9.0656 4.2918 31.9860 -7.7138 -7.8256
# 5 1.2288 -17.3866 -2.2218 -7.7138 31.7011 5.3425
# 6 0.6659 -5.3456 -8.5801 -7.8256 5.3425 18.7977
#
#
#
# Elastic Compliance Matrix: (Units=1/GPa)
#
#
# Indices 1 2 3 4 5 6 
#
# 1 0.023913 0.000377 0.000349 -0.006394 -0.001791 -0.002734
# 2 0.000377 0.016683 -0.005627 -0.002325 0.008375 -0.001186
# 3 0.000349 -0.005627 0.014295 0.000319 -0.003015 0.005902
# 4 -0.006394 -0.002325 0.000319 0.038078 0.005921 0.013880
# 5 -0.001791 0.008375 -0.003015 0.005921 0.038695 -0.007463
# 6 -0.002734 -0.001186 0.005902 0.013880 -0.007463 0.063551
#
#
# Mechanical properties :
#
#
# Convention : Reuss Voigt Hill
#
# Bulk Modulus (GPa) = 22.17919 29.08582 25.63250
# Shear Modulus (GPa) = 22.72245 28.58426 25.65335
#
# Velocity S-wave (km/s) = 3.19306 3.58132 3.39275
# Velocity P-wave (km/s) = 4.85243 5.49109 5.18161
#
# Compressibility (1/GPa) = 0.04508731
#
# Stress axis : x y z
#
# Youngs Moduli (GPa) = 41.81850 59.94181 69.95467
#
# Poissons Ratio (x) = -0.02259 -0.02438
# Poissons Ratio (y) = -0.01576 0.39364
# Poissons Ratio (z) = -0.01458 0.33730
#
# Static dielectric constant tensor:
#      x y z
#    x 3.849480 -0.088230 0.045610 
#    y -0.088230 3.732600 0.218720 
#    z 0.045610 0.218720 4.010320 
# 
# 
# High freq. dielectric constant tensor:
#      x y z
#    x 1.872920 -0.001940 0.003400 
#    y -0.001940 1.862490 0.016800 
#    z 0.003400 0.016800 1.880700 
# 
# From -- ./inp_files/347231.got.cif
#   From: 2010.06.25/outbox.cif.g09.slc.cpg/sg2_174_cif.got.tgz:347231.got - 2010.06.27 13:26:56.
