data_PCOD8030807
_publ_section_title
;
Structure prediction by ZEFSAII (Michael W. Deem and Ramdas Pophale) SiO2 
 PCOD8030807
Probable space group: P -1
;
_chemical_formula_sum "Si O2"
_cell_formula_units_Z 14
_cell_length_a 8.793799
_cell_length_b 16.842013
_cell_length_c 9.309048
_cell_angle_alpha 75.148589
_cell_angle_beta 112.416890
_cell_angle_gamma 148.941814
_cell_volume 650.347455
_symmetry_space_group_name_H-M "P -1"
_symmetry_group_IT_number 2
_symmetry_cell_setting 'triclinic'
loop_
_space_group_symop_operation_xyz
x,y,z
-x,-y,-z
loop_
_atom_site_type_symbol
_atom_site_label
_atom_site_fract_x
_atom_site_fract_y
_atom_site_fract_z
Si Si1 0.131275 0.964414 0.973948
Si Si2 0.107000 0.544688 0.179672
Si Si3 0.833503 0.687346 0.904199
Si Si4 0.196405 0.163480 0.797373
Si Si5 0.146922 0.405777 0.772111
Si Si6 0.145070 0.830382 0.458390
Si Si7 0.819142 0.258494 0.218655
O O1 0.095904 0.870086 0.903823
O O2 0.088551 0.022242 0.821051
O O3 0.844066 0.835302 0.045985
O O4 0.456108 0.105977 0.113022
O O5 0.472850 0.687868 0.228208
O O6 0.032819 0.593286 0.225121
O O7 0.928635 0.392447 0.261669
O O8 0.000000 0.500000 0.000000
O O9 0.501423 0.578924 0.773001
O O10 0.964287 0.664366 0.877453
O O11 0.808461 0.650497 0.077158
O O12 0.005026 0.145460 0.640191
O O13 0.954004 0.286707 0.625898
O O14 0.087247 0.774874 0.624751
O O15 0.500000 0.000000 0.500000
#
# Coordination Sequence:
#
# PCOD8030807 Si02
#       7
#     2   2   2   2   2   2   2
#     4  11  22  40  73 101 129 179 235 281 330 398
#     4  12  23  42  69 102 134 174 231 282 328 396
#     4  11  22  40  69 103 131 174 238 279 328 404
#     4  11  23  41  70  96 135 179 226 276 340 393
#     4  11  24  41  68 100 138 178 224 284 338 396
#     4  12  26  47  67  99 145 180 217 283 352 403
#     4  12  25  42  72  99 138 181 224 280 343 402
#
# _framework density 21.526952000000001
#
# number of rings (size 3 to 8) (size 9 to 14) (size 15 to 20)
#    0.000    0.571    5.714    2.143    2.000    4.000 
#    0.000    2.857    0.000    0.000    0.000    0.000 
#    0.000    0.000    0.000    0.000    0.000    0.000 
#
# Total GULP energy -173455.727196 kJ/mol
# GULP energy per Si atom -12389.694800 kJ/mol
# Density = 2.147796 g / cm^3
# Si number density = 21.526952 Si / 1000 Ang^3
#
#
#
# Elastic Constant Matrix: (Units=GPa)
#
#
# Indices 1 2 3 4 5 6 
#
# 1 115.2129 64.5680 41.6174 21.0799 21.7209 -0.1922
# 2 64.5680 136.6621 42.1723 15.4734 13.7038 -12.6654
# 3 41.6174 42.1723 86.5190 -1.8483 23.6806 -14.5749
# 4 21.0799 15.4734 -1.8483 37.4282 -6.7770 7.2413
# 5 21.7209 13.7038 23.6806 -6.7770 36.0407 -4.5293
# 6 -0.1922 -12.6654 -14.5749 7.2413 -4.5293 43.8383
#
#
#
# Elastic Compliance Matrix: (Units=1/GPa)
#
#
# Indices 1 2 3 4 5 6 
#
# 1 0.015354 -0.004739 -0.003740 -0.007704 -0.006690 -0.001964
# 2 -0.004739 0.010879 -0.002737 -0.002404 0.000399 0.002651
# 3 -0.003740 -0.002737 0.017374 0.002032 -0.007250 0.003884
# 4 -0.007704 -0.002404 0.002032 0.034919 0.010189 -0.004768
# 5 -0.006690 0.000399 -0.007250 0.010189 0.038300 -0.000051
# 6 -0.001964 0.002651 0.003884 -0.004768 -0.000051 0.025642
#
#
# Mechanical properties :
#
#
# Convention : Reuss Voigt Hill
#
# Bulk Modulus (GPa) = 47.22802 70.56769 58.89785
# Shear Modulus (GPa) = 29.07696 36.13052 32.60374
#
# Velocity S-wave (km/s) = 3.67921 4.10125 3.89595
# Velocity P-wave (km/s) = 6.32735 7.43501 6.90343
#
# Compressibility (1/GPa) = 0.02117387
#
# Stress axis : x y z
#
# Youngs Moduli (GPa) = 65.12999 91.92178 57.55841
#
# Poissons Ratio (x) = 0.43561 0.21527
# Poissons Ratio (y) = 0.30865 0.15755
# Poissons Ratio (z) = 0.24359 0.25162
#
# Static dielectric constant tensor:
#      x y z
#    x 3.970590 -0.167710 0.093140 
#    y -0.167710 4.008330 -0.053220 
#    z 0.093140 -0.053220 3.440740 
# 
# 
# High freq. dielectric constant tensor:
#      x y z
#    x 1.854670 -0.005490 0.016430 
#    y -0.005490 1.863250 -0.003270 
#    z 0.016430 -0.003270 1.817860 
# 
# From -- ./inp_files/157121.got.cif
#   From: 2010.06.25/outbox.cif.g09.slc.cpg/sg2_79_cif.got.tgz:157121.got - 2010.06.27 13:26:56.
