data_PCOD8030340
_publ_section_title
;
Structure prediction by ZEFSAII (Michael W. Deem and Ramdas Pophale) SiO2 
 PCOD8030340
Probable space group: P -1
;
_chemical_formula_sum "Si O2"
_cell_formula_units_Z 16
_cell_length_a 9.205118
_cell_length_b 9.546544
_cell_length_c 12.553090
_cell_angle_alpha 54.455237
_cell_angle_beta 56.387639
_cell_angle_gamma 74.306528
_cell_volume 745.353788
_symmetry_space_group_name_H-M "P -1"
_symmetry_group_IT_number 2
_symmetry_cell_setting 'triclinic'
loop_
_space_group_symop_operation_xyz
x,y,z
-x,-y,-z
loop_
_atom_site_type_symbol
_atom_site_label
_atom_site_fract_x
_atom_site_fract_y
_atom_site_fract_z
Si Si1 0.810096 0.470891 0.141244
Si Si2 0.921167 0.789461 0.366485
Si Si3 0.774914 0.629626 0.700977
Si Si4 0.713654 0.239626 0.663044
Si Si5 0.432012 0.096794 0.227921
Si Si6 0.494651 0.335415 0.903873
Si Si7 0.881740 0.522058 0.325681
Si Si8 0.666977 0.084511 0.330074
O O1 0.689587 0.583526 0.068920
O O2 0.804393 0.547425 0.229143
O O3 0.734079 0.271565 0.264933
O O4 0.000000 0.500000 0.000000
O O5 0.816429 0.653822 0.548041
O O6 0.924161 0.706994 0.283824
O O7 0.118517 0.822045 0.314701
O O8 0.830645 0.968127 0.320627
O O9 0.717347 0.805987 0.694917
O O10 0.624400 0.479266 0.843110
O O11 0.944446 0.578100 0.717602
O O12 0.560708 0.270670 0.793467
O O13 0.748146 0.412472 0.504513
O O14 0.647061 0.097664 0.667133
O O15 0.608550 0.102840 0.223368
O O16 0.475972 0.172955 0.060807
O O17 0.500000 0.000000 0.500000
#
# Coordination Sequence:
#
# PCOD8030340 Si02
#       8
#     2   2   2   2   2   2   2   2
#     4  12  29  46  69 105 141 178 231 286 340 410
#     4  11  23  44  71 100 138 168 229 292 332 401
#     4  11  21  44  71  97 131 181 230 275 336 410
#     4  11  25  44  70 104 132 180 235 277 334 413
#     4  12  26  41  70  97 137 185 223 280 345 399
#     4  12  24  47  67  94 143 181 228 274 340 415
#     4  11  24  44  74  98 134 183 224 283 347 393
#     4  12  26  47  69 106 139 178 232 286 337 406
#
# _framework density 21.466318000000001
#
# number of rings (size 3 to 8) (size 9 to 14) (size 15 to 20)
#    0.000    0.500    5.000    3.000    7.000    1.500 
#    0.000    1.250    0.000    0.000    0.000    0.000 
#    0.000    0.000    0.000    0.000    0.000    0.000 
#
# Total GULP energy -198496.165480 kJ/mol
# GULP energy per Si atom -12406.010342 kJ/mol
# Density = 2.141746 g / cm^3
# Si number density = 21.466318 Si / 1000 Ang^3
#
#
#
# Elastic Constant Matrix: (Units=GPa)
#
#
# Indices 1 2 3 4 5 6 
#
# 1 61.9029 8.8041 32.4195 -5.7119 0.3670 1.9915
# 2 8.8041 84.9051 11.5599 6.7501 -8.1379 10.6333
# 3 32.4195 11.5599 85.8915 10.8536 -1.5308 0.4425
# 4 -5.7119 6.7501 10.8536 27.0816 -2.6065 2.1415
# 5 0.3670 -8.1379 -1.5308 -2.6065 35.1044 2.0519
# 6 1.9915 10.6333 0.4425 2.1415 2.0519 46.3921
#
#
#
# Elastic Compliance Matrix: (Units=1/GPa)
#
#
# Indices 1 2 3 4 5 6 
#
# 1 0.022057 -0.001652 -0.009216 0.008796 -0.000311 -0.000872
# 2 -0.001652 0.012908 -0.000695 -0.002776 0.002942 -0.002883
# 3 -0.009216 -0.000695 0.016266 -0.008354 -0.000022 0.000786
# 4 0.008796 -0.002776 -0.008354 0.043172 0.002208 -0.001752
# 5 -0.000311 0.002942 -0.000022 0.002208 0.029455 -0.002065
# 6 -0.000872 -0.002883 0.000786 -0.001752 -0.002065 0.022418
#
#
# Mechanical properties :
#
#
# Convention : Reuss Voigt Hill
#
# Bulk Modulus (GPa) = 35.58262 37.58516 36.58389
# Shear Modulus (GPa) = 27.96877 33.71002 30.83940
#
# Velocity S-wave (km/s) = 3.61351 3.96709 3.79442
# Velocity P-wave (km/s) = 5.83283 6.20730 6.02298
#
# Compressibility (1/GPa) = 0.02810361
#
# Stress axis : x y z
#
# Youngs Moduli (GPa) = 45.33640 77.47398 61.47872
#
# Poissons Ratio (x) = 0.12802 0.56657
# Poissons Ratio (y) = 0.07491 0.04276
# Poissons Ratio (z) = 0.41781 0.05388
#
# Static dielectric constant tensor:
#      x y z
#    x 3.990720 -0.044200 0.046380 
#    y -0.044200 3.918530 0.063280 
#    z 0.046380 0.063280 3.820100 
# 
# 
# High freq. dielectric constant tensor:
#      x y z
#    x 1.850060 0.001200 0.001010 
#    y 0.001200 1.851420 0.006240 
#    z 0.001010 0.006240 1.838920 
# 
# From -- ./inp_files/185267.got.cif
#   From: 2010.06.25/outbox.cif.g09.slc.cpg/sg2_93_cif.got.tgz:185267.got - 2010.06.27 13:26:56.
