data_PCOD8030905
_publ_section_title
;
Structure prediction by ZEFSAII (Michael W. Deem and Ramdas Pophale) SiO2 
 PCOD8030905
Probable space group: P -1
;
_chemical_formula_sum "Si O2"
_cell_formula_units_Z 14
_cell_length_a 25.767036
_cell_length_b 14.355286
_cell_length_c 14.632206
_cell_angle_alpha 19.828924
_cell_angle_beta 21.195052
_cell_angle_gamma 23.793810
_cell_volume 631.233073
_symmetry_space_group_name_H-M "P -1"
_symmetry_group_IT_number 2
_symmetry_cell_setting 'triclinic'
loop_
_space_group_symop_operation_xyz
x,y,z
-x,-y,-z
loop_
_atom_site_type_symbol
_atom_site_label
_atom_site_fract_x
_atom_site_fract_y
_atom_site_fract_z
Si Si1 0.675044 0.876111 0.684564
Si Si2 0.368306 0.975511 0.004571
Si Si3 0.791255 0.394819 0.284823
Si Si4 0.110473 0.405690 0.562532
Si Si5 0.415942 0.827088 0.856515
Si Si6 0.115801 0.000639 0.084795
Si Si7 0.781286 0.395669 0.089710
O O1 0.503498 0.016255 0.805920
O O2 0.768321 0.645612 0.669643
O O3 0.749844 0.128938 0.337323
O O4 0.679310 0.699441 0.934501
O O5 0.429400 0.890879 0.881333
O O6 0.231751 0.274788 0.953977
O O7 0.313292 0.721991 0.370065
O O8 0.740944 0.384279 0.272508
O O9 0.965650 0.215066 0.178859
O O10 0.076902 0.728477 0.357416
O O11 0.176635 0.170855 0.749908
O O12 0.955522 0.370191 0.812058
O O13 0.500000 0.000000 0.500000
O O14 0.500000 0.500000 0.000000
O O15 0.240429 0.902722 0.048882
#
# Coordination Sequence:
#
# PCOD8030905 Si02
#       7
#     2   2   2   2   2   2   2
#     4  12  23  38  63  95 129 172 211 264 322 361
#     4  12  26  42  65  94 132 167 213 263 304 385
#     4  11  25  44  62  93 128 172 219 252 309 375
#     4  11  22  41  66  98 127 162 217 267 319 376
#     4  12  26  46  71 101 127 160 207 262 328 382
#     4  11  23  43  70  91 130 170 204 267 318 371
#     4  11  23  40  64  91 130 171 214 263 311 378
#
# _framework density 22.178813999999999
#
# number of rings (size 3 to 8) (size 9 to 14) (size 15 to 20)
#    0.000    0.571    0.000   10.286    0.000    4.571 
#    0.000    0.000    0.000    0.000    0.000    0.000 
#    0.000    0.000    0.000    0.000    0.000    0.000 
#
# Total GULP energy -173719.343823 kJ/mol
# GULP energy per Si atom -12408.524559 kJ/mol
# Density = 2.212833 g / cm^3
# Si number density = 22.178814 Si / 1000 Ang^3
#
#
#
# Elastic Constant Matrix: (Units=GPa)
#
#
# Indices 1 2 3 4 5 6 
#
# 1 87.5733 44.3018 33.2365 8.8288 6.1538 -18.3828
# 2 44.3018 127.9913 35.8557 -11.8353 -5.7559 -12.0128
# 3 33.2365 35.8557 105.5619 -8.8698 16.4621 -7.2484
# 4 8.8288 -11.8353 -8.8698 42.1977 2.5826 1.8408
# 5 6.1538 -5.7559 16.4621 2.5826 38.5631 2.8880
# 6 -18.3828 -12.0128 -7.2484 1.8408 2.8880 34.6947
#
#
#
# Elastic Compliance Matrix: (Units=1/GPa)
#
#
# Indices 1 2 3 4 5 6 
#
# 1 0.017623 -0.005096 -0.003470 -0.006030 -0.002238 0.007354
# 2 -0.005096 0.010658 -0.002210 0.003397 0.003113 0.000089
# 3 -0.003470 -0.002210 0.012416 0.003029 -0.005299 0.000270
# 4 -0.006030 0.003397 0.003029 0.026753 -0.001414 -0.002688
# 5 -0.002238 0.003113 -0.005299 -0.001414 0.029379 -0.003586
# 6 0.007354 0.000089 0.000270 -0.002688 -0.003586 0.033248
#
#
# Mechanical properties :
#
#
# Convention : Reuss Voigt Hill
#
# Bulk Modulus (GPa) = 52.23217 60.87940 56.55578
# Shear Modulus (GPa) = 31.64360 36.93993 34.29177
#
# Velocity S-wave (km/s) = 3.78133 4.08554 3.93638
# Velocity P-wave (km/s) = 6.53194 7.05439 6.79819
#
# Compressibility (1/GPa) = 0.01914529
#
# Stress axis : x y z
#
# Youngs Moduli (GPa) = 56.74458 93.82341 80.54210
#
# Poissons Ratio (x) = 0.47808 0.27952
# Poissons Ratio (y) = 0.28915 0.17799
# Poissons Ratio (z) = 0.19693 0.20734
#
# Static dielectric constant tensor:
#      x y z
#    x 4.051880 -0.128250 0.095490 
#    y -0.128250 4.172420 -0.126780 
#    z 0.095490 -0.126780 4.009260 
# 
# 
# High freq. dielectric constant tensor:
#      x y z
#    x 1.871270 -0.006320 0.005860 
#    y -0.006320 1.885030 -0.008240 
#    z 0.005860 -0.008240 1.885610 
# 
# From -- ./inp_files/94913.got.cif
#   From: 2010.06.25/outbox.cif.g09.slc.cpg/sg2_48_cif.got.tgz:94913.got - 2010.06.27 13:26:56.
