data_PCOD8030737
_publ_section_title
;
Structure prediction by ZEFSAII (Michael W. Deem and Ramdas Pophale) SiO2 
 PCOD8030737
Probable space group: P -1
;
_chemical_formula_sum "Si O2"
_cell_formula_units_Z 16
_cell_length_a 14.933126
_cell_length_b 14.149811
_cell_length_c 9.456361
_cell_angle_alpha 93.861613
_cell_angle_beta 55.750824
_cell_angle_gamma 140.300775
_cell_volume 761.036488
_symmetry_space_group_name_H-M "P -1"
_symmetry_group_IT_number 2
_symmetry_cell_setting 'triclinic'
loop_
_space_group_symop_operation_xyz
x,y,z
-x,-y,-z
loop_
_atom_site_type_symbol
_atom_site_label
_atom_site_fract_x
_atom_site_fract_y
_atom_site_fract_z
Si Si1 0.936197 0.181706 0.812099
Si Si2 0.595752 0.322596 0.134144
Si Si3 0.860099 0.479955 0.185880
Si Si4 0.552458 0.479687 0.587050
Si Si5 0.116307 0.866719 0.474286
Si Si6 0.138514 0.515733 0.338453
Si Si7 0.344568 0.426441 0.014489
Si Si8 0.520970 0.247353 0.681582
O O1 0.843485 0.102923 0.726975
O O2 0.984945 0.326922 0.837665
O O3 0.166619 0.293829 0.618015
O O4 0.734747 0.987087 0.074939
O O5 0.748700 0.452777 0.152573
O O6 0.347899 0.083334 0.368551
O O7 0.718627 0.347057 0.915802
O O8 0.566672 0.400144 0.088469
O O9 0.655780 0.282349 0.453879
O O10 0.000000 0.500000 0.000000
O O11 0.500000 0.500000 0.500000
O O12 0.493238 0.322481 0.623343
O O13 0.374128 0.383069 0.849850
O O14 0.054635 0.711914 0.556348
O O15 0.914067 0.776665 0.709097
O O16 0.311937 0.608985 0.315046
O O17 0.000000 0.500000 0.500000
O O18 0.500000 0.500000 0.000000
#
# Coordination Sequence:
#
# PCOD8030737 Si02
#       8
#     2   2   2   2   2   2   2   2
#     4  11  23  43  69  92 133 172 213 266 324 384
#     4  11  25  40  64  99 129 163 218 271 315 378
#     4  11  25  45  66  94 135 170 209 269 329 382
#     4  11  23  42  66  96 132 174 214 264 323 383
#     4  11  23  42  67  97 132 168 217 270 317 379
#     4  11  22  40  67  95 125 166 214 264 320 383
#     4  11  22  40  65  94 133 170 216 264 322 379
#     4  11  23  43  68  94 131 171 218 261 323 389
#
# _framework density 21.023959000000001
#
# number of rings (size 3 to 8) (size 9 to 14) (size 15 to 20)
#    0.000    1.000    5.000    3.000    0.000    7.000 
#    0.000    0.000    0.000    0.000    0.000    0.000 
#    0.000    0.000    0.000    0.000    0.000    0.000 
#
# Total GULP energy -198270.861219 kJ/mol
# GULP energy per Si atom -12391.928826 kJ/mol
# Density = 2.097611 g / cm^3
# Si number density = 21.023959 Si / 1000 Ang^3
#
#
#
# Elastic Constant Matrix: (Units=GPa)
#
#
# Indices 1 2 3 4 5 6 
#
# 1 75.8152 25.5778 29.5514 -3.3957 2.5178 -1.5739
# 2 25.5778 66.8446 42.5977 3.2564 -6.1794 -1.1200
# 3 29.5514 42.5977 181.3203 5.5104 -5.4042 -13.2047
# 4 -3.3957 3.2564 5.5104 47.3422 -1.2865 2.9278
# 5 2.5178 -6.1794 -5.4042 -1.2865 32.4019 12.3698
# 6 -1.5739 -1.1200 -13.2047 2.9278 12.3698 24.6969
#
#
#
# Elastic Compliance Matrix: (Units=1/GPa)
#
#
# Indices 1 2 3 4 5 6 
#
# 1 0.015754 -0.005520 -0.001306 0.001497 -0.002953 0.001357
# 2 -0.005520 0.020012 -0.003911 -0.000934 0.005069 -0.003964
# 3 -0.001306 -0.003911 0.006941 -0.000916 -0.001090 0.004105
# 4 0.001497 -0.000934 -0.000916 0.021700 0.001933 -0.003977
# 5 -0.002953 0.005069 -0.001090 0.001933 0.039871 -0.020741
# 6 0.001357 -0.003964 0.004105 -0.003977 -0.020741 0.053452
#
#
# Mechanical properties :
#
#
# Convention : Reuss Voigt Hill
#
# Bulk Modulus (GPa) = 47.09176 57.71488 52.40332
# Shear Modulus (GPa) = 26.84104 35.97174 31.40639
#
# Velocity S-wave (km/s) = 3.57695 4.14090 3.86921
# Velocity P-wave (km/s) = 6.28547 7.09748 6.70378
#
# Compressibility (1/GPa) = 0.02123514
#
# Stress axis : x y z
#
# Youngs Moduli (GPa) = 63.47466 49.96949 144.07084
#
# Poissons Ratio (x) = 0.27581 0.18810
# Poissons Ratio (y) = 0.35035 0.56347
# Poissons Ratio (z) = 0.08287 0.19543
#
# Static dielectric constant tensor:
#      x y z
#    x 3.705420 0.068670 -0.026510 
#    y 0.068670 3.601010 0.137440 
#    z -0.026510 0.137440 4.215130 
# 
# 
# High freq. dielectric constant tensor:
#      x y z
#    x 1.817510 0.002370 0.000980 
#    y 0.002370 1.805230 0.017140 
#    z 0.000980 0.017140 1.855530 
# 
# From -- ./inp_files/307601.got.cif
#   From: 2010.06.25/outbox.cif.g09.slc.cpg/sg2_154_cif.got.tgz:307601.got - 2010.06.27 13:26:56.
