data_PCOD8030937
_publ_section_title
;
Structure prediction by ZEFSAII (Michael W. Deem and Ramdas Pophale) SiO2 
 PCOD8030937
Probable space group: P -1
;
_chemical_formula_sum "Si O2"
_cell_formula_units_Z 16
_cell_length_a 21.057899
_cell_length_b 8.829226
_cell_length_c 12.298797
_cell_angle_alpha 52.531495
_cell_angle_beta 139.785829
_cell_angle_gamma 149.417957
_cell_volume 742.699933
_symmetry_space_group_name_H-M "P -1"
_symmetry_group_IT_number 2
_symmetry_cell_setting 'triclinic'
loop_
_space_group_symop_operation_xyz
x,y,z
-x,-y,-z
loop_
_atom_site_type_symbol
_atom_site_label
_atom_site_fract_x
_atom_site_fract_y
_atom_site_fract_z
Si Si1 0.778229 0.740291 0.239439
Si Si2 0.468052 0.916135 0.868670
Si Si3 0.140638 0.152465 0.245865
Si Si4 0.290333 0.938115 0.025668
Si Si5 0.865833 0.753540 0.576291
Si Si6 0.517477 0.301272 0.597443
Si Si7 0.969106 0.255634 0.900970
Si Si8 0.707919 0.123559 0.702538
O O1 0.690803 0.440916 0.191871
O O2 0.766595 0.685322 0.377018
O O3 0.693075 0.810546 0.073925
O O4 0.955599 0.008921 0.320401
O O5 0.446498 0.085340 0.703284
O O6 0.500000 0.000000 0.000000
O O7 0.608522 0.010215 0.957207
O O8 0.152162 0.123283 0.401753
O O9 0.301249 0.478470 0.267373
O O10 0.011714 0.122792 0.074251
O O11 0.092958 0.885994 0.239443
O O12 0.110352 0.613300 0.918323
O O13 0.354000 0.974503 0.211998
O O14 0.798192 0.452527 0.657663
O O15 0.500000 0.500000 0.500000
O O16 0.437536 0.111899 0.464704
O O17 0.829598 0.134490 0.840771
#
# Coordination Sequence:
#
# PCOD8030937 Si02
#       8
#     2   2   2   2   2   2   2   2
#     4  11  26  44  66  98 142 177 228 270 348 410
#     4  12  29  47  65  98 144 186 221 272 346 418
#     4  11  24  41  71  99 136 174 229 286 340 391
#     4  12  25  45  72 101 131 186 229 280 337 404
#     4  11  23  43  69  99 130 181 222 289 332 399
#     4  12  26  45  70 105 135 178 226 290 341 392
#     4  11  22  41  68 105 131 168 227 283 339 396
#     4  12  23  44  76 100 135 169 239 288 329 393
#
# _framework density 21.543019999999999
#
# number of rings (size 3 to 8) (size 9 to 14) (size 15 to 20)
#    0.000    0.500    6.250    1.500    5.250    2.000 
#    0.000    0.625    0.000    0.000    0.000    0.000 
#    0.000    0.000    0.000    0.000    0.000    0.000 
#
# Total GULP energy -198487.856209 kJ/mol
# GULP energy per Si atom -12405.491013 kJ/mol
# Density = 2.149399 g / cm^3
# Si number density = 21.543020 Si / 1000 Ang^3
#
#
#
# Elastic Constant Matrix: (Units=GPa)
#
#
# Indices 1 2 3 4 5 6 
#
# 1 105.2122 41.8217 47.3080 -2.6887 -39.2232 -10.4245
# 2 41.8217 73.3327 65.3402 -10.7467 -15.4338 -21.9506
# 3 47.3080 65.3402 114.6186 -3.8510 -33.4984 -7.1469
# 4 -2.6887 -10.7467 -3.8510 41.7632 -4.2459 -4.7702
# 5 -39.2232 -15.4338 -33.4984 -4.2459 48.9240 9.4335
# 6 -10.4245 -21.9506 -7.1469 -4.7702 9.4335 29.4931
#
#
#
# Elastic Compliance Matrix: (Units=1/GPa)
#
#
# Indices 1 2 3 4 5 6 
#
# 1 0.017062 -0.011766 0.003100 -0.001026 0.013229 -0.006373
# 2 -0.011766 0.057064 -0.030160 0.013740 -0.018433 0.039121
# 3 0.003100 -0.030160 0.027653 -0.005792 0.015355 -0.020498
# 4 -0.001026 0.013740 -0.005792 0.028334 -0.000543 0.013216
# 5 0.013229 -0.018433 0.015355 -0.000543 0.039155 -0.017934
# 6 -0.006373 0.039121 -0.020498 0.013216 -0.017934 0.063677
#
#
# Mechanical properties :
#
#
# Convention : Reuss Voigt Hill
#
# Bulk Modulus (GPa) = 41.44839 66.90039 54.17439
# Shear Modulus (GPa) = 15.69165 33.28229 24.48697
#
# Velocity S-wave (km/s) = 2.70179 3.93481 3.37509
# Velocity P-wave (km/s) = 5.38651 7.19482 6.35531
#
# Compressibility (1/GPa) = 0.02412639
#
# Stress axis : x y z
#
# Youngs Moduli (GPa) = 58.60958 17.52422 36.16207
#
# Poissons Ratio (x) = 0.20619 -0.11209
# Poissons Ratio (y) = 0.68960 1.09065
# Poissons Ratio (z) = -0.18167 0.52853
#
# Static dielectric constant tensor:
#      x y z
#    x 4.132430 -0.151250 -0.247890 
#    y -0.151250 4.043960 0.145610 
#    z -0.247890 0.145610 4.046400 
# 
# 
# High freq. dielectric constant tensor:
#      x y z
#    x 1.852100 -0.007450 -0.004590 
#    y -0.007450 1.854460 0.010680 
#    z -0.004590 0.010680 1.847930 
# 
# From -- ./inp_files/208285.got.cif
#   From: 2010.06.25/outbox.cif.g09.slc.cpg/sg2_105_cif.got.tgz:208285.got - 2010.06.27 13:26:56.
