data_PCOD8030489
_publ_section_title
;
Structure prediction by ZEFSAII (Michael W. Deem and Ramdas Pophale) SiO2 
 PCOD8030489
Probable space group: P -1
;
_chemical_formula_sum "Si O2"
_cell_formula_units_Z 16
_cell_length_a 11.304258
_cell_length_b 7.039576
_cell_length_c 13.310425
_cell_angle_alpha 80.526692
_cell_angle_beta 133.788162
_cell_angle_gamma 96.174303
_cell_volume 754.186487
_symmetry_space_group_name_H-M "P -1"
_symmetry_group_IT_number 2
_symmetry_cell_setting 'triclinic'
loop_
_space_group_symop_operation_xyz
x,y,z
-x,-y,-z
loop_
_atom_site_type_symbol
_atom_site_label
_atom_site_fract_x
_atom_site_fract_y
_atom_site_fract_z
Si Si1 0.408112 0.534500 0.045791
Si Si2 0.521565 0.407397 0.329218
Si Si3 0.479025 0.825846 0.360675
Si Si4 0.667817 0.095636 0.924273
Si Si5 0.778244 0.314006 0.632947
Si Si6 0.129046 0.253396 0.902484
Si Si7 0.007717 0.727552 0.969299
Si Si8 0.735327 0.731315 0.666451
O O1 0.411345 0.762946 0.051244
O O2 0.220212 0.459253 0.936258
O O3 0.500000 0.500000 0.000000
O O4 0.505583 0.415187 0.199223
O O5 0.488022 0.611424 0.341942
O O6 0.701512 0.329650 0.474558
O O7 0.387730 0.264194 0.310673
O O8 0.326268 0.839270 0.348491
O O9 0.651822 0.864084 0.518099
O O10 0.456673 0.961210 0.236252
O O11 0.805018 0.218528 0.936456
O O12 0.737570 0.908313 0.039347
O O13 0.767641 0.517421 0.664595
O O14 0.969245 0.255839 0.737187
O O15 0.069980 0.181739 0.983595
O O16 0.908484 0.805383 0.805587
O O17 0.000000 0.500000 0.000000
#
# Coordination Sequence:
#
# PCOD8030489 Si02
#       8
#     2   2   2   2   2   2   2   2
#     4  11  23  41  60  75  99 144 192 230 265 305
#     4   8  15  30  51  75 105 139 178 220 255 310
#     4   8  15  27  47  78 111 145 168 204 259 323
#     4  11  22  36  54  83 115 139 177 219 267 326
#     4   9  15  27  50  81 109 139 171 207 269 325
#     4  12  22  34  56  83 112 143 174 221 274 320
#     4  12  17  31  54  83 117 142 170 213 268 327
#     4   9  14  26  50  76 112 144 172 205 257 320
#
# _framework density 21.214911000000001
#
# number of rings (size 3 to 8) (size 9 to 14) (size 15 to 20)
#    0.000    2.000    5.000    2.625    0.000    0.500 
#    0.000    2.500    0.000    0.750    0.000    0.000 
#    0.000    0.000    0.000    0.000    0.000    0.000 
#
# Total GULP energy -198273.478961 kJ/mol
# GULP energy per Si atom -12392.092435 kJ/mol
# Density = 2.116662 g / cm^3
# Si number density = 21.214911 Si / 1000 Ang^3
#
#
#
# Elastic Constant Matrix: (Units=GPa)
#
#
# Indices 1 2 3 4 5 6 
#
# 1 58.2968 1.4554 45.9277 1.0923 -8.3670 -14.1511
# 2 1.4554 26.2024 16.1306 -11.0827 -1.0839 -13.1654
# 3 45.9277 16.1306 178.9906 -9.7980 20.7192 -15.4697
# 4 1.0923 -11.0827 -9.7980 19.8617 -7.1963 3.4716
# 5 -8.3670 -1.0839 20.7192 -7.1963 28.4981 2.6305
# 6 -14.1511 -13.1654 -15.4697 3.4716 2.6305 22.3179
#
#
#
# Elastic Compliance Matrix: (Units=1/GPa)
#
#
# Indices 1 2 3 4 5 6 
#
# 1 0.031483 0.017747 -0.009425 0.005731 0.016271 0.021089
# 2 0.017747 0.083552 -0.008230 0.040949 0.020461 0.046054
# 3 -0.009425 -0.008230 0.009597 -0.002707 -0.010509 -0.002519
# 4 0.005731 0.040949 -0.002707 0.078330 0.023981 0.010903
# 5 0.016271 0.020461 -0.010509 0.023981 0.053878 0.005022
# 6 0.021089 0.046054 -0.002519 0.010903 0.005022 0.081313
#
#
# Mechanical properties :
#
#
# Convention : Reuss Voigt Hill
#
# Bulk Modulus (GPa) = 8.01182 43.39081 25.70131
# Shear Modulus (GPa) = 13.17267 27.46726 20.31997
#
# Velocity S-wave (km/s) = 2.49452 3.60212 3.09822
# Velocity P-wave (km/s) = 3.47585 6.14799 4.99396
#
# Compressibility (1/GPa) = 0.12481565
#
# Stress axis : x y z
#
# Youngs Moduli (GPa) = 31.76363 11.96866 104.19424
#
# Poissons Ratio (x) = -0.21240 0.98199
# Poissons Ratio (y) = -0.56369 0.85751
# Poissons Ratio (z) = 0.29936 0.09850
#
# Static dielectric constant tensor:
#      x y z
#    x 3.243540 -0.165140 0.321460 
#    y -0.165140 3.785070 0.029390 
#    z 0.321460 0.029390 4.526520 
# 
# 
# High freq. dielectric constant tensor:
#      x y z
#    x 1.750880 -0.018290 0.027680 
#    y -0.018290 1.834860 0.003980 
#    z 0.027680 0.003980 1.849390 
# 
# From -- ./inp_files/276540.got.cif
#   From: 2010.06.25/outbox.cif.g09.slc.cpg/sg2_139_cif.got.tgz:276540.got - 2010.06.27 13:26:56.
