data_PCOD8030923
_publ_section_title
;
Structure prediction by ZEFSAII (Michael W. Deem and Ramdas Pophale) SiO2 
 PCOD8030923
Probable space group: P -1
;
_chemical_formula_sum "Si O2"
_cell_formula_units_Z 16
_cell_length_a 8.804195
_cell_length_b 10.363242
_cell_length_c 15.267222
_cell_angle_alpha 113.232039
_cell_angle_beta 117.316562
_cell_angle_gamma 41.448778
_cell_volume 816.234031
_symmetry_space_group_name_H-M "P -1"
_symmetry_group_IT_number 2
_symmetry_cell_setting 'triclinic'
loop_
_space_group_symop_operation_xyz
x,y,z
-x,-y,-z
loop_
_atom_site_type_symbol
_atom_site_label
_atom_site_fract_x
_atom_site_fract_y
_atom_site_fract_z
Si Si1 0.222455 0.416693 0.427816
Si Si2 0.687494 0.734073 0.053129
Si Si3 0.580589 0.113310 0.563949
Si Si4 0.614850 0.571968 0.259899
Si Si5 0.686388 0.412559 0.948428
Si Si6 0.799902 0.857617 0.951233
Si Si7 0.012530 0.468654 0.214496
Si Si8 0.032994 0.710410 0.595020
O O1 0.495990 0.247944 0.490681
O O2 0.106396 0.622614 0.493274
O O3 0.187946 0.450859 0.323230
O O4 0.090951 0.351456 0.407421
O O5 0.881483 0.646799 0.158676
O O6 0.417013 0.911739 0.064589
O O7 0.713016 0.562840 0.975893
O O8 0.748457 0.809136 0.015182
O O9 0.467521 0.245251 0.656800
O O10 0.500000 0.000000 0.500000
O O11 0.867073 0.943558 0.605417
O O12 0.392000 0.623138 0.169597
O O13 0.797195 0.512968 0.217519
O O14 0.738292 0.388370 0.309603
O O15 0.500000 0.500000 0.000000
O O16 0.947562 0.204797 0.989534
O O17 0.816345 0.740197 0.843788
#
# Coordination Sequence:
#
# PCOD8030923 Si02
#       8
#     2   2   2   2   2   2   2   2
#     4   8  15  25  42  67  96 129 171 206 248 311
#     4  10  22  38  54  72 104 144 184 220 259 313
#     4   9  16  28  43  67 104 144 167 202 256 314
#     4  10  19  29  46  77 106 136 173 203 265 322
#     4  11  20  37  52  79 111 139 171 223 268 312
#     4  10  22  38  54  74 102 144 186 219 259 313
#     4  10  17  31  49  74 103 134 172 219 260 306
#     4   8  15  27  40  61 103 137 161 201 251 310
#
# _framework density 19.602221
#
# number of rings (size 3 to 8) (size 9 to 14) (size 15 to 20)
#    0.000    2.500    2.500    3.750    0.000    5.500 
#    0.000    0.000    0.000    0.000    0.000   14.000 
#    0.000   36.000    0.000    0.000    0.000    0.000 
#
# Total GULP energy -198240.192384 kJ/mol
# GULP energy per Si atom -12390.012024 kJ/mol
# Density = 1.955761 g / cm^3
# Si number density = 19.602221 Si / 1000 Ang^3
#
#
#
# Elastic Constant Matrix: (Units=GPa)
#
#
# Indices 1 2 3 4 5 6 
#
# 1 18.6102 2.0678 8.3392 -0.5949 -0.3832 -6.4434
# 2 2.0678 138.7026 50.9003 0.7257 -3.5120 -17.2982
# 3 8.3392 50.9003 137.5251 -7.6927 -6.4948 -6.7484
# 4 -0.5949 0.7257 -7.6927 21.2106 -3.7463 -3.5202
# 5 -0.3832 -3.5120 -6.4948 -3.7463 13.0130 -1.5772
# 6 -6.4434 -17.2982 -6.7484 -3.5202 -1.5772 20.8484
#
#
#
# Elastic Compliance Matrix: (Units=1/GPa)
#
#
# Indices 1 2 3 4 5 6 
#
# 1 0.062847 0.003174 -0.003371 0.005029 0.005164 0.022206
# 2 0.003174 0.009360 -0.003150 0.000315 0.002100 0.007939
# 3 -0.003371 -0.003150 0.009129 0.004249 0.004877 0.000386
# 4 0.005029 0.000315 0.004249 0.054617 0.019763 0.013908
# 5 0.005164 0.002100 0.004877 0.019763 0.087491 0.014873
# 6 0.022206 0.007939 0.000386 0.013908 0.014873 0.065014
#
#
# Mechanical properties :
#
#
# Convention : Reuss Voigt Hill
#
# Bulk Modulus (GPa) = 13.39742 46.38360 29.89051
# Shear Modulus (GPa) = 15.62340 26.58312 21.10326
#
# Velocity S-wave (km/s) = 2.82622 3.68656 3.28468
# Velocity P-wave (km/s) = 4.18324 6.46798 5.44675
#
# Compressibility (1/GPa) = 0.07464125
#
# Stress axis : x y z
#
# Youngs Moduli (GPa) = 15.91167 106.83571 109.54401
#
# Poissons Ratio (x) = -0.33908 0.36924
# Poissons Ratio (y) = -0.05050 0.34511
# Poissons Ratio (z) = 0.05363 0.33658
#
# Static dielectric constant tensor:
#      x y z
#    x 2.988020 -0.324680 0.080230 
#    y -0.324680 4.350240 -0.395330 
#    z 0.080230 -0.395330 4.057550 
# 
# 
# High freq. dielectric constant tensor:
#      x y z
#    x 1.693560 -0.018210 -0.003870 
#    y -0.018210 1.778950 -0.011000 
#    z -0.003870 -0.011000 1.777420 
# 
# From -- ./inp_files/499249.got.cif
#   From: 2010.06.25/outbox.cif.g09.slc.cpg/sg2_250_cif.got.tgz:499249.got - 2010.06.27 13:26:56.
