data_PCOD8030944
_publ_section_title
;
Structure prediction by ZEFSAII (Michael W. Deem and Ramdas Pophale) SiO2 
 PCOD8030944
Probable space group: P -1
;
_chemical_formula_sum "Si O2"
_cell_formula_units_Z 14
_cell_length_a 9.089984
_cell_length_b 12.930146
_cell_length_c 9.070238
_cell_angle_alpha 58.139493
_cell_angle_beta 132.830857
_cell_angle_gamma 103.849596
_cell_volume 651.693594
_symmetry_space_group_name_H-M "P -1"
_symmetry_group_IT_number 2
_symmetry_cell_setting 'triclinic'
loop_
_space_group_symop_operation_xyz
x,y,z
-x,-y,-z
loop_
_atom_site_type_symbol
_atom_site_label
_atom_site_fract_x
_atom_site_fract_y
_atom_site_fract_z
Si Si1 0.071984 0.873000 0.562354
Si Si2 0.399611 0.878062 0.527715
Si Si3 0.636366 0.868536 0.153194
Si Si4 0.391645 0.485510 0.784715
Si Si5 0.654215 0.307657 0.891248
Si Si6 0.798272 0.276951 0.693386
Si Si7 0.255312 0.253563 0.968318
O O1 0.218992 0.892199 0.513866
O O2 0.866603 0.834423 0.394018
O O3 0.181171 0.770610 0.827895
O O4 0.000000 0.000000 0.500000
O O5 0.308042 0.839545 0.337827
O O6 0.500000 0.000000 0.500000
O O7 0.582791 0.761993 0.775748
O O8 0.523633 0.764799 0.219770
O O9 0.646771 0.857854 0.991540
O O10 0.500000 0.000000 0.000000
O O11 0.561170 0.436855 0.811265
O O12 0.257509 0.615460 0.546771
O O13 0.242270 0.386952 0.781000
O O14 0.500000 0.500000 0.000000
O O15 0.750691 0.332129 0.782391
O O16 0.039974 0.229437 0.893872
#
# Coordination Sequence:
#
# PCOD8030944 Si02
#       7
#     2   2   2   2   2   2   2
#     4  12  23  43  67  96 139 184 224 270 339 408
#     4  12  27  43  69 104 139 176 229 278 335 410
#     4  11  22  41  68  95 136 184 217 269 339 407
#     4  11  22  50  74  92 135 182 230 282 338 401
#     4  11  26  42  68 104 136 174 228 281 341 401
#     4  12  26  44  70 102 139 177 226 289 338 397
#     4  11  24  44  71 100 131 183 229 271 345 405
#
# _framework density 21.482488
#
# number of rings (size 3 to 8) (size 9 to 14) (size 15 to 20)
#    0.000    0.571    7.143    0.857    6.000    0.571 
#    0.000    0.714    0.000    0.000    0.000    0.000 
#    0.000    0.000    0.000    0.000    0.000    0.000 
#
# Total GULP energy -173575.172234 kJ/mol
# GULP energy per Si atom -12398.226588 kJ/mol
# Density = 2.143359 g / cm^3
# Si number density = 21.482488 Si / 1000 Ang^3
#
#
#
# Elastic Constant Matrix: (Units=GPa)
#
#
# Indices 1 2 3 4 5 6 
#
# 1 119.0772 42.3141 40.2354 15.6413 9.3644 -5.8514
# 2 42.3141 97.0187 15.5048 10.6344 8.4135 -6.2553
# 3 40.2354 15.5048 78.3362 14.8082 14.9034 12.3256
# 4 15.6413 10.6344 14.8082 36.5782 0.3942 0.9922
# 5 9.3644 8.4135 14.9034 0.3942 38.9045 7.7212
# 6 -5.8514 -6.2553 12.3256 0.9922 7.7212 39.0845
#
#
#
# Elastic Compliance Matrix: (Units=1/GPa)
#
#
# Indices 1 2 3 4 5 6 
#
# 1 0.012081 -0.003947 -0.005440 -0.001893 -0.000557 0.003051
# 2 -0.003947 0.012549 0.000031 -0.002001 -0.002128 0.001879
# 3 -0.005440 0.000031 0.018202 -0.004853 -0.004523 -0.005533
# 4 -0.001893 -0.002001 -0.004853 0.030677 0.002505 -0.000347
# 5 -0.000557 -0.002128 -0.004523 0.002505 0.028954 -0.004781
# 6 0.003051 0.001879 -0.005533 -0.000347 -0.004781 0.029041
#
#
# Mechanical properties :
#
#
# Convention : Reuss Voigt Hill
#
# Bulk Modulus (GPa) = 41.46036 54.50453 47.98244
# Shear Modulus (GPa) = 31.59431 36.00530 33.79980
#
# Velocity S-wave (km/s) = 3.83913 4.09838 3.97087
# Velocity P-wave (km/s) = 6.24447 6.91536 6.58846
#
# Compressibility (1/GPa) = 0.02411943
#
# Stress axis : x y z
#
# Youngs Moduli (GPa) = 82.77415 79.68817 54.93948
#
# Poissons Ratio (x) = 0.31455 0.29888
# Poissons Ratio (y) = 0.32673 -0.00171
# Poissons Ratio (z) = 0.45030 -0.00249
#
# Static dielectric constant tensor:
#      x y z
#    x 4.060060 -0.135100 0.078640 
#    y -0.135100 4.084880 0.139730 
#    z 0.078640 0.139730 3.802290 
# 
# 
# High freq. dielectric constant tensor:
#      x y z
#    x 1.846110 -0.008330 0.011560 
#    y -0.008330 1.851110 0.010970 
#    z 0.011560 0.010970 1.845750 
# 
# From -- ./inp_files/175781.got.cif
#   From: 2010.06.25/outbox.cif.g09.slc.cpg/sg2_88_cif.got.tgz:175781.got - 2010.06.27 13:26:56.
