data_PCOD8030707
_publ_section_title
;
Structure prediction by ZEFSAII (Michael W. Deem and Ramdas Pophale) SiO2 
 PCOD8030707
Probable space group: P -1
;
_chemical_formula_sum "Si O2"
_cell_formula_units_Z 16
_cell_length_a 16.163088
_cell_length_b 11.286661
_cell_length_c 9.292875
_cell_angle_alpha 79.963674
_cell_angle_beta 119.249876
_cell_angle_gamma 48.474449
_cell_volume 716.175134
_symmetry_space_group_name_H-M "P -1"
_symmetry_group_IT_number 2
_symmetry_cell_setting 'triclinic'
loop_
_space_group_symop_operation_xyz
x,y,z
-x,-y,-z
loop_
_atom_site_type_symbol
_atom_site_label
_atom_site_fract_x
_atom_site_fract_y
_atom_site_fract_z
Si Si1 0.451505 0.277597 0.674150
Si Si2 0.773155 0.098505 0.005881
Si Si3 0.712383 0.221172 0.246375
Si Si4 0.755869 0.982007 0.550647
Si Si5 0.586846 0.541481 0.675788
Si Si6 0.488620 0.977355 0.659860
Si Si7 0.832097 0.428548 0.110578
Si Si8 0.853581 0.299217 0.469655
O O1 0.672437 0.080610 0.913303
O O2 0.353726 0.451603 0.417517
O O3 0.350856 0.424973 0.706518
O O4 0.446309 0.140298 0.685629
O O5 0.646088 0.334029 0.752783
O O6 0.797005 0.124406 0.181149
O O7 0.004405 0.829761 0.242637
O O8 0.839576 0.170718 0.463287
O O9 0.699800 0.103014 0.326768
O O10 0.500000 0.500000 0.000000
O O11 0.988942 0.734786 0.809126
O O12 0.641771 0.180874 0.540305
O O13 0.690409 0.916201 0.501125
O O14 0.711942 0.452433 0.933982
O O15 0.500000 0.000000 0.500000
O O16 0.690646 0.699154 0.944186
O O17 0.903363 0.309578 0.356127
#
# Coordination Sequence:
#
# PCOD8030707 Si02
#       8
#     2   2   2   2   2   2   2   2
#     4  12  27  45  64  98 141 178 223 281 337 385
#     4  12  24  40  71 101 143 172 218 273 344 398
#     4  12  19  40  70 102 134 178 211 273 334 404
#     4  11  22  39  73  98 124 172 236 268 323 395
#     4  11  23  44  68 102 137 176 221 272 337 408
#     4  11  25  50  67  92 134 183 230 277 329 397
#     4  11  23  42  75 100 126 176 234 276 326 403
#     4  12  25  42  70 108 138 171 220 278 339 401
#
# _framework density 22.340903999999998
#
# number of rings (size 3 to 8) (size 9 to 14) (size 15 to 20)
#    0.000    0.500    7.500    2.250    0.000    3.500 
#    0.000    1.250    0.000    0.000    0.000    0.000 
#    0.000    0.000    0.000    0.000    0.000    0.000 
#
# Total GULP energy -198304.457803 kJ/mol
# GULP energy per Si atom -12394.028613 kJ/mol
# Density = 2.229005 g / cm^3
# Si number density = 22.340904 Si / 1000 Ang^3
#
#
#
# Elastic Constant Matrix: (Units=GPa)
#
#
# Indices 1 2 3 4 5 6 
#
# 1 131.0318 31.0350 14.9356 -4.8261 0.2152 6.2202
# 2 31.0350 64.2843 -16.2242 3.4674 -2.9898 1.7078
# 3 14.9356 -16.2242 65.3546 -2.7810 -1.1724 -7.3084
# 4 -4.8261 3.4674 -2.7810 22.0639 0.7974 2.9871
# 5 0.2152 -2.9898 -1.1724 0.7974 34.4144 -3.9709
# 6 6.2202 1.7078 -7.3084 2.9871 -3.9709 39.9834
#
#
#
# Elastic Compliance Matrix: (Units=1/GPa)
#
#
# Indices 1 2 3 4 5 6 
#
# 1 0.009639 -0.005750 -0.003779 0.002878 -0.001016 -0.002261
# 2 -0.005750 0.020221 0.006400 -0.003945 0.002301 0.001724
# 3 -0.003779 0.006400 0.018205 -0.000113 0.001643 0.003814
# 4 0.002878 -0.003945 -0.000113 0.047171 -0.001921 -0.004015
# 5 -0.001016 0.002301 0.001643 -0.001921 0.029764 0.003459
# 6 -0.002261 0.001724 0.003814 -0.004015 0.003459 0.026629
#
#
# Mechanical properties :
#
#
# Convention : Reuss Voigt Hill
#
# Bulk Modulus (GPa) = 23.91894 35.57372 29.74633
# Shear Modulus (GPa) = 29.09993 34.68730 31.89361
#
# Velocity S-wave (km/s) = 3.61299 3.94463 3.78244
# Velocity P-wave (km/s) = 5.30420 6.05842 5.69381
#
# Compressibility (1/GPa) = 0.04180787
#
# Stress axis : x y z
#
# Youngs Moduli (GPa) = 103.74190 49.45338 54.93107
#
# Poissons Ratio (x) = 0.28435 0.20757
# Poissons Ratio (y) = 0.59650 -0.35156
# Poissons Ratio (z) = 0.39202 -0.31650
#
# Static dielectric constant tensor:
#      x y z
#    x 5.044470 1.509210 -0.709650 
#    y 1.509210 6.880300 -1.537980 
#    z -0.709650 -1.537980 4.748940 
# 
# 
# High freq. dielectric constant tensor:
#      x y z
#    x 1.884150 -0.007800 0.006800 
#    y -0.007800 1.867830 -0.006400 
#    z 0.006800 -0.006400 1.887750 
# 
# From -- ./inp_files/307103.got.cif
#   From: 2010.06.25/outbox.cif.g09.slc.cpg/sg2_154_cif.got.tgz:307103.got - 2010.06.27 13:26:56.
