data_PCOD8030590
_publ_section_title
;
Structure prediction by ZEFSAII (Michael W. Deem and Ramdas Pophale) SiO2 
 PCOD8030590
Probable space group: P -1
;
_chemical_formula_sum "Si O2"
_cell_formula_units_Z 16
_cell_length_a 9.946762
_cell_length_b 15.644714
_cell_length_c 16.623951
_cell_angle_alpha 144.232081
_cell_angle_beta 148.134102
_cell_angle_gamma 37.337024
_cell_volume 749.714077
_symmetry_space_group_name_H-M "P -1"
_symmetry_group_IT_number 2
_symmetry_cell_setting 'triclinic'
loop_
_space_group_symop_operation_xyz
x,y,z
-x,-y,-z
loop_
_atom_site_type_symbol
_atom_site_label
_atom_site_fract_x
_atom_site_fract_y
_atom_site_fract_z
Si Si1 0.265100 0.164242 0.004281
Si Si2 0.672217 0.308997 0.369428
Si Si3 0.126746 0.634607 0.158855
Si Si4 0.808588 0.167519 0.895139
Si Si5 0.573811 0.625651 0.259467
Si Si6 0.464014 0.661116 0.501082
Si Si7 0.879331 0.828242 0.632467
Si Si8 0.001360 0.699883 0.763342
O O1 0.099652 0.206562 0.868571
O O2 0.071853 0.165041 0.979582
O O3 0.392450 0.298033 0.185866
O O4 0.500000 0.000000 0.000000
O O5 0.655263 0.484143 0.479250
O O6 0.700286 0.265372 0.445173
O O7 0.928575 0.190340 0.362026
O O8 0.367693 0.573906 0.169949
O O9 0.238115 0.678008 0.331612
O O10 0.000000 0.500000 0.000000
O O11 0.551391 0.311790 0.843603
O O12 0.751384 0.007343 0.731366
O O13 0.867145 0.193647 0.037612
O O14 0.633433 0.767738 0.442238
O O15 0.847456 0.480648 0.275418
O O16 0.677823 0.745766 0.649660
O O17 0.054153 0.727814 0.718343
#
# Coordination Sequence:
#
# PCOD8030590 Si02
#       8
#     2   2   2   2   2   2   2   2
#     4  11  22  40  65  89 128 172 210 254 327 389
#     4  11  22  38  68  94 128 174 216 260 326 385
#     4  11  23  41  67  96 128 164 217 275 315 379
#     4  11  25  42  64  93 136 171 213 266 324 387
#     4  11  24  41  67  97 129 171 219 264 323 385
#     4  11  22  41  67 100 127 165 223 271 315 378
#     4  12  23  42  68  94 130 176 212 266 328 383
#     4  12  23  42  69  98 129 168 219 273 314 381
#
# _framework density 21.341467999999999
#
# number of rings (size 3 to 8) (size 9 to 14) (size 15 to 20)
#    0.000    0.750    6.250    2.250    0.000    0.000 
#    2.250    0.625    2.750    0.000    0.000    0.000 
#    0.000    0.000    0.000    0.000    0.000    0.000 
#
# Total GULP energy -198435.322577 kJ/mol
# GULP energy per Si atom -12402.207661 kJ/mol
# Density = 2.129289 g / cm^3
# Si number density = 21.341468 Si / 1000 Ang^3
#
#
#
# Elastic Constant Matrix: (Units=GPa)
#
#
# Indices 1 2 3 4 5 6 
#
# 1 85.9011 33.5976 48.1498 -10.0973 -7.3958 4.6033
# 2 33.5976 90.5912 29.2736 -16.6858 -7.0320 -1.4654
# 3 48.1498 29.2736 131.4262 -9.8356 -8.7839 2.5227
# 4 -10.0973 -16.6858 -9.8356 39.2963 11.5347 -3.2052
# 5 -7.3958 -7.0320 -8.7839 11.5347 42.0393 -1.8261
# 6 4.6033 -1.4654 2.5227 -3.2052 -1.8261 16.8353
#
#
#
# Elastic Compliance Matrix: (Units=1/GPa)
#
#
# Indices 1 2 3 4 5 6 
#
# 1 0.016449 -0.004424 -0.004868 0.000570 0.000808 -0.003957
# 2 -0.004424 0.014013 -0.001202 0.004753 0.000164 0.003532
# 3 -0.004868 -0.001202 0.009750 0.000421 0.000862 -0.000061
# 4 0.000570 0.004753 0.000421 0.030219 -0.007083 0.005180
# 5 0.000808 0.000164 0.000862 -0.007083 0.026130 0.001150
# 6 -0.003957 0.003532 -0.000061 0.005180 0.001150 0.061908
#
#
# Mechanical properties :
#
#
# Convention : Reuss Voigt Hill
#
# Bulk Modulus (GPa) = 52.01633 58.88451 55.45042
# Shear Modulus (GPa) = 26.90121 32.76070 29.83096
#
# Velocity S-wave (km/s) = 3.55422 3.92225 3.74276
# Velocity P-wave (km/s) = 6.42414 6.94000 6.68705
#
# Compressibility (1/GPa) = 0.01922473
#
# Stress axis : x y z
#
# Youngs Moduli (GPa) = 60.79430 71.36384 102.56015
#
# Poissons Ratio (x) = 0.31568 0.49930
# Poissons Ratio (y) = 0.26893 0.12325
# Poissons Ratio (z) = 0.29597 0.08576
#
# Static dielectric constant tensor:
#      x y z
#    x 3.781550 0.288250 0.027070 
#    y 0.288250 3.038390 -0.110170 
#    z 0.027070 -0.110170 4.103850 
# 
# 
# High freq. dielectric constant tensor:
#      x y z
#    x 1.835530 0.012870 0.005930 
#    y 0.012870 1.819090 -0.008450 
#    z 0.005930 -0.008450 1.852230 
# 
# From -- ./inp_files/186097.got.cif
#   From: 2010.06.25/outbox.cif.g09.slc.cpg/sg2_94_cif.got.tgz:186097.got - 2010.06.27 13:26:56.
