data_PCOD8030922
_publ_section_title
;
Structure prediction by ZEFSAII (Michael W. Deem and Ramdas Pophale) SiO2 
 PCOD8030922
Probable space group: P -1
;
_chemical_formula_sum "Si O2"
_cell_formula_units_Z 16
_cell_length_a 17.136240
_cell_length_b 14.997342
_cell_length_c 17.888570
_cell_angle_alpha 38.256691
_cell_angle_beta 16.594093
_cell_angle_gamma 35.468094
_cell_volume 761.528079
_symmetry_space_group_name_H-M "P -1"
_symmetry_group_IT_number 2
_symmetry_cell_setting 'triclinic'
loop_
_space_group_symop_operation_xyz
x,y,z
-x,-y,-z
loop_
_atom_site_type_symbol
_atom_site_label
_atom_site_fract_x
_atom_site_fract_y
_atom_site_fract_z
Si Si1 0.718220 0.121622 0.978194
Si Si2 0.889293 0.170031 0.521119
Si Si3 0.328753 0.114722 0.473928
Si Si4 0.098779 0.621375 0.050573
Si Si5 0.411746 0.267355 0.017393
Si Si6 0.859519 0.779006 0.017948
Si Si7 0.657353 0.320499 0.485091
Si Si8 0.565968 0.775430 0.538532
O O1 0.495566 0.165620 0.221949
O O2 0.576886 0.234593 0.965817
O O3 0.800926 0.945763 0.994873
O O4 0.000118 0.154834 0.723913
O O5 0.781571 0.293868 0.472209
O O6 0.146386 0.203939 0.306450
O O7 0.629389 0.181257 0.808605
O O8 0.000000 0.000000 0.500000
O O9 0.329627 0.214673 0.480095
O O10 0.490402 0.935178 0.459444
O O11 0.307786 0.447474 0.979530
O O12 0.984927 0.651089 0.050707
O O13 0.826326 0.650518 0.337035
O O14 0.278249 0.730957 0.834610
O O15 0.560294 0.771852 0.265505
O O16 0.082833 0.747881 0.765994
O O17 0.500000 0.500000 0.500000
#
# Coordination Sequence:
#
# PCOD8030922 Si02
#       8
#     2   2   2   2   2   2   2   2
#     4  12  23  42  64  97 123 167 211 263 306 369
#     4  12  24  45  64  90 125 174 214 256 316 377
#     4  11  22  41  67  97 127 162 216 264 304 369
#     4  12  23  42  64  97 131 169 205 257 326 376
#     4  12  26  43  65  94 133 167 209 261 317 384
#     4  12  22  39  63  90 119 161 211 257 309 364
#     4  12  24  39  60  90 121 158 206 262 312 366
#     4  11  22  41  67  97 127 167 208 261 316 372
#
# _framework density 21.010387999999999
#
# number of rings (size 3 to 8) (size 9 to 14) (size 15 to 20)
#    0.000    0.250    2.500    8.250    0.000    2.000 
#    0.000    3.750    0.000    0.000    0.000    0.000 
#    0.000    0.000    0.000    0.000    0.000    0.000 
#
# Total GULP energy -198563.019583 kJ/mol
# GULP energy per Si atom -12410.188724 kJ/mol
# Density = 2.096257 g / cm^3
# Si number density = 21.010388 Si / 1000 Ang^3
#
#
#
# Elastic Constant Matrix: (Units=GPa)
#
#
# Indices 1 2 3 4 5 6 
#
# 1 128.1282 16.6637 47.5821 12.2909 4.0827 -18.6589
# 2 16.6637 53.6572 7.8004 5.0694 9.9886 -16.6363
# 3 47.5821 7.8004 137.4652 20.3885 2.6256 -1.2518
# 4 12.2909 5.0694 20.3885 24.7044 -5.2880 -4.2142
# 5 4.0827 9.9886 2.6256 -5.2880 40.7358 -6.9406
# 6 -18.6589 -16.6363 -1.2518 -4.2142 -6.9406 32.3402
#
#
#
# Elastic Compliance Matrix: (Units=1/GPa)
#
#
# Indices 1 2 3 4 5 6 
#
# 1 0.009947 -0.000995 -0.003156 -0.001263 0.000133 0.004969
# 2 -0.000995 0.023196 -0.000323 -0.003206 -0.004278 0.010010
# 3 -0.003156 -0.000323 0.009425 -0.006976 -0.001608 -0.002877
# 4 -0.001263 -0.003206 -0.006976 0.050423 0.008902 0.005833
# 5 0.000133 -0.004278 -0.001608 0.008902 0.027681 0.004915
# 6 0.004969 0.010010 -0.002877 0.005833 0.004915 0.040641
#
#
# Mechanical properties :
#
#
# Convention : Reuss Voigt Hill
#
# Bulk Modulus (GPa) = 29.74662 51.48254 40.61458
# Shear Modulus (GPa) = 27.55326 36.03639 31.79482
#
# Velocity S-wave (km/s) = 3.62527 4.14595 3.89432
# Velocity P-wave (km/s) = 5.63136 6.89022 6.29235
#
# Compressibility (1/GPa) = 0.03361726
#
# Stress axis : x y z
#
# Youngs Moduli (GPa) = 100.53468 43.11168 106.10425
#
# Poissons Ratio (x) = 0.04290 0.33491
# Poissons Ratio (y) = 0.10004 0.03432
# Poissons Ratio (z) = 0.31733 0.01394
#
# Static dielectric constant tensor:
#      x y z
#    x 4.258080 0.204600 0.159810 
#    y 0.204600 4.273930 0.475260 
#    z 0.159810 0.475260 4.305380 
# 
# 
# High freq. dielectric constant tensor:
#      x y z
#    x 1.840150 -0.003400 -0.001140 
#    y -0.003400 1.818220 0.006430 
#    z -0.001140 0.006430 1.843850 
# 
# From -- ./inp_files/110728.got.cif
#   From: 2010.06.25/outbox.cif.g09.slc.cpg/sg2_56_cif.got.tgz:110728.got - 2010.06.27 13:26:56.
