data_PCOD8030497
_publ_section_title
;
Structure prediction by ZEFSAII (Michael W. Deem and Ramdas Pophale) SiO2 
 PCOD8030497
Probable space group: P -1
;
_chemical_formula_sum "Si O2"
_cell_formula_units_Z 16
_cell_length_a 20.676893
_cell_length_b 11.821003
_cell_length_c 18.455130
_cell_angle_alpha 43.494399
_cell_angle_beta 20.059673
_cell_angle_gamma 31.295761
_cell_volume 724.305914
_symmetry_space_group_name_H-M "P -1"
_symmetry_group_IT_number 2
_symmetry_cell_setting 'triclinic'
loop_
_space_group_symop_operation_xyz
x,y,z
-x,-y,-z
loop_
_atom_site_type_symbol
_atom_site_label
_atom_site_fract_x
_atom_site_fract_y
_atom_site_fract_z
Si Si1 0.750125 0.546669 0.266637
Si Si2 0.307914 0.780874 0.864024
Si Si3 0.887887 0.309658 0.017010
Si Si4 0.410031 0.555637 0.151364
Si Si5 0.365761 0.730167 0.463021
Si Si6 0.845279 0.516688 0.339165
Si Si7 0.808469 0.899210 0.640561
Si Si8 0.680193 0.034930 0.874898
O O1 0.484503 0.749032 0.400295
O O2 0.826467 0.302005 0.296155
O O3 0.685452 0.640217 0.373651
O O4 0.000000 0.500000 0.000000
O O5 0.335774 0.687442 0.958568
O O6 0.618867 0.626900 0.586217
O O7 0.122954 0.062246 0.929132
O O8 0.170736 0.733590 0.978549
O O9 0.984976 0.431191 0.841423
O O10 0.617502 0.483418 0.269888
O O11 0.340599 0.780961 0.148292
O O12 0.125801 0.633350 0.426798
O O13 0.500000 0.500000 0.000000
O O14 0.208191 0.956529 0.472770
O O15 0.063780 0.228443 0.238042
O O16 0.730134 0.033069 0.737577
O O17 0.606782 0.875969 0.849714
#
# Coordination Sequence:
#
# PCOD8030497 Si02
#       8
#     2   2   2   2   2   2   2   2
#     4  11  22  36  61  97 134 168 212 286 343 399
#     4  11  26  44  65  97 141 184 227 281 350 424
#     4  11  23  43  69  98 135 178 227 291 344 406
#     4  12  28  46  68 104 146 188 227 284 360 426
#     4  11  22  39  67  99 136 171 225 282 347 405
#     4  12  22  43  71 101 132 176 242 287 342 412
#     4  11  23  45  73 106 134 184 236 296 340 408
#     4  11  24  41  79 105 131 184 241 298 334 412
#
# _framework density 22.090112999999999
#
# number of rings (size 3 to 8) (size 9 to 14) (size 15 to 20)
#    0.000    0.750    5.000    2.250    1.750    3.500 
#    2.250    0.000    0.000    0.000    0.000    0.000 
#    0.000    0.000    0.000    0.000    0.000    0.000 
#
# Total GULP energy -198427.186435 kJ/mol
# GULP energy per Si atom -12401.699152 kJ/mol
# Density = 2.203983 g / cm^3
# Si number density = 22.090113 Si / 1000 Ang^3
#
#
#
# Elastic Constant Matrix: (Units=GPa)
#
#
# Indices 1 2 3 4 5 6 
#
# 1 97.1168 16.7464 21.0994 -9.4420 10.9775 -32.1654
# 2 16.7464 85.7306 14.2371 -3.8111 -2.1195 -29.8122
# 3 21.0994 14.2371 89.2501 -11.9554 -9.8977 -5.1935
# 4 -9.4420 -3.8111 -11.9554 37.1989 -1.2234 0.3379
# 5 10.9775 -2.1195 -9.8977 -1.2234 29.6711 -2.5064
# 6 -32.1654 -29.8122 -5.1935 0.3379 -2.5064 35.2456
#
#
#
# Elastic Compliance Matrix: (Units=1/GPa)
#
#
# Indices 1 2 3 4 5 6 
#
# 1 0.017389 0.003407 -0.003845 0.003174 -0.005843 0.017738
# 2 0.003407 0.017644 -0.002253 0.001814 0.000822 0.017742
# 3 -0.003845 -0.002253 0.013356 0.003297 0.005592 -0.003081
# 4 0.003174 0.001814 0.003297 0.028945 0.001651 0.004756
# 5 -0.005843 0.000822 0.005592 0.001651 0.037760 -0.001144
# 6 0.017738 0.017742 -0.003081 0.004756 -0.001144 0.058986
#
#
# Mechanical properties :
#
#
# Convention : Reuss Voigt Hill
#
# Bulk Modulus (GPa) = 23.25315 41.80703 32.53009
# Shear Modulus (GPa) = 25.80013 35.09078 30.44545
#
# Velocity S-wave (km/s) = 3.42123 3.98996 3.71649
# Velocity P-wave (km/s) = 5.11428 6.33980 5.75973
#
# Compressibility (1/GPa) = 0.04300493
#
# Stress axis : x y z
#
# Youngs Moduli (GPa) = 57.50827 56.67726 74.87532
#
# Poissons Ratio (x) = -0.19309 0.28790
# Poissons Ratio (y) = -0.19592 0.16872
# Poissons Ratio (z) = 0.22112 0.12772
#
# Static dielectric constant tensor:
#      x y z
#    x 4.273580 -0.268720 -0.108850 
#    y -0.268720 3.908230 -0.141020 
#    z -0.108850 -0.141020 4.110710 
# 
# 
# High freq. dielectric constant tensor:
#      x y z
#    x 1.883340 -0.019140 -0.011750 
#    y -0.019140 1.853510 -0.016950 
#    z -0.011750 -0.016950 1.875270 
# 
# From -- ./inp_files/577951.got.cif
#   From: 2010.06.25/outbox.cif.g09.slc.cpg/sg2_289_cif.got.tgz:577951.got - 2010.06.27 13:26:56.
