data_PCOD8030559
_publ_section_title
;
Structure prediction by ZEFSAII (Michael W. Deem and Ramdas Pophale) SiO2 
 PCOD8030559
Probable space group: P -1
;
_chemical_formula_sum "Si O2"
_cell_formula_units_Z 12
_cell_length_a 8.316575
_cell_length_b 12.005518
_cell_length_c 15.255059
_cell_angle_alpha 39.804581
_cell_angle_beta 56.630477
_cell_angle_gamma 39.110653
_cell_volume 611.079661
_symmetry_space_group_name_H-M "P -1"
_symmetry_group_IT_number 2
_symmetry_cell_setting 'triclinic'
loop_
_space_group_symop_operation_xyz
x,y,z
-x,-y,-z
loop_
_atom_site_type_symbol
_atom_site_label
_atom_site_fract_x
_atom_site_fract_y
_atom_site_fract_z
Si Si1 0.718897 0.035497 0.324308
Si Si2 0.830052 0.361679 0.103754
Si Si3 0.940142 0.799980 0.222310
Si Si4 0.856985 0.660407 0.638591
Si Si5 0.626545 0.199460 0.944467
Si Si6 0.118294 0.458505 0.858068
O O1 0.855503 0.140639 0.220727
O O2 0.416031 0.237765 0.304249
O O3 0.767581 0.909393 0.294510
O O4 0.839348 0.853770 0.477394
O O5 0.530585 0.600354 0.053730
O O6 0.971760 0.345017 0.160479
O O7 0.969602 0.365249 0.975954
O O8 0.037565 0.546093 0.335245
O O9 0.178809 0.787452 0.169976
O O10 0.775105 0.950928 0.094999
O O11 0.053425 0.569300 0.714884
O O12 0.426463 0.246265 0.903374
#
# Coordination Sequence:
#
# PCOD8030559 Si02
#       6
#     2   2   2   2   2   2
#     4  11  24  39  62  86 121 160 195 236 295 354
#     4   9  19  40  61  89 117 152 200 240 294 345
#     4  11  22  38  62  90 119 153 197 244 293 346
#     4  11  23  41  61  86 121 159 194 243 288 355
#     4   9  20  38  59  92 114 151 195 250 288 340
#     4   9  20  38  63  89 117 152 199 244 294 341
#
# _framework density 19.637373
#
# number of rings (size 3 to 8) (size 9 to 14) (size 15 to 20)
#    1.000    1.000    1.667    1.500    4.667    2.667 
#    0.000    0.833    0.000    0.000    0.000    0.000 
#    0.000    0.000    0.000    0.000    0.000    0.000 
#
# Total GULP energy -148793.192732 kJ/mol
# GULP energy per Si atom -12399.432728 kJ/mol
# Density = 1.959268 g / cm^3
# Si number density = 19.637373 Si / 1000 Ang^3
#
#
#
# Elastic Constant Matrix: (Units=GPa)
#
#
# Indices 1 2 3 4 5 6 
#
# 1 81.5587 27.8601 51.3075 -8.9729 9.3310 -6.5943
# 2 27.8601 78.0605 24.2402 -14.6054 -1.3792 9.0432
# 3 51.3075 24.2402 77.0463 -10.5287 7.4331 -8.4811
# 4 -8.9729 -14.6054 -10.5287 22.1930 6.1784 3.8113
# 5 9.3310 -1.3792 7.4331 6.1784 24.8354 -3.1666
# 6 -6.5943 9.0432 -8.4811 3.8113 -3.1666 23.6132
#
#
#
# Elastic Compliance Matrix: (Units=1/GPa)
#
#
# Indices 1 2 3 4 5 6 
#
# 1 0.022706 -0.004258 -0.012869 0.001208 -0.004898 0.002498
# 2 -0.004258 0.018551 -0.002588 0.011419 -0.000862 -0.011182
# 3 -0.012869 -0.002588 0.023768 0.004340 -0.002884 0.004847
# 4 0.001208 0.011419 0.004340 0.062930 -0.018705 -0.015143
# 5 -0.004898 -0.000862 -0.002884 -0.018705 0.048524 0.007453
# 6 0.002498 -0.011182 0.004847 -0.015143 0.007453 0.052514
#
#
# Mechanical properties :
#
#
# Convention : Reuss Voigt Hill
#
# Bulk Modulus (GPa) = 39.06909 49.27567 44.17238
# Shear Modulus (GPa) = 18.05357 23.01216 20.53286
#
# Velocity S-wave (km/s) = 3.03536 3.42695 3.23708
# Velocity P-wave (km/s) = 5.67653 6.38795 6.04272
#
# Compressibility (1/GPa) = 0.02559568
#
# Stress axis : x y z
#
# Youngs Moduli (GPa) = 44.04072 53.90636 42.07316
#
# Poissons Ratio (x) = 0.22952 0.54143
# Poissons Ratio (y) = 0.18751 0.10890
# Poissons Ratio (z) = 0.56675 0.13952
#
# Static dielectric constant tensor:
#      x y z
#    x 3.329990 -0.112060 -0.000640 
#    y -0.112060 3.524460 -0.037280 
#    z -0.000640 -0.037280 3.359630 
# 
# 
# High freq. dielectric constant tensor:
#      x y z
#    x 1.753220 -0.003880 -0.001530 
#    y -0.003880 1.766360 -0.000780 
#    z -0.001530 -0.000780 1.755300 
# 
# From -- ./inp_files/91330.got.cif
#   From: 2010.06.25/outbox.cif.g09.slc.cpg/sg2_46_cif.got.tgz:91330.got - 2010.06.27 13:26:56.
