data_PCOD8030620
_publ_section_title
;
Structure prediction by ZEFSAII (Michael W. Deem and Ramdas Pophale) SiO2 
 PCOD8030620
Probable space group: P -1
;
_chemical_formula_sum "Si O2"
_cell_formula_units_Z 12
_cell_length_a 9.369267
_cell_length_b 10.812184
_cell_length_c 9.875143
_cell_angle_alpha 93.052566
_cell_angle_beta 62.438571
_cell_angle_gamma 49.246875
_cell_volume 570.085639
_symmetry_space_group_name_H-M "P -1"
_symmetry_group_IT_number 2
_symmetry_cell_setting 'triclinic'
loop_
_space_group_symop_operation_xyz
x,y,z
-x,-y,-z
loop_
_atom_site_type_symbol
_atom_site_label
_atom_site_fract_x
_atom_site_fract_y
_atom_site_fract_z
Si Si1 0.262702 0.909548 0.887326
Si Si2 0.345868 0.492857 0.153383
Si Si3 0.214214 0.144418 0.120308
Si Si4 0.977323 0.532028 0.170139
Si Si5 0.491400 0.296584 0.500798
Si Si6 0.804670 0.310878 0.492589
O O1 0.462174 0.722632 0.885765
O O2 0.368892 0.861343 0.687222
O O3 0.188695 0.087392 0.986763
O O4 0.000000 0.000000 0.000000
O O5 0.201728 0.650923 0.344611
O O6 0.129271 0.561766 0.157889
O O7 0.500000 0.500000 0.000000
O O8 0.085238 0.351666 0.189389
O O9 0.089857 0.140706 0.299565
O O10 0.500000 0.000000 0.000000
O O11 0.683098 0.703165 0.348853
O O12 0.000000 0.500000 0.000000
O O13 0.685665 0.244036 0.519016
O O14 0.343749 0.498746 0.514856
#
# Coordination Sequence:
#
# PCOD8030620 Si02
#       6
#     2   2   2   2   2   2
#     4  11  22  39  65  91 117 155 197 245 295 347
#     4  11  24  40  61  87 120 159 199 240 296 355
#     4  11  22  39  63  91 119 151 201 248 292 344
#     4  11  24  40  61  86 121 160 197 243 293 353
#     4   9  19  36  60  86 116 156 199 233 290 359
#     4   9  19  36  60  85 117 157 195 238 290 356
#
# _framework density 21.049468999999998
#
# number of rings (size 3 to 8) (size 9 to 14) (size 15 to 20)
#    0.000    1.667    3.333    1.000    7.000    2.000 
#    0.000    3.333    0.000    0.000    0.000    0.000 
#    0.000    0.000    0.000    0.000    0.000    0.000 
#
# Total GULP energy -148729.520713 kJ/mol
# GULP energy per Si atom -12394.126726 kJ/mol
# Density = 2.100156 g / cm^3
# Si number density = 21.049469 Si / 1000 Ang^3
#
#
#
# Elastic Constant Matrix: (Units=GPa)
#
#
# Indices 1 2 3 4 5 6 
#
# 1 202.5391 7.8791 102.0805 -8.7833 -11.1760 -8.5477
# 2 7.8791 8.7140 10.1190 -2.9869 -3.3056 -3.1420
# 3 102.0805 10.1190 208.5337 -4.1972 -11.0132 -6.7948
# 4 -8.7833 -2.9869 -4.1972 28.3746 -2.9107 1.1176
# 5 -11.1760 -3.3056 -11.0132 -2.9107 49.3098 3.6006
# 6 -8.5477 -3.1420 -6.7948 1.1176 3.6006 29.1254
#
#
#
# Elastic Compliance Matrix: (Units=1/GPa)
#
#
# Indices 1 2 3 4 5 6 
#
# 1 0.006707 -0.001292 -0.003119 0.001519 0.000757 0.000949
# 2 -0.001292 0.132973 -0.004786 0.013209 0.007498 0.011415
# 3 -0.003119 -0.004786 0.006569 -0.000459 0.000407 0.000068
# 4 0.001519 0.013209 -0.000459 0.037382 0.003340 -0.000083
# 5 0.000757 0.007498 0.000407 0.003340 0.021362 -0.001643
# 6 0.000949 0.011415 0.000068 -0.000083 -0.001643 0.036067
#
#
# Mechanical properties :
#
#
# Convention : Reuss Voigt Hill
#
# Bulk Modulus (GPa) = 7.82141 73.32710 40.57426
# Shear Modulus (GPa) = 16.55230 41.34250 28.94740
#
# Velocity S-wave (km/s) = 2.80724 4.43658 3.71240
# Velocity P-wave (km/s) = 3.77243 7.82020 6.13950
#
# Compressibility (1/GPa) = 0.12785419
#
# Stress axis : x y z
#
# Youngs Moduli (GPa) = 149.08913 7.52034 152.23013
#
# Poissons Ratio (x) = 0.00972 0.47483
# Poissons Ratio (y) = 0.19268 0.72857
# Poissons Ratio (z) = 0.46503 0.03599
#
# Static dielectric constant tensor:
#      x y z
#    x 3.996670 0.048330 -0.049970 
#    y 0.048330 3.235290 -0.057600 
#    z -0.049970 -0.057600 4.005050 
# 
# 
# High freq. dielectric constant tensor:
#      x y z
#    x 1.846370 -0.001900 -0.004860 
#    y -0.001900 1.773350 0.009780 
#    z -0.004860 0.009780 1.847860 
# 
# From -- ./inp_files/144981.got.cif
#   From: 2010.06.25/outbox.cif.g09.slc.cpg/sg2_73_cif.got.tgz:144981.got - 2010.06.27 13:26:56.
