data_PCOD8030799
_publ_section_title
;
Structure prediction by ZEFSAII (Michael W. Deem and Ramdas Pophale) SiO2 
 PCOD8030799
Probable space group: P -1
;
_chemical_formula_sum "Si O2"
_cell_formula_units_Z 16
_cell_length_a 14.201489
_cell_length_b 28.141206
_cell_length_c 11.002721
_cell_angle_alpha 150.314743
_cell_angle_beta 150.908166
_cell_angle_gamma 20.643776
_cell_volume 719.585582
_symmetry_space_group_name_H-M "P -1"
_symmetry_group_IT_number 2
_symmetry_cell_setting 'triclinic'
loop_
_space_group_symop_operation_xyz
x,y,z
-x,-y,-z
loop_
_atom_site_type_symbol
_atom_site_label
_atom_site_fract_x
_atom_site_fract_y
_atom_site_fract_z
Si Si1 0.647107 0.367917 0.791210
Si Si2 0.852296 0.982641 0.700671
Si Si3 0.850061 0.453270 0.740076
Si Si4 0.570643 0.206247 0.448428
Si Si5 0.758828 0.342510 0.587236
Si Si6 0.747346 0.835090 0.885043
Si Si7 0.010450 0.937630 0.187412
Si Si8 0.212597 0.180679 0.386709
O O1 0.474365 0.330900 0.532529
O O2 0.656865 0.401503 0.739671
O O3 0.500000 0.500000 0.000000
O O4 0.960115 0.225390 0.874429
O O5 0.002012 0.825468 0.521105
O O6 0.519573 0.085987 0.586610
O O7 0.881562 0.016887 0.676183
O O8 0.000000 0.000000 0.000000
O O9 0.887923 0.392021 0.780803
O O10 0.515217 0.593150 0.653828
O O11 0.978134 0.335459 0.522913
O O12 0.000000 0.500000 0.000000
O O13 0.292508 0.249466 0.273953
O O14 0.734422 0.183688 0.703828
O O15 0.748853 0.066586 0.260164
O O16 0.761149 0.804734 0.692349
O O17 0.500000 0.000000 0.000000
O O18 0.902611 0.885846 0.871908
#
# Coordination Sequence:
#
# PCOD8030799 Si02
#       8
#     2   2   2   2   2   2   2   2
#     4  12  26  44  69 104 143 175 227 283 337 412
#     4  12  25  43  69 105 137 173 236 290 337 394
#     4  11  27  49  71  93 136 190 232 274 343 408
#     4  11  22  40  69  99 137 184 219 270 346 406
#     4  11  26  47  68  99 139 179 222 287 342 399
#     4  12  22  41  71 105 135 179 228 277 343 412
#     4  11  22  40  69 100 137 177 223 280 342 402
#     4  12  24  42  73 103 133 180 234 280 335 409
#
# _framework density 22.235019999999999
#
# number of rings (size 3 to 8) (size 9 to 14) (size 15 to 20)
#    0.000    0.500    5.000    3.750    0.000    6.500 
#    0.000    0.000    0.000    0.000    0.000    0.000 
#    0.000    0.000    0.000    0.000    0.000    0.000 
#
# Total GULP energy -198449.336381 kJ/mol
# GULP energy per Si atom -12403.083524 kJ/mol
# Density = 2.218441 g / cm^3
# Si number density = 22.235020 Si / 1000 Ang^3
#
#
#
# Elastic Constant Matrix: (Units=GPa)
#
#
# Indices 1 2 3 4 5 6 
#
# 1 155.4460 26.9094 35.8364 18.6688 18.1053 16.6545
# 2 26.9094 71.8859 18.0033 9.2991 11.0200 1.8438
# 3 35.8364 18.0033 101.2143 10.3566 18.7426 9.4659
# 4 18.6688 9.2991 10.3566 31.8299 -0.0364 1.9657
# 5 18.1053 11.0200 18.7426 -0.0364 48.8242 2.2177
# 6 16.6545 1.8438 9.4659 1.9657 2.2177 26.3687
#
#
#
# Elastic Compliance Matrix: (Units=1/GPa)
#
#
# Indices 1 2 3 4 5 6 
#
# 1 0.008170 -0.001842 -0.001478 -0.003523 -0.001864 -0.004082
# 2 -0.001842 0.015705 -0.001488 -0.003090 -0.002339 0.001027
# 3 -0.001478 -0.001488 0.011821 -0.002380 -0.003532 -0.002732
# 4 -0.003523 -0.003090 -0.002380 0.035137 0.002924 0.000430
# 5 -0.001864 -0.002339 -0.003532 0.002924 0.023038 0.000453
# 6 -0.004082 0.001027 -0.002732 0.000430 0.000453 0.041340
#
#
# Mechanical properties :
#
#
# Convention : Reuss Voigt Hill
#
# Bulk Modulus (GPa) = 38.34273 54.44938 46.39605
# Shear Modulus (GPa) = 32.56881 37.92437 35.24659
#
# Velocity S-wave (km/s) = 3.83136 4.13439 3.98576
# Velocity P-wave (km/s) = 6.07076 6.87984 6.48792
#
# Compressibility (1/GPa) = 0.02608057
#
# Stress axis : x y z
#
# Youngs Moduli (GPa) = 122.39636 63.67348 84.59584
#
# Poissons Ratio (x) = 0.11730 0.12501
# Poissons Ratio (y) = 0.22547 0.12587
# Poissons Ratio (z) = 0.18087 0.09474
#
# Static dielectric constant tensor:
#      x y z
#    x 3.988070 -0.123840 -0.157820 
#    y -0.123840 3.907650 -0.197230 
#    z -0.157820 -0.197230 3.761340 
# 
# 
# High freq. dielectric constant tensor:
#      x y z
#    x 1.899680 -0.001730 0.011370 
#    y -0.001730 1.864970 0.002280 
#    z 0.011370 0.002280 1.873520 
# 
# From -- ./inp_files/458412.got.cif
#   From: 2010.06.25/outbox.cif.g09.slc.cpg/sg2_230_cif.got.tgz:458412.got - 2010.06.27 13:26:56.
