data_PCOD8030019
_publ_section_title
;
Structure prediction by ZEFSAII (Michael W. Deem and Ramdas Pophale) SiO2 
 PCOD8030019
Probable space group: P -1
;
_chemical_formula_sum "Si O2"
_cell_formula_units_Z 16
_cell_length_a 8.538425
_cell_length_b 9.499398
_cell_length_c 19.030722
_cell_angle_alpha 63.319152
_cell_angle_beta 32.802971
_cell_angle_gamma 61.128431
_cell_volume 729.258577
_symmetry_space_group_name_H-M "P -1"
_symmetry_group_IT_number 2
_symmetry_cell_setting 'triclinic'
loop_
_space_group_symop_operation_xyz
x,y,z
-x,-y,-z
loop_
_atom_site_type_symbol
_atom_site_label
_atom_site_fract_x
_atom_site_fract_y
_atom_site_fract_z
Si Si1 0.621121 0.807973 0.189448
Si Si2 0.304632 0.549513 0.385462
Si Si3 0.334495 0.388539 0.184173
Si Si4 0.656446 0.026968 0.609799
Si Si5 0.822481 0.291120 0.911385
Si Si6 0.723831 0.342114 0.471944
Si Si7 0.616559 0.263927 0.250384
Si Si8 0.220747 0.041317 0.045320
O O1 0.397379 0.694876 0.273623
O O2 0.499502 0.945291 0.261913
O O3 0.691585 0.905365 0.075126
O O4 0.911627 0.688962 0.141140
O O5 0.257432 0.632413 0.459004
O O6 0.552240 0.385624 0.313942
O O7 0.000000 0.500000 0.500000
O O8 0.233131 0.576907 0.159393
O O9 0.521420 0.365631 0.191487
O O10 0.041432 0.316470 0.319941
O O11 0.527021 0.298175 0.067532
O O12 0.581569 0.184414 0.551087
O O13 0.570524 0.874495 0.639119
O O14 0.000000 0.000000 0.500000
O O15 0.910749 0.117989 0.878782
O O16 0.500000 0.500000 0.500000
O O17 0.965222 0.184733 0.140106
O O18 0.500000 0.000000 0.000000
#
# Coordination Sequence:
#
# PCOD8030019 Si02
#       8
#     2   2   2   2   2   2   2   2
#     4  11  23  45  71  93 140 181 226 281 343 409
#     4  11  24  44  69 102 137 178 229 279 351 407
#     4  11  22  40  75  97 134 179 237 282 337 413
#     4  11  21  41  70  98 128 180 230 273 339 409
#     4  11  24  44  71 104 129 182 238 284 334 419
#     4  11  24  42  69 100 134 182 230 280 335 413
#     4  12  23  44  69  99 143 178 225 291 348 405
#     4  12  28  43  68 103 141 181 227 292 349 400
#
# _framework density 21.940092
#
# number of rings (size 3 to 8) (size 9 to 14) (size 15 to 20)
#    0.000    0.750    5.000    3.375    1.750    3.500 
#    0.000    0.625    0.000    0.000    0.000    0.000 
#    0.000    0.000    0.000    0.000    0.000    0.000 
#
# Total GULP energy -198283.029016 kJ/mol
# GULP energy per Si atom -12392.689313 kJ/mol
# Density = 2.189015 g / cm^3
# Si number density = 21.940092 Si / 1000 Ang^3
#
#
#
# Elastic Constant Matrix: (Units=GPa)
#
#
# Indices 1 2 3 4 5 6 
#
# 1 63.0777 22.1351 20.3212 -10.7242 -13.4745 -24.8826
# 2 22.1351 107.2478 29.0572 -12.4691 5.7589 -5.6959
# 3 20.3212 29.0572 105.1171 2.0809 4.0493 -3.9101
# 4 -10.7242 -12.4691 2.0809 48.8518 -2.0797 -2.9589
# 5 -13.4745 5.7589 4.0493 -2.0797 27.0436 1.7142
# 6 -24.8826 -5.6959 -3.9101 -2.9589 1.7142 45.3899
#
#
#
# Elastic Compliance Matrix: (Units=1/GPa)
#
#
# Indices 1 2 3 4 5 6 
#
# 1 0.029296 -0.003968 -0.004757 0.007202 0.015756 0.015027
# 2 -0.003968 0.011130 -0.002225 0.001859 -0.003827 -0.000705
# 3 -0.004757 -0.002225 0.011162 -0.002360 -0.003626 -0.001942
# 4 0.007202 0.001859 -0.002360 0.023160 0.004991 0.005299
# 5 0.015756 -0.003827 -0.003626 0.004991 0.046162 0.006427
# 6 0.015027 -0.000705 -0.001942 0.005299 0.006427 0.030116
#
#
# Mechanical properties :
#
#
# Convention : Reuss Voigt Hill
#
# Bulk Modulus (GPa) = 33.68412 46.49663 40.09037
# Shear Modulus (GPa) = 27.34879 37.85234 32.60057
#
# Velocity S-wave (km/s) = 3.53444 4.15813 3.85891
# Velocity P-wave (km/s) = 5.66061 6.65522 6.17796
#
# Compressibility (1/GPa) = 0.02968758
#
# Stress axis : x y z
#
# Youngs Moduli (GPa) = 34.13377 89.84499 89.58887
#
# Poissons Ratio (x) = 0.35653 0.42619
# Poissons Ratio (y) = 0.13545 0.19935
# Poissons Ratio (z) = 0.16238 0.19992
#
# Static dielectric constant tensor:
#      x y z
#    x 3.696920 -0.050860 -0.155240 
#    y -0.050860 4.564990 -0.314990 
#    z -0.155240 -0.314990 4.825520 
# 
# 
# High freq. dielectric constant tensor:
#      x y z
#    x 1.825730 -0.009320 -0.003420 
#    y -0.009320 1.882440 0.001860 
#    z -0.003420 0.001860 1.887140 
# 
# From -- ./inp_files/274854.got.cif
#   From: 2010.06.25/outbox.cif.g09.slc.cpg/sg2_138_cif.got.tgz:274854.got - 2010.06.27 13:26:56.
