data_PCOD8030051
_publ_section_title
;
Structure prediction by ZEFSAII (Michael W. Deem and Ramdas Pophale) SiO2 
 PCOD8030051
Probable space group: P -1
;
_chemical_formula_sum "Si O2"
_cell_formula_units_Z 16
_cell_length_a 11.628814
_cell_length_b 9.369774
_cell_length_c 25.879950
_cell_angle_alpha 151.169730
_cell_angle_beta 148.784882
_cell_angle_gamma 39.621900
_cell_volume 702.208693
_symmetry_space_group_name_H-M "P -1"
_symmetry_group_IT_number 2
_symmetry_cell_setting 'triclinic'
loop_
_space_group_symop_operation_xyz
x,y,z
-x,-y,-z
loop_
_atom_site_type_symbol
_atom_site_label
_atom_site_fract_x
_atom_site_fract_y
_atom_site_fract_z
Si Si1 0.392846 0.307563 0.243268
Si Si2 0.029110 0.323781 0.850966
Si Si3 0.142760 0.974495 0.219038
Si Si4 0.879049 0.565060 0.298106
Si Si5 0.086973 0.052962 0.476961
Si Si6 0.502604 0.854378 0.510898
Si Si7 0.153468 0.775669 0.653113
Si Si8 0.383638 0.758699 0.138156
O O1 0.476910 0.505190 0.385101
O O2 0.577731 0.296935 0.264279
O O3 0.165181 0.463180 0.182231
O O4 0.347755 0.996187 0.153384
O O5 0.063221 0.998645 0.734381
O O6 0.257332 0.478069 0.982669
O O7 0.973091 0.288657 0.879465
O O8 0.281601 0.115968 0.362571
O O9 0.950063 0.222061 0.205080
O O10 0.287728 0.875018 0.193494
O O11 0.877118 0.639597 0.381894
O O12 0.641550 0.650538 0.208263
O O13 0.071824 0.765878 0.415728
O O14 0.869180 0.064823 0.360971
O O15 0.298984 0.028370 0.515119
O O16 0.500000 0.000000 0.500000
O O17 0.000000 0.500000 0.500000
#
# Coordination Sequence:
#
# PCOD8030051 Si02
#       8
#     2   2   2   2   2   2   2   2
#     4  12  25  45  74 106 141 188 236 296 359 418
#     4  12  28  48  70 104 143 190 243 291 350 430
#     4  12  26  45  72 103 140 188 235 296 357 419
#     4  11  25  43  70 101 143 181 235 290 355 422
#     4  11  21  42  65 103 141 173 224 296 354 414
#     4  12  22  41  73 106 140 175 233 297 358 409
#     4  12  25  43  75 107 140 179 234 297 363 416
#     4  12  28  48  70 101 146 195 240 285 353 430
#
# _framework density 22.785247999999999
#
# number of rings (size 3 to 8) (size 9 to 14) (size 15 to 20)
#    0.000    0.250    5.000    4.500    1.750    4.000 
#    0.000    0.000    0.000    0.000    0.000    0.000 
#    0.000    0.000    0.000    0.000    0.000    0.000 
#
# Total GULP energy -198334.228552 kJ/mol
# GULP energy per Si atom -12395.889285 kJ/mol
# Density = 2.273339 g / cm^3
# Si number density = 22.785248 Si / 1000 Ang^3
#
#
#
# Elastic Constant Matrix: (Units=GPa)
#
#
# Indices 1 2 3 4 5 6 
#
# 1 112.7229 40.0601 36.0118 -1.0514 6.6971 -3.8678
# 2 40.0601 103.5693 30.2134 1.9547 0.5442 -9.1725
# 3 36.0118 30.2134 98.6224 10.0379 13.5022 -1.3370
# 4 -1.0514 1.9547 10.0379 30.7865 1.9466 10.0806
# 5 6.6971 0.5442 13.5022 1.9466 32.5230 3.5551
# 6 -3.8678 -9.1725 -1.3370 10.0806 3.5551 28.2459
#
#
#
# Elastic Compliance Matrix: (Units=1/GPa)
#
#
# Indices 1 2 3 4 5 6 
#
# 1 0.011148 -0.003472 -0.003043 0.001736 -0.001053 -0.000232
# 2 -0.003472 0.012041 -0.002394 -0.001377 0.001189 0.003663
# 3 -0.003043 -0.002394 0.013100 -0.004452 -0.004681 0.001604
# 4 0.001736 -0.001377 -0.004452 0.038726 0.000763 -0.014337
# 5 -0.001053 0.001189 -0.004681 0.000763 0.033328 -0.004447
# 6 -0.000232 0.003663 0.001604 -0.014337 -0.004447 0.042313
#
#
# Mechanical properties :
#
#
# Convention : Reuss Voigt Hill
#
# Bulk Modulus (GPa) = 54.13797 58.60946 56.37371
# Shear Modulus (GPa) = 28.63173 32.21971 30.42572
#
# Velocity S-wave (km/s) = 3.54869 3.76448 3.65817
# Velocity P-wave (km/s) = 6.37202 6.68382 6.52978
#
# Compressibility (1/GPa) = 0.01847132
#
# Stress axis : x y z
#
# Youngs Moduli (GPa) = 89.70131 83.05009 76.33679
#
# Poissons Ratio (x) = 0.28837 0.23227
# Poissons Ratio (y) = 0.31146 0.18274
# Poissons Ratio (z) = 0.27293 0.19882
#
# Static dielectric constant tensor:
#      x y z
#    x 4.214740 0.049650 0.097240 
#    y 0.049650 4.251290 0.084450 
#    z 0.097240 0.084450 4.058730 
# 
# 
# High freq. dielectric constant tensor:
#      x y z
#    x 1.914630 -0.001910 0.010670 
#    y -0.001910 1.907320 0.000520 
#    z 0.010670 0.000520 1.889440 
# 
# From -- ./inp_files/618246.got.cif
#   From: 2010.06.25/outbox.cif.g09.slc.cpg/sg2_310_cif.got.tgz:618246.got - 2010.06.27 13:26:56.
