data_PCOD8030105
_publ_section_title
;
Structure prediction by ZEFSAII (Michael W. Deem and Ramdas Pophale) SiO2 
 PCOD8030105
Probable space group: P -1
;
_chemical_formula_sum "Si O2"
_cell_formula_units_Z 16
_cell_length_a 17.246225
_cell_length_b 17.148395
_cell_length_c 16.996481
_cell_angle_alpha 31.790025
_cell_angle_beta 163.390055
_cell_angle_gamma 146.694631
_cell_volume 749.395699
_symmetry_space_group_name_H-M "P -1"
_symmetry_group_IT_number 2
_symmetry_cell_setting 'triclinic'
loop_
_space_group_symop_operation_xyz
x,y,z
-x,-y,-z
loop_
_atom_site_type_symbol
_atom_site_label
_atom_site_fract_x
_atom_site_fract_y
_atom_site_fract_z
Si Si1 0.922418 0.974135 0.130855
Si Si2 0.585557 0.005867 0.989247
Si Si3 0.256348 0.583387 0.720633
Si Si4 0.508485 0.318398 0.870123
Si Si5 0.733815 0.520872 0.772459
Si Si6 0.121229 0.146166 0.329742
Si Si7 0.007345 0.669758 0.555057
Si Si8 0.579466 0.066976 0.435897
O O1 0.921410 0.808183 0.305034
O O2 0.155530 0.008588 0.262714
O O3 0.636496 0.981943 0.802198
O O4 0.988620 0.095918 0.159390
O O5 0.360885 0.055144 0.668885
O O6 0.656355 0.843299 0.173175
O O7 0.500000 0.000000 0.000000
O O8 0.866055 0.120479 0.163286
O O9 0.345862 0.755130 0.637350
O O10 0.000000 0.500000 0.500000
O O11 0.155782 0.565235 0.729715
O O12 0.500000 0.500000 0.000000
O O13 0.646756 0.400951 0.858031
O O14 0.279837 0.405143 0.617744
O O15 0.762276 0.281354 0.199349
O O16 0.500000 0.500000 0.500000
O O17 0.762916 0.679653 0.708266
O O18 0.000000 0.500000 0.000000
O O19 0.500000 0.000000 0.500000
#
# Coordination Sequence:
#
# PCOD8030105 Si02
#       8
#     2   2   2   2   2   2   2   2
#     4  11  21  42  69  96 131 169 215 275 324 381
#     4  12  23  39  68 101 124 165 226 278 312 393
#     4  11  23  43  68  98 134 171 215 266 327 394
#     4  12  22  42  66  97 130 170 224 267 330 393
#     4  12  27  47  64  93 140 183 213 274 346 393
#     4  12  24  43  66  96 132 171 222 267 335 389
#     4  11  22  41  69  98 129 171 216 276 327 377
#     4  11  24  43  69  97 133 172 214 262 330 391
#
# _framework density 21.350536000000002
#
# number of rings (size 3 to 8) (size 9 to 14) (size 15 to 20)
#    0.000    0.500    2.500    8.250    0.000    0.000 
#    6.750    0.000    0.000    0.000    0.000    0.000 
#    0.000    0.000    0.000    0.000    0.000    0.000 
#
# Total GULP energy -198297.374296 kJ/mol
# GULP energy per Si atom -12393.585893 kJ/mol
# Density = 2.130194 g / cm^3
# Si number density = 21.350536 Si / 1000 Ang^3
#
#
#
# Elastic Constant Matrix: (Units=GPa)
#
#
# Indices 1 2 3 4 5 6 
#
# 1 127.0788 27.6592 34.3864 -1.8701 15.3166 6.7432
# 2 27.6592 101.2966 41.7556 14.2783 -9.9490 -11.6439
# 3 34.3864 41.7556 102.9790 14.8673 15.1797 3.2566
# 4 -1.8701 14.2783 14.8673 29.8653 -2.8073 5.1047
# 5 15.3166 -9.9490 15.1797 -2.8073 47.2031 6.5749
# 6 6.7432 -11.6439 3.2566 5.1047 6.5749 32.1528
#
#
#
# Elastic Compliance Matrix: (Units=1/GPa)
#
#
# Indices 1 2 3 4 5 6 
#
# 1 0.009518 -0.002751 -0.002079 0.003196 -0.002420 -0.002794
# 2 -0.002751 0.014635 -0.005103 -0.005295 0.004422 0.006330
# 3 -0.002079 -0.005103 0.013963 -0.004943 -0.005045 -0.001010
# 4 0.003196 -0.005295 -0.004943 0.040536 0.003123 -0.009162
# 5 -0.002420 0.004422 -0.005045 0.003123 0.025130 -0.003015
# 6 -0.002794 0.006330 -0.001010 -0.009162 -0.003015 0.036153
#
#
# Mechanical properties :
#
#
# Convention : Reuss Voigt Hill
#
# Bulk Modulus (GPa) = 54.79564 59.88407 57.33986
# Shear Modulus (GPa) = 30.14145 37.01445 33.57795
#
# Velocity S-wave (km/s) = 3.76139 4.16823 3.97003
# Velocity P-wave (km/s) = 6.67717 7.16062 6.92312
#
# Compressibility (1/GPa) = 0.01824963
#
# Stress axis : x y z
#
# Youngs Moduli (GPa) = 105.06956 68.32879 71.61695
#
# Poissons Ratio (x) = 0.18800 0.14887
# Poissons Ratio (y) = 0.28908 0.36546
# Poissons Ratio (z) = 0.21841 0.34868
#
# Static dielectric constant tensor:
#      x y z
#    x 4.049650 -0.015940 0.194690 
#    y -0.015940 3.803710 0.221370 
#    z 0.194690 0.221370 4.010390 
# 
# 
# High freq. dielectric constant tensor:
#      x y z
#    x 1.858880 -0.006930 0.014600 
#    y -0.006930 1.825770 0.021540 
#    z 0.014600 0.021540 1.850730 
# 
# From -- ./inp_files/534296.got.cif
#   From: 2010.06.25/outbox.cif.g09.slc.cpg/sg2_268_cif.got.tgz:534296.got - 2010.06.27 13:26:56.
