data_PCOD8030600
_publ_section_title
;
Structure prediction by ZEFSAII (Michael W. Deem and Ramdas Pophale) SiO2 
 PCOD8030600
Probable space group: P -1
;
_chemical_formula_sum "Si O2"
_cell_formula_units_Z 16
_cell_length_a 19.370553
_cell_length_b 12.412661
_cell_length_c 22.032945
_cell_angle_alpha 154.646304
_cell_angle_beta 19.810931
_cell_angle_gamma 153.590061
_cell_volume 730.169081
_symmetry_space_group_name_H-M "P -1"
_symmetry_group_IT_number 2
_symmetry_cell_setting 'triclinic'
loop_
_space_group_symop_operation_xyz
x,y,z
-x,-y,-z
loop_
_atom_site_type_symbol
_atom_site_label
_atom_site_fract_x
_atom_site_fract_y
_atom_site_fract_z
Si Si1 0.751533 0.609624 0.354508
Si Si2 0.915545 0.624155 0.040234
Si Si3 0.909987 0.195173 0.136377
Si Si4 0.840634 0.709819 0.470637
Si Si5 0.598701 0.773944 0.980569
Si Si6 0.541133 0.119802 0.093640
Si Si7 0.900486 0.036028 0.354184
Si Si8 0.496665 0.184008 0.782177
O O1 0.500000 0.500000 0.500000
O O2 0.827212 0.654644 0.383034
O O3 0.855671 0.893630 0.383282
O O4 0.852266 0.385757 0.131480
O O5 0.778191 0.317309 0.002416
O O6 0.823185 0.810815 0.252225
O O7 0.924864 0.724395 0.015011
O O8 0.910532 0.458167 0.309372
O O9 0.668869 0.049001 0.237647
O O10 0.000000 0.000000 0.000000
O O11 0.612338 0.699226 0.680186
O O12 0.000000 0.000000 0.500000
O O13 0.551168 0.884483 0.141444
O O14 0.508925 0.905468 0.065672
O O15 0.464218 0.462732 0.933246
O O16 0.850504 0.801857 0.778819
O O17 0.500000 0.000000 0.000000
O O18 0.741084 0.212368 0.574478
#
# Coordination Sequence:
#
# PCOD8030600 Si02
#       8
#     2   2   2   2   2   2   2   2
#     4  11  22  38  70 102 140 180 232 297 359 417
#     4  11  23  41  67 103 134 177 237 296 356 422
#     4  11  25  48  71  99 143 193 235 288 361 432
#     4  11  26  45  68 104 140 187 238 288 364 432
#     4  11  26  45  71 103 142 192 234 297 356 427
#     4  12  25  44  67 103 142 180 240 300 356 420
#     4  12  22  42  70 105 135 177 241 291 354 423
#     4  11  25  47  70 101 145 190 236 291 361 429
#
# _framework density 21.912734
#
# number of rings (size 3 to 8) (size 9 to 14) (size 15 to 20)
#    0.000    0.750    2.500    6.000    5.250    0.000 
#    2.250    1.250    0.000    0.000    0.000    0.000 
#    0.000    0.000    0.000    0.000    0.000    0.000 
#
# Total GULP energy -198333.713897 kJ/mol
# GULP energy per Si atom -12395.857119 kJ/mol
# Density = 2.186286 g / cm^3
# Si number density = 21.912734 Si / 1000 Ang^3
#
#
#
# Elastic Constant Matrix: (Units=GPa)
#
#
# Indices 1 2 3 4 5 6 
#
# 1 86.3627 37.0554 41.6973 11.6907 -8.4479 -10.7130
# 2 37.0554 118.6826 37.9310 12.0091 -2.4997 -2.0352
# 3 41.6973 37.9310 148.7772 7.9885 -3.8277 -3.0138
# 4 11.6907 12.0091 7.9885 42.7161 -6.6353 -2.8542
# 5 -8.4479 -2.4997 -3.8277 -6.6353 24.6548 3.6336
# 6 -10.7130 -2.0352 -3.0138 -2.8542 3.6336 37.0088
#
#
#
# Elastic Compliance Matrix: (Units=1/GPa)
#
#
# Indices 1 2 3 4 5 6 
#
# 1 0.015706 -0.003541 -0.003234 -0.001918 0.003474 0.003599
# 2 -0.003541 0.010175 -0.001540 -0.001771 -0.000802 -0.000649
# 3 -0.003234 -0.001540 0.008024 -0.000211 -0.000019 -0.000382
# 4 -0.001918 -0.001771 -0.000211 0.025432 0.005870 0.000715
# 5 0.003474 -0.000802 -0.000019 0.005870 0.043669 -0.002875
# 6 0.003599 -0.000649 -0.000382 0.000715 -0.002875 0.028333
#
#
# Mechanical properties :
#
#
# Convention : Reuss Voigt Hill
#
# Bulk Modulus (GPa) = 57.89109 65.24331 61.56720
# Shear Modulus (GPa) = 32.52509 36.68518 34.60514
#
# Velocity S-wave (km/s) = 3.85684 4.09608 3.97826
# Velocity P-wave (km/s) = 6.80514 7.22560 7.01852
#
# Compressibility (1/GPa) = 0.01727381
#
# Stress axis : x y z
#
# Youngs Moduli (GPa) = 63.67120 98.28030 124.63296
#
# Poissons Ratio (x) = 0.34803 0.40302
# Poissons Ratio (y) = 0.22547 0.19197
# Poissons Ratio (z) = 0.20589 0.15138
#
# Static dielectric constant tensor:
#      x y z
#    x 3.845720 -0.076010 0.135180 
#    y -0.076010 4.317010 0.226510 
#    z 0.135180 0.226510 4.480480 
# 
# 
# High freq. dielectric constant tensor:
#      x y z
#    x 1.844210 -0.005330 0.005820 
#    y -0.005330 1.874570 0.000460 
#    z 0.005820 0.000460 1.878590 
# 
# From -- ./inp_files/600125.got.cif
#   From: 2010.06.25/outbox.cif.g09.slc.cpg/sg2_301_cif.got.tgz:600125.got - 2010.06.27 13:26:56.
