data_PCOD8030421
_publ_section_title
;
Structure prediction by ZEFSAII (Michael W. Deem and Ramdas Pophale) SiO2 
 PCOD8030421
Probable space group: P -1
;
_chemical_formula_sum "Si O2"
_cell_formula_units_Z 14
_cell_length_a 8.536042
_cell_length_b 18.578648
_cell_length_c 8.541234
_cell_angle_alpha 123.060107
_cell_angle_beta 126.220832
_cell_angle_gamma 100.806000
_cell_volume 601.555041
_symmetry_space_group_name_H-M "P -1"
_symmetry_group_IT_number 2
_symmetry_cell_setting 'triclinic'
loop_
_space_group_symop_operation_xyz
x,y,z
-x,-y,-z
loop_
_atom_site_type_symbol
_atom_site_label
_atom_site_fract_x
_atom_site_fract_y
_atom_site_fract_z
Si Si1 0.731088 0.512789 0.233262
Si Si2 0.402052 0.964517 0.223613
Si Si3 0.331596 0.769943 0.813050
Si Si4 0.664922 0.734449 0.115937
Si Si5 0.167896 0.775223 0.380374
Si Si6 0.812726 0.393303 0.897224
Si Si7 0.825617 0.853355 0.692573
O O1 0.040453 0.663442 0.626809
O O2 0.500000 0.500000 0.000000
O O3 0.575062 0.421924 0.186371
O O4 0.830422 0.461888 0.134591
O O5 0.500000 0.000000 0.500000
O O6 0.530211 0.087929 0.350776
O O7 0.511423 0.912421 0.148778
O O8 0.047471 0.850450 0.865043
O O9 0.227685 0.748689 0.549492
O O10 0.544311 0.758647 0.941036
O O11 0.734407 0.811148 0.406046
O O12 0.951199 0.783543 0.273611
O O13 0.050034 0.657703 0.059993
O O14 0.461498 0.255688 0.495078
O O15 0.000000 0.500000 0.000000
O O16 0.000000 0.000000 0.000000
#
# Coordination Sequence:
#
# PCOD8030421 Si02
#       7
#     2   2   2   2   2   2   2
#     4  11  21  45  74 104 143 195 235 296 369 429
#     4  12  27  46  71 106 144 190 246 304 369 436
#     4  12  24  44  74 102 143 195 240 295 363 435
#     4  11  25  43  70 109 141 189 245 292 362 437
#     4  12  25  47  70 102 149 184 243 299 365 422
#     4  11  22  41  74 102 144 190 239 297 365 427
#     4  11  22  43  71 100 145 194 237 300 363 428
#
# _framework density 23.273015000000001
#
# number of rings (size 3 to 8) (size 9 to 14) (size 15 to 20)
#    0.000    0.571    5.714    2.571    2.000    1.714 
#    0.000    0.714    0.000    0.000    0.000    0.000 
#    0.000    0.000    0.000    0.000    0.000    0.000 
#
# Total GULP energy -173496.001289 kJ/mol
# GULP energy per Si atom -12392.571521 kJ/mol
# Density = 2.322004 g / cm^3
# Si number density = 23.273015 Si / 1000 Ang^3
#
#
#
# Elastic Constant Matrix: (Units=GPa)
#
#
# Indices 1 2 3 4 5 6 
#
# 1 107.1068 32.5673 24.1578 5.8660 8.9528 -22.9934
# 2 32.5673 116.9513 39.6531 8.1220 14.5365 -25.0995
# 3 24.1578 39.6531 76.2140 11.6911 13.8314 -3.7669
# 4 5.8660 8.1220 11.6911 53.6266 -6.7901 9.2588
# 5 8.9528 14.5365 13.8314 -6.7901 40.5251 8.4892
# 6 -22.9934 -25.0995 -3.7669 9.2588 8.4892 43.1159
#
#
#
# Elastic Compliance Matrix: (Units=1/GPa)
#
#
# Indices 1 2 3 4 5 6 
#
# 1 0.011937 -0.000420 -0.002165 -0.002475 -0.003668 0.007186
# 2 -0.000420 0.013002 -0.004789 -0.003030 -0.005248 0.008611
# 3 -0.002165 -0.004789 0.017495 -0.003217 -0.004124 -0.000911
# 4 -0.002475 -0.003030 -0.003217 0.022900 0.008661 -0.009988
# 5 -0.003668 -0.005248 -0.004124 0.008661 0.033108 -0.013750
# 6 0.007186 0.008611 -0.000911 -0.009988 -0.013750 0.036811
#
#
# Mechanical properties :
#
#
# Convention : Reuss Voigt Hill
#
# Bulk Modulus (GPa) = 36.11740 54.78097 45.44919
# Shear Modulus (GPa) = 31.40135 41.04646 36.22390
#
# Velocity S-wave (km/s) = 3.67721 4.20419 3.94950
# Velocity P-wave (km/s) = 5.79499 6.86706 6.35367
#
# Compressibility (1/GPa) = 0.02768748
#
# Stress axis : x y z
#
# Youngs Moduli (GPa) = 83.77100 76.91160 57.15802
#
# Poissons Ratio (x) = 0.03232 0.12373
# Poissons Ratio (y) = 0.03520 0.27371
# Poissons Ratio (z) = 0.18134 0.36830
#
# Static dielectric constant tensor:
#      x y z
#    x 4.771600 -0.191630 0.114260 
#    y -0.191630 4.422640 0.722030 
#    z 0.114260 0.722030 4.642580 
# 
# 
# High freq. dielectric constant tensor:
#      x y z
#    x 1.934550 -0.019510 0.008990 
#    y -0.019510 1.921550 0.032340 
#    z 0.008990 0.032340 1.909700 
# 
# From -- ./inp_files/218423.got.cif
#   From: 2010.06.25/outbox.cif.g09.slc.cpg/sg2_110_cif.got.tgz:218423.got - 2010.06.27 13:26:56.
