data_PCOD8030931
_publ_section_title
;
Structure prediction by ZEFSAII (Michael W. Deem and Ramdas Pophale) SiO2 
 PCOD8030931
Probable space group: P -1
;
_chemical_formula_sum "Si O2"
_cell_formula_units_Z 16
_cell_length_a 22.425666
_cell_length_b 19.460284
_cell_length_c 11.617249
_cell_angle_alpha 37.560124
_cell_angle_beta 29.407106
_cell_angle_gamma 17.108884
_cell_volume 703.869691
_symmetry_space_group_name_H-M "P -1"
_symmetry_group_IT_number 2
_symmetry_cell_setting 'triclinic'
loop_
_space_group_symop_operation_xyz
x,y,z
-x,-y,-z
loop_
_atom_site_type_symbol
_atom_site_label
_atom_site_fract_x
_atom_site_fract_y
_atom_site_fract_z
Si Si1 0.144361 0.681998 0.862635
Si Si2 0.147831 0.414004 0.251547
Si Si3 0.293591 0.988281 0.150242
Si Si4 0.372349 0.794258 0.050443
Si Si5 0.123166 0.552383 0.465861
Si Si6 0.312303 0.915293 0.479318
Si Si7 0.534560 0.445255 0.329926
Si Si8 0.161889 0.479506 0.757036
O O1 0.316883 0.566964 0.614128
O O2 0.270154 0.631365 0.831759
O O3 0.107104 0.579032 0.073859
O O4 0.861361 0.971719 0.946448
O O5 0.000000 0.500000 0.500000
O O6 0.036462 0.431565 0.310060
O O7 0.457039 0.132778 0.120432
O O8 0.320882 0.865074 0.177011
O O9 0.304446 0.925962 0.340636
O O10 0.023362 0.274401 0.198872
O O11 0.394208 0.639764 0.211575
O O12 0.636150 0.638139 0.772892
O O13 0.229669 0.462936 0.535580
O O14 0.934771 0.815141 0.411362
O O15 0.308599 0.785209 0.691239
O O16 0.577190 0.752932 0.299180
O O17 0.000000 0.500000 0.000000
#
# Coordination Sequence:
#
# PCOD8030931 Si02
#       8
#     2   2   2   2   2   2   2   2
#     4  11  24  41  70 102 138 180 228 287 346 402
#     4  12  22  44  69 102 147 179 216 289 354 406
#     4  11  22  41  68 100 134 176 231 276 336 409
#     4  12  25  43  69 107 139 176 232 291 344 404
#     4  11  27  44  66 105 142 177 228 283 351 418
#     4  11  24  47  70  97 137 186 231 280 342 409
#     4  11  22  45  69  98 134 185 234 283 338 407
#     4  11  25  43  68  97 136 186 230 273 337 416
#
# _framework density 22.731480999999999
#
# number of rings (size 3 to 8) (size 9 to 14) (size 15 to 20)
#    0.000    0.750    3.750    3.375    1.750    8.000 
#    0.000    1.250    0.000    0.000    0.000    0.000 
#    0.000    0.000    0.000    0.000    0.000    0.000 
#
# Total GULP energy -198440.419054 kJ/mol
# GULP energy per Si atom -12402.526191 kJ/mol
# Density = 2.267974 g / cm^3
# Si number density = 22.731481 Si / 1000 Ang^3
#
#
#
# Elastic Constant Matrix: (Units=GPa)
#
#
# Indices 1 2 3 4 5 6 
#
# 1 66.4209 46.1144 22.0798 -0.5700 -4.4939 7.5727
# 2 46.1144 151.7567 47.3845 -5.0632 -7.3984 -0.1062
# 3 22.0798 47.3845 81.9881 -15.4466 -5.9477 6.2312
# 4 -0.5700 -5.0632 -15.4466 40.8431 7.8868 -8.6760
# 5 -4.4939 -7.3984 -5.9477 7.8868 27.3465 -6.2611
# 6 7.5727 -0.1062 6.2312 -8.6760 -6.2611 34.3916
#
#
#
# Elastic Compliance Matrix: (Units=1/GPa)
#
#
# Indices 1 2 3 4 5 6 
#
# 1 0.020158 -0.005431 -0.002333 -0.002417 0.001012 -0.004458
# 2 -0.005431 0.009614 -0.004212 -0.000281 0.001370 0.002167
# 3 -0.002333 -0.004212 0.016368 0.005361 0.000247 -0.001068
# 4 -0.002417 -0.000281 0.005361 0.028875 -0.006332 0.005691
# 5 0.001012 0.001370 0.000247 -0.006332 0.040235 0.005464
# 6 -0.004458 0.002167 -0.001068 0.005691 0.005464 0.032689
#
#
# Mechanical properties :
#
#
# Convention : Reuss Voigt Hill
#
# Bulk Modulus (GPa) = 45.06871 59.03590 52.05231
# Shear Modulus (GPa) = 27.88818 32.82205 30.35512
#
# Velocity S-wave (km/s) = 3.50645 3.80399 3.65825
# Velocity P-wave (km/s) = 6.02189 6.73210 6.38688
#
# Compressibility (1/GPa) = 0.02218834
#
# Stress axis : x y z
#
# Youngs Moduli (GPa) = 49.60846 104.01499 61.09328
#
# Poissons Ratio (x) = 0.56495 0.14250
# Poissons Ratio (y) = 0.26945 0.25732
# Poissons Ratio (z) = 0.11572 0.43810
#
# Static dielectric constant tensor:
#      x y z
#    x 4.113660 -0.011130 -0.114120 
#    y -0.011130 4.726440 -0.009400 
#    z -0.114120 -0.009400 3.950540 
# 
# 
# High freq. dielectric constant tensor:
#      x y z
#    x 1.894270 -0.001610 -0.009200 
#    y -0.001610 1.914860 -0.002150 
#    z -0.009200 -0.002150 1.888580 
# 
# From -- ./inp_files/472382.got.cif
#   From: 2010.06.25/outbox.cif.g09.slc.cpg/sg2_237_cif.got.tgz:472382.got - 2010.06.27 13:26:56.
