data_PCOD8030608
_publ_section_title
;
Structure prediction by ZEFSAII (Michael W. Deem and Ramdas Pophale) SiO2 
 PCOD8030608
Probable space group: P -1
;
_chemical_formula_sum "Si O2"
_cell_formula_units_Z 16
_cell_length_a 9.857858
_cell_length_b 15.295074
_cell_length_c 9.112788
_cell_angle_alpha 104.919769
_cell_angle_beta 139.856331
_cell_angle_gamma 62.749959
_cell_volume 777.178430
_symmetry_space_group_name_H-M "P -1"
_symmetry_group_IT_number 2
_symmetry_cell_setting 'triclinic'
loop_
_space_group_symop_operation_xyz
x,y,z
-x,-y,-z
loop_
_atom_site_type_symbol
_atom_site_label
_atom_site_fract_x
_atom_site_fract_y
_atom_site_fract_z
Si Si1 0.729330 0.558648 0.823088
Si Si2 0.662984 0.771268 0.955850
Si Si3 0.602775 0.852214 0.623678
Si Si4 0.388044 0.296087 0.673352
Si Si5 0.258065 0.815231 0.838308
Si Si6 0.402853 0.474901 0.609557
Si Si7 0.132653 0.031189 0.246464
Si Si8 0.978355 0.312801 0.547334
O O1 0.664632 0.663483 0.891083
O O2 0.633614 0.495237 0.820992
O O3 0.595874 0.577637 0.566759
O O4 0.000000 0.500000 0.000000
O O5 0.681972 0.822605 0.843337
O O6 0.423166 0.838474 0.870270
O O7 0.882594 0.757768 0.232589
O O8 0.617067 0.755619 0.507249
O O9 0.778715 0.890912 0.713934
O O10 0.342121 0.935830 0.444008
O O11 0.410415 0.399413 0.711242
O O12 0.152228 0.320328 0.574112
O O13 0.608545 0.223457 0.915458
O O14 0.036161 0.917255 0.734180
O O15 0.186134 0.732242 0.677618
O O16 0.172973 0.576759 0.472384
O O17 0.000000 0.000000 0.000000
#
# Coordination Sequence:
#
# PCOD8030608 Si02
#       8
#     2   2   2   2   2   2   2   2
#     4  11  22  39  60  93 133 176 217 267 312 378
#     4  11  24  42  66  96 134 172 216 266 325 386
#     4  11  24  43  71 100 124 165 222 271 327 392
#     4  11  23  40  67  97 129 173 223 265 320 387
#     4  11  24  44  66  95 134 169 216 272 330 388
#     4  11  23  38  63  95 134 175 221 261 314 380
#     4  11  24  46  71  96 127 165 215 277 333 392
#     4  11  23  42  62  96 138 175 211 269 322 383
#
# _framework density 20.587289999999999
#
# number of rings (size 3 to 8) (size 9 to 14) (size 15 to 20)
#    0.000    1.000    6.250    0.375    0.000    4.000 
#    0.000    1.250    0.000    0.000    0.000    0.000 
#    0.000    0.000    0.000    0.000    0.000    0.000 
#
# Total GULP energy -198476.271218 kJ/mol
# GULP energy per Si atom -12404.766951 kJ/mol
# Density = 2.054043 g / cm^3
# Si number density = 20.587290 Si / 1000 Ang^3
#
#
#
# Elastic Constant Matrix: (Units=GPa)
#
#
# Indices 1 2 3 4 5 6 
#
# 1 109.8824 35.7308 38.0443 -22.0275 3.7393 -10.3149
# 2 35.7308 68.5732 17.5775 -3.1380 6.7009 -7.2948
# 3 38.0443 17.5775 65.0087 -2.8759 10.4430 0.9805
# 4 -22.0275 -3.1380 -2.8759 27.2552 -3.8652 -1.0646
# 5 3.7393 6.7009 10.4430 -3.8652 36.9096 -4.1036
# 6 -10.3149 -7.2948 0.9805 -1.0646 -4.1036 36.8633
#
#
#
# Elastic Compliance Matrix: (Units=1/GPa)
#
#
# Indices 1 2 3 4 5 6 
#
# 1 0.016706 -0.005876 -0.008264 0.012629 0.003534 0.004490
# 2 -0.005876 0.018243 -0.001252 -0.003072 -0.002503 0.001632
# 3 -0.008264 -0.001252 0.021334 -0.005577 -0.005995 -0.003956
# 4 0.012629 -0.003072 -0.005577 0.047057 0.006356 0.005141
# 5 0.003534 -0.002503 -0.005995 0.006356 0.030016 0.004178
# 6 0.004490 0.001632 -0.003956 0.005141 0.004178 0.029425
#
#
# Mechanical properties :
#
#
# Convention : Reuss Voigt Hill
#
# Bulk Modulus (GPa) = 39.22051 47.35214 43.28633
# Shear Modulus (GPa) = 24.74437 30.34638 27.54538
#
# Velocity S-wave (km/s) = 3.47064 3.84348 3.66181
# Velocity P-wave (km/s) = 5.92897 6.53812 6.24098
#
# Compressibility (1/GPa) = 0.02549686
#
# Stress axis : x y z
#
# Youngs Moduli (GPa) = 59.85983 54.81449 46.87411
#
# Poissons Ratio (x) = 0.32209 0.38739
# Poissons Ratio (y) = 0.35174 0.05871
# Poissons Ratio (z) = 0.49471 0.06865
#
# Static dielectric constant tensor:
#      x y z
#    x 3.846400 -0.184520 0.118590 
#    y -0.184520 3.746480 0.043570 
#    z 0.118590 0.043570 3.859610 
# 
# 
# High freq. dielectric constant tensor:
#      x y z
#    x 1.815600 -0.014100 0.008450 
#    y -0.014100 1.799430 0.008510 
#    z 0.008450 0.008510 1.811370 
# 
# From -- ./inp_files/37337.got.cif
#   From: 2010.06.25/outbox.cif.g09.slc.cpg/sg2_19_cif.got.tgz:37337.got - 2010.06.27 13:26:56.
