data_PCOD8030742
_publ_section_title
;
Structure prediction by ZEFSAII (Michael W. Deem and Ramdas Pophale) SiO2 
 PCOD8030742
Probable space group: P -1
;
_chemical_formula_sum "Si O2"
_cell_formula_units_Z 16
_cell_length_a 8.405908
_cell_length_b 12.294591
_cell_length_c 11.736294
_cell_angle_alpha 121.674531
_cell_angle_beta 55.135301
_cell_angle_gamma 133.789795
_cell_volume 701.034948
_symmetry_space_group_name_H-M "P -1"
_symmetry_group_IT_number 2
_symmetry_cell_setting 'triclinic'
loop_
_space_group_symop_operation_xyz
x,y,z
-x,-y,-z
loop_
_atom_site_type_symbol
_atom_site_label
_atom_site_fract_x
_atom_site_fract_y
_atom_site_fract_z
Si Si1 0.072419 0.145973 0.368122
Si Si2 0.779970 0.689875 0.066091
Si Si3 0.720821 0.820704 0.933294
Si Si4 0.429552 0.716795 0.651989
Si Si5 0.290672 0.210942 0.630129
Si Si6 0.286010 0.903304 0.948174
Si Si7 0.782908 0.410213 0.955184
Si Si8 0.075810 0.357349 0.650387
O O1 0.105126 0.163330 0.228225
O O2 0.318587 0.193501 0.343907
O O3 0.006943 0.262676 0.507450
O O4 0.876920 0.973448 0.392381
O O5 0.631094 0.711111 0.233962
O O6 0.757270 0.746257 0.985211
O O7 0.702896 0.514821 0.989903
O O8 0.051169 0.788637 0.053805
O O9 0.445238 0.718851 0.951296
O O10 0.770142 0.986179 0.035815
O O11 0.475157 0.739477 0.509250
O O12 0.308156 0.801712 0.788876
O O13 0.277196 0.537076 0.647722
O O14 0.164275 0.282462 0.659467
O O15 0.500000 0.000000 0.000000
O O16 0.844370 0.337441 0.786515
O O17 0.000000 0.500000 0.000000
#
# Coordination Sequence:
#
# PCOD8030742 Si02
#       8
#     2   2   2   2   2   2   2   2
#     4  11  23  39  63  98 134 170 218 267 338 386
#     4  12  25  46  64 100 139 172 218 271 341 395
#     4  12  27  42  69  96 140 178 209 278 341 390
#     4  11  22  40  65  99 127 171 222 279 320 383
#     4  11  23  38  67  94 135 169 216 274 332 389
#     4  12  23  42  71  99 127 174 233 271 319 385
#     4  12  24  43  71  99 128 173 233 272 314 394
#     4  11  23  40  65  97 130 169 222 281 318 383
#
# _framework density 22.823398999999998
#
# number of rings (size 3 to 8) (size 9 to 14) (size 15 to 20)
#    0.000    0.500    5.000    5.250    5.250    0.000 
#    0.000    2.500    0.000    0.000    0.000    0.000 
#    0.000    0.000    0.000    0.000    0.000    0.000 
#
# Total GULP energy -198370.942464 kJ/mol
# GULP energy per Si atom -12398.183904 kJ/mol
# Density = 2.277145 g / cm^3
# Si number density = 22.823399 Si / 1000 Ang^3
#
#
#
# Elastic Constant Matrix: (Units=GPa)
#
#
# Indices 1 2 3 4 5 6 
#
# 1 23.3010 9.3922 37.2728 2.0859 1.1672 -10.4088
# 2 9.3922 132.6136 65.0385 5.2746 -4.6204 -14.6156
# 3 37.2728 65.0385 193.8748 8.0874 -2.4527 -27.0166
# 4 2.0859 5.2746 8.0874 47.1593 -7.7293 -8.4251
# 5 1.1672 -4.6204 -2.4527 -7.7293 26.6021 -3.3178
# 6 -10.4088 -14.6156 -27.0166 -8.4251 -3.3178 35.3663
#
#
#
# Elastic Compliance Matrix: (Units=1/GPa)
#
#
# Indices 1 2 3 4 5 6 
#
# 1 0.066248 0.002341 -0.012005 0.000537 -0.002050 0.011230
# 2 0.002341 0.009252 -0.003231 0.000053 0.001496 0.002197
# 3 -0.012005 -0.003231 0.008839 -0.000113 0.000991 0.001950
# 4 0.000537 0.000053 -0.000113 0.023594 0.007633 0.006431
# 5 -0.002050 0.001496 0.000991 0.007633 0.041053 0.006441
# 6 0.011230 0.002197 0.001950 0.006431 0.006441 0.036114
#
#
# Mechanical properties :
#
#
# Convention : Reuss Voigt Hill
#
# Bulk Modulus (GPa) = 17.08002 63.68850 40.38426
# Shear Modulus (GPa) = 21.70087 37.69793 29.69940
#
# Velocity S-wave (km/s) = 3.08688 4.06855 3.61123
# Velocity P-wave (km/s) = 4.49498 7.07363 5.92626
#
# Compressibility (1/GPa) = 0.05854794
#
# Stress axis : x y z
#
# Youngs Moduli (GPa) = 15.09485 108.09019 113.13954
#
# Poissons Ratio (x) = -0.25299 1.35823
# Poissons Ratio (y) = -0.03533 0.36552
# Poissons Ratio (z) = 0.18121 0.34920
#
# Static dielectric constant tensor:
#      x y z
#    x 3.708570 0.075350 -0.312660 
#    y 0.075350 4.716490 -0.019830 
#    z -0.312660 -0.019830 5.134300 
# 
# 
# High freq. dielectric constant tensor:
#      x y z
#    x 1.860560 -0.004570 -0.009620 
#    y -0.004570 1.928660 0.000030 
#    z -0.009620 0.000030 1.918660 
# 
# From -- ./inp_files/390942.got.cif
#   From: 2010.06.25/outbox.cif.g09.slc.cpg/sg2_196_cif.got.tgz:390942.got - 2010.06.27 13:26:56.
