data_PCOD8030849
_publ_section_title
;
Structure prediction by ZEFSAII (Michael W. Deem and Ramdas Pophale) SiO2 
 PCOD8030849
Probable space group: P -1
;
_chemical_formula_sum "Si O2"
_cell_formula_units_Z 16
_cell_length_a 9.256257
_cell_length_b 14.293230
_cell_length_c 13.222670
_cell_angle_alpha 133.182300
_cell_angle_beta 37.952293
_cell_angle_gamma 139.075383
_cell_volume 687.542204
_symmetry_space_group_name_H-M "P -1"
_symmetry_group_IT_number 2
_symmetry_cell_setting 'triclinic'
loop_
_space_group_symop_operation_xyz
x,y,z
-x,-y,-z
loop_
_atom_site_type_symbol
_atom_site_label
_atom_site_fract_x
_atom_site_fract_y
_atom_site_fract_z
Si Si1 0.983587 0.042735 0.371825
Si Si2 0.903807 0.594296 0.246373
Si Si3 0.834857 0.465233 0.393592
Si Si4 0.896238 0.707905 0.834098
Si Si5 0.185301 0.761100 0.517767
Si Si6 0.663177 0.487110 0.092536
Si Si7 0.761548 0.789052 0.170680
Si Si8 0.716122 0.808943 0.506554
O O1 0.869252 0.141458 0.459553
O O2 0.268197 0.139504 0.345685
O O3 0.000684 0.935460 0.198219
O O4 0.773540 0.942187 0.499780
O O5 0.759616 0.525257 0.380436
O O6 0.710337 0.490776 0.189023
O O7 0.945953 0.758397 0.332981
O O8 0.185161 0.595029 0.099145
O O9 0.556852 0.329121 0.483148
O O10 0.039173 0.400898 0.214690
O O11 0.967442 0.590350 0.497748
O O12 0.644648 0.615489 0.834114
O O13 0.140505 0.800068 0.687571
O O14 0.829659 0.801811 0.022230
O O15 0.482679 0.787483 0.349350
O O16 0.766122 0.648690 0.111035
#
# Coordination Sequence:
#
# PCOD8030849 Si02
#       8
#     2   2   2   2   2   2   2   2
#     4  11  26  45  68 101 145 200 235 280 365 433
#     4  11  22  40  73 104 142 185 235 298 363 411
#     4  12  23  43  75 110 138 181 244 307 350 415
#     4  12  26  43  74 110 141 183 244 301 355 410
#     4  12  26  44  76 108 141 190 239 295 358 424
#     4  11  23  41  70 109 145 180 236 303 360 418
#     4  12  24  47  70 101 153 188 233 296 357 427
#     4  11  24  44  72 103 146 189 240 294 353 429
#
# _framework density 23.271298999999999
#
# number of rings (size 3 to 8) (size 9 to 14) (size 15 to 20)
#    0.000    0.500    5.000    3.750    1.750    0.500 
#    0.000    0.625    0.000    0.000    0.000    0.000 
#    0.000    0.000    0.000    0.000    0.000    0.000 
#
# Total GULP energy -198261.832419 kJ/mol
# GULP energy per Si atom -12391.364526 kJ/mol
# Density = 2.321833 g / cm^3
# Si number density = 23.271299 Si / 1000 Ang^3
#
#
#
# Elastic Constant Matrix: (Units=GPa)
#
#
# Indices 1 2 3 4 5 6 
#
# 1 98.7916 25.4187 47.0065 -5.5727 3.7555 -19.1366
# 2 25.4187 68.6214 37.2107 9.4682 -1.2573 -0.1890
# 3 47.0065 37.2107 124.6600 -3.6864 9.3697 2.3854
# 4 -5.5727 9.4682 -3.6864 27.2523 -3.9436 2.5803
# 5 3.7555 -1.2573 9.3697 -3.9436 44.6069 1.0751
# 6 -19.1366 -0.1890 2.3854 2.5803 1.0751 33.6339
#
#
#
# Elastic Compliance Matrix: (Units=1/GPa)
#
#
# Indices 1 2 3 4 5 6 
#
# 1 0.015107 -0.003383 -0.004747 0.002749 -0.000337 0.008713
# 2 -0.003383 0.019577 -0.004873 -0.007896 0.001184 -0.000902
# 3 -0.004747 -0.004873 0.011547 0.002362 -0.001866 -0.003669
# 4 0.002749 -0.007896 0.002362 0.040888 0.002710 -0.001871
# 5 -0.000337 0.001184 -0.001866 0.002710 0.023135 -0.001000
# 6 0.008713 -0.000902 -0.003669 -0.001871 -0.001000 0.035120
#
#
# Mechanical properties :
#
#
# Convention : Reuss Voigt Hill
#
# Bulk Modulus (GPa) = 49.44557 56.81611 53.13084
# Shear Modulus (GPa) = 28.07057 33.26110 30.66583
#
# Velocity S-wave (km/s) = 3.47685 3.78468 3.63403
# Velocity P-wave (km/s) = 6.11650 6.60046 6.36308
#
# Compressibility (1/GPa) = 0.02022426
#
# Stress axis : x y z
#
# Youngs Moduli (GPa) = 66.19433 51.07975 86.60562
#
# Poissons Ratio (x) = 0.17283 0.41109
# Poissons Ratio (y) = 0.22397 0.42204
# Poissons Ratio (z) = 0.31420 0.24892
#
# Static dielectric constant tensor:
#      x y z
#    x 4.586630 0.060260 0.062620 
#    y 0.060260 4.039710 0.311140 
#    z 0.062620 0.311140 4.496460 
# 
# 
# High freq. dielectric constant tensor:
#      x y z
#    x 1.950940 -0.003540 0.005040 
#    y -0.003540 1.891740 0.017650 
#    z 0.005040 0.017650 1.914880 
# 
# From -- ./inp_files/505537.got.cif
#   From: 2010.06.25/outbox.cif.g09.slc.cpg/sg2_253_cif.got.tgz:505537.got - 2010.06.27 13:26:56.
