data_PCOD8030154
_publ_section_title
;
Structure prediction by ZEFSAII (Michael W. Deem and Ramdas Pophale) SiO2 
 PCOD8030154
Probable space group: P -1
;
_chemical_formula_sum "Si O2"
_cell_formula_units_Z 16
_cell_length_a 9.689569
_cell_length_b 5.080594
_cell_length_c 14.547808
_cell_angle_alpha 71.356901
_cell_angle_beta 85.017982
_cell_angle_gamma 76.469331
_cell_volume 659.700998
_symmetry_space_group_name_H-M "P -1"
_symmetry_group_IT_number 2
_symmetry_cell_setting 'triclinic'
loop_
_space_group_symop_operation_xyz
x,y,z
-x,-y,-z
loop_
_atom_site_type_symbol
_atom_site_label
_atom_site_fract_x
_atom_site_fract_y
_atom_site_fract_z
Si Si1 0.130173 0.478584 0.869356
Si Si2 0.257858 0.675185 0.238610
Si Si3 0.907300 0.908928 0.936242
Si Si4 0.575664 0.956119 0.699614
Si Si5 0.308748 0.972653 0.502603
Si Si6 0.144690 0.546128 0.526849
Si Si7 0.300427 0.789597 0.714589
Si Si8 0.950203 0.729730 0.283179
O O1 0.276439 0.523444 0.807580
O O2 0.058072 0.286054 0.825531
O O3 0.010646 0.768697 0.862153
O O4 0.168355 0.321104 0.982777
O O5 0.317121 0.343372 0.252093
O O6 0.115368 0.700663 0.306102
O O7 0.215893 0.842428 0.126234
O O8 0.377227 0.798922 0.271256
O O9 0.000000 0.000000 0.000000
O O10 0.417554 0.933844 0.741908
O O11 0.571219 0.033976 0.581416
O O12 0.181857 0.853309 0.472186
O O13 0.354137 0.742198 0.609910
O O14 0.267360 0.292243 0.507660
O O15 0.119682 0.519293 0.641781
O O16 0.000000 0.500000 0.500000
O O17 0.143016 0.985423 0.700051
#
# Coordination Sequence:
#
# PCOD8030154 Si02
#       8
#     2   2   2   2   2   2   2   2
#     4  11  21  42  73 103 132 171 239 287 336 404
#     4  12  26  46  70 104 142 180 225 297 355 407
#     4  11  23  41  75 106 130 176 234 289 351 423
#     4  12  28  45  68 102 149 188 226 284 354 404
#     4  11  23  42  64  96 136 194 235 267 330 419
#     4  11  22  36  62  99 139 174 227 293 339 389
#     4  11  25  44  70 100 141 188 237 281 331 417
#     4  11  22  41  70  99 135 180 236 284 340 407
#
# _framework density 24.253412000000001
#
# number of rings (size 3 to 8) (size 9 to 14) (size 15 to 20)
#    0.000    0.750    3.750    3.750    3.500    1.000 
#    0.000    4.375    0.000    0.000    0.000    0.000 
#    0.000    0.000    0.000    0.000    0.000    0.000 
#
# Total GULP energy -198281.546589 kJ/mol
# GULP energy per Si atom -12392.596662 kJ/mol
# Density = 2.419821 g / cm^3
# Si number density = 24.253412 Si / 1000 Ang^3
#
#
#
# Elastic Constant Matrix: (Units=GPa)
#
#
# Indices 1 2 3 4 5 6 
#
# 1 96.3055 -1.0336 13.5529 -4.6702 -23.0460 15.9818
# 2 -1.0336 69.9421 8.8563 2.5082 -4.0136 12.6481
# 3 13.5529 8.8563 119.3573 -2.2305 -21.1383 6.2719
# 4 -4.6702 2.5082 -2.2305 35.3829 7.2097 3.7889
# 5 -23.0460 -4.0136 -21.1383 7.2097 25.4953 -4.7946
# 6 15.9818 12.6481 6.2719 3.7889 -4.7946 30.7919
#
#
#
# Elastic Compliance Matrix: (Units=1/GPa)
#
#
# Indices 1 2 3 4 5 6 
#
# 1 0.014438 0.002022 0.000828 -0.000115 0.012870 -0.006475
# 2 0.002022 0.015834 -0.000567 -0.000710 0.002749 -0.006923
# 3 0.000828 -0.000567 0.009948 -0.000995 0.009059 -0.000690
# 4 -0.000115 -0.000710 -0.000995 0.030946 -0.010717 -0.004923
# 5 0.012870 0.002749 0.009059 -0.010717 0.062081 0.001331
# 6 -0.006475 -0.006923 -0.000690 -0.004923 0.001331 0.039634
#
#
# Mechanical properties :
#
#
# Convention : Reuss Voigt Hill
#
# Bulk Modulus (GPa) = 22.32842 36.48401 29.40621
# Shear Modulus (GPa) = 27.28607 35.94931 31.61769
#
# Velocity S-wave (km/s) = 3.35780 3.85416 3.61451
# Velocity P-wave (km/s) = 4.92538 5.90606 5.43787
#
# Compressibility (1/GPa) = 0.04478597
#
# Stress axis : x y z
#
# Youngs Moduli (GPa) = 69.26391 63.15392 100.51978
#
# Poissons Ratio (x) = -0.12770 -0.08323
# Poissons Ratio (y) = -0.14005 0.05701
# Poissons Ratio (z) = -0.05735 0.03582
#
# Static dielectric constant tensor:
#      x y z
#    x 4.268870 0.304900 -0.457680 
#    y 0.304900 4.225870 -0.341390 
#    z -0.457680 -0.341390 5.185970 
# 
# 
# High freq. dielectric constant tensor:
#      x y z
#    x 1.951810 0.028970 -0.020550 
#    y 0.028970 1.955890 -0.008180 
#    z -0.020550 -0.008180 1.974110 
# 
# From -- ./inp_files/488166.got.cif
#   From: 2010.06.25/outbox.cif.g09.slc.cpg/sg2_245_cif.got.tgz:488166.got - 2010.06.27 13:26:56.
