data_PCOD8030268
_publ_section_title
;
Structure prediction by ZEFSAII (Michael W. Deem and Ramdas Pophale) SiO2 
 PCOD8030268
Probable space group: P -1
;
_chemical_formula_sum "Si O2"
_cell_formula_units_Z 16
_cell_length_a 8.713542
_cell_length_b 14.254106
_cell_length_c 14.168777
_cell_angle_alpha 56.001489
_cell_angle_beta 125.392143
_cell_angle_gamma 149.071347
_cell_volume 729.137932
_symmetry_space_group_name_H-M "P -1"
_symmetry_group_IT_number 2
_symmetry_cell_setting 'triclinic'
loop_
_space_group_symop_operation_xyz
x,y,z
-x,-y,-z
loop_
_atom_site_type_symbol
_atom_site_label
_atom_site_fract_x
_atom_site_fract_y
_atom_site_fract_z
Si Si1 0.656730 0.872041 0.963296
Si Si2 0.300598 0.917198 0.382917
Si Si3 0.218686 0.285561 0.246781
Si Si4 0.521698 0.961399 0.238972
Si Si5 0.251332 0.558371 0.120311
Si Si6 0.844354 0.430595 0.708768
Si Si7 0.462624 0.240796 0.214826
Si Si8 0.781883 0.497792 0.457430
O O1 0.588601 0.973177 0.882755
O O2 0.480924 0.725917 0.896403
O O3 0.560328 0.773798 0.084987
O O4 0.000000 0.000000 0.000000
O O5 0.962424 0.702696 0.395592
O O6 0.500000 0.000000 0.500000
O O7 0.477572 0.938893 0.348520
O O8 0.272744 0.036358 0.283843
O O9 0.285186 0.447214 0.159882
O O10 0.256410 0.243376 0.182245
O O11 0.463285 0.348750 0.371207
O O12 0.876389 0.103895 0.265311
O O13 0.307283 0.764439 0.227104
O O14 0.184960 0.521566 0.228386
O O15 0.000000 0.500000 0.000000
O O16 0.687751 0.432209 0.570386
O O17 0.200284 0.592031 0.713011
O O18 0.000000 0.500000 0.500000
#
# Coordination Sequence:
#
# PCOD8030268 Si02
#       8
#     2   2   2   2   2   2   2   2
#     4  11  27  47  71 101 139 185 239 293 360 422
#     4  11  21  43  73  95 142 187 231 284 346 419
#     4  12  27  45  71 108 147 184 241 290 356 419
#     4  11  26  45  68 107 144 180 240 296 348 424
#     4  12  26  50  70 101 144 183 237 306 350 413
#     4  12  25  47  73 102 147 188 237 288 360 421
#     4  11  24  44  71 106 136 191 235 285 359 426
#     4  12  24  46  72 107 144 188 234 286 351 431
#
# _framework density 21.943722000000001
#
# number of rings (size 3 to 8) (size 9 to 14) (size 15 to 20)
#    0.000    0.500    6.250    0.750    7.000    3.000 
#    0.000    0.000    0.000    0.000    0.000    0.000 
#    0.000    0.000    0.000    0.000    0.000    0.000 
#
# Total GULP energy -198409.734276 kJ/mol
# GULP energy per Si atom -12400.608392 kJ/mol
# Density = 2.189378 g / cm^3
# Si number density = 21.943722 Si / 1000 Ang^3
#
#
#
# Elastic Constant Matrix: (Units=GPa)
#
#
# Indices 1 2 3 4 5 6 
#
# 1 117.5465 42.8233 40.8378 -16.8473 10.9529 -3.4345
# 2 42.8233 130.4174 27.2240 -18.7586 16.7499 3.7661
# 3 40.8378 27.2240 94.3987 -12.5179 0.6868 2.6354
# 4 -16.8473 -18.7586 -12.5179 37.3561 7.4521 2.3182
# 5 10.9529 16.7499 0.6868 7.4521 36.0820 -0.4970
# 6 -3.4345 3.7661 2.6354 2.3182 -0.4970 40.3664
#
#
#
# Elastic Compliance Matrix: (Units=1/GPa)
#
#
# Indices 1 2 3 4 5 6 
#
# 1 0.011430 -0.002094 -0.003909 0.003337 -0.003096 0.001193
# 2 -0.002094 0.009975 -0.001272 0.004713 -0.004963 -0.001358
# 3 -0.003909 -0.001272 0.012909 0.001765 0.001151 -0.001144
# 4 0.003337 0.004713 0.001765 0.033404 -0.010165 -0.002315
# 5 -0.003096 -0.004963 0.001151 -0.010165 0.033051 0.001115
# 6 0.001193 -0.001358 -0.001144 -0.002315 0.001115 0.025223
#
#
# Mechanical properties :
#
#
# Convention : Reuss Voigt Hill
#
# Bulk Modulus (GPa) = 50.59697 62.68143 56.63920
# Shear Modulus (GPa) = 33.98365 38.19274 36.08820
#
# Velocity S-wave (km/s) = 3.93959 4.17644 4.05974
# Velocity P-wave (km/s) = 6.61827 7.20302 6.91683
#
# Compressibility (1/GPa) = 0.01976403
#
# Stress axis : x y z
#
# Youngs Moduli (GPa) = 87.49079 100.24824 77.46552
#
# Poissons Ratio (x) = 0.20991 0.30282
# Poissons Ratio (y) = 0.18320 0.09854
# Poissons Ratio (z) = 0.34201 0.12751
#
# Static dielectric constant tensor:
#      x y z
#    x 3.588330 0.381840 0.677580 
#    y 0.381840 3.621170 -0.790800 
#    z 0.677580 -0.790800 2.477040 
# 
# 
# High freq. dielectric constant tensor:
#      x y z
#    x 1.865270 -0.002770 -0.010030 
#    y -0.002770 1.874270 -0.004790 
#    z -0.010030 -0.004790 1.865860 
# 
# From -- ./inp_files/505390.got.cif
#   From: 2010.06.25/outbox.cif.g09.slc.cpg/sg2_253_cif.got.tgz:505390.got - 2010.06.27 13:26:56.
