data_PCOD8030212
_publ_section_title
;
Structure prediction by ZEFSAII (Michael W. Deem and Ramdas Pophale) SiO2 
 PCOD8030212
Probable space group: P -1
;
_chemical_formula_sum "Si O2"
_cell_formula_units_Z 16
_cell_length_a 20.266203
_cell_length_b 16.964308
_cell_length_c 8.520769
_cell_angle_alpha 45.145205
_cell_angle_beta 44.889101
_cell_angle_gamma 19.798334
_cell_volume 691.013523
_symmetry_space_group_name_H-M "P -1"
_symmetry_group_IT_number 2
_symmetry_cell_setting 'triclinic'
loop_
_space_group_symop_operation_xyz
x,y,z
-x,-y,-z
loop_
_atom_site_type_symbol
_atom_site_label
_atom_site_fract_x
_atom_site_fract_y
_atom_site_fract_z
Si Si1 0.681070 0.588629 0.431924
Si Si2 0.619276 0.276795 0.184901
Si Si3 0.881538 0.860959 0.141246
Si Si4 0.592784 0.059648 0.836041
Si Si5 0.986837 0.143631 0.351294
Si Si6 0.015734 0.606315 0.583053
Si Si7 0.627586 0.268672 0.530351
Si Si8 0.664989 0.902116 0.273704
O O1 0.495984 0.719740 0.636116
O O2 0.796625 0.368181 0.459828
O O3 0.821818 0.492458 0.459871
O O4 0.584304 0.788955 0.201422
O O5 0.688784 0.242465 0.289048
O O6 0.806309 0.054938 0.072851
O O7 0.500000 0.500000 0.000000
O O8 0.704348 0.974794 0.199334
O O9 0.993351 0.674455 0.348625
O O10 0.031400 0.753178 0.910578
O O11 0.809622 0.820855 0.724612
O O12 0.517742 0.265958 0.701765
O O13 0.581802 0.006418 0.091874
O O14 0.000000 0.000000 0.500000
O O15 0.185427 0.965638 0.356777
O O16 0.114326 0.382108 0.712260
O O17 0.500000 0.500000 0.500000
O O18 0.500000 0.000000 0.500000
#
# Coordination Sequence:
#
# PCOD8030212 Si02
#       8
#     2   2   2   2   2   2   2   2
#     4  11  23  45  70 101 138 185 245 279 353 435
#     4  11  23  41  70 103 142 184 227 291 353 421
#     4  12  24  48  68 104 153 176 232 304 348 419
#     4  11  24  49  73  99 145 188 230 302 353 417
#     4  12  24  41  69 107 141 187 237 280 357 433
#     4  12  25  49  72 102 140 193 236 299 358 411
#     4  11  21  43  69  99 140 189 228 280 354 419
#     4  12  28  46  75 106 136 189 245 295 358 418
#
# _framework density 23.154395999999998
#
# number of rings (size 3 to 8) (size 9 to 14) (size 15 to 20)
#    0.000    0.500    5.000    4.500    1.750    1.500 
#    2.250    2.500    0.000    0.000    0.000    0.000 
#    0.000    0.000    0.000    0.000    0.000    0.000 
#
# Total GULP energy -198279.833602 kJ/mol
# GULP energy per Si atom -12392.489600 kJ/mol
# Density = 2.310170 g / cm^3
# Si number density = 23.154396 Si / 1000 Ang^3
#
#
#
# Elastic Constant Matrix: (Units=GPa)
#
#
# Indices 1 2 3 4 5 6 
#
# 1 102.5315 19.6892 28.5964 1.2597 20.9741 -3.6528
# 2 19.6892 87.3770 5.4478 -15.5498 7.9319 6.1826
# 3 28.5964 5.4478 122.0422 -15.9448 29.7242 -9.9750
# 4 1.2597 -15.5498 -15.9448 38.4965 -10.0781 1.5659
# 5 20.9741 7.9319 29.7242 -10.0781 32.2993 -10.4423
# 6 -3.6528 6.1826 -9.9750 1.5659 -10.4423 48.2589
#
#
#
# Elastic Compliance Matrix: (Units=1/GPa)
#
#
# Indices 1 2 3 4 5 6 
#
# 1 0.012213 -0.002673 -0.001535 -0.003998 -0.007269 -0.000493
# 2 -0.002673 0.013254 0.000905 0.005558 -0.001322 -0.002180
# 3 -0.001535 0.000905 0.010923 0.002740 -0.008383 0.000123
# 4 -0.003998 0.005558 0.002740 0.031762 0.008754 0.000415
# 5 -0.007269 -0.001322 -0.008383 0.008754 0.049112 0.008229
# 6 -0.000493 -0.002180 0.000123 0.000415 0.008229 0.022756
#
#
# Mechanical properties :
#
#
# Convention : Reuss Voigt Hill
#
# Bulk Modulus (GPa) = 33.57510 46.60193 40.08851
# Shear Modulus (GPa) = 31.93791 41.02542 36.48166
#
# Velocity S-wave (km/s) = 3.71798 4.21387 3.97367
# Velocity P-wave (km/s) = 5.74136 6.62162 6.19714
#
# Compressibility (1/GPa) = 0.02978398
#
# Stress axis : x y z
#
# Youngs Moduli (GPa) = 81.88058 75.44882 91.55123
#
# Poissons Ratio (x) = 0.20168 0.14049
# Poissons Ratio (y) = 0.21887 -0.08283
# Poissons Ratio (z) = 0.12565 -0.06826
#
# Static dielectric constant tensor:
#      x y z
#    x 3.995660 0.057620 0.264130 
#    y 0.057620 4.699270 -0.495610 
#    z 0.264130 -0.495610 3.993680 
# 
# 
# High freq. dielectric constant tensor:
#      x y z
#    x 1.931090 0.006730 0.017800 
#    y 0.006730 1.924890 -0.017130 
#    z 0.017800 -0.017130 1.911630 
# 
# From -- ./inp_files/348818.got.cif
#   From: 2010.06.25/outbox.cif.g09.slc.cpg/sg2_175_cif.got.tgz:348818.got - 2010.06.27 13:26:56.
