data_PCOD8030684
_publ_section_title
;
Structure prediction by ZEFSAII (Michael W. Deem and Ramdas Pophale) SiO2 
 PCOD8030684
Probable space group: P -1
;
_chemical_formula_sum "Si O2"
_cell_formula_units_Z 14
_cell_length_a 11.621386
_cell_length_b 13.241689
_cell_length_c 19.220683
_cell_angle_alpha 151.244015
_cell_angle_beta 155.992851
_cell_angle_gamma 34.963409
_cell_volume 576.283285
_symmetry_space_group_name_H-M "P -1"
_symmetry_group_IT_number 2
_symmetry_cell_setting 'triclinic'
loop_
_space_group_symop_operation_xyz
x,y,z
-x,-y,-z
loop_
_atom_site_type_symbol
_atom_site_label
_atom_site_fract_x
_atom_site_fract_y
_atom_site_fract_z
Si Si1 0.912982 0.223891 0.552075
Si Si2 0.055094 0.594085 0.178867
Si Si3 0.542774 0.797198 0.814486
Si Si4 0.621743 0.079343 0.523037
Si Si5 0.383235 0.339424 0.784506
Si Si6 0.432086 0.471959 0.736870
Si Si7 0.869844 0.125206 0.245279
O O1 0.967724 0.397937 0.745212
O O2 0.584555 0.238561 0.354374
O O3 0.078812 0.283385 0.610326
O O4 0.000000 0.000000 0.500000
O O5 0.304434 0.410603 0.189668
O O6 0.154173 0.812542 0.336976
O O7 0.755034 0.541188 0.948390
O O8 0.296408 0.901628 0.791004
O O9 0.772080 0.967566 0.036661
O O10 0.410246 0.256994 0.550989
O O11 0.455035 0.901514 0.281652
O O12 0.798379 0.940210 0.595970
O O13 0.356804 0.454247 0.765484
O O14 0.500000 0.500000 0.000000
O O15 0.187274 0.637243 0.670465
#
# Coordination Sequence:
#
# PCOD8030684 Si02
#       7
#     2   2   2   2   2   2   2
#     4  12  23  44  71  96 134 186 234 282 341 407
#     4  12  22  42  74 102 138 180 232 290 341 403
#     4  11  22  39  68 109 134 173 236 287 337 409
#     4  12  24  46  72 104 139 183 234 284 338 411
#     4  12  27  46  69  99 140 188 232 278 349 414
#     4  12  25  44  72 104 144 180 223 290 349 408
#     4  11  22  39  71 103 138 174 227 285 347 404
#
# _framework density 24.293607999999999
#
# number of rings (size 3 to 8) (size 9 to 14) (size 15 to 20)
#    0.000    0.286    7.143    3.857    0.000    0.571 
#    0.000    0.000    0.000    6.000    0.000    0.000 
#    0.000    0.000    0.000    0.000    0.000    0.000 
#
# Total GULP energy -173503.819262 kJ/mol
# GULP energy per Si atom -12393.129947 kJ/mol
# Density = 2.423831 g / cm^3
# Si number density = 24.293608 Si / 1000 Ang^3
#
#
#
# Elastic Constant Matrix: (Units=GPa)
#
#
# Indices 1 2 3 4 5 6 
#
# 1 60.6803 24.6820 11.5291 10.9094 -9.7491 17.0974
# 2 24.6820 166.6666 51.1891 16.0836 -7.8479 1.0547
# 3 11.5291 51.1891 153.8802 30.1872 -30.1198 1.8052
# 4 10.9094 16.0836 30.1872 35.3421 0.0928 -4.9636
# 5 -9.7491 -7.8479 -30.1198 0.0928 44.7870 9.4819
# 6 17.0974 1.0547 1.8052 -4.9636 9.4819 27.6448
#
#
#
# Elastic Compliance Matrix: (Units=1/GPa)
#
#
# Indices 1 2 3 4 5 6 
#
# 1 0.029731 -0.003639 0.005372 -0.015891 0.015120 -0.026639
# 2 -0.003639 0.007188 -0.002626 0.000507 -0.001913 0.002895
# 3 0.005372 -0.002626 0.011396 -0.011576 0.010435 -0.009624
# 4 -0.015891 0.000507 -0.011576 0.046345 -0.016444 0.024526
# 5 0.015120 -0.001913 0.010435 -0.016444 0.037815 -0.025882
# 6 -0.026639 0.002895 -0.009624 0.024526 -0.025882 0.066448
#
#
# Mechanical properties :
#
#
# Convention : Reuss Voigt Hill
#
# Bulk Modulus (GPa) = 21.49160 61.78084 41.63622
# Shear Modulus (GPa) = 23.12469 41.14323 32.13396
#
# Velocity S-wave (km/s) = 3.08861 4.11978 3.64089
# Velocity P-wave (km/s) = 4.64598 6.93659 5.90345
#
# Compressibility (1/GPa) = 0.04652982
#
# Stress axis : x y z
#
# Youngs Moduli (GPa) = 33.63451 139.11585 87.75033
#
# Poissons Ratio (x) = 0.50624 -0.47144
# Poissons Ratio (y) = 0.12240 0.23046
# Poissons Ratio (z) = -0.18070 0.36537
#
# Static dielectric constant tensor:
#      x y z
#    x 4.493070 0.034910 -0.205310 
#    y 0.034910 4.157870 0.237980 
#    z -0.205310 0.237980 4.867300 
# 
# 
# High freq. dielectric constant tensor:
#      x y z
#    x 1.966040 0.008340 -0.008530 
#    y 0.008340 1.954030 0.022340 
#    z -0.008530 0.022340 1.977610 
# 
# From -- ./inp_files/457777.got.cif
#   From: 2010.06.25/outbox.cif.g09.slc.cpg/sg2_229_cif.got.tgz:457777.got - 2010.06.27 13:26:56.
