data_PCOD8030409
_publ_section_title
;
Structure prediction by ZEFSAII (Michael W. Deem and Ramdas Pophale) SiO2 
 PCOD8030409
Probable space group: P -1
;
_chemical_formula_sum "Si O2"
_cell_formula_units_Z 16
_cell_length_a 14.598487
_cell_length_b 8.286687
_cell_length_c 9.302669
_cell_angle_alpha 94.813098
_cell_angle_beta 117.027508
_cell_angle_gamma 125.805543
_cell_volume 711.377790
_symmetry_space_group_name_H-M "P -1"
_symmetry_group_IT_number 2
_symmetry_cell_setting 'triclinic'
loop_
_space_group_symop_operation_xyz
x,y,z
-x,-y,-z
loop_
_atom_site_type_symbol
_atom_site_label
_atom_site_fract_x
_atom_site_fract_y
_atom_site_fract_z
Si Si1 0.513199 0.334981 0.331411
Si Si2 0.792908 0.940487 0.944483
Si Si3 0.455316 0.302538 0.792169
Si Si4 0.840899 0.988858 0.303117
Si Si5 0.329440 0.529783 0.254326
Si Si6 0.099695 0.325177 0.704504
Si Si7 0.046567 0.370851 0.989618
Si Si8 0.405170 0.740748 0.879658
O O1 0.343762 0.114828 0.229000
O O2 0.510045 0.488759 0.239903
O O3 0.609980 0.465668 0.550428
O O4 0.584490 0.271147 0.285268
O O5 0.762569 0.714990 0.905129
O O6 0.812164 0.028492 0.127500
O O7 0.938733 0.130855 0.975743
O O8 0.285085 0.098729 0.681219
O O9 0.533247 0.263086 0.731763
O O10 0.535593 0.356840 0.005135
O O11 0.855027 0.812040 0.282835
O O12 0.982914 0.227524 0.489158
O O13 0.210943 0.540536 0.181445
O O14 0.239547 0.589922 0.791784
O O15 0.036698 0.312134 0.810872
O O16 0.000000 0.500000 0.000000
O O17 0.500000 0.000000 0.000000
#
# Coordination Sequence:
#
# PCOD8030409 Si02
#       8
#     2   2   2   2   2   2   2   2
#     4  11  24  42  73 104 134 178 240 292 345 409
#     4  11  23  42  68 103 133 180 227 289 353 402
#     4  11  21  45  71 104 132 178 232 292 347 395
#     4  11  23  41  78 105 135 173 240 303 341 404
#     4  11  25  44  72 102 139 179 240 295 337 415
#     4  11  25  44  70 106 135 186 235 287 352 407
#     4  12  28  46  65  94 149 190 224 279 354 427
#     4  12  25  44  70  97 146 186 229 285 347 417
#
# _framework density 22.491565000000001
#
# number of rings (size 3 to 8) (size 9 to 14) (size 15 to 20)
#    0.000    0.750    5.000    3.000    7.000    0.000 
#    2.250    2.500    0.000    0.000    0.000    0.000 
#    0.000    0.000    0.000    0.000    0.000    0.000 
#
# Total GULP energy -198303.859213 kJ/mol
# GULP energy per Si atom -12393.991201 kJ/mol
# Density = 2.244037 g / cm^3
# Si number density = 22.491565 Si / 1000 Ang^3
#
#
#
# Elastic Constant Matrix: (Units=GPa)
#
#
# Indices 1 2 3 4 5 6 
#
# 1 149.9642 53.8295 59.9073 1.9077 12.0066 34.9386
# 2 53.8295 70.5223 49.1887 13.1159 -3.4286 27.7393
# 3 59.9073 49.1887 165.9057 -0.5997 12.3560 13.5766
# 4 1.9077 13.1159 -0.5997 27.5929 7.8254 6.1801
# 5 12.0066 -3.4286 12.3560 7.8254 29.6488 -3.5049
# 6 34.9386 27.7393 13.5766 6.1801 -3.5049 37.0732
#
#
#
# Elastic Compliance Matrix: (Units=1/GPa)
#
#
# Indices 1 2 3 4 5 6 
#
# 1 0.011821 -0.006996 -0.000998 0.006314 -0.007712 -0.007322
# 2 -0.006996 0.032613 -0.007214 -0.016210 0.012556 -0.011277
# 3 -0.000998 -0.007214 0.008773 0.004724 -0.005114 0.001854
# 4 0.006314 -0.016210 0.004724 0.050760 -0.020501 -0.005951
# 5 -0.007712 0.012556 -0.005114 -0.020501 0.046742 0.007582
# 6 -0.007322 -0.011277 0.001854 -0.005951 0.007582 0.043342
#
#
# Mechanical properties :
#
#
# Convention : Reuss Voigt Hill
#
# Bulk Modulus (GPa) = 43.87713 79.13814 61.50764
# Shear Modulus (GPa) = 21.54584 33.76076 27.65330
#
# Velocity S-wave (km/s) = 3.09844 3.87853 3.51022
# Velocity P-wave (km/s) = 5.68780 7.43770 6.62082
#
# Compressibility (1/GPa) = 0.02279091
#
# Stress axis : x y z
#
# Youngs Moduli (GPa) = 84.59356 30.66267 113.98858
#
# Poissons Ratio (x) = 0.21453 0.11374
# Poissons Ratio (y) = 0.59184 0.82230
# Poissons Ratio (z) = 0.08441 0.22120
#
# Static dielectric constant tensor:
#      x y z
#    x 4.674270 0.552190 0.090290 
#    y 0.552190 3.879990 -0.070820 
#    z 0.090290 -0.070820 4.050460 
# 
# 
# High freq. dielectric constant tensor:
#      x y z
#    x 1.902630 0.029420 0.005920 
#    y 0.029420 1.858150 -0.006040 
#    z 0.005920 -0.006040 1.887640 
# 
# From -- ./inp_files/263488.got.cif
#   From: 2010.06.25/outbox.cif.g09.slc.cpg/sg2_132_cif.got.tgz:263488.got - 2010.06.27 13:26:56.
