data_PCOD8030094
_publ_section_title
;
Structure prediction by ZEFSAII (Michael W. Deem and Ramdas Pophale) SiO2 
 PCOD8030094
Probable space group: P -1
;
_chemical_formula_sum "Si O2"
_cell_formula_units_Z 16
_cell_length_a 11.113673
_cell_length_b 10.113361
_cell_length_c 13.716745
_cell_angle_alpha 110.136774
_cell_angle_beta 148.817579
_cell_angle_gamma 78.774642
_cell_volume 733.469315
_symmetry_space_group_name_H-M "P -1"
_symmetry_group_IT_number 2
_symmetry_cell_setting 'triclinic'
loop_
_space_group_symop_operation_xyz
x,y,z
-x,-y,-z
loop_
_atom_site_type_symbol
_atom_site_label
_atom_site_fract_x
_atom_site_fract_y
_atom_site_fract_z
Si Si1 0.906591 0.835526 0.188911
Si Si2 0.150359 0.240838 0.236095
Si Si3 0.585818 0.726607 0.114014
Si Si4 0.728510 0.505419 0.295888
Si Si5 0.861919 0.624461 0.928016
Si Si6 0.653979 0.472358 0.456392
Si Si7 0.285024 0.958476 0.019042
Si Si8 0.407659 0.818334 0.568640
O O1 0.810566 0.786435 0.216757
O O2 0.193641 0.890486 0.401212
O O3 0.841951 0.702733 0.035706
O O4 0.783591 0.967637 0.108414
O O5 0.034395 0.260065 0.054527
O O6 0.164413 0.386324 0.345852
O O7 0.416467 0.207054 0.404131
O O8 0.965991 0.114063 0.126281
O O9 0.688202 0.655930 0.260926
O O10 0.460427 0.852027 0.095160
O O11 0.384189 0.617466 0.888931
O O12 0.609528 0.478540 0.311555
O O13 0.000000 0.500000 0.500000
O O14 0.610044 0.544532 0.687683
O O15 0.000000 0.500000 0.000000
O O16 0.734042 0.327863 0.512645
O O17 0.421610 0.084365 0.213094
#
# Coordination Sequence:
#
# PCOD8030094 Si02
#       8
#     2   2   2   2   2   2   2   2
#     4  12  24  45  69  96 140 189 228 278 345 408
#     4  11  24  43  68 102 142 172 233 290 341 408
#     4  11  26  44  69 101 139 182 234 284 336 414
#     4  11  23  42  69 101 137 176 228 291 342 397
#     4  11  22  39  70 101 133 177 225 283 342 404
#     4  11  21  42  68  99 134 174 228 277 344 404
#     4  12  26  45  67 101 145 184 225 284 346 410
#     4  11  24  44  69  99 139 184 228 283 342 415
#
# _framework density 21.814136999999999
#
# number of rings (size 3 to 8) (size 9 to 14) (size 15 to 20)
#    0.000    0.750    3.750    5.250    1.750    4.000 
#    0.000    0.000    0.000    0.000    0.000    0.000 
#    0.000    0.000    0.000    0.000    0.000    0.000 
#
# Total GULP energy -198366.757485 kJ/mol
# GULP energy per Si atom -12397.922343 kJ/mol
# Density = 2.176449 g / cm^3
# Si number density = 21.814137 Si / 1000 Ang^3
#
#
#
# Elastic Constant Matrix: (Units=GPa)
#
#
# Indices 1 2 3 4 5 6 
#
# 1 87.2470 35.0811 16.6843 1.4470 4.7028 2.6720
# 2 35.0811 115.9291 33.7602 -14.1604 9.9387 -6.9291
# 3 16.6843 33.7602 105.9984 -7.5328 11.3217 1.5938
# 4 1.4470 -14.1604 -7.5328 33.4052 -2.1988 7.7377
# 5 4.7028 9.9387 11.3217 -2.1988 32.2991 -2.2047
# 6 2.6720 -6.9291 1.5938 7.7377 -2.2047 29.0326
#
#
#
# Elastic Compliance Matrix: (Units=1/GPa)
#
#
# Indices 1 2 3 4 5 6 
#
# 1 0.013401 -0.004114 -0.000861 -0.002182 -0.000644 -0.001635
# 2 -0.004114 0.011343 -0.002555 0.003822 -0.001593 0.002086
# 3 -0.000861 -0.002555 0.010834 0.001618 -0.002897 -0.001777
# 4 -0.002182 0.003822 0.001618 0.033886 0.000336 -0.007981
# 5 -0.000644 -0.001593 -0.002897 0.000336 0.032736 0.002234
# 6 -0.001635 0.002086 -0.001777 -0.007981 0.002234 0.037487
#
#
# Mechanical properties :
#
#
# Convention : Reuss Voigt Hill
#
# Bulk Modulus (GPa) = 48.73282 53.35841 51.04562
# Shear Modulus (GPa) = 30.94323 33.85731 32.40027
#
# Velocity S-wave (km/s) = 3.77038 3.94392 3.85812
# Velocity P-wave (km/s) = 6.42984 6.72703 6.58011
#
# Compressibility (1/GPa) = 0.02052005
#
# Stress axis : x y z
#
# Youngs Moduli (GPa) = 74.61905 88.16038 92.29785
#
# Poissons Ratio (x) = 0.36267 0.07946
# Poissons Ratio (y) = 0.30696 0.23580
# Poissons Ratio (z) = 0.06424 0.22523
#
# Static dielectric constant tensor:
#      x y z
#    x 3.200550 -0.357380 0.863810 
#    y -0.357380 3.855170 0.373580 
#    z 0.863810 0.373580 3.116220 
# 
# 
# High freq. dielectric constant tensor:
#      x y z
#    x 1.859370 0.002060 0.002240 
#    y 0.002060 1.863290 -0.006180 
#    z 0.002240 -0.006180 1.860540 
# 
# From -- ./inp_files/516040.got.cif
#   From: 2010.06.25/outbox.cif.g09.slc.cpg/sg2_259_cif.got.tgz:516040.got - 2010.06.27 13:26:56.
