data_PCOD8030648
_publ_section_title
;
Structure prediction by ZEFSAII (Michael W. Deem and Ramdas Pophale) SiO2 
 PCOD8030648
Probable space group: P -1
;
_chemical_formula_sum "Si O2"
_cell_formula_units_Z 14
_cell_length_a 10.087156
_cell_length_b 14.083803
_cell_length_c 5.131840
_cell_angle_alpha 111.703108
_cell_angle_beta 108.254214
_cell_angle_gamma 54.922783
_cell_volume 549.465386
_symmetry_space_group_name_H-M "P -1"
_symmetry_group_IT_number 2
_symmetry_cell_setting 'triclinic'
loop_
_space_group_symop_operation_xyz
x,y,z
-x,-y,-z
loop_
_atom_site_type_symbol
_atom_site_label
_atom_site_fract_x
_atom_site_fract_y
_atom_site_fract_z
Si Si1 0.878888 0.854454 0.420460
Si Si2 0.784090 0.540312 0.533538
Si Si3 0.915635 0.177501 0.977108
Si Si4 0.650551 0.112694 0.638876
Si Si5 0.511045 0.742717 0.838368
Si Si6 0.889449 0.615678 0.231378
Si Si7 0.371137 0.592706 0.822983
O O1 0.841615 0.748443 0.253624
O O2 0.946696 0.870060 0.204997
O O3 0.703507 0.975719 0.483166
O O4 0.004511 0.839877 0.707270
O O5 0.714302 0.646890 0.832376
O O6 0.746272 0.611865 0.305801
O O7 0.667462 0.488618 0.468896
O O8 0.965246 0.424944 0.506096
O O9 0.816660 0.108810 0.818367
O O10 0.785601 0.318567 0.006332
O O11 0.560346 0.191902 0.411434
O O12 0.522720 0.165611 0.856274
O O13 0.422667 0.669658 0.763386
O O14 0.000000 0.500000 0.000000
O O15 0.500000 0.500000 0.000000
#
# Coordination Sequence:
#
# PCOD8030648 Si02
#       7
#     2   2   2   2   2   2   2
#     4  12  24  44  69  98 139 181 237 276 339 409
#     4  11  24  45  65  99 137 177 234 281 347 403
#     4  11  22  39  66 102 140 177 223 284 344 410
#     4  11  24  43  67 104 136 183 223 283 348 411
#     4  11  25  43  69 102 142 175 223 283 350 415
#     4  11  27  44  71  97 135 186 234 289 330 406
#     4  11  23  40  70 106 142 177 220 285 359 418
#
# _framework density 25.479309000000001
#
# number of rings (size 3 to 8) (size 9 to 14) (size 15 to 20)
#    0.000    0.857    1.429    6.429    8.000    0.000 
#    0.000    1.429    0.000    0.000    0.000    0.000 
#    0.000    0.000    0.000    0.000    0.000    0.000 
#
# Total GULP energy -173456.443928 kJ/mol
# GULP energy per Si atom -12389.745995 kJ/mol
# Density = 2.542132 g / cm^3
# Si number density = 25.479309 Si / 1000 Ang^3
#
#
#
# Elastic Constant Matrix: (Units=GPa)
#
#
# Indices 1 2 3 4 5 6 
#
# 1 64.2210 42.2400 27.0381 22.6316 -16.9184 -4.2973
# 2 42.2400 139.3126 46.6737 36.2615 -7.2220 -2.4339
# 3 27.0381 46.6737 116.8394 23.9769 -30.5511 8.5193
# 4 22.6316 36.2615 23.9769 48.8295 -6.2971 -4.4827
# 5 -16.9184 -7.2220 -30.5511 -6.2971 45.4446 8.7302
# 6 -4.2973 -2.4339 8.5193 -4.4827 8.7302 36.6947
#
#
#
# Elastic Compliance Matrix: (Units=1/GPa)
#
#
# Indices 1 2 3 4 5 6 
#
# 1 0.022774 -0.004904 -0.000397 -0.005855 0.006592 0.000150
# 2 -0.004904 0.010727 -0.003099 -0.004467 -0.003021 0.001030
# 3 -0.000397 -0.003099 0.013392 -0.003472 0.009022 -0.005932
# 4 -0.005855 -0.004467 -0.003472 0.028299 -0.002025 0.003763
# 5 0.006592 -0.003021 0.009022 -0.002025 0.031545 -0.009275
# 6 0.000150 0.001030 -0.005932 0.003763 -0.009275 0.031381
#
#
# Mechanical properties :
#
#
# Convention : Reuss Voigt Hill
#
# Bulk Modulus (GPa) = 33.22897 61.36408 47.29653
# Shear Modulus (GPa) = 30.31237 39.82183 35.06710
#
# Velocity S-wave (km/s) = 3.45292 3.95765 3.71387
# Velocity P-wave (km/s) = 5.38208 6.70971 6.08223
#
# Compressibility (1/GPa) = 0.03009422
#
# Stress axis : x y z
#
# Youngs Moduli (GPa) = 43.91054 93.22165 74.66895
#
# Poissons Ratio (x) = 0.45713 0.02965
# Poissons Ratio (y) = 0.21533 0.23137
# Poissons Ratio (z) = 0.01744 0.28886
#
# Static dielectric constant tensor:
#      x y z
#    x 7.118010 -1.556760 0.639810 
#    y -1.556760 5.385040 -0.163390 
#    z 0.639810 -0.163390 5.142760 
# 
# 
# High freq. dielectric constant tensor:
#      x y z
#    x 2.010960 -0.016390 -0.006350 
#    y -0.016390 2.032770 0.004610 
#    z -0.006350 0.004610 2.036870 
# 
# From -- ./inp_files/76749.got.cif
#   From: 2010.06.25/outbox.cif.g09.slc.cpg/sg2_39_cif.got.tgz:76749.got - 2010.06.27 13:26:56.
