data_PCOD8030890
_publ_section_title
;
Structure prediction by ZEFSAII (Michael W. Deem and Ramdas Pophale) SiO2 
 PCOD8030890
Probable space group: P -1
;
_chemical_formula_sum "Si O2"
_cell_formula_units_Z 16
_cell_length_a 21.501249
_cell_length_b 25.011937
_cell_length_c 9.971229
_cell_angle_alpha 29.221245
_cell_angle_beta 38.845914
_cell_angle_gamma 17.579534
_cell_volume 737.513128
_symmetry_space_group_name_H-M "P -1"
_symmetry_group_IT_number 2
_symmetry_cell_setting 'triclinic'
loop_
_space_group_symop_operation_xyz
x,y,z
-x,-y,-z
loop_
_atom_site_type_symbol
_atom_site_label
_atom_site_fract_x
_atom_site_fract_y
_atom_site_fract_z
Si Si1 0.870892 0.815785 0.527407
Si Si2 0.307960 0.106157 0.594565
Si Si3 0.974267 0.923767 0.551849
Si Si4 0.719793 0.971999 0.915642
Si Si5 0.681206 0.405216 0.095512
Si Si6 0.705526 0.592325 0.473059
Si Si7 0.832911 0.074905 0.169599
Si Si8 0.846422 0.678866 0.122284
O O1 0.692327 0.962190 0.393141
O O2 0.111380 0.578732 0.575533
O O3 0.812632 0.994477 0.279058
O O4 0.848836 0.752405 0.825304
O O5 0.080247 0.391652 0.374817
O O6 0.500000 0.000000 0.500000
O O7 0.363803 0.976447 0.910795
O O8 0.897537 0.889624 0.829413
O O9 0.221306 0.701305 0.682358
O O10 0.813129 0.186146 0.266765
O O11 0.958414 0.909880 0.452758
O O12 0.519803 0.223972 0.618774
O O13 0.809350 0.781506 0.096312
O O14 0.746567 0.460482 0.806303
O O15 0.420483 0.633419 0.027005
O O16 0.673681 0.746657 0.251335
O O17 0.000000 0.000000 0.000000
#
# Coordination Sequence:
#
# PCOD8030890 Si02
#       8
#     2   2   2   2   2   2   2   2
#     4  11  23  43  63 100 141 178 227 283 348 415
#     4  11  24  41  63  99 140 178 224 282 348 410
#     4  11  24  45  71 100 135 177 238 279 349 406
#     4  12  23  40  68  99 128 182 229 277 340 410
#     4  11  25  46  69 102 136 179 234 290 337 417
#     4  11  22  41  70  94 137 178 218 287 349 404
#     4  12  26  45  70  99 140 185 234 285 349 407
#     4  11  22  41  65  96 135 175 228 278 344 408
#
# _framework density 21.694528999999999
#
# number of rings (size 3 to 8) (size 9 to 14) (size 15 to 20)
#    0.000    0.750    2.500    6.375    1.750    3.500 
#    2.250    0.000    0.000    0.000    0.000    0.000 
#    0.000    0.000    0.000    0.000    0.000    0.000 
#
# Total GULP energy -198338.304683 kJ/mol
# GULP energy per Si atom -12396.144043 kJ/mol
# Density = 2.164515 g / cm^3
# Si number density = 21.694529 Si / 1000 Ang^3
#
#
#
# Elastic Constant Matrix: (Units=GPa)
#
#
# Indices 1 2 3 4 5 6 
#
# 1 125.3885 21.9696 45.6846 1.0711 5.7738 -6.5186
# 2 21.9696 49.2576 26.5057 16.9281 2.6451 -17.2421
# 3 45.6846 26.5057 108.0609 11.7519 -5.7533 -2.9125
# 4 1.0711 16.9281 11.7519 34.8424 -6.4939 -2.4380
# 5 5.7738 2.6451 -5.7533 -6.4939 43.2182 -3.8674
# 6 -6.5186 -17.2421 -2.9125 -2.4380 -3.8674 35.1626
#
#
#
# Elastic Compliance Matrix: (Units=1/GPa)
#
#
# Indices 1 2 3 4 5 6 
#
# 1 0.009925 -0.003097 -0.003747 0.002223 -0.001299 0.000022
# 2 -0.003097 0.035003 -0.005462 -0.014658 -0.003338 0.014754
# 3 -0.003747 -0.005462 0.012357 -0.001159 0.002109 -0.002198
# 4 0.002223 -0.014658 -0.001159 0.036943 0.005667 -0.003687
# 5 -0.001299 -0.003338 0.002109 0.005667 0.024775 0.001415
# 6 0.000022 0.014754 -0.002198 -0.003687 0.001415 0.035396
#
#
# Mechanical properties :
#
#
# Convention : Reuss Voigt Hill
#
# Bulk Modulus (GPa) = 30.60595 52.33631 41.47113
# Shear Modulus (GPa) = 26.32929 35.21446 30.77187
#
# Velocity S-wave (km/s) = 3.48751 4.03326 3.77027
# Velocity P-wave (km/s) = 5.50956 6.77246 6.17339
#
# Compressibility (1/GPa) = 0.03267339
#
# Stress axis : x y z
#
# Youngs Moduli (GPa) = 100.75707 28.56868 80.92605
#
# Poissons Ratio (x) = 0.08847 0.30320
# Poissons Ratio (y) = 0.31203 0.44205
# Poissons Ratio (z) = 0.37749 0.15606
#
# Static dielectric constant tensor:
#      x y z
#    x 4.258660 -0.071880 -0.021610 
#    y -0.071880 3.837330 0.073270 
#    z -0.021610 0.073270 3.983410 
# 
# 
# High freq. dielectric constant tensor:
#      x y z
#    x 1.873450 -0.010550 0.001250 
#    y -0.010550 1.844830 0.004260 
#    z 0.001250 0.004260 1.861370 
# 
# From -- ./inp_files/349960.got.cif
#   From: 2010.06.25/outbox.cif.g09.slc.cpg/sg2_175_cif.got.tgz:349960.got - 2010.06.27 13:26:56.
