data_PCOD8030338
_publ_section_title
;
Structure prediction by ZEFSAII (Michael W. Deem and Ramdas Pophale) SiO2 
 PCOD8030338
Probable space group: P -1
;
_chemical_formula_sum "Si O2"
_cell_formula_units_Z 16
_cell_length_a 12.022901
_cell_length_b 16.977224
_cell_length_c 9.653347
_cell_angle_alpha 103.848199
_cell_angle_beta 131.703773
_cell_angle_gamma 38.772963
_cell_volume 738.769786
_symmetry_space_group_name_H-M "P -1"
_symmetry_group_IT_number 2
_symmetry_cell_setting 'triclinic'
loop_
_space_group_symop_operation_xyz
x,y,z
-x,-y,-z
loop_
_atom_site_type_symbol
_atom_site_label
_atom_site_fract_x
_atom_site_fract_y
_atom_site_fract_z
Si Si1 0.230952 0.589715 0.474892
Si Si2 0.400339 0.456462 0.851435
Si Si3 0.971257 0.093436 0.104313
Si Si4 0.969148 0.402538 0.142592
Si Si5 0.752275 0.888224 0.771269
Si Si6 0.360172 0.127439 0.039801
Si Si7 0.567394 0.166975 0.408176
Si Si8 0.486768 0.629649 0.622135
O O1 0.221851 0.553767 0.603295
O O2 0.287802 0.660925 0.561192
O O3 0.476991 0.430848 0.521838
O O4 0.941222 0.704935 0.201921
O O5 0.191846 0.504190 0.806152
O O6 0.500000 0.500000 0.000000
O O7 0.657523 0.272141 0.963200
O O8 0.103965 0.092447 0.103415
O O9 0.161887 0.998728 0.360500
O O10 0.000000 0.000000 0.000000
O O11 0.999530 0.291789 0.132711
O O12 0.283357 0.297262 0.330016
O O13 0.778378 0.513278 0.897998
O O14 0.639423 0.926375 0.845899
O O15 0.500000 0.000000 0.500000
O O16 0.521678 0.136096 0.216321
O O17 0.500000 0.000000 0.000000
O O18 0.656781 0.216344 0.460539
#
# Coordination Sequence:
#
# PCOD8030338 Si02
#       8
#     2   2   2   2   2   2   2   2
#     4  11  24  41  71 102 134 181 236 285 336 421
#     4  12  25  43  73 103 138 181 241 290 338 415
#     4  12  26  45  69 106 140 184 230 286 356 414
#     4  11  22  43  72 100 128 185 240 281 345 412
#     4  11  21  44  71  94 134 187 232 276 346 420
#     4  11  26  42  66 106 137 181 233 287 352 413
#     4  11  25  45  73  99 143 186 225 292 359 419
#     4  11  22  44  70  98 135 180 233 280 351 416
#
# _framework density 21.657627000000002
#
# number of rings (size 3 to 8) (size 9 to 14) (size 15 to 20)
#    0.000    0.750    7.500    1.125    7.000    0.000 
#    2.250    3.750    0.000    0.000    0.000    0.000 
#    0.000    0.000    0.000    0.000    0.000    0.000 
#
# Total GULP energy -198270.382111 kJ/mol
# GULP energy per Si atom -12391.898882 kJ/mol
# Density = 2.160833 g / cm^3
# Si number density = 21.657627 Si / 1000 Ang^3
#
#
#
# Elastic Constant Matrix: (Units=GPa)
#
#
# Indices 1 2 3 4 5 6 
#
# 1 89.8315 45.6340 33.3543 5.9867 -12.7879 8.3134
# 2 45.6340 133.6598 29.7610 9.2386 -0.4488 5.3491
# 3 33.3543 29.7610 105.8996 3.9676 -23.3773 -2.3885
# 4 5.9867 9.2386 3.9676 27.6742 4.4532 -4.5171
# 5 -12.7879 -0.4488 -23.3773 4.4532 35.5490 6.2692
# 6 8.3134 5.3491 -2.3885 -4.5171 6.2692 44.5907
#
#
#
# Elastic Compliance Matrix: (Units=1/GPa)
#
#
# Indices 1 2 3 4 5 6 
#
# 1 0.015499 -0.004368 -0.002564 -0.002867 0.004805 -0.003469
# 2 -0.004368 0.009478 -0.001753 -0.001630 -0.002356 -0.000250
# 3 -0.002564 -0.001753 0.012460 -0.001827 0.007457 0.000122
# 4 -0.002867 -0.001630 -0.001827 0.039844 -0.008273 0.005831
# 5 0.004805 -0.002356 0.007457 -0.008273 0.036868 -0.006235
# 6 -0.003469 -0.000250 0.000122 0.005831 -0.006235 0.024577
#
#
# Mechanical properties :
#
#
# Convention : Reuss Voigt Hill
#
# Bulk Modulus (GPa) = 49.83011 60.76549 55.29780
# Shear Modulus (GPa) = 30.71552 36.27221 33.49386
#
# Velocity S-wave (km/s) = 3.77003 4.09687 3.93684
# Velocity P-wave (km/s) = 6.48142 7.10615 6.80096
#
# Compressibility (1/GPa) = 0.02006819
#
# Stress axis : x y z
#
# Youngs Moduli (GPa) = 64.52123 105.50948 80.25461
#
# Poissons Ratio (x) = 0.46081 0.20580
# Poissons Ratio (y) = 0.28180 0.14065
# Poissons Ratio (z) = 0.16545 0.18491
#
# Static dielectric constant tensor:
#      x y z
#    x 3.618800 0.345300 -0.070790 
#    y 0.345300 3.591700 -0.127340 
#    z -0.070790 -0.127340 3.904230 
# 
# 
# High freq. dielectric constant tensor:
#      x y z
#    x 1.846950 0.009530 -0.016480 
#    y 0.009530 1.844430 -0.001760 
#    z -0.016480 -0.001760 1.859520 
# 
# From -- ./inp_files/279556.got.cif
#   From: 2010.06.25/outbox.cif.g09.slc.cpg/sg2_140_cif.got.tgz:279556.got - 2010.06.27 13:26:56.
