data_PCOD8030436
_publ_section_title
;
Structure prediction by ZEFSAII (Michael W. Deem and Ramdas Pophale) SiO2 
 PCOD8030436
Probable space group: P -1
;
_chemical_formula_sum "Si O2"
_cell_formula_units_Z 16
_cell_length_a 14.889373
_cell_length_b 9.050290
_cell_length_c 15.169558
_cell_angle_alpha 37.987004
_cell_angle_beta 44.398462
_cell_angle_gamma 36.412767
_cell_volume 728.603122
_symmetry_space_group_name_H-M "P -1"
_symmetry_group_IT_number 2
_symmetry_cell_setting 'triclinic'
loop_
_space_group_symop_operation_xyz
x,y,z
-x,-y,-z
loop_
_atom_site_type_symbol
_atom_site_label
_atom_site_fract_x
_atom_site_fract_y
_atom_site_fract_z
Si Si1 0.115007 0.579951 0.986956
Si Si2 0.361912 0.427469 0.207456
Si Si3 0.823129 0.537520 0.194570
Si Si4 0.701419 0.099616 0.089315
Si Si5 0.820331 0.215201 0.506503
Si Si6 0.777529 0.716268 0.772592
Si Si7 0.321254 0.267364 0.496066
Si Si8 0.089770 0.138208 0.782149
O O1 0.209004 0.477470 0.877965
O O2 0.045869 0.922514 0.877707
O O3 0.233784 0.401259 0.068324
O O4 0.984181 0.511757 0.110500
O O5 0.540494 0.317059 0.150922
O O6 0.352920 0.237814 0.225430
O O7 0.284271 0.429377 0.352245
O O8 0.268749 0.754177 0.082373
O O9 0.812749 0.305405 0.367540
O O10 0.685949 0.849362 0.179353
O O11 0.848554 0.969086 0.111571
O O12 0.729864 0.498282 0.499993
O O13 0.745714 0.032164 0.656156
O O14 0.000000 0.000000 0.500000
O O15 0.944685 0.471436 0.729122
O O16 0.221749 0.128449 0.636133
O O17 0.500000 0.000000 0.500000
#
# Coordination Sequence:
#
# PCOD8030436 Si02
#       8
#     2   2   2   2   2   2   2   2
#     4  11  23  38  67  96 126 173 222 270 327 391
#     4  11  26  40  69  98 131 172 225 271 332 392
#     4  11  23  42  64  94 135 175 218 268 344 387
#     4  11  21  46  66  92 131 177 218 273 329 399
#     4  12  23  43  66  97 138 172 217 283 330 387
#     4  12  24  43  64 104 133 169 223 285 323 387
#     4  12  25  46  69  95 134 182 220 264 343 404
#     4  12  22  44  69  93 136 173 223 274 330 389
#
# _framework density 21.959828999999999
#
# number of rings (size 3 to 8) (size 9 to 14) (size 15 to 20)
#    0.000    0.500    7.500    1.125    3.500    1.500 
#    2.250    1.875    0.000    0.000    0.000    0.000 
#    0.000    0.000    0.000    0.000    0.000    0.000 
#
# Total GULP energy -198335.520950 kJ/mol
# GULP energy per Si atom -12395.970059 kJ/mol
# Density = 2.190985 g / cm^3
# Si number density = 21.959829 Si / 1000 Ang^3
#
#
#
# Elastic Constant Matrix: (Units=GPa)
#
#
# Indices 1 2 3 4 5 6 
#
# 1 65.2036 15.5927 21.1311 3.7664 5.3115 12.3061
# 2 15.5927 81.9549 21.4584 -8.1260 0.9720 8.5276
# 3 21.1311 21.4584 158.0186 -3.5012 16.4197 14.9902
# 4 3.7664 -8.1260 -3.5012 32.4154 15.6877 -0.9235
# 5 5.3115 0.9720 16.4197 15.6877 34.9158 2.2547
# 6 12.3061 8.5276 14.9902 -0.9235 2.2547 32.7175
#
#
#
# Elastic Compliance Matrix: (Units=1/GPa)
#
#
# Indices 1 2 3 4 5 6 
#
# 1 0.017668 -0.002696 -0.001534 -0.002934 -0.000230 -0.005307
# 2 -0.002696 0.013617 -0.001100 0.004132 -0.001190 -0.001833
# 3 -0.001534 -0.001100 0.007394 0.002719 -0.004296 -0.002151
# 4 -0.002934 0.004132 0.002719 0.042245 -0.020015 0.001353
# 5 -0.000230 -0.001190 -0.004296 -0.020015 0.039782 -0.000942
# 6 -0.005307 -0.001833 -0.002151 0.001353 -0.000942 0.034127
#
#
# Mechanical properties :
#
#
# Convention : Reuss Voigt Hill
#
# Bulk Modulus (GPa) = 35.68944 46.83794 41.26369
# Shear Modulus (GPa) = 28.59876 36.47606 32.53741
#
# Velocity S-wave (km/s) = 3.61268 4.08000 3.85343
# Velocity P-wave (km/s) = 5.80426 6.60079 6.21530
#
# Compressibility (1/GPa) = 0.02801949
#
# Stress axis : x y z
#
# Youngs Moduli (GPa) = 56.59847 73.43681 135.25380
#
# Poissons Ratio (x) = 0.19798 0.20752
# Poissons Ratio (y) = 0.15258 0.14873
# Poissons Ratio (z) = 0.08684 0.08075
#
# Static dielectric constant tensor:
#      x y z
#    x 4.251440 0.196600 -0.724160 
#    y 0.196600 3.974960 -0.075050 
#    z -0.724160 -0.075050 6.344010 
# 
# 
# High freq. dielectric constant tensor:
#      x y z
#    x 1.850480 0.005510 0.004330 
#    y 0.005510 1.852490 -0.006840 
#    z 0.004330 -0.006840 1.883520 
# 
# From -- ./inp_files/528070.got.cif
#   From: 2010.06.25/outbox.cif.g09.slc.cpg/sg2_265_cif.got.tgz:528070.got - 2010.06.27 13:26:56.
