data_PCOD8030186
_publ_section_title
;
Structure prediction by ZEFSAII (Michael W. Deem and Ramdas Pophale) SiO2 
 PCOD8030186
Probable space group: P -1
;
_chemical_formula_sum "Si O2"
_cell_formula_units_Z 14
_cell_length_a 7.001287
_cell_length_b 14.304594
_cell_length_c 13.955574
_cell_angle_alpha 150.595184
_cell_angle_beta 105.264177
_cell_angle_gamma 72.471678
_cell_volume 654.354689
_symmetry_space_group_name_H-M "P -1"
_symmetry_group_IT_number 2
_symmetry_cell_setting 'triclinic'
loop_
_space_group_symop_operation_xyz
x,y,z
-x,-y,-z
loop_
_atom_site_type_symbol
_atom_site_label
_atom_site_fract_x
_atom_site_fract_y
_atom_site_fract_z
Si Si1 0.560584 0.707457 0.182792
Si Si2 0.143553 0.063453 0.658438
Si Si3 0.963037 0.193528 0.105036
Si Si4 0.395169 0.219924 0.193447
Si Si5 0.444325 0.210224 0.526911
Si Si6 0.363435 0.488925 0.606591
Si Si7 0.815759 0.079622 0.787487
O O1 0.585243 0.786314 0.361239
O O2 0.376593 0.825048 0.209933
O O3 0.768038 0.739203 0.183963
O O4 0.500000 0.500000 0.000000
O O5 0.333751 0.903547 0.565321
O O6 0.000000 0.000000 0.500000
O O7 0.016486 0.091784 0.764682
O O8 0.175305 0.235706 0.135951
O O9 0.856175 0.382481 0.316395
O O10 0.830190 0.173177 0.976208
O O11 0.000000 0.000000 0.000000
O O12 0.390140 0.299484 0.373046
O O13 0.490312 0.361538 0.264979
O O14 0.500000 0.000000 0.000000
O O15 0.424825 0.417896 0.658811
O O16 0.245979 0.130123 0.388441
#
# Coordination Sequence:
#
# PCOD8030186 Si02
#       7
#     2   2   2   2   2   2   2
#     4  11  23  42  64  96 141 175 230 292 348 419
#     4  11  21  43  67  93 134 185 230 285 349 417
#     4  12  25  44  71  99 139 182 234 289 351 418
#     4  11  25  47  71 101 141 181 234 291 353 422
#     4  11  23  41  68  99 137 175 234 289 350 419
#     4  11  26  45  71 103 139 183 232 291 359 413
#     4  11  24  41  69  98 131 189 230 283 356 416
#
# _framework density 21.395123999999999
#
# number of rings (size 3 to 8) (size 9 to 14) (size 15 to 20)
#    0.000    0.857    4.286    3.000    2.000    4.000 
#    2.571    0.000    0.000    0.000    0.000    0.000 
#    0.000    0.000    0.000    0.000    0.000    0.000 
#
# Total GULP energy -173469.614057 kJ/mol
# GULP energy per Si atom -12390.686718 kJ/mol
# Density = 2.134643 g / cm^3
# Si number density = 21.395124 Si / 1000 Ang^3
#
#
#
# Elastic Constant Matrix: (Units=GPa)
#
#
# Indices 1 2 3 4 5 6 
#
# 1 163.2963 45.5583 57.9314 8.6518 9.8239 1.4625
# 2 45.5583 115.5238 44.7437 11.5336 0.6668 9.7844
# 3 57.9314 44.7437 122.0609 11.4305 6.9581 0.2060
# 4 8.6518 11.5336 11.4305 27.9726 2.9032 0.2948
# 5 9.8239 0.6668 6.9581 2.9032 36.0184 -0.4393
# 6 1.4625 9.7844 0.2060 0.2948 -0.4393 29.6114
#
#
#
# Elastic Compliance Matrix: (Units=1/GPa)
#
#
# Indices 1 2 3 4 5 6 
#
# 1 0.007788 -0.001944 -0.002872 -0.000280 -0.001508 0.000258
# 2 -0.001944 0.011143 -0.002950 -0.002863 0.001082 -0.003521
# 3 -0.002872 -0.002950 0.010907 -0.002252 -0.001075 0.001047
# 4 -0.000280 -0.002863 -0.002252 0.038191 -0.002507 0.000558
# 5 -0.001508 0.001082 -0.001075 -0.002507 0.028567 0.000173
# 6 0.000258 -0.003521 0.001047 0.000558 0.000173 0.034911
#
#
# Mechanical properties :
#
#
# Convention : Reuss Voigt Hill
#
# Bulk Modulus (GPa) = 69.89507 77.48311 73.68909
# Shear Modulus (GPa) = 32.93626 35.56367 34.24996
#
# Velocity S-wave (km/s) = 3.92781 4.08147 4.00538
# Velocity P-wave (km/s) = 7.30136 7.64887 7.47713
#
# Compressibility (1/GPa) = 0.01430716
#
# Stress axis : x y z
#
# Youngs Moduli (GPa) = 128.39633 89.74085 91.68148
#
# Poissons Ratio (x) = 0.17448 0.26331
# Poissons Ratio (y) = 0.24964 0.27042
# Poissons Ratio (z) = 0.36875 0.26470
#
# Static dielectric constant tensor:
#      x y z
#    x 4.154530 0.084890 0.245370 
#    y 0.084890 3.632070 -0.021580 
#    z 0.245370 -0.021580 4.500530 
# 
# 
# High freq. dielectric constant tensor:
#      x y z
#    x 1.856710 0.007830 0.014700 
#    y 0.007830 1.846400 0.000660 
#    z 0.014700 0.000660 1.838850 
# 
# From -- ./inp_files/484664.got.cif
#   From: 2010.06.25/outbox.cif.g09.slc.cpg/sg2_243_cif.got.tgz:484664.got - 2010.06.27 13:26:56.
