data_PCOD8030651
_publ_section_title
;
Structure prediction by ZEFSAII (Michael W. Deem and Ramdas Pophale) SiO2 
 PCOD8030651
Probable space group: P -1
;
_chemical_formula_sum "Si O2"
_cell_formula_units_Z 16
_cell_length_a 11.102598
_cell_length_b 12.893460
_cell_length_c 8.720994
_cell_angle_alpha 46.626296
_cell_angle_beta 90.880561
_cell_angle_gamma 66.217969
_cell_volume 745.926949
_symmetry_space_group_name_H-M "P -1"
_symmetry_group_IT_number 2
_symmetry_cell_setting 'triclinic'
loop_
_space_group_symop_operation_xyz
x,y,z
-x,-y,-z
loop_
_atom_site_type_symbol
_atom_site_label
_atom_site_fract_x
_atom_site_fract_y
_atom_site_fract_z
Si Si1 0.333357 0.949632 0.145141
Si Si2 0.401970 0.582908 0.611275
Si Si3 0.037449 0.555038 0.603437
Si Si4 0.459550 0.949236 0.828385
Si Si5 0.310291 0.393043 0.965382
Si Si6 0.001814 0.161903 0.877605
Si Si7 0.243810 0.323077 0.361304
Si Si8 0.702755 0.452757 0.672667
O O1 0.357373 0.777883 0.394816
O O2 0.418573 0.015107 0.167315
O O3 0.387853 0.914314 0.006069
O O4 0.160373 0.101344 0.005809
O O5 0.578913 0.450212 0.766918
O O6 0.345297 0.524147 0.528574
O O7 0.331192 0.551310 0.788840
O O8 0.032538 0.726575 0.390779
O O9 0.925159 0.596063 0.694718
O O10 0.000000 0.500000 0.500000
O O11 0.194985 0.408076 0.824186
O O12 0.533137 0.785962 0.882305
O O13 0.331145 0.115932 0.564397
O O14 0.256992 0.403418 0.125153
O O15 0.868759 0.281414 0.875073
O O16 0.000000 0.000000 0.000000
O O17 0.304169 0.376491 0.451100
#
# Coordination Sequence:
#
# PCOD8030651 Si02
#       8
#     2   2   2   2   2   2   2   2
#     4  11  22  39  67  97 126 159 225 275 310 362
#     4  11  22  41  66  97 125 167 217 266 314 373
#     4  12  23  43  68  95 125 165 221 263 311 377
#     4  11  24  40  64  96 124 169 218 271 313 369
#     4  12  26  42  65  94 136 170 208 262 325 389
#     4  12  22  36  65  99 123 157 207 278 314 357
#     4  12  25  43  64  96 133 172 209 257 331 387
#     4  11  22  39  66  94 127 161 224 259 309 378
#
# _framework density 21.449822999999999
#
# number of rings (size 3 to 8) (size 9 to 14) (size 15 to 20)
#    0.000    0.500    6.250    3.000    3.500    0.500 
#    0.000    0.000    0.000    1.500    0.000    0.000 
#    0.000    0.000    0.000    0.000    0.000    0.000 
#
# Total GULP energy -198328.112159 kJ/mol
# GULP energy per Si atom -12395.507010 kJ/mol
# Density = 2.140100 g / cm^3
# Si number density = 21.449823 Si / 1000 Ang^3
#
#
#
# Elastic Constant Matrix: (Units=GPa)
#
#
# Indices 1 2 3 4 5 6 
#
# 1 97.7389 36.4699 43.4343 -7.0239 -4.1267 -30.5491
# 2 36.4699 73.2133 47.1849 -13.1869 -2.0502 -26.8548
# 3 43.4343 47.1849 118.6140 -5.6256 -27.9159 -18.5920
# 4 -7.0239 -13.1869 -5.6256 31.2426 -7.2627 -2.4992
# 5 -4.1267 -2.0502 -27.9159 -7.2627 37.3796 -7.3709
# 6 -30.5491 -26.8548 -18.5920 -2.4992 -7.3709 43.7418
#
#
#
# Elastic Compliance Matrix: (Units=1/GPa)
#
#
# Indices 1 2 3 4 5 6 
#
# 1 0.015267 -0.001902 -0.002893 0.003220 0.001771 0.008747
# 2 -0.001902 0.025224 -0.006956 0.009968 0.000245 0.011812
# 3 -0.002893 -0.006956 0.015504 0.002133 0.011766 0.002403
# 4 0.003220 0.009968 0.002133 0.041526 0.013302 0.013889
# 5 0.001771 0.000245 0.011766 0.013302 0.041109 0.014075
# 6 0.008747 0.011812 0.002403 0.013889 0.014075 0.040409
#
#
# Mechanical properties :
#
#
# Convention : Reuss Voigt Hill
#
# Bulk Modulus (GPa) = 30.77632 60.41605 45.59619
# Shear Modulus (GPa) = 23.43314 33.30462 28.36888
#
# Velocity S-wave (km/s) = 3.30883 3.94468 3.64066
# Velocity P-wave (km/s) = 5.38303 6.99819 6.24306
#
# Compressibility (1/GPa) = 0.03249251
#
# Stress axis : x y z
#
# Youngs Moduli (GPa) = 65.50054 39.64467 64.49826
#
# Poissons Ratio (x) = 0.07542 0.18661
# Poissons Ratio (y) = 0.12461 0.44864
# Poissons Ratio (z) = 0.18951 0.27576
#
# Static dielectric constant tensor:
#      x y z
#    x 4.310280 -0.427420 -0.088010 
#    y -0.427420 3.738900 -0.259210 
#    z -0.088010 -0.259210 3.900690 
# 
# 
# High freq. dielectric constant tensor:
#      x y z
#    x 1.863560 -0.027990 -0.014940 
#    y -0.027990 1.817640 -0.024210 
#    z -0.014940 -0.024210 1.830450 
# 
# From -- ./inp_files/271504.got.cif
#   From: 2010.06.25/outbox.cif.g09.slc.cpg/sg2_136_cif.got.tgz:271504.got - 2010.06.27 13:26:56.
