data_PCOD8030973
_publ_section_title
;
Structure prediction by ZEFSAII (Michael W. Deem and Ramdas Pophale) SiO2 
 PCOD8030973
Probable space group: P -1
;
_chemical_formula_sum "Si O2"
_cell_formula_units_Z 14
_cell_length_a 16.200723
_cell_length_b 8.364438
_cell_length_c 12.087097
_cell_angle_alpha 56.402447
_cell_angle_beta 27.800951
_cell_angle_gamma 52.903514
_cell_volume 608.460477
_symmetry_space_group_name_H-M "P -1"
_symmetry_group_IT_number 2
_symmetry_cell_setting 'triclinic'
loop_
_space_group_symop_operation_xyz
x,y,z
-x,-y,-z
loop_
_atom_site_type_symbol
_atom_site_label
_atom_site_fract_x
_atom_site_fract_y
_atom_site_fract_z
Si Si1 0.486271 0.140041 0.790573
Si Si2 0.879972 0.230298 0.067831
Si Si3 0.854155 0.587755 0.804729
Si Si4 0.766268 0.411396 0.611635
Si Si5 0.412978 0.290067 0.119308
Si Si6 0.495803 0.168083 0.527487
Si Si7 0.752536 0.408115 0.377782
O O1 0.492304 0.062460 0.688530
O O2 0.585035 0.311631 0.622292
O O3 0.591428 0.937472 0.809763
O O4 0.273424 0.235182 0.037751
O O5 0.669893 0.252195 0.278088
O O6 0.894612 0.298854 0.153119
O O7 0.933349 0.377272 0.859351
O O8 0.000000 0.000000 0.000000
O O9 0.732611 0.567332 0.848739
O O10 0.037716 0.653500 0.529313
O O11 0.647694 0.631098 0.714751
O O12 0.833761 0.401480 0.407524
O O13 0.628485 0.276842 0.846942
O O14 0.316272 0.357907 0.659237
O O15 0.500000 0.000000 0.500000
#
# Coordination Sequence:
#
# PCOD8030973 Si02
#       7
#     2   2   2   2   2   2   2
#     4  11  22  43  70  95 139 185 222 281 348 402
#     4  11  25  43  68 102 140 175 224 289 348 402
#     4  12  24  45  71  99 138 179 228 285 338 406
#     4  11  26  43  72  98 136 182 235 280 337 408
#     4  11  25  48  67 100 139 184 230 283 342 403
#     4  11  22  41  70 100 135 184 226 275 352 408
#     4  11  22  46  67 100 139 182 225 284 347 412
#
# _framework density 23.008890000000001
#
# number of rings (size 3 to 8) (size 9 to 14) (size 15 to 20)
#    0.000    0.857    4.286    2.571    6.000    3.429 
#    0.000    0.000    0.000    0.000    0.000    0.000 
#    0.000    0.000    0.000    0.000    0.000    0.000 
#
# Total GULP energy -173467.179482 kJ/mol
# GULP energy per Si atom -12390.512820 kJ/mol
# Density = 2.295652 g / cm^3
# Si number density = 23.008890 Si / 1000 Ang^3
#
#
#
# Elastic Constant Matrix: (Units=GPa)
#
#
# Indices 1 2 3 4 5 6 
#
# 1 99.2033 43.7360 37.6330 1.7600 17.2878 23.3387
# 2 43.7360 140.1248 22.1257 14.9298 15.4973 1.4627
# 3 37.6330 22.1257 92.1899 5.2163 -1.4053 -1.0025
# 4 1.7600 14.9298 5.2163 25.5703 6.8344 2.7271
# 5 17.2878 15.4973 -1.4053 6.8344 38.6003 8.5971
# 6 23.3387 1.4627 -1.0025 2.7271 8.5971 28.6169
#
#
#
# Elastic Compliance Matrix: (Units=1/GPa)
#
#
# Indices 1 2 3 4 5 6 
#
# 1 0.019084 -0.004765 -0.007203 0.005747 -0.004633 -0.014729
# 2 -0.004765 0.009306 0.000025 -0.005133 -0.001673 0.004403
# 3 -0.007203 0.000025 0.014110 -0.003849 0.003120 0.005797
# 4 0.005747 -0.005133 -0.003849 0.045121 -0.007147 -0.006712
# 5 -0.004633 -0.001673 0.003120 -0.007147 0.031075 -0.004681
# 6 -0.014729 0.004403 0.005797 -0.006712 -0.004681 0.048980
#
#
# Mechanical properties :
#
#
# Convention : Reuss Voigt Hill
#
# Bulk Modulus (GPa) = 53.72551 59.83415 56.77983
# Shear Modulus (GPa) = 25.28225 33.75905 29.52065
#
# Velocity S-wave (km/s) = 3.31842 3.83458 3.58580
# Velocity P-wave (km/s) = 6.17115 6.75771 6.47108
#
# Compressibility (1/GPa) = 0.01861313
#
# Stress axis : x y z
#
# Youngs Moduli (GPa) = 52.39941 107.45807 70.87252
#
# Poissons Ratio (x) = 0.51209 0.51047
# Poissons Ratio (y) = 0.24971 -0.00175
# Poissons Ratio (z) = 0.37741 -0.00265
#
# Static dielectric constant tensor:
#      x y z
#    x 4.364750 0.059910 0.229290 
#    y 0.059910 3.068090 0.153490 
#    z 0.229290 0.153490 4.176640 
# 
# 
# High freq. dielectric constant tensor:
#      x y z
#    x 1.916880 0.014070 0.012860 
#    y 0.014070 1.897720 0.004290 
#    z 0.012860 0.004290 1.911280 
# 
# From -- ./inp_files/188981.got.cif
#   From: 2010.06.25/outbox.cif.g09.slc.cpg/sg2_95_cif.got.tgz:188981.got - 2010.06.27 13:26:56.
