data_PCOD8030828
_publ_section_title
;
Structure prediction by ZEFSAII (Michael W. Deem and Ramdas Pophale) SiO2 
 PCOD8030828
Probable space group: P -1
;
_chemical_formula_sum "Si O2"
_cell_formula_units_Z 16
_cell_length_a 12.767916
_cell_length_b 8.552259
_cell_length_c 8.214470
_cell_angle_alpha 58.350834
_cell_angle_beta 87.127738
_cell_angle_gamma 103.068020
_cell_volume 728.234821
_symmetry_space_group_name_H-M "P -1"
_symmetry_group_IT_number 2
_symmetry_cell_setting 'triclinic'
loop_
_space_group_symop_operation_xyz
x,y,z
-x,-y,-z
loop_
_atom_site_type_symbol
_atom_site_label
_atom_site_fract_x
_atom_site_fract_y
_atom_site_fract_z
Si Si1 0.381927 0.434667 0.118418
Si Si2 0.751539 0.307364 0.746347
Si Si3 0.859891 0.312072 0.414679
Si Si4 0.755596 0.917353 0.493056
Si Si5 0.198567 0.359236 0.935908
Si Si6 0.899554 0.683764 0.698943
Si Si7 0.462546 0.650894 0.309773
Si Si8 0.300931 0.090990 0.869332
O O1 0.333770 0.210759 0.301113
O O2 0.391016 0.563548 0.204864
O O3 0.500000 0.500000 0.000000
O O4 0.306908 0.480738 0.957497
O O5 0.842951 0.285191 0.623683
O O6 0.801211 0.500725 0.743617
O O7 0.641551 0.286481 0.648158
O O8 0.729855 0.133278 0.970162
O O9 0.837426 0.510563 0.263154
O O10 0.984661 0.328031 0.359784
O O11 0.777710 0.139584 0.414215
O O12 0.871384 0.868715 0.525042
O O13 0.711713 0.873243 0.338991
O O14 0.224645 0.184493 0.932921
O O15 0.102821 0.292767 0.116445
O O16 0.500000 0.500000 0.500000
O O17 0.569273 0.817449 0.154151
#
# Coordination Sequence:
#
# PCOD8030828 Si02
#       8
#     2   2   2   2   2   2   2   2
#     4  11  22  40  70  95 135 172 213 267 332 392
#     4  12  25  43  67 101 132 173 223 270 324 397
#     4  12  26  43  68  97 131 176 226 271 330 384
#     4  11  24  44  66  97 136 171 221 273 323 394
#     4  11  23  43  68  97 132 174 217 276 325 388
#     4  11  23  47  68  94 132 173 220 283 328 381
#     4  12  22  43  69  96 135 176 210 265 333 388
#     4  12  25  43  68  98 136 175 216 267 331 395
#
# _framework density 21.970932999999999
#
# number of rings (size 3 to 8) (size 9 to 14) (size 15 to 20)
#    0.000    0.500    5.000    5.250    0.000    0.000 
#    0.000    3.125    0.000    0.000    0.000    0.000 
#    0.000    0.000    0.000    0.000    0.000    0.000 
#
# Total GULP energy -198290.992001 kJ/mol
# GULP energy per Si atom -12393.187000 kJ/mol
# Density = 2.192093 g / cm^3
# Si number density = 21.970933 Si / 1000 Ang^3
#
#
#
# Elastic Constant Matrix: (Units=GPa)
#
#
# Indices 1 2 3 4 5 6 
#
# 1 100.7196 -1.5380 40.4258 3.2912 -11.4277 -10.3866
# 2 -1.5380 76.7417 8.3770 1.3523 3.1916 -5.4571
# 3 40.4258 8.3770 96.1809 0.8030 1.5961 -3.8475
# 4 3.2912 1.3523 0.8030 30.2857 -7.8151 0.5507
# 5 -11.4277 3.1916 1.5961 -7.8151 34.6552 3.9909
# 6 -10.3866 -5.4571 -3.8475 0.5507 3.9909 29.7435
#
#
#
# Elastic Compliance Matrix: (Units=1/GPa)
#
#
# Indices 1 2 3 4 5 6 
#
# 1 0.012947 0.000942 -0.005448 -0.000347 0.003956 0.003465
# 2 0.000942 0.013485 -0.001424 -0.001089 -0.001437 0.002832
# 3 -0.005448 -0.001424 0.012844 -0.000274 -0.002297 -0.000189
# 4 -0.000347 -0.001089 -0.000274 0.035265 0.008194 -0.002109
# 5 0.003956 -0.001437 -0.002297 0.008194 0.032674 -0.003715
# 6 0.003465 0.002832 -0.000189 -0.002109 -0.003715 0.035863
#
#
# Mechanical properties :
#
#
# Convention : Reuss Voigt Hill
#
# Bulk Modulus (GPa) = 36.47498 40.90797 38.69147
# Shear Modulus (GPa) = 30.47324 34.02869 32.25096
#
# Velocity S-wave (km/s) = 3.72826 3.93976 3.83546
# Velocity P-wave (km/s) = 5.93049 6.27337 6.10434
#
# Compressibility (1/GPa) = 0.02741605
#
# Stress axis : x y z
#
# Youngs Moduli (GPa) = 77.23711 74.15411 77.85841
#
# Poissons Ratio (x) = -0.06986 0.42417
# Poissons Ratio (y) = -0.07277 0.11089
# Poissons Ratio (z) = 0.42079 0.10562
#
# Static dielectric constant tensor:
#      x y z
#    x 3.993480 0.026100 -0.066510 
#    y 0.026100 3.927790 0.023250 
#    z -0.066510 0.023250 3.925160 
# 
# 
# High freq. dielectric constant tensor:
#      x y z
#    x 1.876140 -0.004820 -0.007760 
#    y -0.004820 1.862660 0.007990 
#    z -0.007760 0.007990 1.867040 
# 
# From -- ./inp_files/241076.got.cif
#   From: 2010.06.25/outbox.cif.g09.slc.cpg/sg2_121_cif.got.tgz:241076.got - 2010.06.27 13:26:56.
