data_PCOD8030024
_publ_section_title
;
Structure prediction by ZEFSAII (Michael W. Deem and Ramdas Pophale) SiO2 
 PCOD8030024
Probable space group: P -1
;
_chemical_formula_sum "Si O2"
_cell_formula_units_Z 16
_cell_length_a 9.713244
_cell_length_b 23.320333
_cell_length_c 8.528789
_cell_angle_alpha 121.851853
_cell_angle_beta 86.802721
_cell_angle_gamma 42.861719
_cell_volume 717.571244
_symmetry_space_group_name_H-M "P -1"
_symmetry_group_IT_number 2
_symmetry_cell_setting 'triclinic'
loop_
_space_group_symop_operation_xyz
x,y,z
-x,-y,-z
loop_
_atom_site_type_symbol
_atom_site_label
_atom_site_fract_x
_atom_site_fract_y
_atom_site_fract_z
Si Si1 0.114954 0.880916 0.390341
Si Si2 0.773360 0.154169 0.304144
Si Si3 0.935897 0.563600 0.303101
Si Si4 0.924737 0.642800 0.097677
Si Si5 0.639291 0.005761 0.426179
Si Si6 0.432451 0.405671 0.222093
Si Si7 0.854459 0.242533 0.230944
Si Si8 0.475033 0.501576 0.819388
O O1 0.220453 0.844476 0.508640
O O2 0.420581 0.726187 0.051187
O O3 0.000000 0.000000 0.500000
O O4 0.840626 0.947170 0.472349
O O5 0.433371 0.286053 0.447876
O O6 0.906287 0.165547 0.250595
O O7 0.000000 0.000000 0.000000
O O8 0.016229 0.578204 0.173838
O O9 0.060572 0.553589 0.430127
O O10 0.108181 0.414109 0.073598
O O11 0.609351 0.827861 0.377202
O O12 0.204434 0.565386 0.896822
O O13 0.500000 0.000000 0.500000
O O14 0.851763 0.888090 0.094715
O O15 0.523903 0.372878 0.349788
O O16 0.598045 0.394725 0.103636
O O17 0.797450 0.336360 0.469582
O O18 0.500000 0.500000 0.000000
#
# Coordination Sequence:
#
# PCOD8030024 Si02
#       8
#     2   2   2   2   2   2   2   2
#     4  11  22  44  70  97 136 188 229 281 354 412
#     4  12  24  43  66 100 142 182 230 292 354 414
#     4  11  22  40  68 103 133 174 239 286 343 411
#     4  11  21  41  71 101 134 178 233 289 338 420
#     4  11  25  47  72 100 139 185 239 289 351 421
#     4  11  23  41  69  97 133 181 231 283 347 410
#     4  11  25  45  66 101 143 182 228 289 352 420
#     4  12  23  45  69  99 139 184 224 280 358 415
#
# _framework density 22.297438
#
# number of rings (size 3 to 8) (size 9 to 14) (size 15 to 20)
#    0.000    0.750    2.500    7.875    0.000    0.500 
#    4.500    1.250    0.000    0.000    0.000    0.000 
#    0.000    0.000    0.000    0.000    0.000    0.000 
#
# Total GULP energy -198232.576929 kJ/mol
# GULP energy per Si atom -12389.536058 kJ/mol
# Density = 2.224669 g / cm^3
# Si number density = 22.297438 Si / 1000 Ang^3
#
#
#
# Elastic Constant Matrix: (Units=GPa)
#
#
# Indices 1 2 3 4 5 6 
#
# 1 109.4020 36.7744 36.4182 10.7884 -3.8532 2.5211
# 2 36.7744 100.1546 38.8098 4.4086 9.7301 4.4902
# 3 36.4182 38.8098 134.6608 6.5397 13.2013 -2.4494
# 4 10.7884 4.4086 6.5397 33.8720 0.9848 4.3841
# 5 -3.8532 9.7301 13.2013 0.9848 36.6160 -1.0130
# 6 2.5211 4.4902 -2.4494 4.3841 -1.0130 36.3174
#
#
#
# Elastic Compliance Matrix: (Units=1/GPa)
#
#
# Indices 1 2 3 4 5 6 
#
# 1 0.011453 -0.003498 -0.002249 -0.002835 0.003020 -0.000088
# 2 -0.003498 0.012550 -0.002429 0.000238 -0.002878 -0.001582
# 3 -0.002249 -0.002429 0.009067 -0.000777 -0.002809 0.001083
# 4 -0.002835 0.000238 -0.000777 0.031048 -0.001018 -0.003661
# 5 0.003020 -0.002878 -0.002809 -0.001018 0.029458 0.000901
# 6 -0.000088 -0.001582 0.001083 -0.003661 0.000901 0.028277
#
#
# Mechanical properties :
#
#
# Convention : Reuss Voigt Hill
#
# Bulk Modulus (GPa) = 59.81812 63.13579 61.47695
# Shear Modulus (GPa) = 34.77535 36.84207 35.80871
#
# Velocity S-wave (km/s) = 3.95348 4.06926 4.01179
# Velocity P-wave (km/s) = 6.90837 7.10319 7.00645
#
# Compressibility (1/GPa) = 0.01671734
#
# Stress axis : x y z
#
# Youngs Moduli (GPa) = 87.31196 79.67872 110.28681
#
# Poissons Ratio (x) = 0.27875 0.24805
# Poissons Ratio (y) = 0.30546 0.26791
# Poissons Ratio (z) = 0.19638 0.19355
#
# Static dielectric constant tensor:
#      x y z
#    x -4.041890 5.543070 -1.196210 
#    y 5.543070 0.733780 0.997570 
#    z -1.196210 0.997570 3.884460 
# 
# 
# High freq. dielectric constant tensor:
#      x y z
#    x 1.891030 0.008870 0.008460 
#    y 0.008870 1.885110 0.008640 
#    z 0.008460 0.008640 1.874520 
# 
# From -- ./inp_files/223809.got.cif
#   From: 2010.06.25/outbox.cif.g09.slc.cpg/sg2_112_cif.got.tgz:223809.got - 2010.06.27 13:26:56.
