data_PCOD8030408
_publ_section_title
;
Structure prediction by ZEFSAII (Michael W. Deem and Ramdas Pophale) SiO2 
 PCOD8030408
Probable space group: P -1
;
_chemical_formula_sum "Si O2"
_cell_formula_units_Z 16
_cell_length_a 11.134129
_cell_length_b 10.900843
_cell_length_c 11.446446
_cell_angle_alpha 58.976957
_cell_angle_beta 128.919387
_cell_angle_gamma 82.339069
_cell_volume 674.354647
_symmetry_space_group_name_H-M "P -1"
_symmetry_group_IT_number 2
_symmetry_cell_setting 'triclinic'
loop_
_space_group_symop_operation_xyz
x,y,z
-x,-y,-z
loop_
_atom_site_type_symbol
_atom_site_label
_atom_site_fract_x
_atom_site_fract_y
_atom_site_fract_z
Si Si1 0.606794 0.083469 0.228973
Si Si2 0.275394 0.568591 0.345031
Si Si3 0.520294 0.826114 0.374217
Si Si4 0.123645 0.715971 0.418977
Si Si5 0.309979 0.512575 0.877203
Si Si6 0.298558 0.918048 0.960707
Si Si7 0.135608 0.038171 0.205290
Si Si8 0.020215 0.840374 0.717833
O O1 0.572532 0.098263 0.061145
O O2 0.622033 0.914769 0.371064
O O3 0.406343 0.292518 0.059513
O O4 0.833093 0.020088 0.428690
O O5 0.500000 0.500000 0.500000
O O6 0.294301 0.406278 0.362718
O O7 0.227152 0.559113 0.455475
O O8 0.085649 0.797185 0.080031
O O9 0.335154 0.962874 0.289019
O O10 0.443695 0.797324 0.220770
O O11 0.202963 0.600959 0.644427
O O12 0.178671 0.847365 0.363302
O O13 0.870244 0.859558 0.201873
O O14 0.152392 0.637823 0.827750
O O15 0.500000 0.500000 0.000000
O O16 0.178067 0.854784 0.866645
O O17 0.110640 0.144267 0.259247
#
# Coordination Sequence:
#
# PCOD8030408 Si02
#       8
#     2   2   2   2   2   2   2   2
#     4  12  26  47  70 102 144 183 223 287 350 410
#     4  12  23  41  70 102 136 184 233 276 343 410
#     4  12  27  46  68 104 146 181 224 282 355 415
#     4  11  22  40  71 102 135 172 236 288 332 395
#     4  12  24  42  72 104 130 182 235 279 341 408
#     4  11  21  45  71 100 140 176 225 295 335 397
#     4  11  25  43  67 102 140 177 226 292 338 399
#     4  11  25  44  72 100 136 178 239 285 331 406
#
# _framework density 23.726388
#
# number of rings (size 3 to 8) (size 9 to 14) (size 15 to 20)
#    0.000    0.500    5.000    4.875    1.750    2.500 
#    0.000    2.500    0.000    0.000    0.000    0.000 
#    0.000    0.000    0.000    0.000    0.000    0.000 
#
# Total GULP energy -198232.171800 kJ/mol
# GULP energy per Si atom -12389.510738 kJ/mol
# Density = 2.367239 g / cm^3
# Si number density = 23.726388 Si / 1000 Ang^3
#
#
#
# Elastic Constant Matrix: (Units=GPa)
#
#
# Indices 1 2 3 4 5 6 
#
# 1 83.6804 51.3470 5.5017 -17.1451 1.0135 -29.1377
# 2 51.3470 118.5468 42.9473 -29.3788 1.0630 -33.4223
# 3 5.5017 42.9473 60.3355 -17.5280 8.3061 -2.7868
# 4 -17.1451 -29.3788 -17.5280 48.8894 -10.7814 -1.5862
# 5 1.0135 1.0630 8.3061 -10.7814 25.8345 -11.0889
# 6 -29.1377 -33.4223 -2.7868 -1.5862 -11.0889 58.6792
#
#
#
# Elastic Compliance Matrix: (Units=1/GPa)
#
#
# Indices 1 2 3 4 5 6 
#
# 1 0.019127 -0.006840 0.004488 0.005081 0.003008 0.006521
# 2 -0.006840 0.021027 -0.012998 0.008465 0.011569 0.010378
# 3 0.004488 -0.012998 0.026841 0.000903 -0.010401 -0.005841
# 4 0.005081 0.008465 0.000903 0.031861 0.017411 0.011539
# 5 0.003008 0.011569 -0.010401 0.017411 0.056790 0.018792
# 6 0.006521 0.010378 -0.005841 0.011539 0.018792 0.029776
#
#
# Mechanical properties :
#
#
# Convention : Reuss Voigt Hill
#
# Bulk Modulus (GPa) = 27.55113 51.35053 39.45083
# Shear Modulus (GPa) = 21.90865 37.53175 29.72020
#
# Velocity S-wave (km/s) = 3.04203 3.98157 3.54308
# Velocity P-wave (km/s) = 4.89651 6.54423 5.77939
#
# Compressibility (1/GPa) = 0.03629615
#
# Stress axis : x y z
#
# Youngs Moduli (GPa) = 52.28080 47.55851 37.25645
#
# Poissons Ratio (x) = 0.32529 -0.16720
# Poissons Ratio (y) = 0.35759 0.48424
# Poissons Ratio (z) = -0.23463 0.61814
#
# Static dielectric constant tensor:
#      x y z
#    x 4.423460 -0.743470 -0.101120 
#    y -0.743470 4.658990 -0.237890 
#    z -0.101120 -0.237890 4.412400 
# 
# 
# High freq. dielectric constant tensor:
#      x y z
#    x 1.931560 -0.041400 -0.004290 
#    y -0.041400 1.933630 -0.016630 
#    z -0.004290 -0.016630 1.946050 
# 
# From -- ./inp_files/427893.got.cif
#   From: 2010.06.25/outbox.cif.g09.slc.cpg/sg2_214_cif.got.tgz:427893.got - 2010.06.27 13:26:56.
