data_PCOD8030835
_publ_section_title
;
Structure prediction by ZEFSAII (Michael W. Deem and Ramdas Pophale) SiO2 
 PCOD8030835
Probable space group: P -1
;
_chemical_formula_sum "Si O2"
_cell_formula_units_Z 16
_cell_length_a 11.455549
_cell_length_b 11.171303
_cell_length_c 11.624765
_cell_angle_alpha 45.557168
_cell_angle_beta 100.211670
_cell_angle_gamma 63.754651
_cell_volume 618.677835
_symmetry_space_group_name_H-M "P -1"
_symmetry_group_IT_number 2
_symmetry_cell_setting 'triclinic'
loop_
_space_group_symop_operation_xyz
x,y,z
-x,-y,-z
loop_
_atom_site_type_symbol
_atom_site_label
_atom_site_fract_x
_atom_site_fract_y
_atom_site_fract_z
Si Si1 0.855162 0.347998 0.914483
Si Si2 0.668657 0.569859 0.501080
Si Si3 0.793818 0.791679 0.329121
Si Si4 0.065774 0.579580 0.708973
Si Si5 0.240213 0.173280 0.348738
Si Si6 0.243432 0.065674 0.169785
Si Si7 0.472122 0.433223 0.157213
Si Si8 0.395984 0.430032 0.763809
O O1 0.817430 0.332595 0.785630
O O2 0.764561 0.638011 0.722408
O O3 0.758477 0.328729 0.002262
O O4 0.094082 0.078538 0.153518
O O5 0.676862 0.761440 0.371779
O O6 0.706809 0.455183 0.457134
O O7 0.452715 0.750248 0.382310
O O8 0.000000 0.500000 0.500000
O O9 0.875229 0.815854 0.430272
O O10 0.621400 0.091666 0.028108
O O11 0.241706 0.513430 0.767703
O O12 0.960641 0.704597 0.732762
O O13 0.163550 0.282217 0.909891
O O14 0.254235 0.165607 0.219398
O O15 0.435450 0.856629 0.645063
O O16 0.588490 0.398045 0.303605
O O17 0.500000 0.500000 0.000000
#
# Coordination Sequence:
#
# PCOD8030835 Si02
#       8
#     2   2   2   2   2   2   2   2
#     4  11  25  47  74 106 140 191 248 298 348 426
#     4  12  23  43  74 102 144 183 246 292 353 427
#     4  12  22  42  71 111 143 183 243 293 362 420
#     4  11  22  40  71 108 143 184 237 307 347 419
#     4  11  24  46  74 104 140 197 251 289 351 426
#     4  11  23  41  74 106 136 186 248 299 346 416
#     4  12  29  48  70 106 152 192 234 301 367 427
#     4  12  28  43  68 109 155 189 231 296 373 426
#
# _framework density 25.861601
#
# number of rings (size 3 to 8) (size 9 to 14) (size 15 to 20)
#    0.000    0.500    6.250    3.750    3.500    1.000 
#    2.250    0.625    0.000    0.000    0.000    0.000 
#    0.000    0.000    0.000    0.000    0.000    0.000 
#
# Total GULP energy -198286.882484 kJ/mol
# GULP energy per Si atom -12392.930155 kJ/mol
# Density = 2.580274 g / cm^3
# Si number density = 25.861601 Si / 1000 Ang^3
#
#
#
# Elastic Constant Matrix: (Units=GPa)
#
#
# Indices 1 2 3 4 5 6 
#
# 1 139.2163 26.3112 8.9353 -3.8543 25.8032 -26.5970
# 2 26.3112 68.8526 4.2596 6.8196 -6.3547 -14.6159
# 3 8.9353 4.2596 59.8986 11.7406 10.4672 -2.0126
# 4 -3.8543 6.8196 11.7406 35.6624 -9.1953 5.1273
# 5 25.8032 -6.3547 10.4672 -9.1953 31.1126 -1.6067
# 6 -26.5970 -14.6159 -2.0126 5.1273 -1.6067 41.5665
#
#
#
# Elastic Compliance Matrix: (Units=1/GPa)
#
#
# Indices 1 2 3 4 5 6 
#
# 1 0.010718 -0.003771 0.001017 -0.001884 -0.010279 0.005417
# 2 -0.003771 0.017812 -0.001294 -0.002268 0.006754 0.004328
# 3 0.001017 -0.001294 0.020398 -0.009380 -0.010643 0.001929
# 4 -0.001884 -0.002268 -0.009380 0.036028 0.014576 -0.006338
# 5 -0.010279 0.006754 -0.010643 0.014576 0.049697 -0.004594
# 6 0.005417 0.004328 0.001929 -0.006338 -0.004594 0.029743
#
#
# Mechanical properties :
#
#
# Convention : Reuss Voigt Hill
#
# Bulk Modulus (GPa) = 24.49094 38.55330 31.52212
# Shear Modulus (GPa) = 26.86666 36.89905 31.88285
#
# Velocity S-wave (km/s) = 3.22664 3.78138 3.51497
# Velocity P-wave (km/s) = 4.83447 5.83139 5.35617
#
# Compressibility (1/GPa) = 0.04083143
#
# Stress axis : x y z
#
# Youngs Moduli (GPa) = 93.29855 56.14271 49.02352
#
# Poissons Ratio (x) = 0.21171 -0.04985
# Poissons Ratio (y) = 0.35183 0.06345
# Poissons Ratio (z) = -0.09487 0.07267
#
# Static dielectric constant tensor:
#      x y z
#    x 4.739760 -0.294880 0.245000 
#    y -0.294880 4.681980 0.165690 
#    z 0.245000 0.165690 4.615340 
# 
# 
# High freq. dielectric constant tensor:
#      x y z
#    x 2.036930 -0.022010 0.015870 
#    y -0.022010 2.027890 0.008830 
#    z 0.015870 0.008830 2.027280 
# 
# From -- ./inp_files/427595.got.cif
#   From: 2010.06.25/outbox.cif.g09.slc.cpg/sg2_214_cif.got.tgz:427595.got - 2010.06.27 13:26:56.
