data_PCOD8030312
_publ_section_title
;
Structure prediction by ZEFSAII (Michael W. Deem and Ramdas Pophale) SiO2 
 PCOD8030312
Probable space group: P -1
;
_chemical_formula_sum "Si O2"
_cell_formula_units_Z 14
_cell_length_a 15.140199
_cell_length_b 21.333609
_cell_length_c 8.788706
_cell_angle_alpha 130.454516
_cell_angle_beta 30.592577
_cell_angle_gamma 149.707950
_cell_volume 677.621641
_symmetry_space_group_name_H-M "P -1"
_symmetry_group_IT_number 2
_symmetry_cell_setting 'triclinic'
loop_
_space_group_symop_operation_xyz
x,y,z
-x,-y,-z
loop_
_atom_site_type_symbol
_atom_site_label
_atom_site_fract_x
_atom_site_fract_y
_atom_site_fract_z
Si Si1 0.667509 0.744916 0.806137
Si Si2 0.711440 0.054158 0.904878
Si Si3 0.763580 0.385590 0.546723
Si Si4 0.164304 0.762565 0.746427
Si Si5 0.458238 0.488342 0.719434
Si Si6 0.579057 0.196634 0.887198
Si Si7 0.901877 0.540158 0.307409
O O1 0.484962 0.594997 0.877507
O O2 0.991315 0.844760 0.462571
O O3 0.558543 0.750729 0.128249
O O4 0.559712 0.763803 0.859070
O O5 0.711129 0.120617 0.145412
O O6 0.500000 0.000000 0.000000
O O7 0.637565 0.940756 0.915501
O O8 0.847117 0.324986 0.272063
O O9 0.746220 0.445459 0.535157
O O10 0.000000 0.500000 0.500000
O O11 0.341441 0.816675 0.412959
O O12 0.841330 0.661582 0.020989
O O13 0.500000 0.500000 0.500000
O O14 0.691927 0.520907 0.502859
O O15 0.846802 0.307194 0.771837
O O16 0.000000 0.500000 0.000000
#
# Coordination Sequence:
#
# PCOD8030312 Si02
#       7
#     2   2   2   2   2   2   2
#     4  11  22  43  70  94 135 175 216 277 336 394
#     4  12  27  43  66  96 134 184 233 270 321 406
#     4  11  21  44  69 102 138 166 216 282 343 391
#     4  11  23  44  69  94 138 176 218 280 337 389
#     4  12  22  38  67 102 133 167 221 279 338 391
#     4  11  24  46  65  97 134 181 222 268 342 396
#     4  12  25  39  72 104 134 172 222 279 341 404
#
# _framework density 20.660496999999999
#
# number of rings (size 3 to 8) (size 9 to 14) (size 15 to 20)
#    0.000    0.571    5.714    3.429    2.000    3.429 
#    0.000    2.857    0.000    0.000    0.000    0.000 
#    0.000    0.000    0.000    0.000    0.000    0.000 
#
# Total GULP energy -173440.639777 kJ/mol
# GULP energy per Si atom -12388.617127 kJ/mol
# Density = 2.061347 g / cm^3
# Si number density = 20.660497 Si / 1000 Ang^3
#
#
#
# Elastic Constant Matrix: (Units=GPa)
#
#
# Indices 1 2 3 4 5 6 
#
# 1 137.1737 49.7351 43.2328 3.5265 -15.4155 -5.6624
# 2 49.7351 106.7141 26.8918 7.4282 -2.7781 -3.3138
# 3 43.2328 26.8918 109.8712 -3.4928 -1.8107 11.8902
# 4 3.5265 7.4282 -3.4928 31.6504 -9.3604 -0.0710
# 5 -15.4155 -2.7781 -1.8107 -9.3604 36.8600 -0.9176
# 6 -5.6624 -3.3138 11.8902 -0.0710 -0.9176 37.2579
#
#
#
# Elastic Compliance Matrix: (Units=1/GPa)
#
#
# Indices 1 2 3 4 5 6 
#
# 1 0.010238 -0.003811 -0.003265 0.000595 0.004044 0.002360
# 2 -0.003811 0.011744 -0.001594 -0.002953 -0.001514 0.000931
# 3 -0.003265 -0.001594 0.011284 0.001802 -0.000580 -0.004250
# 4 0.000595 -0.002953 0.001802 0.035085 0.009013 -0.000459
# 5 0.004044 -0.001514 -0.000580 0.009013 0.031003 0.001446
# 6 0.002360 0.000931 -0.004250 -0.000459 0.001446 0.028672
#
#
# Mechanical properties :
#
#
# Convention : Reuss Voigt Hill
#
# Bulk Modulus (GPa) = 62.79845 65.94205 64.37025
# Shear Modulus (GPa) = 33.18365 36.74694 34.96530
#
# Velocity S-wave (km/s) = 4.01202 4.22193 4.11831
# Velocity P-wave (km/s) = 7.20577 7.46676 7.33743
#
# Compressibility (1/GPa) = 0.01592396
#
# Stress axis : x y z
#
# Youngs Moduli (GPa) = 97.67963 85.15012 88.61841
#
# Poissons Ratio (x) = 0.32453 0.28937
# Poissons Ratio (y) = 0.37229 0.14129
# Poissons Ratio (z) = 0.31895 0.13576
#
# Static dielectric constant tensor:
#      x y z
#    x 4.423020 -0.489140 0.280510 
#    y -0.489140 3.882680 -0.017870 
#    z 0.280510 -0.017870 4.232660 
# 
# 
# High freq. dielectric constant tensor:
#      x y z
#    x 1.806710 -0.019520 -0.000620 
#    y -0.019520 1.804840 0.008440 
#    z -0.000620 0.008440 1.827600 
# 
# From -- ./inp_files/182877.got.cif
#   From: 2010.06.25/outbox.cif.g09.slc.cpg/sg2_92_cif.got.tgz:182877.got - 2010.06.27 13:26:56.
