data_PCOD8030917
_publ_section_title
;
Structure prediction by ZEFSAII (Michael W. Deem and Ramdas Pophale) SiO2 
 PCOD8030917
Probable space group: P -1
;
_chemical_formula_sum "Si O2"
_cell_formula_units_Z 16
_cell_length_a 9.367690
_cell_length_b 18.748861
_cell_length_c 12.159420
_cell_angle_alpha 36.594834
_cell_angle_beta 106.145388
_cell_angle_gamma 132.407957
_cell_volume 753.185198
_symmetry_space_group_name_H-M "P -1"
_symmetry_group_IT_number 2
_symmetry_cell_setting 'triclinic'
loop_
_space_group_symop_operation_xyz
x,y,z
-x,-y,-z
loop_
_atom_site_type_symbol
_atom_site_label
_atom_site_fract_x
_atom_site_fract_y
_atom_site_fract_z
Si Si1 0.118888 0.508718 0.209960
Si Si2 0.193661 0.102999 0.819631
Si Si3 0.198615 0.818726 0.852775
Si Si4 0.360249 0.538079 0.423152
Si Si5 0.067400 0.275531 0.876717
Si Si6 0.807148 0.570782 0.898296
Si Si7 0.433099 0.387567 0.341721
Si Si8 0.398955 0.730492 0.602427
O O1 0.264522 0.511016 0.316121
O O2 0.078974 0.419698 0.195278
O O3 0.854969 0.377099 0.361295
O O4 0.274571 0.729572 0.955809
O O5 0.450190 0.241716 0.764149
O O6 0.235019 0.246197 0.572352
O O7 0.000000 0.000000 0.000000
O O8 0.110158 0.944089 0.920186
O O9 0.011758 0.744001 0.812090
O O10 0.426876 0.048471 0.611500
O O11 0.070914 0.735912 0.047198
O O12 0.500000 0.500000 0.500000
O O13 0.128699 0.389916 0.638309
O O14 0.325370 0.392938 0.834295
O O15 0.664356 0.599303 0.797791
O O16 0.631465 0.363969 0.174760
O O17 0.497810 0.292703 0.438899
#
# Coordination Sequence:
#
# PCOD8030917 Si02
#       8
#     2   2   2   2   2   2   2   2
#     4  11  25  46  67  96 134 178 222 272 338 397
#     4  11  23  40  66 100 133 170 219 274 332 393
#     4  11  24  44  66  98 134 175 225 273 331 396
#     4  11  24  45  69  96 133 174 218 275 335 395
#     4  11  22  41  67  94 135 170 216 276 328 392
#     4  11  25  42  69  99 134 176 227 275 331 391
#     4  11  23  43  70  98 134 177 220 276 333 389
#     4  11  23  44  68  96 136 175 222 274 332 397
#
# _framework density 21.243115
#
# number of rings (size 3 to 8) (size 9 to 14) (size 15 to 20)
#    0.000    1.000    5.000    3.375    0.000    5.000 
#    0.000    1.250    0.000    0.000    0.000    0.000 
#    0.000    0.000    0.000    0.000    0.000    0.000 
#
# Total GULP energy -198333.162484 kJ/mol
# GULP energy per Si atom -12395.822655 kJ/mol
# Density = 2.119476 g / cm^3
# Si number density = 21.243115 Si / 1000 Ang^3
#
#
#
# Elastic Constant Matrix: (Units=GPa)
#
#
# Indices 1 2 3 4 5 6 
#
# 1 79.5785 29.7573 29.3458 -3.7876 2.3224 -3.0455
# 2 29.7573 114.7402 52.7196 -6.1666 5.2518 -10.2480
# 3 29.3458 52.7196 132.3047 -17.0486 -4.3955 8.0470
# 4 -3.7876 -6.1666 -17.0486 48.5082 -10.7152 7.0922
# 5 2.3224 5.2518 -4.3955 -10.7152 20.2798 1.7501
# 6 -3.0455 -10.2480 8.0470 7.0922 1.7501 29.5437
#
#
#
# Elastic Compliance Matrix: (Units=1/GPa)
#
#
# Indices 1 2 3 4 5 6 
#
# 1 0.014483 -0.002385 -0.002536 -0.000782 -0.002148 0.001671
# 2 -0.002385 0.012571 -0.005462 -0.002863 -0.006253 0.006660
# 3 -0.002536 -0.005462 0.011801 0.006121 0.008129 -0.007321
# 4 -0.000782 -0.002863 0.006121 0.027791 0.017745 -0.010464
# 5 -0.002148 -0.006253 0.008129 0.017745 0.063402 -0.012620
# 6 0.001671 0.006660 -0.007321 -0.010464 -0.012620 0.041584
#
#
# Mechanical properties :
#
#
# Convention : Reuss Voigt Hill
#
# Bulk Modulus (GPa) = 55.28204 61.14097 58.21151
# Shear Modulus (GPa) = 25.19823 33.98639 29.59231
#
# Velocity S-wave (km/s) = 3.44784 4.00419 3.73638
# Velocity P-wave (km/s) = 6.47535 7.08675 6.78794
#
# Compressibility (1/GPa) = 0.01808906
#
# Stress axis : x y z
#
# Youngs Moduli (GPa) = 69.04807 79.55050 84.73752
#
# Poissons Ratio (x) = 0.18976 0.21486
# Poissons Ratio (y) = 0.16471 0.46281
# Poissons Ratio (z) = 0.17508 0.43448
#
# Static dielectric constant tensor:
#      x y z
#    x 3.696030 -0.243780 -0.004870 
#    y -0.243780 4.072080 -0.077870 
#    z -0.004870 -0.077870 4.067970 
# 
# 
# High freq. dielectric constant tensor:
#      x y z
#    x 1.814450 -0.022850 -0.007790 
#    y -0.022850 1.848690 -0.000260 
#    z -0.007790 -0.000260 1.838250 
# 
# From -- ./inp_files/402850.got.cif
#   From: 2010.06.25/outbox.cif.g09.slc.cpg/sg2_202_cif.got.tgz:402850.got - 2010.06.27 13:26:56.
