data_PCOD8030100
_publ_section_title
;
Structure prediction by ZEFSAII (Michael W. Deem and Ramdas Pophale) SiO2 
 PCOD8030100
Probable space group: P -1
;
_chemical_formula_sum "Si O2"
_cell_formula_units_Z 16
_cell_length_a 5.176499
_cell_length_b 10.612780
_cell_length_c 22.510817
_cell_angle_alpha 145.261488
_cell_angle_beta 108.439803
_cell_angle_gamma 66.583080
_cell_volume 646.532837
_symmetry_space_group_name_H-M "P -1"
_symmetry_group_IT_number 2
_symmetry_cell_setting 'triclinic'
loop_
_space_group_symop_operation_xyz
x,y,z
-x,-y,-z
loop_
_atom_site_type_symbol
_atom_site_label
_atom_site_fract_x
_atom_site_fract_y
_atom_site_fract_z
Si Si1 0.833154 0.058903 0.391832
Si Si2 0.049260 0.602189 0.706938
Si Si3 0.468845 0.121471 0.279711
Si Si4 0.448644 0.365798 0.095394
Si Si5 0.006495 0.471965 0.781285
Si Si6 0.289252 0.668940 0.093624
Si Si7 0.244852 0.028571 0.879758
Si Si8 0.601715 0.821926 0.490465
O O1 0.877795 0.787296 0.289863
O O2 0.678804 0.171035 0.363959
O O3 0.647861 0.168348 0.477384
O O4 0.130773 0.120404 0.436589
O O5 0.954416 0.479454 0.709724
O O6 0.117219 0.836139 0.826731
O O7 0.316608 0.431761 0.629449
O O8 0.804568 0.664736 0.663363
O O9 0.602606 0.092899 0.213794
O O10 0.386328 0.893219 0.204315
O O11 0.766380 0.387826 0.130336
O O12 0.264096 0.550772 0.108457
O O13 0.293119 0.411019 0.165032
O O14 0.453547 0.111477 0.972670
O O15 0.500000 0.500000 0.000000
O O16 0.989504 0.742448 0.067429
O O17 0.500000 0.000000 0.500000
#
# Coordination Sequence:
#
# PCOD8030100 Si02
#       8
#     2   2   2   2   2   2   2   2
#     4  12  27  48  82 114 144 189 260 320 369 452
#     4  11  30  49  73 107 157 203 243 320 385 450
#     4  11  26  46  73 110 156 197 249 310 382 442
#     4  12  25  43  75 111 147 201 253 301 360 447
#     4  12  27  46  76 112 149 195 257 310 367 447
#     4  11  21  42  69 109 146 202 253 304 366 440
#     4  11  26  44  72 105 161 202 244 308 379 442
#     4  12  28  52  82 112 144 195 254 316 389 447
#
# _framework density 24.747388999999998
#
# number of rings (size 3 to 8) (size 9 to 14) (size 15 to 20)
#    0.000    0.500    3.750    3.000    8.750    2.000 
#    0.000    0.000    0.000    0.000    0.000    0.000 
#    0.000    0.000    0.000    0.000    0.000    0.000 
#
# Total GULP energy -198489.292428 kJ/mol
# GULP energy per Si atom -12405.580777 kJ/mol
# Density = 2.469106 g / cm^3
# Si number density = 24.747389 Si / 1000 Ang^3
#
#
#
# Elastic Constant Matrix: (Units=GPa)
#
#
# Indices 1 2 3 4 5 6 
#
# 1 64.6818 -10.5577 -0.3189 -2.5458 -1.2118 -3.1421
# 2 -10.5577 77.2753 30.3110 6.0956 5.3088 -5.4025
# 3 -0.3189 30.3110 75.1826 -6.4916 -12.2008 -7.7506
# 4 -2.5458 6.0956 -6.4916 32.9582 -4.0893 -8.3550
# 5 -1.2118 5.3088 -12.2008 -4.0893 50.9062 -12.7157
# 6 -3.1421 -5.4025 -7.7506 -8.3550 -12.7157 35.5105
#
#
#
# Elastic Compliance Matrix: (Units=1/GPa)
#
#
# Indices 1 2 3 4 5 6 
#
# 1 0.016020 0.002349 -0.000410 0.001386 0.000716 0.002268
# 2 0.002349 0.017191 -0.008397 -0.005760 -0.004726 -0.002057
# 3 -0.000410 -0.008397 0.019546 0.008378 0.008186 0.007855
# 4 0.001386 -0.005760 0.008378 0.037600 0.008940 0.013123
# 5 0.000716 -0.004726 0.008186 0.008940 0.025964 0.012532
# 6 0.002268 -0.002057 0.007855 0.013123 0.012532 0.037338
#
#
# Mechanical properties :
#
#
# Convention : Reuss Voigt Hill
#
# Bulk Modulus (GPa) = 25.09889 28.44540 26.77215
# Shear Modulus (GPa) = 27.80041 37.05533 32.42787
#
# Velocity S-wave (km/s) = 3.35530 3.87375 3.62381
# Velocity P-wave (km/s) = 5.01745 5.61491 5.32456
#
# Compressibility (1/GPa) = 0.03984240
#
# Stress axis : x y z
#
# Youngs Moduli (GPa) = 62.42236 58.17138 51.16111
#
# Poissons Ratio (x) = -0.13667 0.02095
# Poissons Ratio (y) = -0.14665 0.42960
# Poissons Ratio (z) = 0.02556 0.48846
#
# Static dielectric constant tensor:
#      x y z
#    x 5.115770 -0.431950 0.521550 
#    y -0.431950 4.896550 -0.235530 
#    z 0.521550 -0.235530 4.793630 
# 
# 
# High freq. dielectric constant tensor:
#      x y z
#    x 1.988570 -0.001320 0.004820 
#    y -0.001320 1.995090 0.003640 
#    z 0.004820 0.003640 1.984780 
# 
# From -- ./inp_files/604501.got.cif
#   From: 2010.06.25/outbox.cif.g09.slc.cpg/sg2_303_cif.got.tgz:604501.got - 2010.06.27 13:26:56.
