data_PCOD8030281
_publ_section_title
;
Structure prediction by ZEFSAII (Michael W. Deem and Ramdas Pophale) SiO2 
 PCOD8030281
Probable space group: P -1
;
_chemical_formula_sum "Si O2"
_cell_formula_units_Z 16
_cell_length_a 8.543845
_cell_length_b 8.616479
_cell_length_c 11.860950
_cell_angle_alpha 91.609250
_cell_angle_beta 80.627444
_cell_angle_gamma 53.328981
_cell_volume 682.284535
_symmetry_space_group_name_H-M "P -1"
_symmetry_group_IT_number 2
_symmetry_cell_setting 'triclinic'
loop_
_space_group_symop_operation_xyz
x,y,z
-x,-y,-z
loop_
_atom_site_type_symbol
_atom_site_label
_atom_site_fract_x
_atom_site_fract_y
_atom_site_fract_z
Si Si1 0.311881 0.041208 0.461627
Si Si2 0.077083 0.974956 0.659393
Si Si3 0.618986 0.667839 0.301319
Si Si4 0.782806 0.689977 0.050979
Si Si5 0.442100 0.394344 0.086284
Si Si6 0.161999 0.987547 0.903133
Si Si7 0.106513 0.620815 0.560653
Si Si8 0.302063 0.618926 0.322755
O O1 0.423112 0.893176 0.341317
O O2 0.500000 0.000000 0.500000
O O3 0.229710 0.966600 0.558225
O O4 0.128920 0.265751 0.445551
O O5 0.091233 0.034676 0.784110
O O6 0.853376 0.145404 0.647448
O O7 0.110915 0.772086 0.640288
O O8 0.720273 0.656874 0.175469
O O9 0.792416 0.573175 0.376624
O O10 0.529488 0.546158 0.305457
O O11 0.787411 0.872807 0.051954
O O12 0.637859 0.708386 0.972422
O O13 0.000000 0.500000 0.000000
O O14 0.281894 0.541579 0.203590
O O15 0.638964 0.230809 0.126412
O O16 0.500000 0.500000 0.000000
O O17 0.000000 0.000000 0.000000
O O18 0.247776 0.539756 0.431964
#
# Coordination Sequence:
#
# PCOD8030281 Si02
#       8
#     2   2   2   2   2   2   2   2
#     4  11  24  44  68 105 151 188 237 306 367 435
#     4  11  22  44  72 107 142 191 246 301 364 442
#     4  12  24  44  75 103 148 189 247 304 366 442
#     4  12  28  51  69 109 147 189 253 311 368 441
#     4  12  25  46  75 105 145 196 243 303 371 438
#     4  12  28  47  75 104 142 197 248 308 375 439
#     4  11  24  43  75 110 142 196 245 294 369 445
#     4  11  21  43  75 107 146 191 246 300 361 445
#
# _framework density 23.450627000000001
#
# number of rings (size 3 to 8) (size 9 to 14) (size 15 to 20)
#    0.000    0.500    3.750    5.250    3.500    1.500 
#    4.500    0.000    0.000    0.000    0.000    0.000 
#    0.000    0.000    0.000    0.000    0.000    0.000 
#
# Total GULP energy -198329.551621 kJ/mol
# GULP energy per Si atom -12395.596976 kJ/mol
# Density = 2.339725 g / cm^3
# Si number density = 23.450627 Si / 1000 Ang^3
#
#
#
# Elastic Constant Matrix: (Units=GPa)
#
#
# Indices 1 2 3 4 5 6 
#
# 1 135.2529 21.3382 38.1483 5.9931 3.9236 -15.7155
# 2 21.3382 60.9948 23.1234 -2.9287 -19.9604 -26.7645
# 3 38.1483 23.1234 157.5344 18.8271 -10.5881 -12.9927
# 4 5.9931 -2.9287 18.8271 28.6595 -10.1531 9.8257
# 5 3.9236 -19.9604 -10.5881 -10.1531 35.3073 12.0280
# 6 -15.7155 -26.7645 -12.9927 9.8257 12.0280 36.1593
#
#
#
# Elastic Compliance Matrix: (Units=1/GPa)
#
#
# Indices 1 2 3 4 5 6 
#
# 1 0.009172 -0.002886 -0.001168 -0.005352 -0.006229 0.004956
# 2 -0.002886 0.028501 -0.002065 0.004589 0.012465 0.013706
# 3 -0.001168 -0.002065 0.007911 -0.006912 -0.001768 0.003273
# 4 -0.005352 0.004589 -0.006912 0.059980 0.027516 -0.026864
# 5 -0.006229 0.012465 -0.001768 0.027516 0.049608 -0.018095
# 6 0.004956 0.013706 0.003273 -0.026864 -0.018095 0.054450
#
#
# Mechanical properties :
#
#
# Convention : Reuss Voigt Hill
#
# Bulk Modulus (GPa) = 29.98836 57.66687 43.82761
# Shear Modulus (GPa) = 21.46156 38.10337 29.78247
#
# Velocity S-wave (km/s) = 3.02848 4.03530 3.56758
# Velocity P-wave (km/s) = 5.00445 6.80850 5.97495
#
# Compressibility (1/GPa) = 0.03334628
#
# Stress axis : x y z
#
# Youngs Moduli (GPa) = 109.02733 35.08637 126.40885
#
# Poissons Ratio (x) = 0.10128 0.14760
# Poissons Ratio (y) = 0.31470 0.26100
# Poissons Ratio (z) = 0.12731 0.07244
#
# Static dielectric constant tensor:
#      x y z
#    x 4.502900 -0.239850 0.109580 
#    y -0.239850 4.495210 0.185530 
#    z 0.109580 0.185530 4.213190 
# 
# 
# High freq. dielectric constant tensor:
#      x y z
#    x 1.938570 -0.013500 0.008240 
#    y -0.013500 1.930060 0.014390 
#    z 0.008240 0.014390 1.939210 
# 
# From -- ./inp_files/382266.got.cif
#   From: 2010.06.25/outbox.cif.g09.slc.cpg/sg2_192_cif.got.tgz:382266.got - 2010.06.27 13:26:56.
