data_PCOD8030676
_publ_section_title
;
Structure prediction by ZEFSAII (Michael W. Deem and Ramdas Pophale) SiO2 
 PCOD8030676
Probable space group: P -1
;
_chemical_formula_sum "Si O2"
_cell_formula_units_Z 14
_cell_length_a 13.899250
_cell_length_b 5.091061
_cell_length_c 16.839722
_cell_angle_alpha 70.008958
_cell_angle_beta 37.769486
_cell_angle_gamma 55.405024
_cell_volume 587.128995
_symmetry_space_group_name_H-M "P -1"
_symmetry_group_IT_number 2
_symmetry_cell_setting 'triclinic'
loop_
_space_group_symop_operation_xyz
x,y,z
-x,-y,-z
loop_
_atom_site_type_symbol
_atom_site_label
_atom_site_fract_x
_atom_site_fract_y
_atom_site_fract_z
Si Si1 0.748223 0.451782 0.576279
Si Si2 0.904562 0.166456 0.656404
Si Si3 0.461416 0.728069 0.075321
Si Si4 0.292210 0.214518 0.584945
Si Si5 0.378796 0.507679 0.842903
Si Si6 0.156633 0.184556 0.972205
Si Si7 0.938831 0.077133 0.260864
O O1 0.807023 0.484951 0.626206
O O2 0.714658 0.749743 0.510899
O O3 0.570038 0.417955 0.687345
O O4 0.915370 0.115000 0.471769
O O5 0.747315 0.077342 0.777078
O O6 0.954941 0.203133 0.710786
O O7 0.602624 0.504534 0.073290
O O8 0.500000 0.500000 0.000000
O O9 0.500000 0.000000 0.000000
O O10 0.197180 0.568659 0.649883
O O11 0.500000 0.000000 0.500000
O O12 0.183386 0.031474 0.697942
O O13 0.318698 0.257632 0.877890
O O14 0.228055 0.893357 0.890459
O O15 0.000000 0.500000 0.000000
O O16 0.083013 0.100873 0.108075
#
# Coordination Sequence:
#
# PCOD8030676 Si02
#       7
#     2   2   2   2   2   2   2
#     4   9  22  41  69  99 136 178 217 273 335 400
#     4   9  20  42  66 100 136 172 220 269 335 398
#     4  11  22  39  68 100 137 174 217 276 334 407
#     4  11  25  42  68  93 131 170 221 274 323 397
#     4  11  24  43  66  99 134 176 225 278 338 401
#     4  12  27  44  69  95 134 181 231 284 336 396
#     4  11  24  43  66  96 127 174 218 273 332 389
#
# _framework density 23.844846
#
# number of rings (size 3 to 8) (size 9 to 14) (size 15 to 20)
#    0.000    1.429    0.000    4.286    4.000    6.286 
#    0.000    8.571    0.000    0.000    0.000    0.000 
#    0.000    0.000    0.000    0.000    0.000    0.000 
#
# Total GULP energy -173458.673854 kJ/mol
# GULP energy per Si atom -12389.905275 kJ/mol
# Density = 2.379057 g / cm^3
# Si number density = 23.844846 Si / 1000 Ang^3
#
#
#
# Elastic Constant Matrix: (Units=GPa)
#
#
# Indices 1 2 3 4 5 6 
#
# 1 76.9922 31.4429 32.8575 -8.6463 -14.4215 -6.3031
# 2 31.4429 100.3607 48.9987 -2.1301 -8.1466 0.9582
# 3 32.8575 48.9987 142.6855 -1.0552 -16.0078 -6.2144
# 4 -8.6463 -2.1301 -1.0552 28.7657 -1.2515 -8.5732
# 5 -14.4215 -8.1466 -16.0078 -1.2515 41.3992 -6.2668
# 6 -6.3031 0.9582 -6.2144 -8.5732 -6.2668 46.1579
#
#
#
# Elastic Compliance Matrix: (Units=1/GPa)
#
#
# Indices 1 2 3 4 5 6 
#
# 1 0.017483 -0.004066 -0.001794 0.006360 0.005416 0.004147
# 2 -0.004066 0.012974 -0.003654 -0.000882 -0.000538 -0.001553
# 3 -0.001794 -0.003654 0.008999 0.000029 0.002343 0.001366
# 4 0.006360 -0.000882 0.000029 0.039445 0.004584 0.008839
# 5 0.005416 -0.000538 0.002343 0.004584 0.027843 0.005698
# 6 0.004147 -0.001553 0.001366 0.008839 0.005698 0.024863
#
#
# Mechanical properties :
#
#
# Convention : Reuss Voigt Hill
#
# Bulk Modulus (GPa) = 48.95317 60.73741 54.84529
# Shear Modulus (GPa) = 31.75734 37.04717 34.40225
#
# Velocity S-wave (km/s) = 3.65339 3.94595 3.80248
# Velocity P-wave (km/s) = 6.19441 6.80352 6.50610
#
# Compressibility (1/GPa) = 0.02042769
#
# Stress axis : x y z
#
# Youngs Moduli (GPa) = 57.19878 77.07579 111.12537
#
# Poissons Ratio (x) = 0.31342 0.19939
# Poissons Ratio (y) = 0.23259 0.40600
# Poissons Ratio (z) = 0.10263 0.28160
#
# Static dielectric constant tensor:
#      x y z
#    x 4.596310 -0.426210 0.016470 
#    y -0.426210 4.421820 -0.322440 
#    z 0.016470 -0.322440 4.706950 
# 
# 
# High freq. dielectric constant tensor:
#      x y z
#    x 1.942130 -0.024860 -0.007960 
#    y -0.024860 1.936040 -0.001960 
#    z -0.007960 -0.001960 1.969670 
# 
# From -- ./inp_files/68096.got.cif
#   From: 2010.06.25/outbox.cif.g09.slc.cpg/sg2_35_cif.got.tgz:68096.got - 2010.06.27 13:26:56.
