data_PCOD8030719
_publ_section_title
;
Structure prediction by ZEFSAII (Michael W. Deem and Ramdas Pophale) SiO2 
 PCOD8030719
Probable space group: P -1
;
_chemical_formula_sum "Si O2"
_cell_formula_units_Z 16
_cell_length_a 8.429387
_cell_length_b 12.985975
_cell_length_c 14.841346
_cell_angle_alpha 45.940259
_cell_angle_beta 75.014534
_cell_angle_gamma 110.545102
_cell_volume 726.857038
_symmetry_space_group_name_H-M "P -1"
_symmetry_group_IT_number 2
_symmetry_cell_setting 'triclinic'
loop_
_space_group_symop_operation_xyz
x,y,z
-x,-y,-z
loop_
_atom_site_type_symbol
_atom_site_label
_atom_site_fract_x
_atom_site_fract_y
_atom_site_fract_z
Si Si1 0.631836 0.732065 0.815300
Si Si2 0.599145 0.255067 0.003540
Si Si3 0.608767 0.410954 0.251496
Si Si4 0.579225 0.964897 0.283098
Si Si5 0.247380 0.175065 0.968764
Si Si6 0.846055 0.293905 0.347149
Si Si7 0.842295 0.044009 0.354325
Si Si8 0.342535 0.256590 0.698811
O O1 0.509049 0.773805 0.866046
O O2 0.573285 0.726054 0.725045
O O3 0.926985 0.908105 0.688582
O O4 0.500000 0.500000 0.000000
O O5 0.630929 0.107161 0.105222
O O6 0.401512 0.161526 0.011594
O O7 0.859571 0.511618 0.783683
O O8 0.723031 0.644156 0.106185
O O9 0.820660 0.427164 0.214566
O O10 0.398833 0.221685 0.470971
O O11 0.335240 0.842397 0.456242
O O12 0.520743 0.779980 0.351544
O O13 0.840455 0.130230 0.206693
O O14 0.359772 0.244495 0.810436
O O15 0.955616 0.931917 0.168142
O O16 0.793819 0.123793 0.393653
O O17 0.500000 0.500000 0.500000
#
# Coordination Sequence:
#
# PCOD8030719 Si02
#       8
#     2   2   2   2   2   2   2   2
#     4  12  22  36  61  97 132 172 217 254 307 375
#     4  12  25  41  65  95 136 170 207 263 313 384
#     4  11  22  40  64  92 131 171 214 266 313 379
#     4  11  25  42  65  95 127 171 217 261 323 380
#     4  11  25  45  68  99 124 163 216 266 326 375
#     4  11  23  40  62  95 136 173 211 257 314 377
#     4  11  22  40  63  92 133 175 218 260 311 374
#     4  11  25  48  74  94 121 162 216 272 325 384
#
# _framework density 22.012581000000001
#
# number of rings (size 3 to 8) (size 9 to 14) (size 15 to 20)
#    0.000    0.750    2.500    6.375    1.750    4.500 
#    0.000    1.250    0.000    0.000    0.000    0.000 
#    0.000    0.000    0.000    0.000    0.000    0.000 
#
# Total GULP energy -198287.540609 kJ/mol
# GULP energy per Si atom -12392.971288 kJ/mol
# Density = 2.196248 g / cm^3
# Si number density = 22.012581 Si / 1000 Ang^3
#
#
#
# Elastic Constant Matrix: (Units=GPa)
#
#
# Indices 1 2 3 4 5 6 
#
# 1 81.9324 27.3490 29.3635 -8.3338 5.4749 18.8847
# 2 27.3490 95.9894 45.0937 -7.7607 1.3526 0.9540
# 3 29.3635 45.0937 107.1035 -11.7772 6.2115 3.6151
# 4 -8.3338 -7.7607 -11.7772 32.8399 -4.4963 -0.3817
# 5 5.4749 1.3526 6.2115 -4.4963 37.6684 2.6988
# 6 18.8847 0.9540 3.6151 -0.3817 2.6988 39.4815
#
#
#
# Elastic Compliance Matrix: (Units=1/GPa)
#
#
# Indices 1 2 3 4 5 6 
#
# 1 0.016150 -0.003133 -0.002558 0.002215 -0.001024 -0.007323
# 2 -0.003133 0.013649 -0.004897 0.000796 0.000755 0.001573
# 3 -0.002558 -0.004897 0.012434 0.002488 -0.001228 0.000311
# 4 0.002215 0.000796 0.002488 0.032518 0.003208 -0.001211
# 5 -0.001024 0.000755 -0.001228 0.003208 0.027344 -0.001254
# 6 -0.007323 0.001573 0.000311 -0.001211 -0.001254 0.028839
#
#
# Mechanical properties :
#
#
# Convention : Reuss Voigt Hill
#
# Bulk Modulus (GPa) = 47.49253 54.29307 50.89280
# Shear Modulus (GPa) = 31.42085 34.21256 32.81670
#
# Velocity S-wave (km/s) = 3.78220 3.94665 3.86530
# Velocity P-wave (km/s) = 6.37929 6.74434 6.56435
#
# Compressibility (1/GPa) = 0.02105594
#
# Stress axis : x y z
#
# Youngs Moduli (GPa) = 61.92119 73.26486 80.42296
#
# Poissons Ratio (x) = 0.22955 0.20574
# Poissons Ratio (y) = 0.19401 0.39384
# Poissons Ratio (z) = 0.15841 0.35878
#
# Static dielectric constant tensor:
#      x y z
#    x 3.842790 0.015730 -0.032340 
#    y 0.015730 3.899180 0.010350 
#    z -0.032340 0.010350 3.955540 
# 
# 
# High freq. dielectric constant tensor:
#      x y z
#    x 1.877540 0.001910 0.005640 
#    y 0.001910 1.855210 0.003100 
#    z 0.005640 0.003100 1.878950 
# 
# From -- ./inp_files/477766.got.cif
#   From: 2010.06.25/outbox.cif.g09.slc.cpg/sg2_239_cif.got.tgz:477766.got - 2010.06.27 13:26:56.
