data_PCOD8030710
_publ_section_title
;
Structure prediction by ZEFSAII (Michael W. Deem and Ramdas Pophale) SiO2 
 PCOD8030710
Probable space group: P -1
;
_chemical_formula_sum "Si O2"
_cell_formula_units_Z 14
_cell_length_a 5.173778
_cell_length_b 16.513141
_cell_length_c 7.939838
_cell_angle_alpha 66.925606
_cell_angle_beta 92.476907
_cell_angle_gamma 85.719132
_cell_volume 620.387156
_symmetry_space_group_name_H-M "P -1"
_symmetry_group_IT_number 2
_symmetry_cell_setting 'triclinic'
loop_
_space_group_symop_operation_xyz
x,y,z
-x,-y,-z
loop_
_atom_site_type_symbol
_atom_site_label
_atom_site_fract_x
_atom_site_fract_y
_atom_site_fract_z
Si Si1 0.711213 0.679372 0.404791
Si Si2 0.719790 0.557727 0.205032
Si Si3 0.438008 0.981744 0.819384
Si Si4 0.340750 0.805885 0.099578
Si Si5 0.815776 0.348699 0.992508
Si Si6 0.081908 0.943633 0.212524
Si Si7 0.775116 0.350308 0.367482
O O1 0.736694 0.587898 0.374938
O O2 0.618295 0.760343 0.210444
O O3 0.497826 0.672662 0.548861
O O4 0.987776 0.696233 0.477405
O O5 0.797863 0.454322 0.280819
O O6 0.430118 0.580139 0.106997
O O7 0.920499 0.605767 0.057796
O O8 0.694054 0.011992 0.708065
O O9 0.185187 0.046268 0.693750
O O10 0.500000 0.000000 0.000000
O O11 0.395502 0.877640 0.897226
O O12 0.182337 0.846102 0.227026
O O13 0.177409 0.732910 0.070674
O O14 0.801005 0.311986 0.211083
O O15 0.000000 0.000000 0.000000
#
# Coordination Sequence:
#
# PCOD8030710 Si02
#       7
#     2   2   2   2   2   2   2
#     4  11  23  35  56  80 108 142 174 225 272 309
#     4  11  22  40  58  76 100 144 192 224 255 314
#     4   8  15  27  48  76  99 128 167 219 253 286
#     4   9  19  34  52  81 107 132 178 217 257 318
#     4  11  23  36  58  80 105 142 178 227 270 304
#     4   8  15  27  48  76  99 128 167 219 253 286
#     4  12  23  39  53  79 111 142 178 219 275 325
#
# _framework density 22.566555000000001
#
# number of rings (size 3 to 8) (size 9 to 14) (size 15 to 20)
#    0.000    2.286    0.000    5.143    0.000   13.714 
#    0.000    0.000    0.000    0.000    0.000   54.000 
#    0.000    0.000    0.000    0.000    0.000    0.000 
#
# Total GULP energy -173502.711896 kJ/mol
# GULP energy per Si atom -12393.050850 kJ/mol
# Density = 2.251519 g / cm^3
# Si number density = 22.566555 Si / 1000 Ang^3
#
#
#
# Elastic Constant Matrix: (Units=GPa)
#
#
# Indices 1 2 3 4 5 6 
#
# 1 140.7781 24.8883 8.9047 -4.8062 3.0636 -5.0082
# 2 24.8883 84.7897 18.1061 -24.9802 10.5525 -10.0532
# 3 8.9047 18.1061 42.3507 10.9865 3.8795 -10.6478
# 4 -4.8062 -24.9802 10.9865 18.8466 -2.7609 1.3564
# 5 3.0636 10.5525 3.8795 -2.7609 35.0524 -1.0080
# 6 -5.0082 -10.0532 -10.6478 1.3564 -1.0080 18.5232
#
#
#
# Elastic Compliance Matrix: (Units=1/GPa)
#
#
# Indices 1 2 3 4 5 6 
#
# 1 0.007535 -0.002786 0.000357 -0.002042 0.000005 0.000880
# 2 -0.002786 0.047351 -0.043942 0.087805 -0.002430 -0.006876
# 3 0.000357 -0.043942 0.077006 -0.105477 -0.002826 0.028083
# 4 -0.002042 0.087805 -0.105477 0.233022 0.002897 -0.030434
# 5 0.000005 -0.002430 -0.002826 0.002897 0.029757 -0.001534
# 6 0.000880 -0.006876 0.028083 -0.030434 -0.001534 0.068781
#
#
# Mechanical properties :
#
#
# Convention : Reuss Voigt Hill
#
# Bulk Modulus (GPa) = 25.54292 41.30186 33.42239
# Shear Modulus (GPa) = 8.78361 28.88574 18.83467
#
# Velocity S-wave (km/s) = 1.97503 3.58162 2.89213
# Velocity P-wave (km/s) = 4.06749 5.95366 5.09856
#
# Compressibility (1/GPa) = 0.03914979
#
# Stress axis : x y z
#
# Youngs Moduli (GPa) = 132.71794 21.11895 12.98604
#
# Poissons Ratio (x) = 0.05883 -0.00464
# Poissons Ratio (y) = 0.36971 0.57064
# Poissons Ratio (z) = -0.04741 0.92802
#
# Static dielectric constant tensor:
#      x y z
#    x -0.918820 -0.180200 0.861200 
#    y -0.180200 4.140270 -0.126740 
#    z 0.861200 -0.126740 3.639860 
# 
# 
# High freq. dielectric constant tensor:
#      x y z
#    x 1.917530 -0.000690 0.011210 
#    y -0.000690 1.878490 -0.016010 
#    z 0.011210 -0.016010 1.841540 
# 
# From -- ./inp_files/137383.got.cif
#   From: 2010.06.25/outbox.cif.g09.slc.cpg/sg2_69_cif.got.tgz:137383.got - 2010.06.27 13:26:56.
