data_PCOD8030839
_publ_section_title
;
Structure prediction by ZEFSAII (Michael W. Deem and Ramdas Pophale) SiO2 
 PCOD8030839
Probable space group: P -1
;
_chemical_formula_sum "Si O2"
_cell_formula_units_Z 16
_cell_length_a 11.650573
_cell_length_b 17.299612
_cell_length_c 11.714355
_cell_angle_alpha 122.471289
_cell_angle_beta 120.330135
_cell_angle_gamma 21.467522
_cell_volume 728.877459
_symmetry_space_group_name_H-M "P -1"
_symmetry_group_IT_number 2
_symmetry_cell_setting 'triclinic'
loop_
_space_group_symop_operation_xyz
x,y,z
-x,-y,-z
loop_
_atom_site_type_symbol
_atom_site_label
_atom_site_fract_x
_atom_site_fract_y
_atom_site_fract_z
Si Si1 0.720949 0.426742 0.480842
Si Si2 0.515881 0.023524 0.743055
Si Si3 0.362639 0.475188 0.977998
Si Si4 0.384162 0.938299 0.497742
Si Si5 0.724947 0.925323 0.122961
Si Si6 0.578242 0.726628 0.650121
Si Si7 0.201496 0.660491 0.815099
Si Si8 0.750597 0.647249 0.247724
O O1 0.500000 0.500000 0.500000
O O2 0.614164 0.597054 0.589645
O O3 0.702486 0.422986 0.331963
O O4 0.056460 0.192164 0.512645
O O5 0.311032 0.091732 0.781880
O O6 0.260425 0.255409 0.756894
O O7 0.616823 0.881642 0.589000
O O8 0.829130 0.881144 0.826948
O O9 0.377017 0.486445 0.857838
O O10 0.314038 0.397220 0.904316
O O11 0.681587 0.309299 0.070185
O O12 0.075707 0.706352 0.078505
O O13 0.397159 0.857553 0.543968
O O14 0.474367 0.824604 0.342001
O O15 0.613582 0.101690 0.208654
O O16 0.500000 0.000000 0.000000
O O17 0.917417 0.565598 0.689532
#
# Coordination Sequence:
#
# PCOD8030839 Si02
#       8
#     2   2   2   2   2   2   2   2
#     4  12  27  48  69 104 142 179 232 296 350 408
#     4  11  22  40  71  99 137 177 229 292 339 409
#     4  11  25  44  69  98 141 189 228 283 343 414
#     4  11  23  43  72 102 135 174 235 291 339 414
#     4  11  22  45  67 101 138 180 237 281 335 417
#     4  11  24  42  74 100 133 183 230 286 352 405
#     4  11  24  46  66  96 142 181 225 289 344 406
#     4  12  21  41  69 104 130 180 232 281 353 403
#
# _framework density 21.951564000000001
#
# number of rings (size 3 to 8) (size 9 to 14) (size 15 to 20)
#    0.000    0.750    5.000    3.000    3.500    1.500 
#    6.750    0.000    0.000    0.000    0.000    0.000 
#    0.000    0.000    0.000    0.000    0.000    0.000 
#
# Total GULP energy -198286.658908 kJ/mol
# GULP energy per Si atom -12392.916182 kJ/mol
# Density = 2.190160 g / cm^3
# Si number density = 21.951564 Si / 1000 Ang^3
#
#
#
# Elastic Constant Matrix: (Units=GPa)
#
#
# Indices 1 2 3 4 5 6 
#
# 1 103.6038 46.5339 50.1550 12.4847 11.2106 -0.5564
# 2 46.5339 106.3459 56.0888 8.3236 8.3179 8.6662
# 3 50.1550 56.0888 108.3526 7.9757 17.0963 4.1801
# 4 12.4847 8.3236 7.9757 38.7213 4.7023 8.1433
# 5 11.2106 8.3179 17.0963 4.7023 31.3442 2.9044
# 6 -0.5564 8.6662 4.1801 8.1433 2.9044 33.5238
#
#
#
# Elastic Compliance Matrix: (Units=1/GPa)
#
#
# Indices 1 2 3 4 5 6 
#
# 1 0.013892 -0.003754 -0.004118 -0.003194 -0.001490 0.002619
# 2 -0.003754 0.014207 -0.005638 -0.000151 0.000955 -0.003078
# 3 -0.004118 -0.005638 0.014859 0.000114 -0.005149 -0.000045
# 4 -0.003194 -0.000151 0.000114 0.028594 -0.002543 -0.006753
# 5 -0.001490 0.000955 -0.005149 -0.002543 0.035567 -0.002093
# 6 0.002619 -0.003078 -0.000045 -0.006753 -0.002093 0.032496
#
#
# Mechanical properties :
#
#
# Convention : Reuss Voigt Hill
#
# Bulk Modulus (GPa) = 62.73705 69.31752 66.02729
# Shear Modulus (GPa) = 29.07865 31.75284 30.41575
#
# Velocity S-wave (km/s) = 3.64355 3.80741 3.72638
# Velocity P-wave (km/s) = 6.80753 7.13964 6.97556
#
# Compressibility (1/GPa) = 0.01593954
#
# Stress axis : x y z
#
# Youngs Moduli (GPa) = 71.98454 70.38731 67.29712
#
# Poissons Ratio (x) = 0.26421 0.27714
# Poissons Ratio (y) = 0.27020 0.37940
# Poissons Ratio (z) = 0.29645 0.39682
#
# Static dielectric constant tensor:
#      x y z
#    x 4.441970 -0.406300 -0.571210 
#    y -0.406300 4.412560 0.490890 
#    z -0.571210 0.490890 5.224980 
# 
# 
# High freq. dielectric constant tensor:
#      x y z
#    x 1.856110 0.007380 0.006860 
#    y 0.007380 1.857060 -0.004970 
#    z 0.006860 -0.004970 1.876390 
# 
# From -- ./inp_files/437354.got.cif
#   From: 2010.06.25/outbox.cif.g09.slc.cpg/sg2_219_cif.got.tgz:437354.got - 2010.06.27 13:26:56.
