data_PCOD8030729
_publ_section_title
;
Structure prediction by ZEFSAII (Michael W. Deem and Ramdas Pophale) SiO2 
 PCOD8030729
Probable space group: P -1
;
_chemical_formula_sum "Si O2"
_cell_formula_units_Z 16
_cell_length_a 11.173610
_cell_length_b 11.019214
_cell_length_c 9.288843
_cell_angle_alpha 78.984298
_cell_angle_beta 126.389396
_cell_angle_gamma 121.974470
_cell_volume 768.198042
_symmetry_space_group_name_H-M "P -1"
_symmetry_group_IT_number 2
_symmetry_cell_setting 'triclinic'
loop_
_space_group_symop_operation_xyz
x,y,z
-x,-y,-z
loop_
_atom_site_type_symbol
_atom_site_label
_atom_site_fract_x
_atom_site_fract_y
_atom_site_fract_z
Si Si1 0.473216 0.829510 0.076472
Si Si2 0.797081 0.629577 0.698399
Si Si3 0.995408 0.146834 0.970539
Si Si4 0.903694 0.347190 0.290210
Si Si5 0.941016 0.320205 0.651666
Si Si6 0.366562 0.013193 0.108372
Si Si7 0.547176 0.161647 0.467575
Si Si8 0.503338 0.668225 0.373254
O O1 0.507683 0.715209 0.201685
O O2 0.473039 0.931718 0.180697
O O3 0.293860 0.762024 0.874602
O O4 0.636973 0.921736 0.064660
O O5 0.656211 0.634919 0.494836
O O6 0.694789 0.465249 0.718941
O O7 0.967262 0.665852 0.723396
O O8 0.844880 0.735736 0.844913
O O9 0.002958 0.222116 0.803567
O O10 0.820654 0.107820 0.938258
O O11 0.000000 0.000000 0.000000
O O12 0.932657 0.296741 0.478835
O O13 0.932744 0.507789 0.269514
O O14 0.752624 0.276557 0.587569
O O15 0.464416 0.151478 0.254033
O O16 0.455040 0.209421 0.506142
O O17 0.500000 0.000000 0.500000
#
# Coordination Sequence:
#
# PCOD8030729 Si02
#       8
#     2   2   2   2   2   2   2   2
#     4  11  22  40  64  93 125 164 211 260 311 372
#     4  11  25  43  63  94 128 170 214 261 323 379
#     4  12  25  43  63  94 134 171 211 262 324 384
#     4  11  23  43  68  96 128 163 217 271 314 378
#     4  11  24  40  67  97 123 168 216 264 319 375
#     4  11  23  37  61  94 125 162 210 253 312 379
#     4  12  20  38  65  91 124 166 209 260 313 378
#     4  11  24  42  65  91 128 170 212 261 318 381
#
# _framework density 20.827964000000001
#
# number of rings (size 3 to 8) (size 9 to 14) (size 15 to 20)
#    0.000    0.750    6.250    1.500    0.000    2.000 
#    0.000    1.250    0.000    6.000    0.000    0.000 
#    0.000    0.000    0.000    0.000    0.000    0.000 
#
# Total GULP energy -198324.783415 kJ/mol
# GULP energy per Si atom -12395.298963 kJ/mol
# Density = 2.078056 g / cm^3
# Si number density = 20.827964 Si / 1000 Ang^3
#
#
#
# Elastic Constant Matrix: (Units=GPa)
#
#
# Indices 1 2 3 4 5 6 
#
# 1 38.4747 18.8629 17.4943 -10.8350 -14.3291 -0.0575
# 2 18.8629 108.8471 45.8400 -18.3170 -13.2345 -0.7999
# 3 17.4943 45.8400 103.5935 -12.7591 -13.9981 0.5415
# 4 -10.8350 -18.3170 -12.7591 47.3000 1.9495 -5.9981
# 5 -14.3291 -13.2345 -13.9981 1.9495 21.7282 5.1012
# 6 -0.0575 -0.7999 0.5415 -5.9981 5.1012 31.9542
#
#
#
# Elastic Compliance Matrix: (Units=1/GPa)
#
#
# Indices 1 2 3 4 5 6 
#
# 1 0.037968 -0.002104 -0.001635 0.006199 0.022716 -0.002419
# 2 -0.002104 0.012227 -0.004290 0.003037 0.002911 0.000480
# 3 -0.001635 -0.004290 0.012573 0.001062 0.004511 -0.000844
# 4 0.006199 0.003037 0.001062 0.024400 0.003471 0.004095
# 5 0.022716 0.002911 0.004511 0.003471 0.067749 -0.010127
# 6 -0.002419 0.000480 -0.000844 0.004095 -0.010127 0.033702
#
#
# Mechanical properties :
#
#
# Convention : Reuss Voigt Hill
#
# Bulk Modulus (GPa) = 21.40921 46.14551 33.77736
# Shear Modulus (GPa) = 22.70172 31.44434 27.07303
#
# Velocity S-wave (km/s) = 3.30504 3.88972 3.60924
# Velocity P-wave (km/s) = 4.98656 6.50976 5.79839
#
# Compressibility (1/GPa) = 0.04670887
#
# Stress axis : x y z
#
# Youngs Moduli (GPa) = 26.33781 81.78562 79.53833
#
# Poissons Ratio (x) = 0.17206 0.13008
# Poissons Ratio (y) = 0.05541 0.34125
# Poissons Ratio (z) = 0.04307 0.35089
#
# Static dielectric constant tensor:
#      x y z
#    x 3.591530 0.079080 -0.277200 
#    y 0.079080 4.084570 0.109100 
#    z -0.277200 0.109100 4.081680 
# 
# 
# High freq. dielectric constant tensor:
#      x y z
#    x 1.798150 0.008990 -0.016260 
#    y 0.008990 1.829180 0.004250 
#    z -0.016260 0.004250 1.819860 
# 
# From -- ./inp_files/185053.got.cif
#   From: 2010.06.25/outbox.cif.g09.slc.cpg/sg2_93_cif.got.tgz:185053.got - 2010.06.27 13:26:56.
