data_PCOD8030021
_publ_section_title
;
Structure prediction by ZEFSAII (Michael W. Deem and Ramdas Pophale) SiO2 
 PCOD8030021
Probable space group: P -1
;
_chemical_formula_sum "Si O2"
_cell_formula_units_Z 16
_cell_length_a 16.826627
_cell_length_b 11.371756
_cell_length_c 8.629675
_cell_angle_alpha 122.870885
_cell_angle_beta 68.638277
_cell_angle_gamma 146.517469
_cell_volume 751.065539
_symmetry_space_group_name_H-M "P -1"
_symmetry_group_IT_number 2
_symmetry_cell_setting 'triclinic'
loop_
_space_group_symop_operation_xyz
x,y,z
-x,-y,-z
loop_
_atom_site_type_symbol
_atom_site_label
_atom_site_fract_x
_atom_site_fract_y
_atom_site_fract_z
Si Si1 0.749039 0.535784 0.184373
Si Si2 0.963168 0.002683 0.197567
Si Si3 0.775329 0.745801 0.607854
Si Si4 0.536668 0.548030 0.829919
Si Si5 0.029915 0.669919 0.488305
Si Si6 0.423554 0.119509 0.106032
Si Si7 0.876838 0.436109 0.114884
Si Si8 0.308528 0.123910 0.460300
O O1 0.735653 0.567619 0.393838
O O2 0.583556 0.265175 0.061815
O O3 0.866400 0.565106 0.114793
O O4 0.802784 0.731565 0.169940
O O5 0.066923 0.072390 0.302289
O O6 0.973776 0.185346 0.318214
O O7 0.000000 0.000000 0.000000
O O8 0.658672 0.597043 0.726484
O O9 0.779806 0.895837 0.612705
O O10 0.602325 0.787817 0.926349
O O11 0.393240 0.333326 0.672559
O O12 0.500000 0.500000 0.000000
O O13 0.000000 0.500000 0.500000
O O14 0.910247 0.509116 0.322658
O O15 0.192292 0.867685 0.443574
O O16 0.421467 0.176635 0.324726
O O17 0.289365 0.839176 0.969222
O O18 0.000000 0.500000 0.000000
#
# Coordination Sequence:
#
# PCOD8030021 Si02
#       8
#     2   2   2   2   2   2   2   2
#     4  12  23  47  73  97 135 181 245 287 339 419
#     4  12  28  43  71 103 139 181 240 298 350 407
#     4  11  21  41  71 100 129 179 231 285 337 410
#     4  11  24  38  70 106 141 173 227 292 352 408
#     4  12  27  44  66 100 146 183 225 290 363 417
#     4  11  23  43  70 101 134 181 231 284 345 422
#     4  12  27  45  68 101 138 185 235 287 355 423
#     4  11  21  44  70  98 133 180 234 281 343 416
#
# _framework density 21.303068
#
# number of rings (size 3 to 8) (size 9 to 14) (size 15 to 20)
#    0.000    0.500    6.250    2.250    8.750    0.000 
#    0.000    0.000    0.000    3.000    0.000    0.000 
#    0.000    0.000    0.000    0.000    0.000    0.000 
#
# Total GULP energy -198354.703958 kJ/mol
# GULP energy per Si atom -12397.168997 kJ/mol
# Density = 2.125458 g / cm^3
# Si number density = 21.303068 Si / 1000 Ang^3
#
#
#
# Elastic Constant Matrix: (Units=GPa)
#
#
# Indices 1 2 3 4 5 6 
#
# 1 95.2920 52.0849 27.8867 1.7199 -18.5046 -0.9613
# 2 52.0849 138.9611 48.7387 -4.1284 -2.7724 -5.0306
# 3 27.8867 48.7387 107.8145 -10.8502 -4.4963 -9.2551
# 4 1.7199 -4.1284 -10.8502 41.0042 3.7039 -1.3068
# 5 -18.5046 -2.7724 -4.4963 3.7039 34.1666 -0.0612
# 6 -0.9613 -5.0306 -9.2551 -1.3068 -0.0612 38.5091
#
#
#
# Elastic Compliance Matrix: (Units=1/GPa)
#
#
# Indices 1 2 3 4 5 6 
#
# 1 0.015341 -0.005119 -0.001621 -0.002328 0.007931 -0.000742
# 2 -0.005119 0.010264 -0.003320 0.000604 -0.002441 0.000432
# 3 -0.001621 -0.003320 0.011700 0.002900 0.000082 0.002436
# 4 -0.002328 0.000604 0.002900 0.025690 -0.003612 0.001584
# 5 0.007931 -0.002441 0.000082 -0.003612 0.033768 -0.000170
# 6 -0.000742 0.000432 0.002436 0.001584 -0.000170 0.026645
#
#
# Mechanical properties :
#
#
# Convention : Reuss Voigt Hill
#
# Bulk Modulus (GPa) = 58.19144 66.60982 62.40063
# Shear Modulus (GPa) = 33.49924 36.95982 35.22953
#
# Velocity S-wave (km/s) = 3.96979 4.16980 4.07102
# Velocity P-wave (km/s) = 6.95612 7.38367 7.17308
#
# Compressibility (1/GPa) = 0.01718466
#
# Stress axis : x y z
#
# Youngs Moduli (GPa) = 65.18362 97.42422 85.47246
#
# Poissons Ratio (x) = 0.49875 0.13855
# Poissons Ratio (y) = 0.33370 0.28376
# Poissons Ratio (z) = 0.10566 0.32344
#
# Static dielectric constant tensor:
#      x y z
#    x 3.839460 0.158060 -0.085010 
#    y 0.158060 3.947200 0.000970 
#    z -0.085010 0.000970 3.883100 
# 
# 
# High freq. dielectric constant tensor:
#      x y z
#    x 1.829260 0.015560 -0.005100 
#    y 0.015560 1.843880 0.003000 
#    z -0.005100 0.003000 1.833770 
# 
# From -- ./inp_files/333739.got.cif
#   From: 2010.06.25/outbox.cif.g09.slc.cpg/sg2_167_cif.got.tgz:333739.got - 2010.06.27 13:26:56.
