data_PCOD8030902
_publ_section_title
;
Structure prediction by ZEFSAII (Michael W. Deem and Ramdas Pophale) SiO2 
 PCOD8030902
Probable space group: P -1
;
_chemical_formula_sum "Si O2"
_cell_formula_units_Z 16
_cell_length_a 9.135632
_cell_length_b 11.349887
_cell_length_c 12.404681
_cell_angle_alpha 127.709056
_cell_angle_beta 95.244367
_cell_angle_gamma 56.502593
_cell_volume 787.273282
_symmetry_space_group_name_H-M "P -1"
_symmetry_group_IT_number 2
_symmetry_cell_setting 'triclinic'
loop_
_space_group_symop_operation_xyz
x,y,z
-x,-y,-z
loop_
_atom_site_type_symbol
_atom_site_label
_atom_site_fract_x
_atom_site_fract_y
_atom_site_fract_z
Si Si1 0.959320 0.195444 0.575224
Si Si2 0.301186 0.201710 0.603835
Si Si3 0.376946 0.480041 0.119564
Si Si4 0.113162 0.656448 0.576197
Si Si5 0.728834 0.735191 0.605479
Si Si6 0.711061 0.488745 0.112132
Si Si7 0.986395 0.177825 0.121721
Si Si8 0.417791 0.965535 0.075048
O O1 0.781479 0.382448 0.726682
O O2 0.914669 0.218451 0.457500
O O3 0.139703 0.182998 0.606378
O O4 0.000000 0.000000 0.500000
O O5 0.280756 0.290427 0.536281
O O6 0.307094 0.323691 0.763935
O O7 0.500000 0.000000 0.500000
O O8 0.529554 0.514433 0.157182
O O9 0.272072 0.546718 0.034513
O O10 0.479084 0.257308 0.023807
O O11 0.273329 0.429468 0.433845
O O12 0.151865 0.721530 0.725915
O O13 0.924482 0.691102 0.616370
O O14 0.563273 0.942958 0.763868
O O15 0.899593 0.315427 0.088720
O O16 0.197689 0.097217 0.109141
O O17 0.000000 0.000000 0.000000
O O18 0.500000 0.000000 0.000000
#
# Coordination Sequence:
#
# PCOD8030902 Si02
#       8
#     2   2   2   2   2   2   2   2
#     4  11  25  42  65  93 131 169 204 263 330 385
#     4  11  22  41  67  94 122 163 218 262 316 386
#     4  11  25  44  63  93 132 174 214 264 332 377
#     4   9  19  37  65  88 121 162 209 253 313 377
#     4   9  18  36  62  90 119 162 205 255 311 374
#     4  11  24  43  68  92 128 173 219 268 311 385
#     4  11  22  41  66  96 124 169 219 262 316 380
#     4  11  23  39  64  94 133 167 208 261 330 386
#
# _framework density 20.323311
#
# number of rings (size 3 to 8) (size 9 to 14) (size 15 to 20)
#    0.000    1.500    2.500    2.250    5.250    2.500 
#    2.250    1.875    0.000    0.000    0.000    0.000 
#    0.000    0.000    0.000    0.000    0.000    0.000 
#
# Total GULP energy -198286.697543 kJ/mol
# GULP energy per Si atom -12392.918596 kJ/mol
# Density = 2.027705 g / cm^3
# Si number density = 20.323311 Si / 1000 Ang^3
#
#
#
# Elastic Constant Matrix: (Units=GPa)
#
#
# Indices 1 2 3 4 5 6 
#
# 1 80.2720 46.6001 50.2990 0.0078 0.3068 12.4192
# 2 46.6001 135.8676 54.9846 13.3398 5.0844 10.1295
# 3 50.2990 54.9846 136.5344 10.1786 5.8345 7.5644
# 4 0.0078 13.3398 10.1786 37.3054 -0.0267 1.9056
# 5 0.3068 5.0844 5.8345 -0.0267 31.4520 4.6075
# 6 12.4192 10.1295 7.5644 1.9056 4.6075 35.7992
#
#
#
# Elastic Compliance Matrix: (Units=1/GPa)
#
#
# Indices 1 2 3 4 5 6 
#
# 1 0.019093 -0.004450 -0.005321 0.003281 0.002211 -0.004700
# 2 -0.004450 0.010131 -0.002137 -0.003010 -0.001117 -0.000567
# 3 -0.005321 -0.002137 0.010337 -0.002086 -0.001608 0.000584
# 4 0.003281 -0.003010 -0.002086 0.028528 0.001086 -0.001504
# 5 0.002211 -0.001117 -0.001608 0.001086 0.032898 -0.004403
# 6 -0.004700 -0.000567 0.000584 -0.001504 -0.004403 0.030248
#
#
# Mechanical properties :
#
#
# Convention : Reuss Voigt Hill
#
# Bulk Modulus (GPa) = 63.50842 72.93792 68.22317
# Shear Modulus (GPa) = 31.19200 34.29734 32.74467
#
# Velocity S-wave (km/s) = 3.92189 4.11248 4.01831
# Velocity P-wave (km/s) = 7.19897 7.64962 7.42771
#
# Compressibility (1/GPa) = 0.01574594
#
# Stress axis : x y z
#
# Youngs Moduli (GPa) = 52.37493 98.70885 96.74329
#
# Poissons Ratio (x) = 0.43924 0.51472
# Poissons Ratio (y) = 0.23306 0.20673
# Poissons Ratio (z) = 0.27866 0.21093
#
# Static dielectric constant tensor:
#      x y z
#    x 3.496890 -0.024530 0.202130 
#    y -0.024530 3.649690 0.097820 
#    z 0.202130 0.097820 4.037120 
# 
# 
# High freq. dielectric constant tensor:
#      x y z
#    x 1.773930 0.002940 0.013280 
#    y 0.002940 1.806140 0.003000 
#    z 0.013280 0.003000 1.812480 
# 
# From -- ./inp_files/393101.got.cif
#   From: 2010.06.25/outbox.cif.g09.slc.cpg/sg2_197_cif.got.tgz:393101.got - 2010.06.27 13:26:56.
