data_PCOD8030861
_publ_section_title
;
Structure prediction by ZEFSAII (Michael W. Deem and Ramdas Pophale) SiO2 
 PCOD8030861
Probable space group: P -1
;
_chemical_formula_sum "Si O2"
_cell_formula_units_Z 16
_cell_length_a 8.638006
_cell_length_b 19.071513
_cell_length_c 4.605221
_cell_angle_alpha 96.933220
_cell_angle_beta 90.000077
_cell_angle_gamma 47.596193
_cell_volume 552.668886
_symmetry_space_group_name_H-M "P -1"
_symmetry_group_IT_number 2
_symmetry_cell_setting 'triclinic'
loop_
_space_group_symop_operation_xyz
x,y,z
-x,-y,-z
loop_
_atom_site_type_symbol
_atom_site_label
_atom_site_fract_x
_atom_site_fract_y
_atom_site_fract_z
Si Si1 0.311145 0.681804 0.088265
Si Si2 0.188844 0.318205 0.406483
Si Si3 0.128900 0.812894 0.638330
Si Si4 0.797986 0.438210 0.848931
Si Si5 0.297994 0.438209 0.589286
Si Si6 0.271238 0.068817 0.901038
Si Si7 0.771251 0.068809 0.167799
Si Si8 0.628917 0.812882 0.174518
O O1 0.111257 0.780785 0.305949
O O2 0.321219 0.594135 0.054087
O O3 0.510412 0.647349 0.254546
O O4 0.302228 0.714598 0.779044
O O5 0.178774 0.405873 0.459957
O O6 0.197761 0.285414 0.064472
O O7 0.989581 0.352658 0.607216
O O8 0.388733 0.219225 0.525205
O O9 0.231956 0.858389 0.608318
O O10 0.899491 0.879454 0.813803
O O11 0.643879 0.533902 0.687377
O O12 0.856106 0.466100 0.153485
O O13 0.268012 0.141630 0.749985
O O14 0.500000 0.000000 0.000000
O O15 0.249983 0.000010 0.687822
O O16 0.600495 0.120552 0.934399
O O17 0.000000 0.000000 0.000000
#
# Coordination Sequence:
#
# PCOD8030861 Si02
#       8
#     2   2   2   2   2   2   2   2
#     4  12  24  41  64  90 122 160 202 250 300 357
#     4  12  24  41  64  90 122 160 202 250 300 357
#     4  11  22  41  62  91 122 160 202 247 298 357
#     4  12  24  41  62  90 122 160 202 250 302 357
#     4  12  24  41  62  90 122 160 202 250 302 357
#     4   9  20  41  64  91 124 160 200 247 300 357
#     4   9  20  41  64  91 124 160 200 247 300 357
#     4  11  22  41  62  91 122 160 202 247 298 357
#
# _framework density 28.950427000000001
#
# number of rings (size 3 to 8) (size 9 to 14) (size 15 to 20)
#    0.000    1.000    0.000    7.500    0.000    0.000 
#    0.000   25.000    0.000    0.000    0.000    0.000 
#    0.000    0.000    0.000    0.000    0.000    0.000 
#
# Total GULP energy -198341.819849 kJ/mol
# GULP energy per Si atom -12396.363741 kJ/mol
# Density = 2.888453 g / cm^3
# Si number density = 28.950427 Si / 1000 Ang^3
#
#
#
# Elastic Constant Matrix: (Units=GPa)
#
#
# Indices 1 2 3 4 5 6 
#
# 1 113.3538 43.4007 15.7001 6.6838 8.8217 38.5586
# 2 43.4007 108.4850 14.2018 21.1313 10.3849 51.4570
# 3 15.7001 14.2018 91.4194 -16.9904 7.9973 28.9585
# 4 6.6838 21.1313 -16.9904 12.5571 3.9346 4.6696
# 5 8.8217 10.3849 7.9973 3.9346 32.0456 4.9396
# 6 38.5586 51.4570 28.9585 4.6696 4.9396 52.5110
#
#
#
# Elastic Compliance Matrix: (Units=1/GPa)
#
#
# Indices 1 2 3 4 5 6 
#
# 1 0.011989 -0.000616 0.000738 -0.000632 -0.001917 -0.008371
# 2 -0.000616 0.031543 -0.009661 -0.059197 0.002728 -0.020122
# 3 0.000738 -0.009661 0.027964 0.060867 -0.009831 -0.010985
# 4 -0.000632 -0.059197 0.060867 0.269826 -0.029530 0.003690
# 5 -0.001917 0.002728 -0.009831 -0.029530 0.036411 0.003357
# 6 -0.008371 -0.020122 -0.010985 0.003690 0.003357 0.050323
#
#
# Mechanical properties :
#
#
# Convention : Reuss Voigt Hill
#
# Bulk Modulus (GPa) = 19.07661 51.09594 35.08628
# Shear Modulus (GPa) = 10.76180 35.41978 23.09079
#
# Velocity S-wave (km/s) = 1.93013 3.50160 2.82724
# Velocity P-wave (km/s) = 3.40160 5.83404 4.77530
#
# Compressibility (1/GPa) = 0.05242021
#
# Stress axis : x y z
#
# Youngs Moduli (GPa) = 83.40683 31.70272 35.75991
#
# Poissons Ratio (x) = 0.01953 -0.02641
# Poissons Ratio (y) = 0.05138 0.34546
# Poissons Ratio (z) = -0.06159 0.30627
#
# Static dielectric constant tensor:
#      x y z
#    x 5.500390 0.275800 0.063160 
#    y 0.275800 6.416010 0.272470 
#    z 0.063160 0.272470 5.286170 
# 
# 
# High freq. dielectric constant tensor:
#      x y z
#    x 2.179020 -0.009960 -0.002270 
#    y -0.009960 2.215930 0.011690 
#    z -0.002270 0.011690 2.167440 
# 
# From -- ./inp_files/48263.got.cif
#   From: 2010.06.25/outbox.cif.g09.slc.cpg/sg2_25_cif.got.tgz:48263.got - 2010.06.27 13:26:56.
