data_PCOD8030035
_publ_section_title
;
Structure prediction by ZEFSAII (Michael W. Deem and Ramdas Pophale) SiO2 
 PCOD8030035
Probable space group: P -1
;
_chemical_formula_sum "Si O2"
_cell_formula_units_Z 16
_cell_length_a 14.319063
_cell_length_b 8.399119
_cell_length_c 12.642418
_cell_angle_alpha 110.960742
_cell_angle_beta 57.218219
_cell_angle_gamma 63.180621
_cell_volume 680.880868
_symmetry_space_group_name_H-M "P -1"
_symmetry_group_IT_number 2
_symmetry_cell_setting 'triclinic'
loop_
_space_group_symop_operation_xyz
x,y,z
-x,-y,-z
loop_
_atom_site_type_symbol
_atom_site_label
_atom_site_fract_x
_atom_site_fract_y
_atom_site_fract_z
Si Si1 0.951682 0.856593 0.591573
Si Si2 0.568496 0.342436 0.031788
Si Si3 0.459645 0.711634 0.356569
Si Si4 0.854098 0.564091 0.042064
Si Si5 0.940647 0.898263 0.365155
Si Si6 0.798403 0.354617 0.195341
Si Si7 0.431739 0.126858 0.395423
Si Si8 0.378308 0.258556 0.218017
O O1 0.150598 0.505877 0.404796
O O2 0.891085 0.910548 0.519147
O O3 0.964761 0.034360 0.669227
O O4 0.779742 0.988379 0.798675
O O5 0.500000 0.500000 0.000000
O O6 0.589976 0.479706 0.124888
O O7 0.418015 0.405441 0.197926
O O8 0.596688 0.507384 0.327874
O O9 0.259154 0.855709 0.523357
O O10 0.399759 0.982381 0.433038
O O11 0.918718 0.420855 0.851035
O O12 0.831003 0.421987 0.087284
O O13 0.000000 0.500000 0.000000
O O14 0.646350 0.923606 0.249843
O O15 0.746570 0.530491 0.372856
O O16 0.000000 0.000000 0.000000
O O17 0.436559 0.125107 0.266286
O O18 0.500000 0.000000 0.000000
#
# Coordination Sequence:
#
# PCOD8030035 Si02
#       8
#     2   2   2   2   2   2   2   2
#     4  11  23  42  68 105 141 180 243 285 354 423
#     4  12  23  44  72 103 137 190 236 290 354 421
#     4  11  22  45  74  97 141 190 237 288 358 420
#     4  11  23  45  71  98 136 185 239 287 361 424
#     4  11  21  41  73 102 132 185 237 293 347 425
#     4  11  26  44  69 103 138 186 238 294 352 420
#     4  11  25  46  66 101 146 182 233 295 354 420
#     4  12  27  45  67 105 148 182 233 296 355 423
#
# _framework density 23.49897
#
# number of rings (size 3 to 8) (size 9 to 14) (size 15 to 20)
#    0.000    0.750    2.500    6.750    3.500    1.500 
#    2.250    1.875    0.000    0.000    0.000    0.000 
#    0.000    0.000    0.000    0.000    0.000    0.000 
#
# Total GULP energy -198276.830317 kJ/mol
# GULP energy per Si atom -12392.301895 kJ/mol
# Density = 2.344549 g / cm^3
# Si number density = 23.498970 Si / 1000 Ang^3
#
#
#
# Elastic Constant Matrix: (Units=GPa)
#
#
# Indices 1 2 3 4 5 6 
#
# 1 92.1199 11.3722 33.9905 11.9243 10.2607 -19.3635
# 2 11.3722 73.8383 25.7922 19.1482 1.0106 -21.9379
# 3 33.9905 25.7922 163.1172 29.7825 12.3446 -7.0328
# 4 11.9243 19.1482 29.7825 42.8905 -3.1445 -3.0424
# 5 10.2607 1.0106 12.3446 -3.1445 52.2832 6.9843
# 6 -19.3635 -21.9379 -7.0328 -3.0424 6.9843 24.6391
#
#
#
# Elastic Compliance Matrix: (Units=1/GPa)
#
#
# Indices 1 2 3 4 5 6 
#
# 1 0.015666 0.004355 -0.002117 -0.004031 -0.005110 0.016535
# 2 0.004355 0.022766 -0.001502 -0.009006 -0.004616 0.023460
# 3 -0.002117 -0.001502 0.007656 -0.004231 -0.001495 -0.000915
# 4 -0.004031 -0.009006 -0.004231 0.031062 0.005171 -0.010024
# 5 -0.005110 -0.004616 -0.001495 0.005171 0.022803 -0.014378
# 6 0.016535 0.023460 -0.000915 -0.010024 -0.014378 0.077045
#
#
# Mechanical properties :
#
#
# Convention : Reuss Voigt Hill
#
# Bulk Modulus (GPa) = 21.02712 52.37613 36.70162
# Shear Modulus (GPa) = 26.12605 41.15727 33.64166
#
# Velocity S-wave (km/s) = 3.33798 4.18957 3.78778
# Velocity P-wave (km/s) = 4.88095 6.76317 5.89763
#
# Compressibility (1/GPa) = 0.04755763
#
# Stress axis : x y z
#
# Youngs Moduli (GPa) = 63.83354 43.92571 130.62412
#
# Poissons Ratio (x) = -0.19129 0.27658
# Poissons Ratio (y) = -0.27799 0.19622
# Poissons Ratio (z) = 0.13516 0.06598
#
# Static dielectric constant tensor:
#      x y z
#    x 5.356640 0.240040 -0.170990 
#    y 0.240040 3.145160 -0.311430 
#    z -0.170990 -0.311430 4.535220 
# 
# 
# High freq. dielectric constant tensor:
#      x y z
#    x 1.939290 -0.014770 0.003330 
#    y -0.014770 1.894490 0.008340 
#    z 0.003330 0.008340 1.961690 
# 
# From -- ./inp_files/447810.got.cif
#   From: 2010.06.25/outbox.cif.g09.slc.cpg/sg2_224_cif.got.tgz:447810.got - 2010.06.27 13:26:56.
