data_PCOD8030220
_publ_section_title
;
Structure prediction by ZEFSAII (Michael W. Deem and Ramdas Pophale) SiO2 
 PCOD8030220
Probable space group: P -1
;
_chemical_formula_sum "Si O2"
_cell_formula_units_Z 16
_cell_length_a 11.057733
_cell_length_b 9.898917
_cell_length_c 9.162459
_cell_angle_alpha 47.153492
_cell_angle_beta 88.873355
_cell_angle_gamma 88.951667
_cell_volume 735.159455
_symmetry_space_group_name_H-M "P -1"
_symmetry_group_IT_number 2
_symmetry_cell_setting 'triclinic'
loop_
_space_group_symop_operation_xyz
x,y,z
-x,-y,-z
loop_
_atom_site_type_symbol
_atom_site_label
_atom_site_fract_x
_atom_site_fract_y
_atom_site_fract_z
Si Si1 0.435499 0.930545 0.907298
Si Si2 0.959134 0.935669 0.389437
Si Si3 0.789870 0.208374 0.543276
Si Si4 0.934040 0.322873 0.962188
Si Si5 0.273604 0.637309 0.267602
Si Si6 0.181383 0.480536 0.907978
Si Si7 0.652054 0.840823 0.759704
Si Si8 0.701269 0.775923 0.486944
O O1 0.527276 0.883728 0.810454
O O2 0.344503 0.087821 0.737638
O O3 0.359942 0.747827 0.075134
O O4 0.500000 0.000000 0.000000
O O5 0.842284 0.807505 0.496710
O O6 0.067327 0.812357 0.410070
O O7 0.000000 0.000000 0.500000
O O8 0.930681 0.110289 0.162408
O O9 0.716736 0.277809 0.634240
O O10 0.765656 0.350285 0.308534
O O11 0.741774 0.012041 0.638531
O O12 0.865000 0.345884 0.794448
O O13 0.071378 0.387897 0.890047
O O14 0.864425 0.451554 0.984550
O O15 0.317996 0.427389 0.426365
O O16 0.287373 0.333192 0.034340
O O17 0.625196 0.798437 0.621747
#
# Coordination Sequence:
#
# PCOD8030220 Si02
#       8
#     2   2   2   2   2   2   2   2
#     4  12  29  51  71 100 144 188 239 299 348 402
#     4  12  21  42  75 107 144 182 223 285 356 423
#     4  12  26  42  72 107 146 185 227 283 364 422
#     4  11  21  43  70 105 147 178 225 292 353 420
#     4  12  28  47  69 107 143 183 237 294 352 413
#     4  11  23  41  74 106 143 181 229 288 349 425
#     4  12  25  48  73 103 136 189 240 284 348 417
#     4  12  26  47  78 104 139 185 239 290 348 419
#
# _framework density 21.763984000000001
#
# number of rings (size 3 to 8) (size 9 to 14) (size 15 to 20)
#    0.000    0.250    7.500    1.125    1.750    4.500 
#    0.000    0.000    0.000    0.000    0.000    0.000 
#    0.000    0.000    0.000    0.000    0.000    0.000 
#
# Total GULP energy -198532.241719 kJ/mol
# GULP energy per Si atom -12408.265107 kJ/mol
# Density = 2.171445 g / cm^3
# Si number density = 21.763984 Si / 1000 Ang^3
#
#
#
# Elastic Constant Matrix: (Units=GPa)
#
#
# Indices 1 2 3 4 5 6 
#
# 1 76.6627 17.5675 34.5987 -5.4038 -0.4473 -4.0039
# 2 17.5675 89.7422 32.4367 -10.4755 4.1174 -8.8048
# 3 34.5987 32.4367 108.8125 -28.0811 8.2761 -9.1672
# 4 -5.4038 -10.4755 -28.0811 43.2926 -1.9905 -0.0762
# 5 -0.4473 4.1174 8.2761 -1.9905 30.5208 6.9135
# 6 -4.0039 -8.8048 -9.1672 -0.0762 6.9135 27.6890
#
#
#
# Elastic Compliance Matrix: (Units=1/GPa)
#
#
# Indices 1 2 3 4 5 6 
#
# 1 0.015563 -0.001518 -0.005087 -0.001643 0.001788 -0.000367
# 2 -0.001518 0.012955 -0.002658 0.001146 -0.001759 0.003462
# 3 -0.005087 -0.002658 0.014270 0.007800 -0.004021 0.004169
# 4 -0.001643 0.001146 0.007800 0.028183 -0.001152 0.003075
# 5 0.001788 -0.001759 -0.004021 -0.001152 0.036477 -0.010743
# 6 -0.000367 0.003462 0.004169 0.003075 -0.010743 0.041234
#
#
# Mechanical properties :
#
#
# Convention : Reuss Voigt Hill
#
# Bulk Modulus (GPa) = 41.21517 49.38035 45.29776
# Shear Modulus (GPa) = 28.52324 33.00809 30.76566
#
# Velocity S-wave (km/s) = 3.62411 3.89863 3.76387
# Velocity P-wave (km/s) = 6.04075 6.55775 6.30455
#
# Compressibility (1/GPa) = 0.02426291
#
# Stress axis : x y z
#
# Youngs Moduli (GPa) = 64.25395 77.18997 70.07668
#
# Poissons Ratio (x) = 0.11716 0.35648
# Poissons Ratio (y) = 0.09752 0.18626
# Poissons Ratio (z) = 0.32686 0.20517
#
# Static dielectric constant tensor:
#      x y z
#    x 7.935630 -1.653510 9.382310 
#    y -1.653510 4.583400 -4.051770 
#    z 9.382310 -4.051770 26.240490 
# 
# 
# High freq. dielectric constant tensor:
#      x y z
#    x 1.852520 -0.001030 0.001720 
#    y -0.001030 1.854020 -0.011920 
#    z 0.001720 -0.011920 1.870110 
# 
# From -- ./inp_files/186389.got.cif
#   From: 2010.06.25/outbox.cif.g09.slc.cpg/sg2_94_cif.got.tgz:186389.got - 2010.06.27 13:26:56.
