data_PCOD8030248
_publ_section_title
;
Structure prediction by ZEFSAII (Michael W. Deem and Ramdas Pophale) SiO2 
 PCOD8030248
Probable space group: P -1
;
_chemical_formula_sum "Si O2"
_cell_formula_units_Z 16
_cell_length_a 11.016781
_cell_length_b 14.753600
_cell_length_c 13.057977
_cell_angle_alpha 52.921586
_cell_angle_beta 74.998657
_cell_angle_gamma 31.889385
_cell_volume 715.323270
_symmetry_space_group_name_H-M "P -1"
_symmetry_group_IT_number 2
_symmetry_cell_setting 'triclinic'
loop_
_space_group_symop_operation_xyz
x,y,z
-x,-y,-z
loop_
_atom_site_type_symbol
_atom_site_label
_atom_site_fract_x
_atom_site_fract_y
_atom_site_fract_z
Si Si1 0.289644 0.437310 0.194165
Si Si2 0.002287 0.281539 0.665177
Si Si3 0.488935 0.163597 0.641687
Si Si4 0.989645 0.877896 0.831968
Si Si5 0.796610 0.208235 0.812787
Si Si6 0.706016 0.263587 0.323655
Si Si7 0.742805 0.797711 0.169237
Si Si8 0.551049 0.006754 0.372636
O O1 0.513576 0.306632 0.318105
O O2 0.432471 0.231050 0.226962
O O3 0.055524 0.544396 0.223496
O O4 0.146375 0.658230 0.016855
O O5 0.247037 0.103441 0.820834
O O6 0.717080 0.585688 0.548732
O O7 0.929486 0.209088 0.726585
O O8 0.115114 0.242083 0.559782
O O9 0.316836 0.268350 0.710212
O O10 0.779298 0.992139 0.719426
O O11 0.586749 0.973444 0.686612
O O12 0.226031 0.748566 0.798323
O O13 0.795562 0.115869 0.785709
O O14 0.481755 0.492364 0.735467
O O15 0.000000 0.000000 0.000000
O O16 0.000000 0.000000 0.500000
O O17 0.500000 0.000000 0.000000
O O18 0.500000 0.000000 0.500000
#
# Coordination Sequence:
#
# PCOD8030248 Si02
#       8
#     2   2   2   2   2   2   2   2
#     4  12  24  48  72 102 153 187 246 314 367 441
#     4  11  23  45  73 100 148 186 248 307 361 450
#     4  11  25  47  70 109 147 190 246 306 371 451
#     4  12  27  48  75 111 153 193 253 312 369 457
#     4  12  26  48  80 109 148 210 246 303 392 439
#     4  12  28  48  79 113 151 196 257 314 374 446
#     4  11  21  43  72 101 139 191 236 299 366 440
#     4  11  25  41  75 105 140 196 239 303 386 430
#
# _framework density 22.367509999999999
#
# number of rings (size 3 to 8) (size 9 to 14) (size 15 to 20)
#    0.000    0.500    3.750    4.875    3.500    3.500 
#    2.250    0.000    0.000    0.000    0.000    0.000 
#    0.000    0.000    0.000    0.000    0.000    0.000 
#
# Total GULP energy -198251.118477 kJ/mol
# GULP energy per Si atom -12390.694905 kJ/mol
# Density = 2.231660 g / cm^3
# Si number density = 22.367510 Si / 1000 Ang^3
#
#
#
# Elastic Constant Matrix: (Units=GPa)
#
#
# Indices 1 2 3 4 5 6 
#
# 1 127.3796 49.4609 55.4346 -12.8465 8.8922 18.3802
# 2 49.4609 138.4227 44.4322 -2.4309 2.7206 12.3547
# 3 55.4346 44.4322 113.5373 -8.7307 12.7085 8.8790
# 4 -12.8465 -2.4309 -8.7307 37.9000 -3.8159 -8.8957
# 5 8.8922 2.7206 12.7085 -3.8159 37.9334 -5.5513
# 6 18.3802 12.3547 8.8790 -8.8957 -5.5513 50.0274
#
#
#
# Elastic Compliance Matrix: (Units=1/GPa)
#
#
# Indices 1 2 3 4 5 6 
#
# 1 0.011206 -0.002420 -0.004025 0.001977 -0.001286 -0.002596
# 2 -0.002420 0.008909 -0.002353 -0.000982 0.000469 -0.001016
# 3 -0.004025 -0.002353 0.012107 0.000926 -0.002887 -0.000245
# 4 0.001977 -0.000982 0.000926 0.028612 0.002871 0.004758
# 5 -0.001286 0.000469 -0.002887 0.002871 0.028551 0.004548
# 6 -0.002596 -0.001016 -0.000245 0.004758 0.004548 0.022588
#
#
# Mechanical properties :
#
#
# Convention : Reuss Voigt Hill
#
# Bulk Modulus (GPa) = 68.37906 75.33278 71.85592
# Shear Modulus (GPa) = 37.19017 40.50629 38.84823
#
# Velocity S-wave (km/s) = 4.08203 4.26013 4.17203
# Velocity P-wave (km/s) = 7.27010 7.61256 7.44330
#
# Compressibility (1/GPa) = 0.01462436
#
# Stress axis : x y z
#
# Youngs Moduli (GPa) = 89.23980 112.25077 82.59504
#
# Poissons Ratio (x) = 0.27168 0.33245
# Poissons Ratio (y) = 0.21599 0.19437
# Poissons Ratio (z) = 0.35920 0.26416
#
# Static dielectric constant tensor:
#      x y z
#    x 4.208820 0.015920 -0.096400 
#    y 0.015920 4.503170 0.039250 
#    z -0.096400 0.039250 3.994850 
# 
# 
# High freq. dielectric constant tensor:
#      x y z
#    x 1.890050 -0.011060 -0.008880 
#    y -0.011060 1.897430 0.012350 
#    z -0.008880 0.012350 1.874180 
# 
# From -- ./inp_files/433810.got.cif
#   From: 2010.06.25/outbox.cif.g09.slc.cpg/sg2_217_cif.got.tgz:433810.got - 2010.06.27 13:26:56.
