data_PCOD8030668
_publ_section_title
;
Structure prediction by ZEFSAII (Michael W. Deem and Ramdas Pophale) SiO2 
 PCOD8030668
Probable space group: P -1
;
_chemical_formula_sum "Si O2"
_cell_formula_units_Z 16
_cell_length_a 17.919273
_cell_length_b 12.675328
_cell_length_c 9.462219
_cell_angle_alpha 37.737178
_cell_angle_beta 38.361016
_cell_angle_gamma 38.872139
_cell_volume 741.928272
_symmetry_space_group_name_H-M "P -1"
_symmetry_group_IT_number 2
_symmetry_cell_setting 'triclinic'
loop_
_space_group_symop_operation_xyz
x,y,z
-x,-y,-z
loop_
_atom_site_type_symbol
_atom_site_label
_atom_site_fract_x
_atom_site_fract_y
_atom_site_fract_z
Si Si1 0.249408 0.148156 0.207664
Si Si2 0.373927 0.086296 0.799517
Si Si3 0.670822 0.957932 0.492552
Si Si4 0.903654 0.589542 0.416796
Si Si5 0.221095 0.516828 0.516223
Si Si6 0.115669 0.576888 0.911908
Si Si7 0.761194 0.125282 0.955180
Si Si8 0.050865 0.975885 0.609396
O O1 0.314154 0.030144 0.375661
O O2 0.359024 0.071420 0.005206
O O3 0.208947 0.372979 0.056557
O O4 0.120449 0.114611 0.393962
O O5 0.526867 0.969298 0.655684
O O6 0.331867 0.304051 0.587412
O O7 0.282499 0.001494 0.949822
O O8 0.778280 0.767383 0.468610
O O9 0.694239 0.130322 0.202234
O O10 0.853684 0.446045 0.564715
O O11 0.000000 0.500000 0.500000
O O12 0.970437 0.647569 0.122567
O O13 0.117881 0.559193 0.756310
O O14 0.289625 0.663918 0.259653
O O15 0.153230 0.752395 0.714039
O O16 0.919971 0.037043 0.835357
O O17 0.000000 0.000000 0.500000
#
# Coordination Sequence:
#
# PCOD8030668 Si02
#       8
#     2   2   2   2   2   2   2   2
#     4  11  25  43  68  96 132 172 220 272 330 391
#     4  11  24  48  68  92 131 180 227 262 315 401
#     4  12  26  44  65  96 140 178 210 271 334 391
#     4  12  24  40  63 100 138 169 210 275 336 384
#     4  11  24  41  69  97 123 176 222 268 324 386
#     4  11  22  39  67  94 130 167 217 270 325 385
#     4  12  24  41  69  98 129 169 224 276 322 386
#     4  12  22  38  67 103 128 165 222 275 326 381
#
# _framework density 21.565427
#
# number of rings (size 3 to 8) (size 9 to 14) (size 15 to 20)
#    0.000    0.500    6.250    1.875    1.750    2.000 
#    0.000    0.000    0.000    4.500    0.000    0.000 
#    0.000    0.000    0.000    0.000    0.000    0.000 
#
# Total GULP energy -198280.944806 kJ/mol
# GULP energy per Si atom -12392.559050 kJ/mol
# Density = 2.151634 g / cm^3
# Si number density = 21.565427 Si / 1000 Ang^3
#
#
#
# Elastic Constant Matrix: (Units=GPa)
#
#
# Indices 1 2 3 4 5 6 
#
# 1 92.4007 39.2274 53.7334 4.6664 18.2345 -0.9963
# 2 39.2274 115.2303 61.9628 -4.3770 -2.0681 -8.1666
# 3 53.7334 61.9628 144.3410 -3.8327 10.5705 -0.6912
# 4 4.6664 -4.3770 -3.8327 42.4917 3.0275 -9.5531
# 5 18.2345 -2.0681 10.5705 3.0275 34.9969 9.1023
# 6 -0.9963 -8.1666 -0.6912 -9.5531 9.1023 18.0386
#
#
#
# Elastic Compliance Matrix: (Units=1/GPa)
#
#
# Indices 1 2 3 4 5 6 
#
# 1 0.016290 -0.003384 -0.004049 -0.001364 -0.008004 0.002529
# 2 -0.003384 0.012626 -0.004226 0.002388 0.002135 0.005554
# 3 -0.004049 -0.004226 0.010355 0.000870 -0.001163 -0.000693
# 4 -0.001364 0.002388 0.000870 0.029011 -0.007122 0.019997
# 5 -0.008004 0.002135 -0.001163 -0.007122 0.039935 -0.023443
# 6 0.002529 0.005554 -0.000693 0.019997 -0.023443 0.080484
#
#
# Mechanical properties :
#
#
# Convention : Reuss Voigt Hill
#
# Bulk Modulus (GPa) = 62.69537 73.53546 68.11541
# Shear Modulus (GPa) = 23.00570 32.24199 27.62385
#
# Velocity S-wave (km/s) = 3.26971 3.87082 3.58289
# Velocity P-wave (km/s) = 6.58711 7.35870 6.98357
#
# Compressibility (1/GPa) = 0.01595014
#
# Stress axis : x y z
#
# Youngs Moduli (GPa) = 61.38895 79.20334 96.57436
#
# Poissons Ratio (x) = 0.26804 0.39105
# Poissons Ratio (y) = 0.20776 0.40817
# Poissons Ratio (z) = 0.24858 0.33475
#
# Static dielectric constant tensor:
#      x y z
#    x 3.762200 0.181470 0.260200 
#    y 0.181470 4.056110 -0.074370 
#    z 0.260200 -0.074370 4.529270 
# 
# 
# High freq. dielectric constant tensor:
#      x y z
#    x 1.817860 0.015690 0.012810 
#    y 0.015690 1.851150 0.000720 
#    z 0.012810 0.000720 1.861460 
# 
# From -- ./inp_files/332686.got.cif
#   From: 2010.06.25/outbox.cif.g09.slc.cpg/sg2_167_cif.got.tgz:332686.got - 2010.06.27 13:26:56.
