data_PCOD8031384
_publ_section_title
;
Structure prediction by ZEFSAII (Michael W. Deem and Ramdas Pophale) SiO2 
 PCOD8031384
Probable space group: P -1
;
_chemical_formula_sum "Si O2"
_cell_formula_units_Z 16
_cell_length_a 8.181652
_cell_length_b 28.128179
_cell_length_c 11.836766
_cell_angle_alpha 150.134296
_cell_angle_beta 36.727924
_cell_angle_gamma 149.025713
_cell_volume 680.040677
_symmetry_space_group_name_H-M "P -1"
_symmetry_group_IT_number 2
_symmetry_cell_setting 'triclinic'
loop_
_space_group_symop_operation_xyz
x,y,z
-x,-y,-z
loop_
_atom_site_type_symbol
_atom_site_label
_atom_site_fract_x
_atom_site_fract_y
_atom_site_fract_z
Si Si1 0.794068 0.304682 0.029375
Si Si2 0.310596 0.620549 0.544081
Si Si3 0.147897 0.416437 0.850139
Si Si4 0.348562 0.056143 0.770348
Si Si5 0.626648 0.676176 0.105944
Si Si6 0.351363 0.010145 0.931119
Si Si7 0.202063 0.762874 0.526356
Si Si8 0.086053 0.760724 0.828494
O O1 0.547116 0.180524 0.861331
O O2 0.915704 0.390844 0.033951
O O3 0.103735 0.317437 0.948864
O O4 0.574662 0.320939 0.275226
O O5 0.575589 0.604855 0.305077
O O6 0.249628 0.693920 0.642478
O O7 0.000000 0.500000 0.500000
O O8 0.969471 0.330343 0.668527
O O9 0.312319 0.547647 0.995981
O O10 0.500000 0.000000 0.500000
O O11 0.425607 0.064966 0.878702
O O12 0.961458 0.999306 0.855832
O O13 0.515015 0.758700 0.382554
O O14 0.766083 0.721028 0.995858
O O15 0.315096 0.889531 0.686989
O O16 0.660368 0.101578 0.022987
O O17 0.977270 0.729577 0.694064
#
# Coordination Sequence:
#
# PCOD8031384 Si02
#       8
#     2   2   2   2   2   2   2   2
#     4  11  23  43  71 102 130 172 229 285 333 400
#     4  11  22  43  72  99 127 176 228 280 334 387
#     4  12  25  43  69 104 135 174 230 278 337 400
#     4  11  24  42  73 102 131 170 227 292 335 388
#     4  11  25  45  66 103 135 180 228 269 341 407
#     4  11  25  47  66 102 136 174 232 275 337 404
#     4  12  28  42  67  96 143 190 215 279 336 400
#     4  11  25  46  70  99 139 179 227 276 337 409
#
# _framework density 23.528003999999999
#
# number of rings (size 3 to 8) (size 9 to 14) (size 15 to 20)
#    0.000    0.750    5.000    3.375    7.000    4.000 
#    0.000    0.000    0.000    0.000    0.000    0.000 
#    0.000    0.000    0.000    0.000    0.000    0.000 
#
# Total GULP energy -198348.327050 kJ/mol
# GULP energy per Si atom -12396.770441 kJ/mol
# Density = 2.347445 g / cm^3
# Si number density = 23.528004 Si / 1000 Ang^3
#
#
#
# Elastic Constant Matrix: (Units=GPa)
#
#
# Indices 1 2 3 4 5 6 
#
# 1 34.5394 15.9281 -3.1902 1.9991 11.4378 -11.4390
# 2 15.9281 137.2618 31.3074 8.0603 4.8488 -15.7021
# 3 -3.1902 31.3074 91.2502 8.4211 -17.4097 -5.9774
# 4 1.9991 8.0603 8.4211 47.0639 -2.7608 5.3191
# 5 11.4378 4.8488 -17.4097 -2.7608 30.2735 -4.0509
# 6 -11.4390 -15.7021 -5.9774 5.3191 -4.0509 24.7443
#
#
#
# Elastic Compliance Matrix: (Units=1/GPa)
#
#
# Indices 1 2 3 4 5 6 
#
# 1 0.039740 -0.002417 0.001338 -0.004036 -0.012078 0.016051
# 2 -0.002417 0.008853 -0.003116 -0.001391 -0.001924 0.003732
# 3 0.001338 -0.003116 0.014124 -0.001991 0.008452 0.003865
# 4 -0.004036 -0.001391 -0.001991 0.023003 0.001642 -0.007905
# 5 -0.012078 -0.001924 0.008452 0.001642 0.043175 0.001952
# 6 0.016051 0.003732 0.003865 -0.007905 0.001952 0.053154
#
#
# Mechanical properties :
#
#
# Convention : Reuss Voigt Hill
#
# Bulk Modulus (GPa) = 18.40707 39.01580 28.71143
# Shear Modulus (GPa) = 23.97520 35.01675 29.49598
#
# Velocity S-wave (km/s) = 3.19565 3.86204 3.54454
# Velocity P-wave (km/s) = 4.63214 6.04200 5.38342
#
# Compressibility (1/GPa) = 0.05432695
#
# Stress axis : x y z
#
# Youngs Moduli (GPa) = 25.16376 112.95451 70.79993
#
# Poissons Ratio (x) = 0.27299 -0.09474
# Poissons Ratio (y) = 0.06082 0.22064
# Poissons Ratio (z) = -0.03367 0.35200
#
# Static dielectric constant tensor:
#      x y z
#    x 4.101390 0.033020 -0.587570 
#    y 0.033020 4.426730 -0.370750 
#    z -0.587570 -0.370750 6.843400 
# 
# 
# High freq. dielectric constant tensor:
#      x y z
#    x 1.916960 -0.006840 0.002230 
#    y -0.006840 1.944780 -0.001560 
#    z 0.002230 -0.001560 1.943110 
# 
# From -- ./inp_files/357045.got.cif
#   From: 2010.06.25/outbox.cif.g09.slc.cpg/sg2_179_cif.got.tgz:357045.got - 2010.06.27 13:26:56.
