data_PCOD8031740
_publ_section_title
;
Structure prediction by ZEFSAII (Michael W. Deem and Ramdas Pophale) SiO2 
 PCOD8031740
Probable space group: P -1
;
_chemical_formula_sum "Si O2"
_cell_formula_units_Z 16
_cell_length_a 12.966200
_cell_length_b 17.980184
_cell_length_c 8.814984
_cell_angle_alpha 79.668223
_cell_angle_beta 110.920553
_cell_angle_gamma 156.397891
_cell_volume 705.960235
_symmetry_space_group_name_H-M "P -1"
_symmetry_group_IT_number 2
_symmetry_cell_setting 'triclinic'
loop_
_space_group_symop_operation_xyz
x,y,z
-x,-y,-z
loop_
_atom_site_type_symbol
_atom_site_label
_atom_site_fract_x
_atom_site_fract_y
_atom_site_fract_z
Si Si1 0.301113 0.564505 0.502626
Si Si2 0.788035 0.423419 0.841848
Si Si3 0.318758 0.164034 0.110983
Si Si4 0.771258 0.066384 0.938813
Si Si5 0.366686 0.342941 0.562216
Si Si6 0.687528 0.496588 0.950751
Si Si7 0.334663 0.897895 0.610665
Si Si8 0.760609 0.018347 0.282697
O O1 0.176760 0.552142 0.332057
O O2 0.524401 0.738846 0.679453
O O3 0.506464 0.646181 0.469225
O O4 0.016246 0.341458 0.505657
O O5 0.858699 0.549317 0.906620
O O6 0.465868 0.190676 0.804584
O O7 0.000000 0.500000 0.000000
O O8 0.279560 0.052865 0.083719
O O9 0.536270 0.352290 0.054905
O O10 0.000000 0.000000 0.000000
O O11 0.483611 0.931905 0.790227
O O12 0.839899 0.115732 0.136943
O O13 0.065614 0.288460 0.931878
O O14 0.500000 0.500000 0.500000
O O15 0.442613 0.386253 0.765051
O O16 0.017930 0.130403 0.445907
O O17 0.366040 0.002533 0.654009
O O18 0.500000 0.000000 0.500000
#
# Coordination Sequence:
#
# PCOD8031740 Si02
#       8
#     2   2   2   2   2   2   2   2
#     4  11  26  46  70 108 147 186 242 304 363 429
#     4  11  24  44  75 107 140 187 243 302 353 428
#     4  12  29  47  70 108 150 193 237 295 369 436
#     4  12  25  48  73 101 147 192 240 300 355 437
#     4  11  22  45  78 105 137 187 246 304 356 423
#     4  11  25  46  72 105 143 187 246 295 354 431
#     4  12  27  45  72 106 145 189 244 299 371 434
#     4  12  23  44  77 106 139 191 246 295 365 430
#
# _framework density 22.664166000000002
#
# number of rings (size 3 to 8) (size 9 to 14) (size 15 to 20)
#    0.000    0.500    3.750    4.125    3.500    2.000 
#    0.000    0.000    0.000    0.000    0.000    0.000 
#    0.000    0.000    0.000    0.000    0.000    0.000 
#
# Total GULP energy -198366.839389 kJ/mol
# GULP energy per Si atom -12397.927462 kJ/mol
# Density = 2.261258 g / cm^3
# Si number density = 22.664166 Si / 1000 Ang^3
#
#
#
# Elastic Constant Matrix: (Units=GPa)
#
#
# Indices 1 2 3 4 5 6 
#
# 1 95.4991 36.2557 40.9651 0.6503 3.4059 0.6098
# 2 36.2557 124.4340 34.9104 5.6264 -1.8847 -14.4826
# 3 40.9651 34.9104 150.0333 -0.2174 11.8816 3.2531
# 4 0.6503 5.6264 -0.2174 43.9768 4.1986 2.5299
# 5 3.4059 -1.8847 11.8816 4.1986 37.5481 2.1293
# 6 0.6098 -14.4826 3.2531 2.5299 2.1293 36.3707
#
#
#
# Elastic Compliance Matrix: (Units=1/GPa)
#
#
# Indices 1 2 3 4 5 6 
#
# 1 0.012851 -0.003145 -0.002716 0.000310 -0.000430 -0.001221
# 2 -0.003145 0.010002 -0.001662 -0.001604 0.001253 0.004222
# 3 -0.002716 -0.001662 0.008009 0.000589 -0.002367 -0.001235
# 4 0.000310 -0.001604 0.000589 0.023332 -0.002782 -0.002157
# 5 -0.000430 0.001253 -0.002367 -0.002782 0.027835 -0.000718
# 6 -0.001221 0.004222 -0.001235 -0.002157 -0.000718 0.029499
#
#
# Mechanical properties :
#
#
# Convention : Reuss Voigt Hill
#
# Bulk Modulus (GPa) = 63.22724 66.02544 64.62634
# Shear Modulus (GPa) = 37.92294 40.76813 39.34553
#
# Velocity S-wave (km/s) = 4.09498 4.24582 4.17108
# Velocity P-wave (km/s) = 7.09341 7.29598 7.19541
#
# Compressibility (1/GPa) = 0.01581597
#
# Stress axis : x y z
#
# Youngs Moduli (GPa) = 77.81210 99.98145 124.86668
#
# Poissons Ratio (x) = 0.31445 0.33916
# Poissons Ratio (y) = 0.24473 0.20748
# Poissons Ratio (z) = 0.21135 0.16613
#
# Static dielectric constant tensor:
#      x y z
#    x 3.915330 -0.250070 0.053090 
#    y -0.250070 3.902170 -0.289350 
#    z 0.053090 -0.289350 4.247070 
# 
# 
# High freq. dielectric constant tensor:
#      x y z
#    x 1.884640 -0.011520 0.011740 
#    y -0.011520 1.905050 0.002970 
#    z 0.011740 0.002970 1.915260 
# 
# From -- ./inp_files/319340.got.cif
#   From: 2010.06.25/outbox.cif.g09.slc.cpg/sg2_160_cif.got.tgz:319340.got - 2010.06.27 13:26:56.
