data_PCOD8031505
_publ_section_title
;
Structure prediction by ZEFSAII (Michael W. Deem and Ramdas Pophale) SiO2 
 PCOD8031505
Probable space group: P -1
;
_chemical_formula_sum "Si O2"
_cell_formula_units_Z 14
_cell_length_a 14.369413
_cell_length_b 14.247650
_cell_length_c 8.093219
_cell_angle_alpha 54.178722
_cell_angle_beta 106.802073
_cell_angle_gamma 149.595643
_cell_volume 578.441212
_symmetry_space_group_name_H-M "P -1"
_symmetry_group_IT_number 2
_symmetry_cell_setting 'triclinic'
loop_
_space_group_symop_operation_xyz
x,y,z
-x,-y,-z
loop_
_atom_site_type_symbol
_atom_site_label
_atom_site_fract_x
_atom_site_fract_y
_atom_site_fract_z
Si Si1 0.307019 0.491437 0.487161
Si Si2 0.782742 0.602575 0.083834
Si Si3 0.224967 0.028010 0.702805
Si Si4 0.649592 0.933954 0.750772
Si Si5 0.130124 0.046731 0.292162
Si Si6 0.223730 0.790870 0.766536
Si Si7 0.453303 0.852260 0.998283
O O1 0.282138 0.581942 0.271252
O O2 0.126924 0.212056 0.609837
O O3 0.546958 0.689370 0.389000
O O4 0.258510 0.473009 0.670110
O O5 0.022429 0.815200 0.940660
O O6 0.754421 0.709614 0.932794
O O7 0.600612 0.346750 0.144372
O O8 0.170596 0.051477 0.495413
O O9 0.279901 0.954671 0.753403
O O10 0.773889 0.944281 0.796859
O O11 0.773456 0.158600 0.469463
O O12 0.650189 0.983187 0.889502
O O13 0.378259 0.844176 0.807247
O O14 0.000000 0.500000 0.000000
O O15 0.500000 0.000000 0.000000
#
# Coordination Sequence:
#
# PCOD8031505 Si02
#       7
#     2   2   2   2   2   2   2
#     4  12  26  46  67 110 147 179 252 290 342 441
#     4  12  24  48  75 102 147 191 235 296 360 418
#     4  11  25  46  70 104 144 189 240 292 351 429
#     4  11  24  45  74 103 142 193 239 292 356 432
#     4  11  25  47  73 106 144 190 239 294 359 420
#     4  11  22  44  69  99 139 186 240 290 356 425
#     4  12  24  43  67 101 144 183 235 296 353 415
#
# _framework density 24.202978000000002
#
# number of rings (size 3 to 8) (size 9 to 14) (size 15 to 20)
#    0.000    0.571    4.286    5.143    2.000    1.714 
#    0.000    2.143    0.000    0.000    0.000    0.000 
#    0.000    0.000    0.000    0.000    0.000    0.000 
#
# Total GULP energy -173556.431148 kJ/mol
# GULP energy per Si atom -12396.887939 kJ/mol
# Density = 2.414789 g / cm^3
# Si number density = 24.202978 Si / 1000 Ang^3
#
#
#
# Elastic Constant Matrix: (Units=GPa)
#
#
# Indices 1 2 3 4 5 6 
#
# 1 91.5204 20.5441 62.9385 5.4187 -10.9033 11.6701
# 2 20.5441 81.5000 16.7635 -16.8794 -4.2111 11.0471
# 3 62.9385 16.7635 145.5216 1.4288 -4.8175 -7.3344
# 4 5.4187 -16.8794 1.4288 32.5532 5.0347 -3.8705
# 5 -10.9033 -4.2111 -4.8175 5.0347 43.1583 -4.9944
# 6 11.6701 11.0471 -7.3344 -3.8705 -4.9944 37.2378
#
#
#
# Elastic Compliance Matrix: (Units=1/GPa)
#
#
# Indices 1 2 3 4 5 6 
#
# 1 0.018628 -0.003199 -0.007850 -0.005726 0.003425 -0.006571
# 2 -0.003199 0.015267 -0.000624 0.008239 -0.000683 -0.002885
# 3 -0.007850 -0.000624 0.010554 0.001158 -0.000447 0.004784
# 4 -0.005726 0.008239 0.001158 0.036923 -0.004495 0.002813
# 5 0.003425 -0.000683 -0.000447 -0.004495 0.024661 0.001881
# 6 -0.006571 -0.002885 0.004784 0.002813 0.001881 0.031256
#
#
# Mechanical properties :
#
#
# Convention : Reuss Voigt Hill
#
# Bulk Modulus (GPa) = 47.38751 57.67048 52.52900
# Shear Modulus (GPa) = 29.82075 37.14291 33.48183
#
# Velocity S-wave (km/s) = 3.51395 3.92170 3.72341
# Velocity P-wave (km/s) = 6.00712 6.66227 6.34316
#
# Compressibility (1/GPa) = 0.02110261
#
# Stress axis : x y z
#
# Youngs Moduli (GPa) = 53.68329 65.50189 94.75455
#
# Poissons Ratio (x) = 0.20956 0.74378
# Poissons Ratio (y) = 0.17175 0.05911
# Poissons Ratio (z) = 0.42139 0.04086
#
# Static dielectric constant tensor:
#      x y z
#    x 3.874440 -0.243200 -0.228390 
#    y -0.243200 4.344710 -0.243380 
#    z -0.228390 -0.243380 4.468080 
# 
# 
# High freq. dielectric constant tensor:
#      x y z
#    x 1.962800 0.006420 0.002200 
#    y 0.006420 1.949590 0.003360 
#    z 0.002200 0.003360 1.979880 
# 
# From -- ./inp_files/314719.got.cif
#   From: 2010.06.25/outbox.cif.g09.slc.cpg/sg2_158_cif.got.tgz:314719.got - 2010.06.27 13:26:56.
