data_PCOD8031459
_publ_section_title
;
Structure prediction by ZEFSAII (Michael W. Deem and Ramdas Pophale) SiO2 
 PCOD8031459
Probable space group: P -1
;
_chemical_formula_sum "Si O2"
_cell_formula_units_Z 14
_cell_length_a 8.843607
_cell_length_b 7.466494
_cell_length_c 17.854860
_cell_angle_alpha 84.693936
_cell_angle_beta 103.421635
_cell_angle_gamma 35.461578
_cell_volume 576.594386
_symmetry_space_group_name_H-M "P -1"
_symmetry_group_IT_number 2
_symmetry_cell_setting 'triclinic'
loop_
_space_group_symop_operation_xyz
x,y,z
-x,-y,-z
loop_
_atom_site_type_symbol
_atom_site_label
_atom_site_fract_x
_atom_site_fract_y
_atom_site_fract_z
Si Si1 0.142479 0.410359 0.442269
Si Si2 0.443138 0.679817 0.133896
Si Si3 0.856022 0.179188 0.557773
Si Si4 0.887661 0.600958 0.808473
Si Si5 0.933492 0.353397 0.298897
Si Si6 0.431067 0.846959 0.837663
Si Si7 0.208839 0.529063 0.955397
O O1 0.087299 0.676257 0.411940
O O2 0.000000 0.500000 0.500000
O O3 0.947765 0.497248 0.355257
O O4 0.500000 0.000000 0.500000
O O5 0.593105 0.675077 0.209338
O O6 0.572532 0.354868 0.181574
O O7 0.535215 0.633872 0.061085
O O8 0.076222 0.048430 0.084564
O O9 0.500000 0.500000 0.500000
O O10 0.000000 0.000000 0.500000
O O11 0.985986 0.917410 0.645735
O O12 0.835173 0.822791 0.736487
O O13 0.084905 0.466873 0.908441
O O14 0.566943 0.832147 0.786280
O O15 0.086147 0.254500 0.799293
O O16 0.649102 0.657506 0.941494
#
# Coordination Sequence:
#
# PCOD8031459 Si02
#       7
#     2   2   2   2   2   2   2
#     4  12  25  48  76 104 135 179 228 280 343 415
#     4  11  25  42  68 101 139 182 225 291 349 390
#     4  12  25  48  75 105 133 182 226 279 346 413
#     4  11  25  41  66 100 138 180 227 290 345 391
#     4  11  27  48  69 103 150 170 234 284 344 412
#     4  12  23  43  68 102 132 188 239 274 340 412
#     4  11  22  44  67  95 140 185 231 284 338 411
#
# _framework density 24.280498999999999
#
# number of rings (size 3 to 8) (size 9 to 14) (size 15 to 20)
#    0.000    0.571    2.857    5.143    2.000    6.857 
#    2.571    0.000    0.000    0.000    0.000    0.000 
#    0.000    0.000    0.000    0.000    0.000    0.000 
#
# Total GULP energy -173641.996868 kJ/mol
# GULP energy per Si atom -12402.999776 kJ/mol
# Density = 2.422524 g / cm^3
# Si number density = 24.280499 Si / 1000 Ang^3
#
#
#
# Elastic Constant Matrix: (Units=GPa)
#
#
# Indices 1 2 3 4 5 6 
#
# 1 144.5255 38.2113 38.0975 19.5774 -17.3408 15.6455
# 2 38.2113 134.0550 31.9814 9.4451 -5.2952 1.3020
# 3 38.0975 31.9814 118.3581 14.6972 -11.2520 -8.9377
# 4 19.5774 9.4451 14.6972 35.0295 7.4096 -4.3641
# 5 -17.3408 -5.2952 -11.2520 7.4096 43.9307 2.5675
# 6 15.6455 1.3020 -8.9377 -4.3641 2.5675 45.8855
#
#
#
# Elastic Compliance Matrix: (Units=1/GPa)
#
#
# Indices 1 2 3 4 5 6 
#
# 1 0.009601 -0.001687 -0.001861 -0.005584 0.004307 -0.004360
# 2 -0.001687 0.008379 -0.001642 -0.000641 0.000034 -0.000045
# 3 -0.001861 -0.001642 0.010226 -0.002958 0.002053 0.002277
# 4 -0.005584 -0.000641 -0.002958 0.035721 -0.009372 0.005268
# 5 0.004307 0.000034 0.002053 -0.009372 0.026776 -0.003459
# 6 -0.004360 -0.000045 0.002277 0.005268 -0.003459 0.024419
#
#
# Mechanical properties :
#
#
# Convention : Reuss Voigt Hill
#
# Bulk Modulus (GPa) = 56.09508 68.16879 62.13194
# Shear Modulus (GPa) = 38.03913 44.21235 41.12574
#
# Velocity S-wave (km/s) = 3.96239 4.27183 4.12002
# Velocity P-wave (km/s) = 6.63982 7.24347 6.94820
#
# Compressibility (1/GPa) = 0.01782688
#
# Stress axis : x y z
#
# Youngs Moduli (GPa) = 104.15661 119.34553 97.79006
#
# Poissons Ratio (x) = 0.20131 0.18199
# Poissons Ratio (y) = 0.17569 0.16055
# Poissons Ratio (z) = 0.19384 0.19594
#
# Static dielectric constant tensor:
#      x y z
#    x 4.624140 0.043660 -0.207420 
#    y 0.043660 4.412300 0.098200 
#    z -0.207420 0.098200 5.054000 
# 
# 
# High freq. dielectric constant tensor:
#      x y z
#    x 1.978990 0.002220 -0.006290 
#    y 0.002220 1.972240 0.010310 
#    z -0.006290 0.010310 1.964780 
# 
# From -- ./inp_files/555265.got.cif
#   From: 2010.06.25/outbox.cif.g09.slc.cpg/sg2_278_cif.got.tgz:555265.got - 2010.06.27 13:26:56.
