data_PCOD8031399
_publ_section_title
;
Structure prediction by ZEFSAII (Michael W. Deem and Ramdas Pophale) SiO2 
 PCOD8031399
Probable space group: P -1
;
_chemical_formula_sum "Si O2"
_cell_formula_units_Z 10
_cell_length_a 8.876040
_cell_length_b 8.617164
_cell_length_c 9.205662
_cell_angle_alpha 62.156889
_cell_angle_beta 48.237817
_cell_angle_gamma 51.749910
_cell_volume 410.648633
_symmetry_space_group_name_H-M "P -1"
_symmetry_group_IT_number 2
_symmetry_cell_setting 'triclinic'
loop_
_space_group_symop_operation_xyz
x,y,z
-x,-y,-z
loop_
_atom_site_type_symbol
_atom_site_label
_atom_site_fract_x
_atom_site_fract_y
_atom_site_fract_z
Si Si1 0.496432 0.817577 0.001801
Si Si2 0.165890 0.569465 0.936878
Si Si3 0.731110 0.289139 0.458639
Si Si4 0.052891 0.833594 0.155017
Si Si5 0.828628 0.858754 0.575406
O O1 0.650328 0.779731 0.773077
O O2 0.591360 0.628603 0.130326
O O3 0.251016 0.840957 0.117786
O O4 0.500000 0.000000 0.000000
O O5 0.169323 0.740689 0.757726
O O6 0.109497 0.637855 0.110164
O O7 0.000000 0.500000 0.000000
O O8 0.500000 0.500000 0.500000
O O9 0.926874 0.284478 0.443235
O O10 0.709875 0.092177 0.598468
O O11 0.856901 0.850636 0.385928
O O12 0.000000 0.000000 0.000000
#
# Coordination Sequence:
#
# PCOD8031399 Si02
#       5
#     2   2   2   2   2
#     4  12  25  46  76 107 145 188 241 300 363 434
#     4  12  24  47  71 102 143 189 237 299 365 425
#     4  11  22  43  73 106 142 187 244 295 360 438
#     4  12  26  47  71 105 149 185 244 304 353 431
#     4  11  24  46  73 104 146 191 238 300 364 424
#
# _framework density 24.351721000000001
#
# number of rings (size 3 to 8) (size 9 to 14) (size 15 to 20)
#    0.000    0.400    4.000    6.600    0.000    1.600 
#    3.600    0.000    0.000    0.000    0.000    0.000 
#    0.000    0.000    0.000    0.000    0.000    0.000 
#
# Total GULP energy -123892.745193 kJ/mol
# GULP energy per Si atom -12389.274519 kJ/mol
# Density = 2.429630 g / cm^3
# Si number density = 24.351721 Si / 1000 Ang^3
#
#
#
# Elastic Constant Matrix: (Units=GPa)
#
#
# Indices 1 2 3 4 5 6 
#
# 1 85.4473 28.5330 7.8806 4.7578 8.4524 5.7707
# 2 28.5330 109.5665 -0.5061 -5.8210 10.6056 -17.8659
# 3 7.8806 -0.5061 123.7070 -19.2741 13.7925 -5.7419
# 4 4.7578 -5.8210 -19.2741 41.7699 0.4188 8.6597
# 5 8.4524 10.6056 13.7925 0.4188 39.2170 0.0566
# 6 5.7707 -17.8659 -5.7419 8.6597 0.0566 50.3001
#
#
#
# Elastic Compliance Matrix: (Units=1/GPa)
#
#
# Indices 1 2 3 4 5 6 
#
# 1 0.013573 -0.003959 -0.001170 -0.002055 -0.001417 -0.002742
# 2 -0.003959 0.011194 0.001036 0.001629 -0.002562 0.004271
# 3 -0.001170 0.001036 0.009259 0.004417 -0.003333 0.000802
# 4 -0.002055 0.001629 0.004417 0.027154 -0.001836 -0.003354
# 5 -0.001417 -0.002562 -0.003333 -0.001836 0.027690 -0.000843
# 6 -0.002742 0.004271 0.000802 -0.003354 -0.000843 0.022382
#
#
# Mechanical properties :
#
#
# Convention : Reuss Voigt Hill
#
# Bulk Modulus (GPa) = 38.70202 43.39290 41.04746
# Shear Modulus (GPa) = 39.04655 45.11163 42.07909
#
# Velocity S-wave (km/s) = 4.00864 4.30874 4.16140
# Velocity P-wave (km/s) = 6.11171 6.52775 6.32316
#
# Compressibility (1/GPa) = 0.02583844
#
# Stress axis : x y z
#
# Youngs Moduli (GPa) = 73.67650 89.33723 107.99764
#
# Poissons Ratio (x) = 0.35369 0.12639
# Poissons Ratio (y) = 0.29169 -0.11185
# Poissons Ratio (z) = 0.08622 -0.09252
#
# Static dielectric constant tensor:
#      x y z
#    x 4.355770 -0.463680 0.512990 
#    y -0.463680 5.275400 -0.527200 
#    z 0.512990 -0.527200 5.354340 
# 
# 
# High freq. dielectric constant tensor:
#      x y z
#    x 1.943680 -0.014390 0.017900 
#    y -0.014390 1.976820 -0.010770 
#    z 0.017900 -0.010770 1.999370 
# 
# From -- ./inp_files/143951.got.cif
#   From: 2010.06.25/outbox.cif.g09.slc.cpg/sg2_72_cif.got.tgz:143951.got - 2010.06.27 13:26:56.
