data_PCOD8031055
_publ_section_title
;
Structure prediction by ZEFSAII (Michael W. Deem and Ramdas Pophale) SiO2 
 PCOD8031055
Probable space group: P -1
;
_chemical_formula_sum "Si O2"
_cell_formula_units_Z 16
_cell_length_a 9.220128
_cell_length_b 12.300321
_cell_length_c 9.456293
_cell_angle_alpha 95.447256
_cell_angle_beta 134.012750
_cell_angle_gamma 86.991578
_cell_volume 767.666161
_symmetry_space_group_name_H-M "P -1"
_symmetry_group_IT_number 2
_symmetry_cell_setting 'triclinic'
loop_
_space_group_symop_operation_xyz
x,y,z
-x,-y,-z
loop_
_atom_site_type_symbol
_atom_site_label
_atom_site_fract_x
_atom_site_fract_y
_atom_site_fract_z
Si Si1 0.944229 0.915180 0.335304
Si Si2 0.998427 0.377543 0.040521
Si Si3 0.226129 0.718603 0.894095
Si Si4 0.329935 0.257713 0.748427
Si Si5 0.330492 0.244541 0.412841
Si Si6 0.957649 0.381212 0.513446
Si Si7 0.995243 0.072571 0.142656
Si Si8 0.214382 0.730497 0.376056
O O1 0.742031 0.859501 0.255365
O O2 0.122601 0.831334 0.412448
O O3 0.905511 0.986724 0.181645
O O4 0.000000 0.000000 0.500000
O O5 0.834729 0.381097 0.055920
O O6 0.922606 0.294418 0.856859
O O7 0.206793 0.333311 0.246516
O O8 0.000000 0.500000 0.000000
O O9 0.462291 0.716674 0.028837
O O10 0.113069 0.704069 0.666923
O O11 0.159551 0.827653 0.945921
O O12 0.346153 0.274490 0.592449
O O13 0.172625 0.343716 0.712996
O O14 0.555224 0.240729 0.502347
O O15 0.220685 0.124976 0.320553
O O16 0.799920 0.373521 0.537234
O O17 0.000000 0.500000 0.500000
O O18 0.000000 0.000000 0.000000
#
# Coordination Sequence:
#
# PCOD8031055 Si02
#       8
#     2   2   2   2   2   2   2   2
#     4  11  22  42  64  93 129 174 213 258 325 381
#     4  11  23  41  67  96 129 167 213 266 324 385
#     4  11  23  43  65  94 132 169 214 265 319 382
#     4  11  23  42  69  92 133 172 213 266 323 380
#     4  11  23  43  66  96 133 166 214 273 319 377
#     4  11  24  44  66  94 133 170 209 267 326 386
#     4  11  23  40  66  95 132 167 216 270 319 379
#     4  11  25  40  67  99 127 167 219 267 319 383
#
# _framework density 20.842392
#
# number of rings (size 3 to 8) (size 9 to 14) (size 15 to 20)
#    0.000    1.000    5.000    3.000    0.000    7.000 
#    0.000    0.000    0.000    0.000    0.000    0.000 
#    0.000    0.000    0.000    0.000    0.000    0.000 
#
# Total GULP energy -198236.016648 kJ/mol
# GULP energy per Si atom -12389.751041 kJ/mol
# Density = 2.079495 g / cm^3
# Si number density = 20.842392 Si / 1000 Ang^3
#
#
#
# Elastic Constant Matrix: (Units=GPa)
#
#
# Indices 1 2 3 4 5 6 
#
# 1 138.9393 35.2188 49.9828 -6.7719 12.7880 23.7755
# 2 35.2188 85.9801 31.1150 -14.3701 9.8422 16.3413
# 3 49.9828 31.1150 90.5320 -3.7473 6.9313 -0.4055
# 4 -6.7719 -14.3701 -3.7473 26.3101 7.1022 -14.5617
# 5 12.7880 9.8422 6.9313 7.1022 46.1098 -0.5465
# 6 23.7755 16.3413 -0.4055 -14.5617 -0.5465 38.5631
#
#
#
# Elastic Compliance Matrix: (Units=1/GPa)
#
#
# Indices 1 2 3 4 5 6 
#
# 1 0.010727 -0.001251 -0.005486 -0.002115 -0.001640 -0.006963
# 2 -0.001251 0.015866 -0.004232 0.006745 -0.003484 -0.003499
# 3 -0.005486 -0.004232 0.015646 0.001895 -0.000147 0.006054
# 4 -0.002115 0.006745 0.001895 0.054365 -0.009288 0.018863
# 5 -0.001640 -0.003484 -0.000147 -0.009288 0.024331 -0.000677
# 6 -0.006963 -0.003499 0.006054 0.018863 -0.000677 0.038884
#
#
# Mechanical properties :
#
#
# Convention : Reuss Voigt Hill
#
# Bulk Modulus (GPa) = 49.25802 60.89829 55.07815
# Shear Modulus (GPa) = 26.52198 35.47224 30.99711
#
# Velocity S-wave (km/s) = 3.57108 4.12992 3.86063
# Velocity P-wave (km/s) = 6.37875 7.21273 6.80852
#
# Compressibility (1/GPa) = 0.02030126
#
# Stress axis : x y z
#
# Youngs Moduli (GPa) = 93.21874 63.02960 63.91489
#
# Poissons Ratio (x) = 0.07886 0.35062
# Poissons Ratio (y) = 0.11663 0.27048
# Poissons Ratio (z) = 0.51138 0.26673
#
# Static dielectric constant tensor:
#      x y z
#    x 4.036110 0.314400 -0.149790 
#    y 0.314400 3.854200 -0.032160 
#    z -0.149790 -0.032160 3.770370 
# 
# 
# High freq. dielectric constant tensor:
#      x y z
#    x 1.830070 0.019700 -0.016830 
#    y 0.019700 1.817690 -0.001470 
#    z -0.016830 -0.001470 1.813170 
# 
# From -- ./inp_files/188021.got.cif
#   From: 2010.06.25/outbox.cif.g09.slc.cpg/sg2_95_cif.got.tgz:188021.got - 2010.06.27 13:26:56.
