data_PCOD8031714
_publ_section_title
;
Structure prediction by ZEFSAII (Michael W. Deem and Ramdas Pophale) SiO2 
 PCOD8031714
Probable space group: P -1
;
_chemical_formula_sum "Si O2"
_cell_formula_units_Z 12
_cell_length_a 15.786188
_cell_length_b 13.922159
_cell_length_c 6.623092
_cell_angle_alpha 58.586221
_cell_angle_beta 114.520801
_cell_angle_gamma 153.958677
_cell_volume 539.831498
_symmetry_space_group_name_H-M "P -1"
_symmetry_group_IT_number 2
_symmetry_cell_setting 'triclinic'
loop_
_space_group_symop_operation_xyz
x,y,z
-x,-y,-z
loop_
_atom_site_type_symbol
_atom_site_label
_atom_site_fract_x
_atom_site_fract_y
_atom_site_fract_z
Si Si1 0.807953 0.254461 0.971936
Si Si2 0.302247 0.272985 0.434662
Si Si3 0.906435 0.224875 0.718249
Si Si4 0.941589 0.785647 0.812856
Si Si5 0.385658 0.129329 0.504390
Si Si6 0.780547 0.460097 0.651164
O O1 0.873651 0.288473 0.775486
O O2 0.678385 0.232568 0.865449
O O3 0.000000 0.500000 0.000000
O O4 0.703933 0.039994 0.215451
O O5 0.500000 0.500000 0.500000
O O6 0.241444 0.324923 0.205482
O O7 0.328030 0.198510 0.387457
O O8 0.129209 0.059837 0.649386
O O9 0.054565 0.408307 0.483668
O O10 0.692358 0.985350 0.667887
O O11 0.998839 0.213183 0.925628
O O12 0.884331 0.636132 0.744407
O O13 0.619211 0.365923 0.486559
#
# Coordination Sequence:
#
# PCOD8031714 Si02
#       6
#     2   2   2   2   2   2
#     4  12  23  46  72  94 140 182 216 275 339 398
#     4  11  22  45  73  93 134 182 222 274 332 397
#     4  12  24  44  68 103 137 169 228 275 336 397
#     4  11  24  44  72  97 134 179 222 273 339 394
#     4  12  26  44  68 105 134 176 229 274 333 396
#     4  12  25  44  70 103 135 177 223 275 337 400
#
# _framework density 22.229158999999999
#
# number of rings (size 3 to 8) (size 9 to 14) (size 15 to 20)
#    0.000    0.333    8.333    1.000    0.000    4.000 
#    0.000    1.667    0.000    0.000    0.000    0.000 
#    0.000    0.000    0.000    0.000    0.000    0.000 
#
# Total GULP energy -148722.164130 kJ/mol
# GULP energy per Si atom -12393.513678 kJ/mol
# Density = 2.217856 g / cm^3
# Si number density = 22.229159 Si / 1000 Ang^3
#
#
#
# Elastic Constant Matrix: (Units=GPa)
#
#
# Indices 1 2 3 4 5 6 
#
# 1 119.7887 31.8704 38.5796 7.0349 20.9126 -18.4858
# 2 31.8704 108.7678 35.4675 20.1188 -3.8501 -0.7196
# 3 38.5796 35.4675 88.9702 24.5182 13.3328 -10.9198
# 4 7.0349 20.1188 24.5182 32.7017 -3.5769 10.3538
# 5 20.9126 -3.8501 13.3328 -3.5769 42.5927 7.2255
# 6 -18.4858 -0.7196 -10.9198 10.3538 7.2255 39.7003
#
#
#
# Elastic Compliance Matrix: (Units=1/GPa)
#
#
# Indices 1 2 3 4 5 6 
#
# 1 0.012084 -0.002760 -0.001316 -0.003030 -0.007268 0.007327
# 2 -0.002760 0.011806 -0.003388 -0.003168 0.003525 -0.001818
# 3 -0.001316 -0.003388 0.021056 -0.018168 -0.009750 0.011630
# 4 -0.003030 -0.003168 -0.018168 0.056097 0.015662 -0.023946
# 5 -0.007268 0.003525 -0.009750 0.015662 0.034509 -0.016367
# 6 0.007327 -0.001818 0.011630 -0.023946 -0.016367 0.040991
#
#
# Mechanical properties :
#
#
# Convention : Reuss Voigt Hill
#
# Bulk Modulus (GPa) = 33.31333 58.81795 46.06564
# Shear Modulus (GPa) = 24.81669 37.10622 30.96145
#
# Velocity S-wave (km/s) = 3.34489 4.09009 3.73611
# Velocity P-wave (km/s) = 5.47143 6.98730 6.27530
#
# Compressibility (1/GPa) = 0.03001802
#
# Stress axis : x y z
#
# Youngs Moduli (GPa) = 82.75590 84.70154 47.49134
#
# Poissons Ratio (x) = 0.23377 0.06251
# Poissons Ratio (y) = 0.22840 0.16091
# Poissons Ratio (z) = 0.10892 0.28698
#
# Static dielectric constant tensor:
#      x y z
#    x 5.070160 -0.409200 0.736550 
#    y -0.409200 4.272060 -0.058490 
#    z 0.736550 -0.058490 4.210100 
# 
# 
# High freq. dielectric constant tensor:
#      x y z
#    x 1.891430 -0.003400 0.026740 
#    y -0.003400 1.882160 0.010800 
#    z 0.026740 0.010800 1.864390 
# 
# From -- ./inp_files/25942.got.cif
#   From: 2010.06.25/outbox.cif.g09.slc.cpg/sg2_13_cif.got.tgz:25942.got - 2010.06.27 13:26:56.
