data_PCOD8031855
_publ_section_title
;
Structure prediction by ZEFSAII (Michael W. Deem and Ramdas Pophale) SiO2 
 PCOD8031855
Probable space group: P -1
;
_chemical_formula_sum "Si O2"
_cell_formula_units_Z 16
_cell_length_a 9.457064
_cell_length_b 17.412059
_cell_length_c 17.969942
_cell_angle_alpha 30.656822
_cell_angle_beta 37.586490
_cell_angle_gamma 28.322997
_cell_volume 708.231882
_symmetry_space_group_name_H-M "P -1"
_symmetry_group_IT_number 2
_symmetry_cell_setting 'triclinic'
loop_
_space_group_symop_operation_xyz
x,y,z
-x,-y,-z
loop_
_atom_site_type_symbol
_atom_site_label
_atom_site_fract_x
_atom_site_fract_y
_atom_site_fract_z
Si Si1 0.115690 0.650817 0.127007
Si Si2 0.845578 0.688422 0.456613
Si Si3 0.822952 0.316223 0.545213
Si Si4 0.875788 0.096669 0.210367
Si Si5 0.784200 0.693619 0.715429
Si Si6 0.220067 0.052702 0.857248
Si Si7 0.121824 0.307810 0.150971
Si Si8 0.343629 0.697243 0.722364
O O1 0.083419 0.510182 0.211429
O O2 0.417865 0.521430 0.159618
O O3 0.844636 0.798518 0.174382
O O4 0.120818 0.782898 0.956090
O O5 0.819600 0.855498 0.283835
O O6 0.518456 0.767699 0.555317
O O7 0.000000 0.500000 0.500000
O O8 0.065901 0.615277 0.495343
O O9 0.500000 0.500000 0.500000
O O10 0.041890 0.235386 0.449744
O O11 0.843240 0.136209 0.717829
O O12 0.565436 0.133672 0.299422
O O13 0.884070 0.165838 0.230662
O O14 0.839959 0.661122 0.806075
O O15 0.567195 0.863967 0.875860
O O16 0.000000 0.000000 0.000000
O O17 0.865823 0.285231 0.269334
O O18 0.000000 0.500000 0.000000
#
# Coordination Sequence:
#
# PCOD8031855 Si02
#       8
#     2   2   2   2   2   2   2   2
#     4  11  22  47  75 100 137 190 232 282 357 429
#     4  12  25  47  73 101 146 190 229 292 365 422
#     4  12  27  43  67 105 139 180 236 290 346 418
#     4  11  23  45  74  98 139 184 232 283 355 421
#     4  11  23  45  71  98 140 182 231 284 350 421
#     4  12  26  45  74 107 145 190 235 287 364 431
#     4  12  27  44  71 110 143 182 242 299 349 413
#     4  11  24  45  75 105 139 183 241 295 354 419
#
# _framework density 22.591472
#
# number of rings (size 3 to 8) (size 9 to 14) (size 15 to 20)
#    0.000    0.500    3.750    6.375    3.500    3.500 
#    0.000    1.875    0.000    0.000    0.000    0.000 
#    0.000    0.000    0.000    0.000    0.000    0.000 
#
# Total GULP energy -198393.782278 kJ/mol
# GULP energy per Si atom -12399.611392 kJ/mol
# Density = 2.254005 g / cm^3
# Si number density = 22.591472 Si / 1000 Ang^3
#
#
#
# Elastic Constant Matrix: (Units=GPa)
#
#
# Indices 1 2 3 4 5 6 
#
# 1 126.1636 68.4721 21.2184 -2.0417 0.6705 -0.3623
# 2 68.4721 129.4429 48.2694 -13.9186 11.1676 1.5149
# 3 21.2184 48.2694 138.8653 -0.7510 9.2097 -15.4562
# 4 -2.0417 -13.9186 -0.7510 39.7770 1.0067 2.5884
# 5 0.6705 11.1676 9.2097 1.0067 27.2608 5.9933
# 6 -0.3623 1.5149 -15.4562 2.5884 5.9933 38.8646
#
#
#
# Elastic Compliance Matrix: (Units=1/GPa)
#
#
# Indices 1 2 3 4 5 6 
#
# 1 0.011379 -0.006566 0.000416 -0.001782 0.002270 0.000296
# 2 -0.006566 0.013359 -0.003545 0.004479 -0.003908 -0.001687
# 3 0.000416 -0.003545 0.008992 -0.001259 -0.002469 0.004183
# 4 -0.001782 0.004479 -0.001259 0.026782 -0.001874 -0.002187
# 5 0.002270 -0.003908 -0.002469 -0.001874 0.040660 -0.006954
# 6 0.000296 -0.001687 0.004183 -0.002187 -0.006954 0.028680
#
#
# Mechanical properties :
#
#
# Convention : Reuss Voigt Hill
#
# Bulk Modulus (GPa) = 69.72321 74.48794 72.10557
# Shear Modulus (GPa) = 32.46292 38.28127 35.37210
#
# Velocity S-wave (km/s) = 3.79483 4.12090 3.96122
# Velocity P-wave (km/s) = 7.08030 7.46228 7.27380
#
# Compressibility (1/GPa) = 0.01434243
#
# Stress axis : x y z
#
# Youngs Moduli (GPa) = 87.87752 74.85691 111.20659
#
# Poissons Ratio (x) = 0.49148 -0.04629
# Poissons Ratio (y) = 0.57697 0.39419
# Poissons Ratio (z) = -0.03658 0.26534
#
# Static dielectric constant tensor:
#      x y z
#    x 3.559760 0.689890 -0.460900 
#    y 0.689890 4.280460 -0.033120 
#    z -0.460900 -0.033120 4.368620 
# 
# 
# High freq. dielectric constant tensor:
#      x y z
#    x 1.892170 0.016410 0.010940 
#    y 0.016410 1.889080 -0.004150 
#    z 0.010940 -0.004150 1.904890 
# 
# From -- ./inp_files/562052.got.cif
#   From: 2010.06.25/outbox.cif.g09.slc.cpg/sg2_282_cif.got.tgz:562052.got - 2010.06.27 13:26:56.
