data_PCOD8031081
_publ_section_title
;
Structure prediction by ZEFSAII (Michael W. Deem and Ramdas Pophale) SiO2 
 PCOD8031081
Probable space group: P -1
;
_chemical_formula_sum "Si O2"
_cell_formula_units_Z 14
_cell_length_a 22.189874
_cell_length_b 12.193539
_cell_length_c 9.651166
_cell_angle_alpha 123.608454
_cell_angle_beta 36.628364
_cell_angle_gamma 150.872339
_cell_volume 653.234788
_symmetry_space_group_name_H-M "P -1"
_symmetry_group_IT_number 2
_symmetry_cell_setting 'triclinic'
loop_
_space_group_symop_operation_xyz
x,y,z
-x,-y,-z
loop_
_atom_site_type_symbol
_atom_site_label
_atom_site_fract_x
_atom_site_fract_y
_atom_site_fract_z
Si Si1 0.449037 0.232495 0.344426
Si Si2 0.955150 0.087359 0.799317
Si Si3 0.286105 0.839920 0.569996
Si Si4 0.203968 0.192604 0.829180
Si Si5 0.683580 0.613700 0.774575
Si Si6 0.459887 0.122320 0.958360
Si Si7 0.864038 0.254060 0.937623
O O1 0.334088 0.240523 0.526372
O O2 0.678678 0.539669 0.161792
O O3 0.365056 0.066536 0.520828
O O4 0.416851 0.092233 0.180418
O O5 0.954773 0.230973 0.833912
O O6 0.185778 0.292579 0.531925
O O7 0.834523 0.857900 0.762494
O O8 0.847554 0.960313 0.054855
O O9 0.441766 0.906869 0.274927
O O10 0.055546 0.556364 0.748521
O O11 0.282483 0.839572 0.745405
O O12 0.000000 0.000000 0.000000
O O13 0.616022 0.410716 0.839410
O O14 0.500000 0.500000 0.000000
O O15 0.258902 0.916253 0.093754
#
# Coordination Sequence:
#
# PCOD8031081 Si02
#       7
#     2   2   2   2   2   2   2
#     4  11  26  45  67  96 138 173 220 273 324 400
#     4  11  22  42  66  97 130 168 218 276 324 386
#     4  11  25  46  63  94 139 175 223 271 324 394
#     4  11  26  43  69  97 131 177 219 266 336 395
#     4  11  23  37  68  99 128 165 214 276 331 385
#     4  12  24  41  68 100 130 176 221 269 334 389
#     4  11  24  43  70  96 129 174 225 274 325 388
#
# _framework density 21.431802999999999
#
# number of rings (size 3 to 8) (size 9 to 14) (size 15 to 20)
#    0.000    0.857    5.714    0.857    2.000    4.000 
#    0.000    0.000    0.000    0.000    0.000    0.000 
#    0.000    0.000    0.000    0.000    0.000    0.000 
#
# Total GULP energy -173516.511740 kJ/mol
# GULP energy per Si atom -12394.036553 kJ/mol
# Density = 2.138302 g / cm^3
# Si number density = 21.431803 Si / 1000 Ang^3
#
#
#
# Elastic Constant Matrix: (Units=GPa)
#
#
# Indices 1 2 3 4 5 6 
#
# 1 92.0123 59.3616 41.6024 -15.9611 -13.0912 8.4938
# 2 59.3616 109.8955 31.1561 -15.6093 -16.1966 18.3220
# 3 41.6024 31.1561 115.8576 3.0793 -11.0521 4.1372
# 4 -15.9611 -15.6093 3.0793 45.8623 0.6335 -5.4863
# 5 -13.0912 -16.1966 -11.0521 0.6335 38.8030 -4.4043
# 6 8.4938 18.3220 4.1372 -5.4863 -4.4043 45.7524
#
#
#
# Elastic Compliance Matrix: (Units=1/GPa)
#
#
# Indices 1 2 3 4 5 6 
#
# 1 0.019280 -0.008387 -0.004649 0.004249 0.001710 0.000874
# 2 -0.008387 0.015157 -0.000701 0.001774 0.002818 -0.003965
# 3 -0.004649 -0.000701 0.010675 -0.002592 0.001220 -0.000015
# 4 0.004249 0.001774 -0.002592 0.024254 0.001240 0.001763
# 5 0.001710 0.002818 0.001220 0.001240 0.027998 0.001287
# 6 0.000874 -0.003965 -0.000015 0.001763 0.001287 0.023619
#
#
# Mechanical properties :
#
#
# Convention : Reuss Voigt Hill
#
# Bulk Modulus (GPa) = 56.69347 64.66729 60.68038
# Shear Modulus (GPa) = 32.39661 38.45989 35.42825
#
# Velocity S-wave (km/s) = 3.89217 4.24078 4.07021
# Velocity P-wave (km/s) = 6.83440 7.36328 7.10376
#
# Compressibility (1/GPa) = 0.01763872
#
# Stress axis : x y z
#
# Youngs Moduli (GPa) = 51.86614 65.97619 93.67706
#
# Poissons Ratio (x) = 0.55333 0.43550
# Poissons Ratio (y) = 0.43499 0.06568
# Poissons Ratio (z) = 0.24112 0.04626
#
# Static dielectric constant tensor:
#      x y z
#    x 3.405310 0.077350 -0.344890 
#    y 0.077350 3.767860 0.619800 
#    z -0.344890 0.619800 3.338210 
# 
# 
# High freq. dielectric constant tensor:
#      x y z
#    x 1.820930 -0.011650 -0.002800 
#    y -0.011650 1.852180 -0.001340 
#    z -0.002800 -0.001340 1.857890 
# 
# From -- ./inp_files/100342.got.cif
#   From: 2010.06.25/outbox.cif.g09.slc.cpg/sg2_51_cif.got.tgz:100342.got - 2010.06.27 13:26:56.
