data_PCOD8031285
_publ_section_title
;
Structure prediction by ZEFSAII (Michael W. Deem and Ramdas Pophale) SiO2 
 PCOD8031285
Probable space group: P -1
;
_chemical_formula_sum "Si O2"
_cell_formula_units_Z 16
_cell_length_a 12.539996
_cell_length_b 8.847965
_cell_length_c 13.915454
_cell_angle_alpha 30.933228
_cell_angle_beta 72.526856
_cell_angle_gamma 79.511386
_cell_volume 748.006581
_symmetry_space_group_name_H-M "P -1"
_symmetry_group_IT_number 2
_symmetry_cell_setting 'triclinic'
loop_
_space_group_symop_operation_xyz
x,y,z
-x,-y,-z
loop_
_atom_site_type_symbol
_atom_site_label
_atom_site_fract_x
_atom_site_fract_y
_atom_site_fract_z
Si Si1 0.904755 0.758172 0.700092
Si Si2 0.739446 0.843192 0.011327
Si Si3 0.235134 0.547181 0.254873
Si Si4 0.236703 0.872099 0.350169
Si Si5 0.018508 0.299366 0.013506
Si Si6 0.620407 0.245589 0.439450
Si Si7 0.365964 0.149920 0.527398
Si Si8 0.844766 0.729524 0.391627
O O1 0.795687 0.644439 0.727247
O O2 0.856228 0.910378 0.723181
O O3 0.000000 0.000000 0.500000
O O4 0.961966 0.464458 0.855087
O O5 0.645399 0.596830 0.218462
O O6 0.850726 0.693140 0.048348
O O7 0.757982 0.098719 0.949205
O O8 0.702890 0.992598 0.839201
O O9 0.355598 0.464532 0.305551
O O10 0.137975 0.430094 0.424205
O O11 0.322001 0.865987 0.419961
O O12 0.176277 0.530301 0.541047
O O13 0.957659 0.959152 0.217509
O O14 0.000000 0.500000 0.000000
O O15 0.486249 0.156237 0.542108
O O16 0.658714 0.102081 0.409744
O O17 0.265681 0.096112 0.664568
#
# Coordination Sequence:
#
# PCOD8031285 Si02
#       8
#     2   2   2   2   2   2   2   2
#     4  12  24  38  63  90 128 170 209 249 314 380
#     4  11  25  41  61  96 127 161 212 256 312 371
#     4   9  22  42  59  90 126 158 206 258 307 371
#     4  11  23  41  64  92 125 167 205 265 308 368
#     4  12  23  37  63  90 125 165 201 257 306 372
#     4  11  22  43  68  89 127 164 213 255 317 371
#     4   9  21  43  66  88 125 170 198 268 313 362
#     4   9  22  41  61  91 125 160 208 253 315 366
#
# _framework density 21.390186
#
# number of rings (size 3 to 8) (size 9 to 14) (size 15 to 20)
#    0.750    0.750    2.500    2.250    3.500    2.500 
#    0.000    3.750    0.000    0.000    0.000    0.000 
#    0.000    0.000    0.000    0.000    0.000    0.000 
#
# Total GULP energy -198218.680553 kJ/mol
# GULP energy per Si atom -12388.667535 kJ/mol
# Density = 2.134150 g / cm^3
# Si number density = 21.390186 Si / 1000 Ang^3
#
#
#
# Elastic Constant Matrix: (Units=GPa)
#
#
# Indices 1 2 3 4 5 6 
#
# 1 66.9415 19.4217 10.7542 -7.2140 8.3830 13.9741
# 2 19.4217 83.9806 9.8887 -23.9728 -2.9669 5.7633
# 3 10.7542 9.8887 85.6193 -12.3075 4.5163 11.7409
# 4 -7.2140 -23.9728 -12.3075 33.0765 -2.1155 3.7760
# 5 8.3830 -2.9669 4.5163 -2.1155 26.2450 -1.7086
# 6 13.9741 5.7633 11.7409 3.7760 -1.7086 26.3533
#
#
#
# Elastic Compliance Matrix: (Units=1/GPa)
#
#
# Indices 1 2 3 4 5 6 
#
# 1 0.019172 -0.003239 0.000128 0.002616 -0.006974 -0.010342
# 2 -0.003239 0.016394 0.000549 0.012017 0.003527 -0.003606
# 3 0.000128 0.000549 0.013608 0.006174 -0.002297 -0.007284
# 4 0.002616 0.012017 0.006174 0.043413 0.002123 -0.012849
# 5 -0.006974 0.003527 -0.002297 0.002123 0.041709 0.006350
# 6 -0.010342 -0.003606 -0.007284 -0.012849 0.006350 0.049716
#
#
# Mechanical properties :
#
#
# Convention : Reuss Voigt Hill
#
# Bulk Modulus (GPa) = 22.70099 35.18561 28.94330
# Shear Modulus (GPa) = 24.53171 30.23342 27.38256
#
# Velocity S-wave (km/s) = 3.39022 3.76363 3.58179
# Velocity P-wave (km/s) = 5.09516 5.94741 5.53770
#
# Compressibility (1/GPa) = 0.04405094
#
# Stress axis : x y z
#
# Youngs Moduli (GPa) = 52.16040 60.99675 73.48853
#
# Poissons Ratio (x) = 0.19754 -0.00942
# Poissons Ratio (y) = 0.16893 -0.04036
# Poissons Ratio (z) = -0.00668 -0.03350
#
# Static dielectric constant tensor:
#      x y z
#    x 3.871110 -0.103250 0.440500 
#    y -0.103250 3.969320 -0.274120 
#    z 0.440500 -0.274120 3.907760 
# 
# 
# High freq. dielectric constant tensor:
#      x y z
#    x 1.825920 0.001890 0.016260 
#    y 0.001890 1.845080 -0.022440 
#    z 0.016260 -0.022440 1.827740 
# 
# From -- ./inp_files/528032.got.cif
#   From: 2010.06.25/outbox.cif.g09.slc.cpg/sg2_265_cif.got.tgz:528032.got - 2010.06.27 13:26:56.
