data_PCOD8031469
_publ_section_title
;
Structure prediction by ZEFSAII (Michael W. Deem and Ramdas Pophale) SiO2 
 PCOD8031469
Probable space group: P -1
;
_chemical_formula_sum "Si O2"
_cell_formula_units_Z 16
_cell_length_a 13.923781
_cell_length_b 10.027761
_cell_length_c 18.697497
_cell_angle_alpha 52.704698
_cell_angle_beta 29.778319
_cell_angle_gamma 32.799044
_cell_volume 623.748420
_symmetry_space_group_name_H-M "P -1"
_symmetry_group_IT_number 2
_symmetry_cell_setting 'triclinic'
loop_
_space_group_symop_operation_xyz
x,y,z
-x,-y,-z
loop_
_atom_site_type_symbol
_atom_site_label
_atom_site_fract_x
_atom_site_fract_y
_atom_site_fract_z
Si Si1 0.158056 0.040674 0.600744
Si Si2 0.130675 0.710874 0.668187
Si Si3 0.117125 0.733730 0.925220
Si Si4 0.738643 0.841397 0.254709
Si Si5 0.861541 0.243267 0.874341
Si Si6 0.927734 0.856004 0.594721
Si Si7 0.244032 0.427956 0.818712
Si Si8 0.683872 0.544030 0.653675
O O1 0.538427 0.806086 0.409537
O O2 0.122353 0.060108 0.702143
O O3 0.954141 0.338475 0.606046
O O4 0.993062 0.987107 0.691623
O O5 0.500000 0.500000 0.500000
O O6 0.084597 0.589108 0.793197
O O7 0.969406 0.766247 0.679436
O O8 0.277452 0.574213 0.797260
O O9 0.416602 0.584905 0.828234
O O10 0.886907 0.052843 0.963069
O O11 0.898279 0.739913 0.104232
O O12 0.477180 0.164850 0.332237
O O13 0.036330 0.666440 0.173044
O O14 0.500000 0.500000 0.000000
O O15 0.157715 0.585415 0.485219
O O16 0.570995 0.093207 0.713956
O O17 0.000000 0.000000 0.500000
O O18 0.000000 0.500000 0.000000
#
# Coordination Sequence:
#
# PCOD8031469 Si02
#       8
#     2   2   2   2   2   2   2   2
#     4  12  23  42  68 101 138 178 235 291 345 419
#     4  12  24  44  74 103 136 187 238 286 362 421
#     4  11  22  44  68  93 136 184 227 283 353 414
#     4  11  26  41  67 105 139 183 231 290 350 411
#     4  11  23  43  65  96 140 182 230 280 346 416
#     4  12  23  45  75 105 137 191 237 291 357 425
#     4  12  27  47  71 105 143 180 239 300 355 419
#     4  11  22  44  70  99 140 186 233 283 355 423
#
# _framework density 25.651367
#
# number of rings (size 3 to 8) (size 9 to 14) (size 15 to 20)
#    0.000    0.500    5.000    3.750    5.250    0.500 
#    0.000    0.000    0.000    0.000    0.000    0.000 
#    0.000    0.000    0.000    0.000    0.000    0.000 
#
# Total GULP energy -198300.600838 kJ/mol
# GULP energy per Si atom -12393.787552 kJ/mol
# Density = 2.559298 g / cm^3
# Si number density = 25.651367 Si / 1000 Ang^3
#
#
#
# Elastic Constant Matrix: (Units=GPa)
#
#
# Indices 1 2 3 4 5 6 
#
# 1 81.6526 36.0329 31.2638 -4.4052 23.9288 -21.4549
# 2 36.0329 88.2938 37.4513 3.7886 -0.3456 -24.4665
# 3 31.2638 37.4513 146.2365 -9.8733 6.9776 -13.7607
# 4 -4.4052 3.7886 -9.8733 49.0631 -0.9645 4.8864
# 5 23.9288 -0.3456 6.9776 -0.9645 53.1249 7.3885
# 6 -21.4549 -24.4665 -13.7607 4.8864 7.3885 43.0736
#
#
#
# Elastic Compliance Matrix: (Units=1/GPa)
#
#
# Indices 1 2 3 4 5 6 
#
# 1 0.020476 -0.005455 -0.001662 0.000908 -0.010166 0.008210
# 2 -0.005455 0.016450 -0.002803 -0.002850 0.002088 0.005696
# 3 -0.001662 -0.002803 0.008040 0.001678 -0.000297 0.000009
# 4 0.000908 -0.002850 0.001678 0.021331 0.000168 -0.003079
# 5 -0.010166 0.002088 -0.000297 0.000168 0.024600 -0.008211
# 6 0.008210 0.005696 0.000009 -0.003079 -0.008211 0.032302
#
#
# Mechanical properties :
#
#
# Convention : Reuss Voigt Hill
#
# Bulk Modulus (GPa) = 39.79827 58.40875 49.10351
# Shear Modulus (GPa) = 33.02236 43.14798 38.08517
#
# Velocity S-wave (km/s) = 3.59186 4.10578 3.85739
# Velocity P-wave (km/s) = 5.72282 6.73025 6.24688
#
# Compressibility (1/GPa) = 0.02512672
#
# Stress axis : x y z
#
# Youngs Moduli (GPa) = 48.83785 60.79105 124.38499
#
# Poissons Ratio (x) = 0.33162 0.20667
# Poissons Ratio (y) = 0.26642 0.34860
# Poissons Ratio (z) = 0.08115 0.17037
#
# Static dielectric constant tensor:
#      x y z
#    x -2.235990 -0.593610 -2.681860 
#    y -0.593610 4.472370 -0.407050 
#    z -2.681860 -0.407050 3.590210 
# 
# 
# High freq. dielectric constant tensor:
#      x y z
#    x 2.042660 0.007810 0.006840 
#    y 0.007810 2.021540 0.004650 
#    z 0.006840 0.004650 2.025080 
# 
# From -- ./inp_files/538497.got.cif
#   From: 2010.06.25/outbox.cif.g09.slc.cpg/sg2_270_cif.got.tgz:538497.got - 2010.06.27 13:26:56.
