data_PCOD8031187
_publ_section_title
;
Structure prediction by ZEFSAII (Michael W. Deem and Ramdas Pophale) SiO2 
 PCOD8031187
Probable space group: P -1
;
_chemical_formula_sum "Si O2"
_cell_formula_units_Z 16
_cell_length_a 13.296433
_cell_length_b 25.478364
_cell_length_c 7.965982
_cell_angle_alpha 130.708335
_cell_angle_beta 118.435137
_cell_angle_gamma 22.753456
_cell_volume 715.318495
_symmetry_space_group_name_H-M "P -1"
_symmetry_group_IT_number 2
_symmetry_cell_setting 'triclinic'
loop_
_space_group_symop_operation_xyz
x,y,z
-x,-y,-z
loop_
_atom_site_type_symbol
_atom_site_label
_atom_site_fract_x
_atom_site_fract_y
_atom_site_fract_z
Si Si1 0.886612 0.314972 0.808641
Si Si2 0.762930 0.988752 0.109671
Si Si3 0.746604 0.016301 0.536868
Si Si4 0.231611 0.361455 0.034248
Si Si5 0.315087 0.448781 0.469051
Si Si6 0.682923 0.401974 0.201472
Si Si7 0.174843 0.285580 0.099595
Si Si8 0.125592 0.921696 0.750374
O O1 0.625978 0.465910 0.779657
O O2 0.762002 0.380066 0.031405
O O3 0.065611 0.146328 0.559036
O O4 0.091739 0.268535 0.872783
O O5 0.668508 0.037428 0.330404
O O6 0.510143 0.092480 0.018563
O O7 0.802426 0.044624 0.198930
O O8 0.070515 0.780185 0.893328
O O9 0.468726 0.178006 0.767752
O O10 0.904233 0.003085 0.627188
O O11 0.345028 0.375220 0.193172
O O12 0.115079 0.390191 0.170879
O O13 0.000000 0.500000 0.000000
O O14 0.341925 0.510801 0.537800
O O15 0.587278 0.284413 0.462603
O O16 0.016933 0.605717 0.659047
O O17 0.000000 0.000000 0.000000
#
# Coordination Sequence:
#
# PCOD8031187 Si02
#       8
#     2   2   2   2   2   2   2   2
#     4   9  20  39  65  93 130 168 218 266 320 382
#     4  11  24  41  69  99 130 169 217 267 325 390
#     4  11  23  41  67  96 130 170 220 267 322 381
#     4  12  26  41  63  96 134 170 219 268 325 389
#     4  11  22  42  71  89 132 172 217 263 322 384
#     4   9  20  40  67  97 123 170 223 266 312 382
#     4  11  24  42  66  95 131 175 213 266 330 384
#     4  12  23  43  67  95 131 170 215 269 325 375
#
# _framework density 22.367659
#
# number of rings (size 3 to 8) (size 9 to 14) (size 15 to 20)
#    0.000    1.250    3.750    1.500    3.500    7.000 
#    0.000    1.875    0.000    0.000    0.000    0.000 
#    0.000    0.000    0.000    0.000    0.000    0.000 
#
# Total GULP energy -198379.074016 kJ/mol
# GULP energy per Si atom -12398.692126 kJ/mol
# Density = 2.231675 g / cm^3
# Si number density = 22.367659 Si / 1000 Ang^3
#
#
#
# Elastic Constant Matrix: (Units=GPa)
#
#
# Indices 1 2 3 4 5 6 
#
# 1 43.2244 44.8125 22.6301 -3.2785 22.5589 -10.3187
# 2 44.8125 169.9453 39.1663 5.7693 17.0820 -11.3064
# 3 22.6301 39.1663 96.6560 8.8311 24.7209 -3.7012
# 4 -3.2785 5.7693 8.8311 36.2496 -0.1337 7.9319
# 5 22.5589 17.0820 24.7209 -0.1337 36.1645 -5.9861
# 6 -10.3187 -11.3064 -3.7012 7.9319 -5.9861 30.6417
#
#
#
# Elastic Compliance Matrix: (Units=1/GPa)
#
#
# Indices 1 2 3 4 5 6 
#
# 1 0.048078 -0.009701 -0.001564 0.004730 -0.023219 0.006662
# 2 -0.009701 0.008663 -0.001892 -0.001974 0.003390 0.000874
# 3 -0.001564 -0.001892 0.013685 -0.003152 -0.007535 -0.000228
# 4 0.004730 -0.001974 -0.003152 0.030774 -0.001021 -0.007682
# 5 -0.023219 0.003390 -0.007535 -0.001021 0.045973 0.001767
# 6 0.006662 0.000874 -0.000228 -0.007682 0.001767 0.037508
#
#
# Mechanical properties :
#
#
# Convention : Reuss Voigt Hill
#
# Bulk Modulus (GPa) = 22.66963 58.11594 40.39279
# Shear Modulus (GPa) = 22.15342 34.15895 28.15619
#
# Velocity S-wave (km/s) = 3.15051 3.91213 3.55179
# Velocity P-wave (km/s) = 4.83646 6.81505 5.90915
#
# Compressibility (1/GPa) = 0.04411188
#
# Stress axis : x y z
#
# Youngs Moduli (GPa) = 20.79941 115.43739 73.07080
#
# Poissons Ratio (x) = 1.11982 0.11430
# Poissons Ratio (y) = 0.20177 0.13827
# Poissons Ratio (z) = 0.03254 0.21844
#
# Static dielectric constant tensor:
#      x y z
#    x 3.844620 -0.296570 0.104520 
#    y -0.296570 4.536820 0.157380 
#    z 0.104520 0.157380 4.148710 
# 
# 
# High freq. dielectric constant tensor:
#      x y z
#    x 1.866000 -0.011190 0.019050 
#    y -0.011190 1.891650 0.005290 
#    z 0.019050 0.005290 1.882410 
# 
# From -- ./inp_files/321086.got.cif
#   From: 2010.06.25/outbox.cif.g09.slc.cpg/sg2_161_cif.got.tgz:321086.got - 2010.06.27 13:26:56.
