data_PCOD8031114
_publ_section_title
;
Structure prediction by ZEFSAII (Michael W. Deem and Ramdas Pophale) SiO2 
 PCOD8031114
Probable space group: P -1
;
_chemical_formula_sum "Si O2"
_cell_formula_units_Z 16
_cell_length_a 21.323316
_cell_length_b 15.963298
_cell_length_c 14.074829
_cell_angle_alpha 143.876636
_cell_angle_beta 21.503424
_cell_angle_gamma 154.818559
_cell_volume 729.004177
_symmetry_space_group_name_H-M "P -1"
_symmetry_group_IT_number 2
_symmetry_cell_setting 'triclinic'
loop_
_space_group_symop_operation_xyz
x,y,z
-x,-y,-z
loop_
_atom_site_type_symbol
_atom_site_label
_atom_site_fract_x
_atom_site_fract_y
_atom_site_fract_z
Si Si1 0.790147 0.285090 0.409005
Si Si2 0.239187 0.231817 0.895882
Si Si3 0.319350 0.450463 0.559988
Si Si4 0.772344 0.462427 0.757405
Si Si5 0.267706 0.618021 0.951565
Si Si6 0.146746 0.753994 0.079557
Si Si7 0.485522 0.867733 0.533970
Si Si8 0.632480 0.834783 0.791575
O O1 0.696225 0.371947 0.674332
O O2 0.700700 0.213913 0.362710
O O3 0.716624 0.107821 0.415475
O O4 0.080646 0.463300 0.156510
O O5 0.401186 0.367997 0.700718
O O6 0.418830 0.236412 0.707021
O O7 0.165269 0.332595 0.146702
O O8 0.000000 0.000000 0.000000
O O9 0.323267 0.508303 0.714563
O O10 0.234626 0.236409 0.482839
O O11 0.121050 0.423510 0.752214
O O12 0.000000 0.500000 0.500000
O O13 0.548399 0.297326 0.988270
O O14 0.161885 0.675123 0.083252
O O15 0.502145 0.810660 0.855811
O O16 0.358599 0.826566 0.776060
O O17 0.175038 0.934794 0.235247
#
# Coordination Sequence:
#
# PCOD8031114 Si02
#       8
#     2   2   2   2   2   2   2   2
#     4  11  23  41  70  99 133 181 232 269 342 405
#     4  11  25  42  70  98 132 177 229 280 334 404
#     4  11  24  45  69 100 135 181 224 279 344 399
#     4  11  22  42  68  93 137 180 218 279 336 397
#     4  12  23  41  70 101 136 178 222 285 333 402
#     4  12  23  45  72  98 141 179 222 280 340 410
#     4  11  23  43  70 100 132 183 230 273 335 411
#     4  11  25  41  68 100 138 176 229 276 338 401
#
# _framework density 21.947748000000001
#
# number of rings (size 3 to 8) (size 9 to 14) (size 15 to 20)
#    0.000    0.750    5.000    3.000    1.750    0.500 
#    2.250    0.000    0.000    0.000    0.000    0.000 
#    0.000    0.000    0.000    0.000    0.000    0.000 
#
# Total GULP energy -198362.238626 kJ/mol
# GULP energy per Si atom -12397.639914 kJ/mol
# Density = 2.189779 g / cm^3
# Si number density = 21.947748 Si / 1000 Ang^3
#
#
#
# Elastic Constant Matrix: (Units=GPa)
#
#
# Indices 1 2 3 4 5 6 
#
# 1 60.4747 18.7476 22.5053 -1.6707 9.1714 5.2963
# 2 18.7476 118.1207 41.5328 17.0564 13.4243 -6.9571
# 3 22.5053 41.5328 91.9376 16.8962 8.8201 -9.3113
# 4 -1.6707 17.0564 16.8962 44.0221 2.4570 -1.6136
# 5 9.1714 13.4243 8.8201 2.4570 34.7441 6.2794
# 6 5.2963 -6.9571 -9.3113 -1.6136 6.2794 34.3027
#
#
#
# Elastic Compliance Matrix: (Units=1/GPa)
#
#
# Indices 1 2 3 4 5 6 
#
# 1 0.019747 -0.001865 -0.004740 0.003299 -0.002790 -0.004048
# 2 -0.001865 0.010819 -0.003450 -0.002700 -0.002976 0.001963
# 3 -0.004740 -0.003450 0.014980 -0.004345 -0.001670 0.004200
# 4 0.003299 -0.002700 -0.004345 0.025539 -0.000355 -0.000970
# 5 -0.002790 -0.002976 -0.001670 -0.000355 0.032302 -0.006556
# 6 -0.004048 0.001963 0.004200 -0.000970 -0.006556 0.032470
#
#
# Mechanical properties :
#
#
# Convention : Reuss Voigt Hill
#
# Bulk Modulus (GPa) = 39.31532 48.45603 43.88568
# Shear Modulus (GPa) = 30.40520 35.13027 32.76773
#
# Velocity S-wave (km/s) = 3.72606 4.00513 3.86811
# Velocity P-wave (km/s) = 6.03849 6.59651 6.32366
#
# Compressibility (1/GPa) = 0.02543538
#
# Stress axis : x y z
#
# Youngs Moduli (GPa) = 50.64140 92.43121 66.75577
#
# Poissons Ratio (x) = 0.17240 0.31640
# Poissons Ratio (y) = 0.09446 0.23032
# Poissons Ratio (z) = 0.24002 0.31891
#
# Static dielectric constant tensor:
#      x y z
#    x 3.805420 -0.000770 0.050230 
#    y -0.000770 4.335400 0.264280 
#    z 0.050230 0.264280 4.089770 
# 
# 
# High freq. dielectric constant tensor:
#      x y z
#    x 1.855930 0.001670 0.003130 
#    y 0.001670 1.876580 0.009100 
#    z 0.003130 0.009100 1.864370 
# 
# From -- ./inp_files/209146.got.cif
#   From: 2010.06.25/outbox.cif.g09.slc.cpg/sg2_105_cif.got.tgz:209146.got - 2010.06.27 13:26:56.
