data_PCOD8031525
_publ_section_title
;
Structure prediction by ZEFSAII (Michael W. Deem and Ramdas Pophale) SiO2 
 PCOD8031525
Probable space group: P -1
;
_chemical_formula_sum "Si O2"
_cell_formula_units_Z 16
_cell_length_a 14.558525
_cell_length_b 14.498622
_cell_length_c 10.736958
_cell_angle_alpha 31.648152
_cell_angle_beta 62.983840
_cell_angle_gamma 42.300052
_cell_volume 694.617801
_symmetry_space_group_name_H-M "P -1"
_symmetry_group_IT_number 2
_symmetry_cell_setting 'triclinic'
loop_
_space_group_symop_operation_xyz
x,y,z
-x,-y,-z
loop_
_atom_site_type_symbol
_atom_site_label
_atom_site_fract_x
_atom_site_fract_y
_atom_site_fract_z
Si Si1 0.373631 0.029936 0.188372
Si Si2 0.181835 0.231499 0.715360
Si Si3 0.517373 0.839342 0.569404
Si Si4 0.297168 0.387449 0.635559
Si Si5 0.831661 0.116428 0.740131
Si Si6 0.348942 0.821728 0.872613
Si Si7 0.323573 0.710600 0.618256
Si Si8 0.187431 0.743402 0.916914
O O1 0.439659 0.022181 0.285333
O O2 0.518816 0.800554 0.269807
O O3 0.278007 0.975297 0.337267
O O4 0.263001 0.319068 0.861494
O O5 0.249477 0.324906 0.621850
O O6 0.000000 0.500000 0.500000
O O7 0.270101 0.080519 0.703295
O O8 0.211275 0.023188 0.024422
O O9 0.424176 0.786942 0.734976
O O10 0.500000 0.000000 0.500000
O O11 0.698651 0.558237 0.758630
O O12 0.202411 0.692892 0.351272
O O13 0.729048 0.300100 0.470581
O O14 0.014414 0.888835 0.856882
O O15 0.210855 0.867481 0.862126
O O16 0.487704 0.551530 0.178496
O O17 0.227173 0.743770 0.750016
#
# Coordination Sequence:
#
# PCOD8031525 Si02
#       8
#     2   2   2   2   2   2   2   2
#     4  11  22  44  70  99 137 173 238 293 330 404
#     4  12  28  46  69 103 140 179 231 284 348 421
#     4  11  23  40  70 103 132 176 233 290 334 396
#     4  11  27  44  68 104 137 179 233 284 343 412
#     4  12  28  45  69  99 145 189 216 286 360 401
#     4  11  23  43  73  98 130 180 236 283 337 402
#     4  11  22  46  71 100 134 181 237 283 338 411
#     4  11  24  45  67 101 138 182 229 281 348 413
#
# _framework density 23.034248000000002
#
# number of rings (size 3 to 8) (size 9 to 14) (size 15 to 20)
#    0.000    0.750    3.750    3.375   10.500    2.000 
#    0.000    0.625    0.000    0.000    0.000    0.000 
#    0.000    0.000    0.000    0.000    0.000    0.000 
#
# Total GULP energy -198410.734267 kJ/mol
# GULP energy per Si atom -12400.670892 kJ/mol
# Density = 2.298182 g / cm^3
# Si number density = 23.034248 Si / 1000 Ang^3
#
#
#
# Elastic Constant Matrix: (Units=GPa)
#
#
# Indices 1 2 3 4 5 6 
#
# 1 87.7436 10.7534 10.2387 -4.7131 -1.3176 14.7410
# 2 10.7534 71.9279 11.4811 -3.0738 5.0887 8.8577
# 3 10.2387 11.4811 63.7886 1.6860 -1.6144 13.3181
# 4 -4.7131 -3.0738 1.6860 34.4310 7.3720 -0.9967
# 5 -1.3176 5.0887 -1.6144 7.3720 40.8918 -3.2519
# 6 14.7410 8.8577 13.3181 -0.9967 -3.2519 45.0537
#
#
#
# Elastic Compliance Matrix: (Units=1/GPa)
#
#
# Indices 1 2 3 4 5 6 
#
# 1 0.012330 -0.001175 -0.001089 0.001548 -0.000053 -0.003451
# 2 -0.001175 0.014927 -0.002180 0.001746 -0.002459 -0.002045
# 3 -0.001089 -0.002180 0.017196 -0.001490 0.000844 -0.004270
# 4 0.001548 0.001746 -0.001490 0.030717 -0.005775 -0.000146
# 5 -0.000053 -0.002459 0.000844 -0.005775 0.025993 0.002000
# 6 -0.003451 -0.002045 -0.004270 -0.000146 0.002000 0.025130
#
#
# Mechanical properties :
#
#
# Convention : Reuss Voigt Hill
#
# Bulk Modulus (GPa) = 28.11687 32.04517 30.08102
# Shear Modulus (GPa) = 34.00556 36.80778 35.40667
#
# Velocity S-wave (km/s) = 3.84644 4.00178 3.92488
# Velocity P-wave (km/s) = 5.65330 5.94092 5.79890
#
# Compressibility (1/GPa) = 0.03556584
#
# Stress axis : x y z
#
# Youngs Moduli (GPa) = 81.10292 66.99413 58.15211
#
# Poissons Ratio (x) = 0.07869 0.06335
# Poissons Ratio (y) = 0.09527 0.12674
# Poissons Ratio (z) = 0.08836 0.14601
#
# Static dielectric constant tensor:
#      x y z
#    x 3.789180 0.836400 0.600180 
#    y 0.836400 2.147400 -1.305900 
#    z 0.600180 -1.305900 2.937310 
# 
# 
# High freq. dielectric constant tensor:
#      x y z
#    x 1.914640 0.007690 -0.008730 
#    y 0.007690 1.909680 0.020080 
#    z -0.008730 0.020080 1.909030 
# 
# From -- ./inp_files/455385.got.cif
#   From: 2010.06.25/outbox.cif.g09.slc.cpg/sg2_228_cif.got.tgz:455385.got - 2010.06.27 13:26:56.
