data_PCOD8031516
_publ_section_title
;
Structure prediction by ZEFSAII (Michael W. Deem and Ramdas Pophale) SiO2 
 PCOD8031516
Probable space group: P -1
;
_chemical_formula_sum "Si O2"
_cell_formula_units_Z 16
_cell_length_a 12.612022
_cell_length_b 18.113753
_cell_length_c 8.519317
_cell_angle_alpha 103.506179
_cell_angle_beta 49.892322
_cell_angle_gamma 143.090071
_cell_volume 706.319536
_symmetry_space_group_name_H-M "P -1"
_symmetry_group_IT_number 2
_symmetry_cell_setting 'triclinic'
loop_
_space_group_symop_operation_xyz
x,y,z
-x,-y,-z
loop_
_atom_site_type_symbol
_atom_site_label
_atom_site_fract_x
_atom_site_fract_y
_atom_site_fract_z
Si Si1 0.473146 0.277124 0.603687
Si Si2 0.969791 0.662625 0.588273
Si Si3 0.501122 0.670096 0.063291
Si Si4 0.496671 0.159331 0.301197
Si Si5 0.775580 0.175345 0.261687
Si Si6 0.872517 0.394489 0.796500
Si Si7 0.752509 0.679532 0.310918
Si Si8 0.976358 0.824996 0.502175
O O1 0.347312 0.220634 0.873177
O O2 0.357097 0.145942 0.562587
O O3 0.389685 0.310465 0.600018
O O4 0.812117 0.431961 0.370036
O O5 0.644681 0.478048 0.812734
O O6 0.977253 0.754112 0.581915
O O7 0.109385 0.718641 0.653410
O O8 0.143108 0.696295 0.312745
O O9 0.248709 0.602465 0.208685
O O10 0.724195 0.761328 0.759234
O O11 0.694773 0.189809 0.201439
O O12 0.684393 0.304124 0.086874
O O13 0.264690 0.009188 0.337745
O O14 0.500000 0.000000 0.500000
O O15 0.032606 0.244404 0.992669
O O16 0.500000 0.500000 0.500000
O O17 0.941678 0.782536 0.336126
#
# Coordination Sequence:
#
# PCOD8031516 Si02
#       8
#     2   2   2   2   2   2   2   2
#     4  11  24  45  70 101 134 179 230 277 338 403
#     4  11  22  44  70  97 131 177 228 280 334 404
#     4  11  23  44  71  98 132 176 231 278 335 402
#     4  12  26  44  66 101 143 178 222 279 343 409
#     4  12  25  44  69 102 139 177 225 279 343 406
#     4  11  24  43  72  98 135 178 225 281 335 407
#     4  12  26  46  72 101 136 181 233 284 338 407
#     4  12  26  43  66 101 138 179 222 279 342 401
#
# _framework density 22.652636999999999
#
# number of rings (size 3 to 8) (size 9 to 14) (size 15 to 20)
#    0.000    0.500    1.250    9.000    1.750    3.500 
#    0.000    0.000    0.000    0.000    0.000    0.000 
#    0.000    0.000    0.000    0.000    0.000    0.000 
#
# Total GULP energy -198485.025367 kJ/mol
# GULP energy per Si atom -12405.314085 kJ/mol
# Density = 2.260108 g / cm^3
# Si number density = 22.652637 Si / 1000 Ang^3
#
#
#
# Elastic Constant Matrix: (Units=GPa)
#
#
# Indices 1 2 3 4 5 6 
#
# 1 98.3492 27.6551 7.0450 -6.2741 -9.5929 2.5594
# 2 27.6551 116.8541 19.0585 17.9764 -0.3491 23.1805
# 3 7.0450 19.0585 89.9471 7.9940 -0.2211 1.5722
# 4 -6.2741 17.9764 7.9940 28.0234 1.1472 1.2796
# 5 -9.5929 -0.3491 -0.2211 1.1472 35.9135 5.7962
# 6 2.5594 23.1805 1.5722 1.2796 5.7962 34.3189
#
#
#
# Elastic Compliance Matrix: (Units=1/GPa)
#
#
# Indices 1 2 3 4 5 6 
#
# 1 0.011803 -0.003642 -0.000606 0.004994 0.002801 0.000949
# 2 -0.003642 0.012472 -0.001502 -0.008055 0.000671 -0.007897
# 3 -0.000606 -0.001502 0.011697 -0.002533 -0.000127 0.000640
# 4 0.004994 -0.008055 -0.002533 0.042552 -0.000719 0.003719
# 5 0.002801 0.000671 -0.000127 -0.000719 0.029528 -0.005616
# 6 0.000949 -0.007897 0.000640 0.003719 -0.005616 0.035182
#
#
# Mechanical properties :
#
#
# Convention : Reuss Voigt Hill
#
# Bulk Modulus (GPa) = 40.86489 45.85196 43.35843
# Shear Modulus (GPa) = 30.69527 36.41063 33.55295
#
# Velocity S-wave (km/s) = 3.68508 4.01352 3.85280
# Velocity P-wave (km/s) = 6.01543 6.46244 6.24294
#
# Compressibility (1/GPa) = 0.02447088
#
# Stress axis : x y z
#
# Youngs Moduli (GPa) = 84.72723 80.17788 85.49218
#
# Poissons Ratio (x) = 0.29204 0.05182
# Poissons Ratio (y) = 0.30861 0.12840
# Poissons Ratio (z) = 0.05136 0.12042
#
# Static dielectric constant tensor:
#      x y z
#    x 4.149220 0.136090 0.019670 
#    y 0.136090 4.225500 0.193830 
#    z 0.019670 0.193830 3.991280 
# 
# 
# High freq. dielectric constant tensor:
#      x y z
#    x 1.905040 0.008780 -0.000600 
#    y 0.008780 1.901900 0.014850 
#    z -0.000600 0.014850 1.892180 
# 
# From -- ./inp_files/207783.got.cif
#   From: 2010.06.25/outbox.cif.g09.slc.cpg/sg2_104_cif.got.tgz:207783.got - 2010.06.27 13:26:56.
