data_PCOD8031538
_publ_section_title
;
Structure prediction by ZEFSAII (Michael W. Deem and Ramdas Pophale) SiO2 
 PCOD8031538
Probable space group: P -1
;
_chemical_formula_sum "Si O2"
_cell_formula_units_Z 14
_cell_length_a 9.329981
_cell_length_b 11.769436
_cell_length_c 20.764126
_cell_angle_alpha 29.487350
_cell_angle_beta 143.246617
_cell_angle_gamma 125.181881
_cell_volume 612.016637
_symmetry_space_group_name_H-M "P -1"
_symmetry_group_IT_number 2
_symmetry_cell_setting 'triclinic'
loop_
_space_group_symop_operation_xyz
x,y,z
-x,-y,-z
loop_
_atom_site_type_symbol
_atom_site_label
_atom_site_fract_x
_atom_site_fract_y
_atom_site_fract_z
Si Si1 0.920531 0.669289 0.600748
Si Si2 0.031469 0.532270 0.853902
Si Si3 0.322687 0.207917 0.748103
Si Si4 0.113783 0.182340 0.824539
Si Si5 0.337322 0.982183 0.271566
Si Si6 0.555220 0.326704 0.415019
Si Si7 0.024723 0.935289 0.401702
O O1 0.604957 0.804269 0.420661
O O2 0.031011 0.867916 0.513422
O O3 0.044543 0.560527 0.767757
O O4 0.009944 0.451027 0.687883
O O5 0.756639 0.524778 0.779959
O O6 0.062838 0.765310 0.785252
O O7 0.270765 0.277839 0.089866
O O8 0.159151 0.204533 0.754206
O O9 0.328046 0.483124 0.606905
O O10 0.182922 0.148131 0.666754
O O11 0.615731 0.997638 0.956763
O O12 0.903022 0.067019 0.819658
O O13 0.374185 0.914967 0.393666
O O14 0.683883 0.218880 0.445789
#
# Coordination Sequence:
#
# PCOD8031538 Si02
#       7
#     2   2   2   2   2   2   2
#     4  11  26  44  70 100 138 184 226 278 339 407
#     4  11  27  47  66 103 145 178 224 276 345 417
#     4  11  23  42  76 105 131 175 236 289 332 393
#     4  11  22  44  71 105 136 176 231 287 337 396
#     4  11  24  45  68 102 139 180 223 282 344 400
#     4  11  22  47  74 100 133 177 236 284 334 396
#     4  12  24  46  72 101 137 182 227 284 339 399
#
# _framework density 22.875194
#
# number of rings (size 3 to 8) (size 9 to 14) (size 15 to 20)
#    0.000    0.857    4.286    2.571    2.000    2.857 
#    5.143    0.000    0.000    0.000    0.000    0.000 
#    0.000    0.000    0.000    0.000    0.000    0.000 
#
# Total GULP energy -173648.303297 kJ/mol
# GULP energy per Si atom -12403.450236 kJ/mol
# Density = 2.282313 g / cm^3
# Si number density = 22.875194 Si / 1000 Ang^3
#
#
#
# Elastic Constant Matrix: (Units=GPa)
#
#
# Indices 1 2 3 4 5 6 
#
# 1 170.2644 43.9297 60.7333 -9.7771 7.8730 5.2763
# 2 43.9297 81.9325 27.5978 -28.7331 1.6248 1.7478
# 3 60.7333 27.5978 152.8074 -15.4587 4.8504 -0.7493
# 4 -9.7771 -28.7331 -15.4587 38.1280 2.5365 -8.3003
# 5 7.8730 1.6248 4.8504 2.5365 36.9007 -5.0154
# 6 5.2763 1.7478 -0.7493 -8.3003 -5.0154 23.4900
#
#
#
# Elastic Compliance Matrix: (Units=1/GPa)
#
#
# Indices 1 2 3 4 5 6 
#
# 1 0.007889 -0.004222 -0.002621 -0.002741 -0.001344 -0.002797
# 2 -0.004222 0.019603 -0.000358 0.014557 -0.000296 0.004559
# 3 -0.002621 -0.000358 0.007944 0.002683 -0.000419 0.001727
# 4 -0.002741 0.014557 0.002683 0.040653 -0.001342 0.013697
# 5 -0.001344 -0.000296 -0.000419 -0.001342 0.028347 0.005889
# 6 -0.002797 0.004559 0.001727 0.013697 0.005889 0.049013
#
#
# Mechanical properties :
#
#
# Convention : Reuss Voigt Hill
#
# Bulk Modulus (GPa) = 47.54278 74.39177 60.96727
# Shear Modulus (GPa) = 28.59389 37.88663 33.24026
#
# Velocity S-wave (km/s) = 3.53936 4.07410 3.81611
# Velocity P-wave (km/s) = 6.12629 7.39746 6.79168
#
# Compressibility (1/GPa) = 0.02103369
#
# Stress axis : x y z
#
# Youngs Moduli (GPa) = 126.75994 51.01256 125.88363
#
# Poissons Ratio (x) = 0.21536 0.32998
# Poissons Ratio (y) = 0.53514 0.04508
# Poissons Ratio (z) = 0.33228 0.01827
#
# Static dielectric constant tensor:
#      x y z
#    x 4.368730 0.214580 0.059170 
#    y 0.214580 3.902890 -0.134480 
#    z 0.059170 -0.134480 4.186650 
# 
# 
# High freq. dielectric constant tensor:
#      x y z
#    x 1.916150 0.009010 0.005870 
#    y 0.009010 1.892300 -0.010130 
#    z 0.005870 -0.010130 1.914970 
# 
# From -- ./inp_files/255205.got.cif
#   From: 2010.06.25/outbox.cif.g09.slc.cpg/sg2_128_cif.got.tgz:255205.got - 2010.06.27 13:26:56.
