data_PCOD8031691
_publ_section_title
;
Structure prediction by ZEFSAII (Michael W. Deem and Ramdas Pophale) SiO2 
 PCOD8031691
Probable space group: P -1
;
_chemical_formula_sum "Si O2"
_cell_formula_units_Z 14
_cell_length_a 9.236973
_cell_length_b 8.720220
_cell_length_c 13.172284
_cell_angle_alpha 84.019236
_cell_angle_beta 35.635356
_cell_angle_gamma 84.684109
_cell_volume 614.745921
_symmetry_space_group_name_H-M "P -1"
_symmetry_group_IT_number 2
_symmetry_cell_setting 'triclinic'
loop_
_space_group_symop_operation_xyz
x,y,z
-x,-y,-z
loop_
_atom_site_type_symbol
_atom_site_label
_atom_site_fract_x
_atom_site_fract_y
_atom_site_fract_z
Si Si1 0.337408 0.237748 0.871770
Si Si2 0.925009 0.826563 0.171494
Si Si3 0.888255 0.147578 0.247701
Si Si4 0.224057 0.572958 0.429630
Si Si5 0.385163 0.274101 0.464704
Si Si6 0.526580 0.115440 0.188695
Si Si7 0.962947 0.877731 0.620227
O O1 0.225291 0.266551 0.821128
O O2 0.543633 0.364981 0.774081
O O3 0.458372 0.068244 0.814589
O O4 0.116347 0.256113 0.078470
O O5 0.849761 0.770368 0.329860
O O6 0.863763 0.011767 0.185805
O O7 0.218170 0.798520 0.987216
O O8 0.636538 0.248893 0.389087
O O9 0.954470 0.058773 0.321303
O O10 0.342637 0.451604 0.448496
O O11 0.000000 0.500000 0.500000
O O12 0.124737 0.722165 0.533761
O O13 0.406112 0.167908 0.360567
O O14 0.327602 0.166725 0.212188
O O15 0.000000 0.000000 0.500000
#
# Coordination Sequence:
#
# PCOD8031691 Si02
#       7
#     2   2   2   2   2   2   2
#     4  11  23  45  71 105 139 183 243 289 344 425
#     4  11  23  41  76 110 137 180 244 291 341 424
#     4  11  24  43  76 109 135 185 243 288 352 415
#     4  12  28  45  68 103 145 188 235 286 358 427
#     4  12  24  45  73 102 148 186 226 294 355 413
#     4  11  22  45  72 103 141 180 236 295 346 410
#     4  12  25  46  72 101 142 190 236 291 352 414
#
# _framework density 22.773636
#
# number of rings (size 3 to 8) (size 9 to 14) (size 15 to 20)
#    0.000    0.571    5.714    3.000    0.000    6.286 
#    2.571    1.429    0.000    0.000    0.000    0.000 
#    0.000    0.000    0.000    0.000    0.000    0.000 
#
# Total GULP energy -173555.178095 kJ/mol
# GULP energy per Si atom -12396.798435 kJ/mol
# Density = 2.272180 g / cm^3
# Si number density = 22.773636 Si / 1000 Ang^3
#
#
#
# Elastic Constant Matrix: (Units=GPa)
#
#
# Indices 1 2 3 4 5 6 
#
# 1 143.8444 31.1316 52.9189 -8.5888 -12.4324 -10.5385
# 2 31.1316 78.5444 40.0635 -12.6630 -8.8779 -14.3637
# 3 52.9189 40.0635 137.8615 -22.1334 -7.9157 -3.8003
# 4 -8.5888 -12.6630 -22.1334 32.6337 6.3737 -9.9767
# 5 -12.4324 -8.8779 -7.9157 6.3737 37.2011 -1.8731
# 6 -10.5385 -14.3637 -3.8003 -9.9767 -1.8731 39.1423
#
#
#
# Elastic Compliance Matrix: (Units=1/GPa)
#
#
# Indices 1 2 3 4 5 6 
#
# 1 0.008556 -0.001515 -0.002699 -0.000083 0.002017 0.001561
# 2 -0.001515 0.017556 -0.003215 0.006030 0.002337 0.007371
# 3 -0.002699 -0.003215 0.010015 0.005008 -0.000380 0.000324
# 4 -0.000083 0.006030 0.005008 0.041084 -0.003909 0.012961
# 5 0.002017 0.002337 -0.000380 -0.003909 0.028790 0.001745
# 6 0.001561 0.007371 0.000324 0.012961 0.001745 0.032092
#
#
# Mechanical properties :
#
#
# Convention : Reuss Voigt Hill
#
# Bulk Modulus (GPa) = 47.01249 67.60868 57.31058
# Shear Modulus (GPa) = 31.24214 37.53783 34.38998
#
# Velocity S-wave (km/s) = 3.70788 4.06433 3.89019
# Velocity P-wave (km/s) = 6.24654 7.19561 6.73781
#
# Compressibility (1/GPa) = 0.02127094
#
# Stress axis : x y z
#
# Youngs Moduli (GPa) = 116.87258 56.95940 99.84990
#
# Poissons Ratio (x) = 0.08628 0.26946
# Poissons Ratio (y) = 0.17703 0.32102
# Poissons Ratio (z) = 0.31540 0.18312
#
# Static dielectric constant tensor:
#      x y z
#    x 4.296740 -0.051760 -0.348260 
#    y -0.051760 3.903420 0.034580 
#    z -0.348260 0.034580 4.300660 
# 
# 
# High freq. dielectric constant tensor:
#      x y z
#    x 1.905170 -0.004060 -0.019300 
#    y -0.004060 1.873310 0.000210 
#    z -0.019300 0.000210 1.907840 
# 
# From -- ./inp_files/186866.got.cif
#   From: 2010.06.25/outbox.cif.g09.slc.cpg/sg2_94_cif.got.tgz:186866.got - 2010.06.27 13:26:56.
