data_PCOD8031368
_publ_section_title
;
Structure prediction by ZEFSAII (Michael W. Deem and Ramdas Pophale) SiO2 
 PCOD8031368
Probable space group: P -1
;
_chemical_formula_sum "Si O2"
_cell_formula_units_Z 14
_cell_length_a 16.290124
_cell_length_b 16.274765
_cell_length_c 8.864302
_cell_angle_alpha 137.054950
_cell_angle_beta 58.764087
_cell_angle_gamma 154.946431
_cell_volume 586.743251
_symmetry_space_group_name_H-M "P -1"
_symmetry_group_IT_number 2
_symmetry_cell_setting 'triclinic'
loop_
_space_group_symop_operation_xyz
x,y,z
-x,-y,-z
loop_
_atom_site_type_symbol
_atom_site_label
_atom_site_fract_x
_atom_site_fract_y
_atom_site_fract_z
Si Si1 0.663437 0.440686 0.209372
Si Si2 0.226613 0.379385 0.992772
Si Si3 0.811308 0.030226 0.827746
Si Si4 0.645149 0.972656 0.483047
Si Si5 0.288376 0.757721 0.978343
Si Si6 0.957209 0.459745 0.663303
Si Si7 0.855106 0.978630 0.388510
O O1 0.679355 0.506043 0.112869
O O2 0.875720 0.732540 0.492809
O O3 0.429549 0.219133 0.205011
O O4 0.689059 0.324731 0.034497
O O5 0.963791 0.115445 0.900708
O O6 0.255708 0.276224 0.886666
O O7 0.377422 0.644265 0.302155
O O8 0.778775 0.932121 0.565903
O O9 0.966784 0.324899 0.059229
O O10 0.726397 0.131785 0.771419
O O11 0.702615 0.126388 0.491328
O O12 0.763312 0.975611 0.357581
O O13 0.084680 0.510019 0.721538
O O14 0.500000 0.000000 0.000000
O O15 0.000000 0.500000 0.500000
#
# Coordination Sequence:
#
# PCOD8031368 Si02
#       7
#     2   2   2   2   2   2   2
#     4  11  22  43  71  99 133 182 223 284 345 398
#     4  11  27  41  66 102 136 183 234 278 325 409
#     4  11  23  43  68  99 135 176 227 280 342 404
#     4  12  24  45  70  98 144 181 221 283 353 395
#     4  12  24  43  71 103 136 177 221 283 353 414
#     4  12  25  42  71 104 136 170 225 284 345 417
#     4  11  23  45  68  96 134 185 237 274 331 404
#
# _framework density 23.860522
#
# number of rings (size 3 to 8) (size 9 to 14) (size 15 to 20)
#    0.000    0.571    4.286    5.143    2.000    3.429 
#    0.000    0.000    0.000    5.143    0.000    0.000 
#    0.000    0.000    0.000    0.000    0.000    0.000 
#
# Total GULP energy -173503.221696 kJ/mol
# GULP energy per Si atom -12393.087264 kJ/mol
# Density = 2.380621 g / cm^3
# Si number density = 23.860522 Si / 1000 Ang^3
#
#
#
# Elastic Constant Matrix: (Units=GPa)
#
#
# Indices 1 2 3 4 5 6 
#
# 1 88.4883 44.4766 11.9055 -1.1717 -16.4429 -1.4212
# 2 44.4766 110.3538 29.3469 12.0254 -8.1915 12.1224
# 3 11.9055 29.3469 86.7120 5.3235 -9.8828 -5.4557
# 4 -1.1717 12.0254 5.3235 29.0175 -6.4065 2.0863
# 5 -16.4429 -8.1915 -9.8828 -6.4065 40.0153 8.3028
# 6 -1.4212 12.1224 -5.4557 2.0863 8.3028 35.8217
#
#
#
# Elastic Compliance Matrix: (Units=1/GPa)
#
#
# Indices 1 2 3 4 5 6 
#
# 1 0.015730 -0.006714 0.000572 0.004459 0.005651 0.001414
# 2 -0.006714 0.013859 -0.003849 -0.005080 -0.000627 -0.005101
# 3 0.000572 -0.003849 0.013204 -0.000568 0.002015 0.002902
# 4 0.004459 -0.005080 -0.000568 0.038610 0.007274 -0.002125
# 5 0.005651 -0.000627 0.002015 0.007274 0.030234 -0.006688
# 6 0.001414 -0.005101 0.002902 -0.002125 -0.006688 0.031814
#
#
# Mechanical properties :
#
#
# Convention : Reuss Voigt Hill
#
# Bulk Modulus (GPa) = 43.83925 50.77911 47.30918
# Shear Modulus (GPa) = 29.23347 34.29257 31.76302
#
# Velocity S-wave (km/s) = 3.50406 3.79517 3.65251
# Velocity P-wave (km/s) = 5.89782 6.36649 6.13663
#
# Compressibility (1/GPa) = 0.02281061
#
# Stress axis : x y z
#
# Youngs Moduli (GPa) = 63.57174 72.15762 75.73607
#
# Poissons Ratio (x) = 0.48443 -0.04330
# Poissons Ratio (y) = 0.42679 0.29152
# Poissons Ratio (z) = -0.03634 0.27774
#
# Static dielectric constant tensor:
#      x y z
#    x 4.474210 -0.012630 -0.042970 
#    y -0.012630 4.299050 0.371020 
#    z -0.042970 0.371020 6.274730 
# 
# 
# High freq. dielectric constant tensor:
#      x y z
#    x 1.956130 -0.000320 -0.003680 
#    y -0.000320 1.938320 0.026520 
#    z -0.003680 0.026520 1.938040 
# 
# From -- ./inp_files/271792.got.cif
#   From: 2010.06.25/outbox.cif.g09.slc.cpg/sg2_136_cif.got.tgz:271792.got - 2010.06.27 13:26:56.
