data_PCOD8031182
_publ_section_title
;
Structure prediction by ZEFSAII (Michael W. Deem and Ramdas Pophale) SiO2 
 PCOD8031182
Probable space group: P -1
;
_chemical_formula_sum "Si O2"
_cell_formula_units_Z 14
_cell_length_a 9.791277
_cell_length_b 16.547828
_cell_length_c 9.145095
_cell_angle_alpha 126.105380
_cell_angle_beta 74.954589
_cell_angle_gamma 145.549583
_cell_volume 588.339150
_symmetry_space_group_name_H-M "P -1"
_symmetry_group_IT_number 2
_symmetry_cell_setting 'triclinic'
loop_
_space_group_symop_operation_xyz
x,y,z
-x,-y,-z
loop_
_atom_site_type_symbol
_atom_site_label
_atom_site_fract_x
_atom_site_fract_y
_atom_site_fract_z
Si Si1 0.230388 0.559320 0.645839
Si Si2 0.372951 0.254846 0.785866
Si Si3 0.340995 0.715347 0.477186
Si Si4 0.176031 0.328898 0.975769
Si Si5 0.591996 0.060668 0.871547
Si Si6 0.679554 0.902093 0.083775
Si Si7 0.774620 0.656809 0.687424
O O1 0.339415 0.690720 0.621884
O O2 0.102700 0.376354 0.430921
O O3 0.975112 0.466626 0.692210
O O4 0.503691 0.713375 0.837013
O O5 0.467882 0.252816 0.614930
O O6 0.619057 0.485996 0.993923
O O7 0.301216 0.130610 0.795352
O O8 0.116129 0.179677 0.763886
O O9 0.476766 0.906375 0.630293
O O10 0.299429 0.386592 0.167248
O O11 0.919559 0.245643 0.975937
O O12 0.511591 0.116412 0.881204
O O13 0.500000 0.000000 0.000000
O O14 0.989422 0.114481 0.164675
O O15 0.500000 0.500000 0.500000
#
# Coordination Sequence:
#
# PCOD8031182 Si02
#       7
#     2   2   2   2   2   2   2
#     4  11  22  42  76 101 139 191 247 287 349 434
#     4  11  27  46  69 109 152 188 233 303 381 421
#     4  11  22  42  71 106 140 191 241 290 357 438
#     4  11  24  49  72 103 150 198 235 294 376 435
#     4  12  22  44  78 106 141 190 253 297 349 432
#     4  12  26  47  74 113 143 188 242 309 358 419
#     4  12  25  46  75 105 141 190 254 293 350 442
#
# _framework density 23.795798999999999
#
# number of rings (size 3 to 8) (size 9 to 14) (size 15 to 20)
#    0.000    0.571    5.714    1.714    0.000    6.857 
#    7.714    0.000    0.000    0.000    0.000    0.000 
#    0.000    0.000    0.000    0.000    0.000    0.000 
#
# Total GULP energy -173452.865221 kJ/mol
# GULP energy per Si atom -12389.490373 kJ/mol
# Density = 2.374164 g / cm^3
# Si number density = 23.795799 Si / 1000 Ang^3
#
#
#
# Elastic Constant Matrix: (Units=GPa)
#
#
# Indices 1 2 3 4 5 6 
#
# 1 94.5309 32.4670 8.1925 -6.9776 -15.3499 3.3414
# 2 32.4670 110.8333 20.6514 3.6459 1.8123 -8.2941
# 3 8.1925 20.6514 74.2234 12.6153 -15.0956 8.9728
# 4 -6.9776 3.6459 12.6153 23.5792 8.2468 -8.7876
# 5 -15.3499 1.8123 -15.0956 8.2468 51.8630 3.1614
# 6 3.3414 -8.2941 8.9728 -8.7876 3.1614 40.4548
#
#
#
# Elastic Compliance Matrix: (Units=1/GPa)
#
#
# Indices 1 2 3 4 5 6 
#
# 1 0.012792 -0.004074 0.000314 0.002274 0.003766 -0.001762
# 2 -0.004074 0.011329 -0.004306 0.002184 -0.003468 0.004360
# 3 0.000314 -0.004306 0.020808 -0.017528 0.009702 -0.010090
# 4 0.002274 0.002184 -0.017528 0.065005 -0.016031 0.019521
# 5 0.003766 -0.003468 0.009702 -0.016031 0.026422 -0.008721
# 6 -0.001762 0.004360 -0.010090 0.019521 -0.008721 0.032918
#
#
# Mechanical properties :
#
#
# Convention : Reuss Voigt Hill
#
# Bulk Modulus (GPa) = 34.72541 44.68993 39.70767
# Shear Modulus (GPa) = 25.64016 37.73117 31.68567
#
# Velocity S-wave (km/s) = 3.28610 3.98631 3.65302
# Velocity P-wave (km/s) = 5.38727 6.32526 5.87502
#
# Compressibility (1/GPa) = 0.02879735
#
# Stress axis : x y z
#
# Youngs Moduli (GPa) = 78.17293 88.26529 48.05768
#
# Poissons Ratio (x) = 0.35959 -0.01509
# Poissons Ratio (y) = 0.31848 0.20695
# Poissons Ratio (z) = -0.02454 0.38009
#
# Static dielectric constant tensor:
#      x y z
#    x 4.964730 0.346690 -0.574160 
#    y 0.346690 4.403960 0.028510 
#    z -0.574160 0.028510 4.465020 
# 
# 
# High freq. dielectric constant tensor:
#      x y z
#    x 1.966410 0.009530 -0.028290 
#    y 0.009530 1.940300 0.015530 
#    z -0.028290 0.015530 1.925720 
# 
# From -- ./inp_files/208692.got.cif
#   From: 2010.06.25/outbox.cif.g09.slc.cpg/sg2_105_cif.got.tgz:208692.got - 2010.06.27 13:26:56.
