data_PCOD8031558
_publ_section_title
;
Structure prediction by ZEFSAII (Michael W. Deem and Ramdas Pophale) SiO2 
 PCOD8031558
Probable space group: P -1
;
_chemical_formula_sum "Si O2"
_cell_formula_units_Z 16
_cell_length_a 9.578128
_cell_length_b 8.948382
_cell_length_c 15.119597
_cell_angle_alpha 141.343514
_cell_angle_beta 108.816449
_cell_angle_gamma 88.800845
_cell_volume 705.346784
_symmetry_space_group_name_H-M "P -1"
_symmetry_group_IT_number 2
_symmetry_cell_setting 'triclinic'
loop_
_space_group_symop_operation_xyz
x,y,z
-x,-y,-z
loop_
_atom_site_type_symbol
_atom_site_label
_atom_site_fract_x
_atom_site_fract_y
_atom_site_fract_z
Si Si1 0.147890 0.329277 0.936609
Si Si2 0.837553 0.044455 0.480658
Si Si3 0.740963 0.072523 0.139561
Si Si4 0.357897 0.464414 0.886159
Si Si5 0.200054 0.829439 0.269197
Si Si6 0.336769 0.254429 0.362782
Si Si7 0.063993 0.476693 0.405011
Si Si8 0.427317 0.023192 0.110051
O O1 0.201063 0.429455 0.894823
O O2 0.956676 0.201468 0.834720
O O3 0.210910 0.107235 0.868058
O O4 0.225034 0.563769 0.131479
O O5 0.854000 0.251967 0.503189
O O6 0.685523 0.783162 0.302449
O O7 0.197235 0.858119 0.386870
O O8 0.000000 0.000000 0.500000
O O9 0.899964 0.302492 0.240521
O O10 0.622479 0.178714 0.220042
O O11 0.646967 0.904363 0.958944
O O12 0.500000 0.500000 0.000000
O O13 0.401189 0.720900 0.955303
O O14 0.335308 0.091286 0.376343
O O15 0.500000 0.500000 0.500000
O O16 0.186170 0.334488 0.365935
O O17 0.334897 0.069133 0.195540
O O18 0.000000 0.500000 0.500000
#
# Coordination Sequence:
#
# PCOD8031558 Si02
#       8
#     2   2   2   2   2   2   2   2
#     4  11  22  44  72 101 144 192 239 298 366 434
#     4  12  26  45  74 108 141 189 251 307 354 435
#     4  11  24  44  72 105 143 190 244 293 364 440
#     4  12  24  44  73  97 141 192 241 290 365 432
#     4  11  25  45  72 108 142 187 249 307 362 437
#     4  12  27  47  72 103 148 187 236 306 375 427
#     4  12  26  46  75 104 143 192 240 295 369 442
#     4  11  26  45  70 108 145 190 238 305 362 438
#
# _framework density 22.683878
#
# number of rings (size 3 to 8) (size 9 to 14) (size 15 to 20)
#    0.000    0.500    5.000    3.000    3.500    2.500 
#    0.000    1.250    0.000    0.000    0.000    0.000 
#    0.000    0.000    0.000    0.000    0.000    0.000 
#
# Total GULP energy -198366.463696 kJ/mol
# GULP energy per Si atom -12397.903981 kJ/mol
# Density = 2.263225 g / cm^3
# Si number density = 22.683878 Si / 1000 Ang^3
#
#
#
# Elastic Constant Matrix: (Units=GPa)
#
#
# Indices 1 2 3 4 5 6 
#
# 1 111.9804 25.9193 35.7826 -0.4553 -8.1426 10.3523
# 2 25.9193 90.6765 32.9683 2.1973 -7.6109 17.0732
# 3 35.7826 32.9683 125.0040 5.3469 -2.3132 6.3766
# 4 -0.4553 2.1973 5.3469 32.0451 8.1509 2.0725
# 5 -8.1426 -7.6109 -2.3132 8.1509 44.6083 -6.3210
# 6 10.3523 17.0732 6.3766 2.0725 -6.3210 43.1815
#
#
#
# Elastic Compliance Matrix: (Units=1/GPa)
#
#
# Indices 1 2 3 4 5 6 
#
# 1 0.010314 -0.001736 -0.002426 0.000448 0.001198 -0.001274
# 2 -0.001736 0.013469 -0.002789 -0.000545 0.001330 -0.004276
# 3 -0.002426 -0.002789 0.009471 -0.001414 -0.000122 0.000336
# 4 0.000448 -0.000545 -0.001414 0.033278 -0.006481 -0.002229
# 5 0.001198 0.001330 -0.000122 -0.006481 0.024480 0.003099
# 6 -0.001274 -0.004276 0.000336 -0.002229 0.003099 0.025665
#
#
# Mechanical properties :
#
#
# Convention : Reuss Voigt Hill
#
# Bulk Modulus (GPa) = 51.68017 57.44457 54.56237
# Shear Modulus (GPa) = 36.48798 39.49970 37.99384
#
# Velocity S-wave (km/s) = 4.01501 4.17743 4.09703
# Velocity P-wave (km/s) = 6.65778 6.97473 6.81810
#
# Compressibility (1/GPa) = 0.01934978
#
# Stress axis : x y z
#
# Youngs Moduli (GPa) = 96.95431 74.24674 105.58519
#
# Poissons Ratio (x) = 0.12892 0.25620
# Poissons Ratio (y) = 0.16835 0.29449
# Poissons Ratio (z) = 0.23526 0.20708
#
# Static dielectric constant tensor:
#      x y z
#    x 4.503580 0.139830 0.235710 
#    y 0.139830 4.046740 0.179880 
#    z 0.235710 0.179880 4.410500 
# 
# 
# High freq. dielectric constant tensor:
#      x y z
#    x 1.903920 0.008550 0.007420 
#    y 0.008550 1.896180 0.008430 
#    z 0.007420 0.008430 1.898370 
# 
# From -- ./inp_files/557702.got.cif
#   From: 2010.06.25/outbox.cif.g09.slc.cpg/sg2_279_cif.got.tgz:557702.got - 2010.06.27 13:26:56.
