data_PCOD8031858
_publ_section_title
;
Structure prediction by ZEFSAII (Michael W. Deem and Ramdas Pophale) SiO2 
 PCOD8031858
Probable space group: P -1
;
_chemical_formula_sum "Si O2"
_cell_formula_units_Z 16
_cell_length_a 20.603810
_cell_length_b 12.312032
_cell_length_c 8.185997
_cell_angle_alpha 127.798606
_cell_angle_beta 41.216835
_cell_angle_gamma 151.880322
_cell_volume 636.292164
_symmetry_space_group_name_H-M "P -1"
_symmetry_group_IT_number 2
_symmetry_cell_setting 'triclinic'
loop_
_space_group_symop_operation_xyz
x,y,z
-x,-y,-z
loop_
_atom_site_type_symbol
_atom_site_label
_atom_site_fract_x
_atom_site_fract_y
_atom_site_fract_z
Si Si1 0.139884 0.565266 0.721413
Si Si2 0.537359 0.433129 0.225942
Si Si3 0.611009 0.932330 0.328593
Si Si4 0.626241 0.014964 0.749677
Si Si5 0.244361 0.423792 0.555151
Si Si6 0.130382 0.266719 0.991682
Si Si7 0.722847 0.840217 0.789377
Si Si8 0.942333 0.272032 0.532418
O O1 0.118260 0.391257 0.684771
O O2 0.097296 0.511777 0.560064
O O3 0.318989 0.843116 0.667744
O O4 0.000000 0.500000 0.000000
O O5 0.500000 0.500000 0.500000
O O6 0.445092 0.185535 0.190922
O O7 0.734088 0.619365 0.019729
O O8 0.461579 0.399833 0.165698
O O9 0.637138 0.967282 0.504186
O O10 0.419946 0.692583 0.423527
O O11 0.713569 0.920576 0.045013
O O12 0.815950 0.248007 0.678709
O O13 0.500000 0.000000 0.000000
O O14 0.226750 0.389838 0.751650
O O15 0.211450 0.238691 0.363139
O O16 0.032324 0.297017 0.235569
O O17 0.000000 0.000000 0.000000
O O18 0.845967 0.051181 0.621847
#
# Coordination Sequence:
#
# PCOD8031858 Si02
#       8
#     2   2   2   2   2   2   2   2
#     4  12  30  51  70 109 167 202 250 325 390 463
#     4  11  22  47  75 112 154 197 256 316 380 459
#     4  12  27  50  79 111 155 210 255 323 383 469
#     4  11  27  49  80 110 148 203 265 311 383 473
#     4  12  27  49  77 115 148 210 263 307 395 470
#     4  12  24  47  80 116 156 197 255 332 390 450
#     4  11  24  51  77 113 153 200 263 324 387 467
#     4  11  27  49  76 116 157 199 257 327 397 451
#
# _framework density 25.145682000000001
#
# number of rings (size 3 to 8) (size 9 to 14) (size 15 to 20)
#    0.000    0.500    5.000    1.500    7.000    2.000 
#    2.250    0.000    0.000    0.000    0.000    0.000 
#    0.000    0.000    0.000    0.000    0.000    0.000 
#
# Total GULP energy -198330.008292 kJ/mol
# GULP energy per Si atom -12395.625518 kJ/mol
# Density = 2.508845 g / cm^3
# Si number density = 25.145682 Si / 1000 Ang^3
#
#
#
# Elastic Constant Matrix: (Units=GPa)
#
#
# Indices 1 2 3 4 5 6 
#
# 1 91.4239 11.0745 48.9243 23.3487 -22.4439 -4.2195
# 2 11.0745 70.2256 36.3567 17.6646 -5.7153 -2.9597
# 3 48.9243 36.3567 170.6284 27.1059 -13.3315 -4.0182
# 4 23.3487 17.6646 27.1059 45.1526 0.2249 -3.5474
# 5 -22.4439 -5.7153 -13.3315 0.2249 43.5900 6.3417
# 6 -4.2195 -2.9597 -4.0182 -3.5474 6.3417 38.5042
#
#
#
# Elastic Compliance Matrix: (Units=1/GPa)
#
#
# Indices 1 2 3 4 5 6 
#
# 1 0.016145 0.001513 -0.003244 -0.007059 0.007607 -0.000356
# 2 0.001513 0.017176 -0.003022 -0.005675 0.002092 0.000303
# 3 -0.003244 -0.003022 0.007743 -0.001790 0.000310 0.000004
# 4 -0.007059 -0.005675 -0.001790 0.029291 -0.005396 0.002191
# 5 0.007607 0.002092 0.000310 -0.005396 0.027845 -0.004056
# 6 -0.000356 0.000303 0.000004 0.002191 -0.004056 0.026826
#
#
# Mechanical properties :
#
#
# Convention : Reuss Voigt Hill
#
# Bulk Modulus (GPa) = 31.68674 58.33210 45.00942
# Shear Modulus (GPa) = 34.47072 41.17754 37.82413
#
# Velocity S-wave (km/s) = 3.70650 4.05107 3.88261
# Velocity P-wave (km/s) = 5.56293 6.71785 6.16748
#
# Compressibility (1/GPa) = 0.03155895
#
# Stress axis : x y z
#
# Youngs Moduli (GPa) = 61.93993 58.22081 129.14150
#
# Poissons Ratio (x) = -0.08810 0.41897
# Poissons Ratio (y) = -0.09373 0.39021
# Poissons Ratio (z) = 0.20095 0.17592
#
# Static dielectric constant tensor:
#      x y z
#    x 4.667790 -0.221020 0.087650 
#    y -0.221020 4.639550 0.038840 
#    z 0.087650 0.038840 4.547910 
# 
# 
# High freq. dielectric constant tensor:
#      x y z
#    x 1.994400 0.000290 -0.008240 
#    y 0.000290 2.019730 0.001820 
#    z -0.008240 0.001820 2.007670 
# 
# From -- ./inp_files/346340.got.cif
#   From: 2010.06.25/outbox.cif.g09.slc.cpg/sg2_174_cif.got.tgz:346340.got - 2010.06.27 13:26:56.
