data_PCOD8031966
_publ_section_title
;
Structure prediction by ZEFSAII (Michael W. Deem and Ramdas Pophale) SiO2 
 PCOD8031966
Probable space group: P -1
;
_chemical_formula_sum "Si O2"
_cell_formula_units_Z 16
_cell_length_a 11.584664
_cell_length_b 9.303984
_cell_length_c 9.693637
_cell_angle_alpha 134.846292
_cell_angle_beta 83.725274
_cell_angle_gamma 91.178769
_cell_volume 733.966407
_symmetry_space_group_name_H-M "P -1"
_symmetry_group_IT_number 2
_symmetry_cell_setting 'triclinic'
loop_
_space_group_symop_operation_xyz
x,y,z
-x,-y,-z
loop_
_atom_site_type_symbol
_atom_site_label
_atom_site_fract_x
_atom_site_fract_y
_atom_site_fract_z
Si Si1 0.510223 0.230483 0.192483
Si Si2 0.224735 0.690939 0.770371
Si Si3 0.791662 0.252656 0.654229
Si Si4 0.046171 0.710288 0.585338
Si Si5 0.591905 0.595901 0.955594
Si Si6 0.626776 0.913221 0.382280
Si Si7 0.156067 0.943377 0.205407
Si Si8 0.321165 0.262344 0.460945
O O1 0.643225 0.256226 0.227481
O O2 0.462213 0.370760 0.166563
O O3 0.438294 0.298283 0.385712
O O4 0.500000 0.000000 0.000000
O O5 0.141017 0.792538 0.733058
O O6 0.222884 0.448435 0.584299
O O7 0.170791 0.761955 0.971373
O O8 0.891105 0.328990 0.595424
O O9 0.708276 0.448517 0.837263
O O10 0.716736 0.086184 0.478864
O O11 0.861222 0.158045 0.713132
O O12 0.000000 0.500000 0.500000
O O13 0.948278 0.894246 0.709988
O O14 0.500000 0.500000 0.000000
O O15 0.624851 0.808399 0.161639
O O16 0.660074 0.748545 0.384905
O O17 0.500000 0.000000 0.500000
O O18 0.275358 0.056052 0.267532
#
# Coordination Sequence:
#
# PCOD8031966 Si02
#       8
#     2   2   2   2   2   2   2   2
#     4  12  25  41  69 106 146 179 227 280 350 428
#     4  12  25  43  72  97 139 185 226 288 354 398
#     4  11  26  45  72 101 138 185 230 286 351 405
#     4  12  27  50  73  98 137 185 245 295 336 401
#     4  12  24  43  67 105 148 179 221 280 347 426
#     4  11  23  39  68 101 144 181 222 270 349 422
#     4  11  24  49  70  98 136 180 235 290 339 410
#     4  11  23  42  67 103 141 178 226 285 346 417
#
# _framework density 21.799363
#
# number of rings (size 3 to 8) (size 9 to 14) (size 15 to 20)
#    0.000    0.500    3.750    4.875    3.500    0.000 
#    2.250    0.625    0.000    0.000    0.000    0.000 
#    0.000    0.000    0.000    0.000    0.000    0.000 
#
# Total GULP energy -198451.604952 kJ/mol
# GULP energy per Si atom -12403.225309 kJ/mol
# Density = 2.174975 g / cm^3
# Si number density = 21.799363 Si / 1000 Ang^3
#
#
#
# Elastic Constant Matrix: (Units=GPa)
#
#
# Indices 1 2 3 4 5 6 
#
# 1 108.0609 63.4335 43.7024 -14.6345 -10.7767 -18.0799
# 2 63.4335 119.0676 36.3051 -7.7877 -6.4675 3.6529
# 3 43.7024 36.3051 120.1946 -0.4579 -7.2024 10.4386
# 4 -14.6345 -7.7877 -0.4579 36.7367 -3.5685 -6.3748
# 5 -10.7767 -6.4675 -7.2024 -3.5685 38.4676 -8.9768
# 6 -18.0799 3.6529 10.4386 -6.3748 -8.9768 35.1078
#
#
#
# Elastic Compliance Matrix: (Units=1/GPa)
#
#
# Indices 1 2 3 4 5 6 
#
# 1 0.023460 -0.009810 -0.006663 0.011478 0.009301 0.019546
# 2 -0.009810 0.013563 -0.000032 -0.002585 -0.002477 -0.007557
# 3 -0.006663 -0.000032 0.011315 -0.004113 -0.002015 -0.008054
# 4 0.011478 -0.002585 -0.004113 0.034848 0.008984 0.016028
# 5 0.009301 -0.002477 -0.002015 0.008984 0.032265 0.015528
# 6 0.019546 -0.007557 -0.008054 0.016028 0.015528 0.048611
#
#
# Mechanical properties :
#
#
# Convention : Reuss Voigt Hill
#
# Bulk Modulus (GPa) = 65.24140 70.46724 67.85432
# Shear Modulus (GPa) = 24.73028 35.65456 30.19242
#
# Velocity S-wave (km/s) = 3.37181 4.04862 3.72561
# Velocity P-wave (km/s) = 6.71952 7.36550 7.04991
#
# Compressibility (1/GPa) = 0.01532769
#
# Stress axis : x y z
#
# Youngs Moduli (GPa) = 42.62603 73.73041 88.37648
#
# Poissons Ratio (x) = 0.72332 0.58886
# Poissons Ratio (y) = 0.41818 0.00280
# Poissons Ratio (z) = 0.28402 0.00234
#
# Static dielectric constant tensor:
#      x y z
#    x 4.061290 -0.016530 0.118710 
#    y -0.016530 4.293440 -0.147390 
#    z 0.118710 -0.147390 4.227080 
# 
# 
# High freq. dielectric constant tensor:
#      x y z
#    x 1.858370 -0.012560 0.000210 
#    y -0.012560 1.867700 0.000730 
#    z 0.000210 0.000730 1.865520 
# 
# From -- ./inp_files/188152.got.cif
#   From: 2010.06.25/outbox.cif.g09.slc.cpg/sg2_95_cif.got.tgz:188152.got - 2010.06.27 13:26:56.
