data_PCOD8031251
_publ_section_title
;
Structure prediction by ZEFSAII (Michael W. Deem and Ramdas Pophale) SiO2 
 PCOD8031251
Probable space group: P -1
;
_chemical_formula_sum "Si O2"
_cell_formula_units_Z 14
_cell_length_a 19.055805
_cell_length_b 16.919583
_cell_length_c 9.421367
_cell_angle_alpha 140.826985
_cell_angle_beta 51.278823
_cell_angle_gamma 158.860078
_cell_volume 625.351116
_symmetry_space_group_name_H-M "P -1"
_symmetry_group_IT_number 2
_symmetry_cell_setting 'triclinic'
loop_
_space_group_symop_operation_xyz
x,y,z
-x,-y,-z
loop_
_atom_site_type_symbol
_atom_site_label
_atom_site_fract_x
_atom_site_fract_y
_atom_site_fract_z
Si Si1 0.190282 0.764166 0.740024
Si Si2 0.339203 0.196177 0.841153
Si Si3 0.149433 0.878476 0.355481
Si Si4 0.393903 0.642562 0.088835
Si Si5 0.069549 0.883433 0.020635
Si Si6 0.283037 0.268100 0.525205
Si Si7 0.727781 0.223477 0.044402
O O1 0.179833 0.666438 0.757621
O O2 0.000000 0.500000 0.500000
O O3 0.167988 0.883711 0.971219
O O4 0.429060 0.039594 0.758539
O O5 0.491004 0.276917 0.813061
O O6 0.179732 0.942756 0.572471
O O7 0.500000 0.500000 0.000000
O O8 0.192018 0.065968 0.972652
O O9 0.900659 0.522132 0.150601
O O10 0.208323 0.078500 0.477591
O O11 0.300068 0.953045 0.222622
O O12 0.187166 0.456587 0.151485
O O13 0.313510 0.443277 0.794425
O O14 0.108111 0.046757 0.309918
O O15 0.500000 0.500000 0.500000
O O16 0.500000 0.000000 0.000000
#
# Coordination Sequence:
#
# PCOD8031251 Si02
#       7
#     2   2   2   2   2   2   2
#     4  11  24  45  68  96 139 179 222 282 337 397
#     4  11  22  43  63  96 141 174 208 275 340 395
#     4  11  24  43  68  95 136 171 217 275 338 392
#     4  11  24  40  71 101 128 175 229 272 336 405
#     4  11  24  41  68  99 131 174 228 272 333 400
#     4  12  20  45  69  96 131 176 216 278 336 399
#     4  11  25  44  69  99 130 177 230 276 334 397
#
# _framework density 22.387422999999998
#
# number of rings (size 3 to 8) (size 9 to 14) (size 15 to 20)
#    0.000    0.857    5.714    2.143    2.000    3.429 
#    5.143    0.000    0.000    0.000    0.000    0.000 
#    0.000    0.000    0.000    0.000    0.000    0.000 
#
# Total GULP energy -173564.003040 kJ/mol
# GULP energy per Si atom -12397.428789 kJ/mol
# Density = 2.233647 g / cm^3
# Si number density = 22.387423 Si / 1000 Ang^3
#
#
#
# Elastic Constant Matrix: (Units=GPa)
#
#
# Indices 1 2 3 4 5 6 
#
# 1 68.2549 55.3214 23.4418 -4.3736 17.1350 -6.5023
# 2 55.3214 160.5521 17.1253 15.6104 6.7999 7.0069
# 3 23.4418 17.1253 94.5954 4.2998 26.7878 -4.7397
# 4 -4.3736 15.6104 4.2998 31.9514 -7.8765 1.9181
# 5 17.1350 6.7999 26.7878 -7.8765 32.4281 2.7102
# 6 -6.5023 7.0069 -4.7397 1.9181 2.7102 39.5560
#
#
#
# Elastic Compliance Matrix: (Units=1/GPa)
#
#
# Indices 1 2 3 4 5 6 
#
# 1 0.026084 -0.009187 -0.002159 0.005725 -0.009184 0.006008
# 2 -0.009187 0.009993 0.000125 -0.005587 0.001558 -0.003101
# 3 -0.002159 0.000125 0.015168 -0.005768 -0.013035 0.002613
# 4 0.005725 -0.005587 -0.005768 0.038745 0.012446 -0.001492
# 5 -0.009184 0.001558 -0.013035 0.012446 0.049769 -0.007361
# 6 0.006008 -0.003101 0.002613 -0.001492 -0.007361 0.027707
#
#
# Mechanical properties :
#
#
# Convention : Reuss Voigt Hill
#
# Bulk Modulus (GPa) = 34.71933 57.24215 45.98074
# Shear Modulus (GPa) = 25.06140 35.95468 30.50804
#
# Velocity S-wave (km/s) = 3.34943 4.01187 3.69552
# Velocity P-wave (km/s) = 5.52271 6.86181 6.22836
#
# Compressibility (1/GPa) = 0.02880240
#
# Stress axis : x y z
#
# Youngs Moduli (GPa) = 38.33814 100.06636 65.92821
#
# Poissons Ratio (x) = 0.91933 0.14233
# Poissons Ratio (y) = 0.35222 -0.00823
# Poissons Ratio (z) = 0.08277 -0.01249
#
# Static dielectric constant tensor:
#      x y z
#    x 3.771120 0.115810 0.086740 
#    y 0.115810 4.052460 0.143700 
#    z 0.086740 0.143700 4.295200 
# 
# 
# High freq. dielectric constant tensor:
#      x y z
#    x 1.863440 -0.006530 0.010850 
#    y -0.006530 1.901340 0.010150 
#    z 0.010850 0.010150 1.890340 
# 
# From -- ./inp_files/348674.got.cif
#   From: 2010.06.25/outbox.cif.g09.slc.cpg/sg2_175_cif.got.tgz:348674.got - 2010.06.27 13:26:56.
