data_PCOD8031492
_publ_section_title
;
Structure prediction by ZEFSAII (Michael W. Deem and Ramdas Pophale) SiO2 
 PCOD8031492
Probable space group: P -1
;
_chemical_formula_sum "Si O2"
_cell_formula_units_Z 16
_cell_length_a 15.259191
_cell_length_b 15.618525
_cell_length_c 5.343460
_cell_angle_alpha 104.429283
_cell_angle_beta 50.975407
_cell_angle_gamma 130.400320
_cell_volume 725.730016
_symmetry_space_group_name_H-M "P -1"
_symmetry_group_IT_number 2
_symmetry_cell_setting 'triclinic'
loop_
_space_group_symop_operation_xyz
x,y,z
-x,-y,-z
loop_
_atom_site_type_symbol
_atom_site_label
_atom_site_fract_x
_atom_site_fract_y
_atom_site_fract_z
Si Si1 0.128808 0.637912 0.882599
Si Si2 0.807029 0.622602 0.674012
Si Si3 0.675545 0.803793 0.657102
Si Si4 0.377165 0.632455 0.362465
Si Si5 0.053593 0.148829 0.612974
Si Si6 0.422883 0.379218 0.679118
Si Si7 0.873469 0.057435 0.372201
Si Si8 0.921086 0.276556 0.462919
O O1 0.292097 0.677290 0.628565
O O2 0.115815 0.688075 0.691260
O O3 0.117699 0.689895 0.190240
O O4 0.000000 0.500000 0.000000
O O5 0.747933 0.496821 0.615834
O O6 0.914574 0.727693 0.356269
O O7 0.902071 0.657483 0.785226
O O8 0.674042 0.625531 0.933792
O O9 0.796659 0.834283 0.665643
O O10 0.686271 0.731431 0.381260
O O11 0.721352 0.922153 0.545361
O O12 0.507218 0.724101 0.002049
O O13 0.449547 0.621898 0.460976
O O14 0.964232 0.076870 0.471682
O O15 0.965870 0.080657 0.973946
O O16 0.500000 0.500000 0.500000
O O17 0.827859 0.137457 0.518060
#
# Coordination Sequence:
#
# PCOD8031492 Si02
#       8
#     2   2   2   2   2   2   2   2
#     4  12  27  46  74 101 138 182 238 296 343 409
#     4  11  22  44  69 107 139 181 224 295 354 422
#     4  12  25  43  65 103 144 188 231 279 350 425
#     4  12  27  42  67 105 144 184 231 283 362 417
#     4  11  23  43  70 104 142 186 231 280 347 416
#     4  12  25  40  69 102 151 183 222 282 361 428
#     4  11  26  44  74  99 142 187 238 284 340 417
#     4  11  25  47  71 103 134 180 242 291 346 398
#
# _framework density 22.046769000000001
#
# number of rings (size 3 to 8) (size 9 to 14) (size 15 to 20)
#    0.000    0.500    3.750    5.250    5.250    0.000 
#    0.000    1.250    0.000    0.000    0.000    0.000 
#    0.000    0.000    0.000    0.000    0.000    0.000 
#
# Total GULP energy -198338.121210 kJ/mol
# GULP energy per Si atom -12396.132576 kJ/mol
# Density = 2.199659 g / cm^3
# Si number density = 22.046769 Si / 1000 Ang^3
#
#
#
# Elastic Constant Matrix: (Units=GPa)
#
#
# Indices 1 2 3 4 5 6 
#
# 1 135.5564 29.1191 32.3714 -0.2564 7.7873 -14.2276
# 2 29.1191 148.4274 38.9058 -19.0579 11.7874 -10.7445
# 3 32.3714 38.9058 84.3423 -3.3231 7.3006 -0.5862
# 4 -0.2564 -19.0579 -3.3231 42.4968 -4.5924 4.1766
# 5 7.7873 11.7874 7.3006 -4.5924 41.3628 6.8663
# 6 -14.2276 -10.7445 -0.5862 4.1766 6.8663 24.7575
#
#
#
# Elastic Compliance Matrix: (Units=1/GPa)
#
#
# Indices 1 2 3 4 5 6 
#
# 1 0.008913 -0.000549 -0.002998 -0.001197 -0.002052 0.005584
# 2 -0.000549 0.008521 -0.003410 0.003014 -0.001941 0.003332
# 3 -0.002998 -0.003410 0.014608 -0.000213 -0.000626 -0.002647
# 4 -0.001197 0.003014 -0.000213 0.025630 0.003004 -0.004542
# 5 -0.002052 -0.001941 -0.000626 0.003004 0.027236 -0.010097
# 6 0.005584 0.003332 -0.002647 -0.004542 -0.010097 0.048550
#
#
# Mechanical properties :
#
#
# Convention : Reuss Voigt Hill
#
# Bulk Modulus (GPa) = 55.16703 63.23542 59.20122
# Shear Modulus (GPa) = 32.59136 39.58541 36.08838
#
# Velocity S-wave (km/s) = 3.84902 4.24195 4.05025
# Velocity P-wave (km/s) = 6.69554 7.26202 6.98452
#
# Compressibility (1/GPa) = 0.01812677
#
# Stress axis : x y z
#
# Youngs Moduli (GPa) = 112.20032 117.35375 68.45774
#
# Poissons Ratio (x) = 0.06445 0.20525
# Poissons Ratio (y) = 0.06162 0.23344
# Poissons Ratio (z) = 0.33639 0.40017
#
# Static dielectric constant tensor:
#      x y z
#    x 4.046350 -0.168160 -0.031490 
#    y -0.168160 4.124030 0.245900 
#    z -0.031490 0.245900 2.917010 
# 
# 
# High freq. dielectric constant tensor:
#      x y z
#    x 1.868220 -0.010140 0.011520 
#    y -0.010140 1.881000 -0.003790 
#    z 0.011520 -0.003790 1.858820 
# 
# From -- ./inp_files/98221.got.cif
#   From: 2010.06.25/outbox.cif.g09.slc.cpg/sg2_50_cif.got.tgz:98221.got - 2010.06.27 13:26:56.
