data_PCOD8031419
_publ_section_title
;
Structure prediction by ZEFSAII (Michael W. Deem and Ramdas Pophale) SiO2 
 PCOD8031419
Probable space group: P -1
;
_chemical_formula_sum "Si O2"
_cell_formula_units_Z 12
_cell_length_a 11.377422
_cell_length_b 5.397261
_cell_length_c 11.934253
_cell_angle_alpha 88.707686
_cell_angle_beta 53.268033
_cell_angle_gamma 62.134024
_cell_volume 483.868286
_symmetry_space_group_name_H-M "P -1"
_symmetry_group_IT_number 2
_symmetry_cell_setting 'triclinic'
loop_
_space_group_symop_operation_xyz
x,y,z
-x,-y,-z
loop_
_atom_site_type_symbol
_atom_site_label
_atom_site_fract_x
_atom_site_fract_y
_atom_site_fract_z
Si Si1 0.223184 0.825335 0.600440
Si Si2 0.713486 0.735705 0.118237
Si Si3 0.117600 0.138256 0.439533
Si Si4 0.494292 0.802915 0.599307
Si Si5 0.012487 0.798189 0.893716
Si Si6 0.466126 0.778403 0.089712
O O1 0.339164 0.768144 0.645902
O O2 0.318413 0.509981 0.484126
O O3 0.036449 0.911191 0.759106
O O4 0.199246 0.065865 0.520747
O O5 0.818630 0.535992 0.169146
O O6 0.625379 0.608714 0.092993
O O7 0.549797 0.052891 0.254665
O O8 0.840480 0.792727 0.972767
O O9 0.000000 0.500000 0.500000
O O10 0.272240 0.977668 0.258427
O O11 0.000000 0.000000 0.500000
O O12 0.500000 0.000000 0.500000
O O13 0.000000 0.000000 0.000000
O O14 0.500000 0.500000 0.000000
O O15 0.500000 0.000000 0.000000
#
# Coordination Sequence:
#
# PCOD8031419 Si02
#       6
#     2   2   2   2   2   2
#     4  11  26  43  78 109 158 199 271 325 415 478
#     4  11  26  45  77 110 160 198 274 322 418 479
#     4  12  31  54  81 117 163 220 281 337 400 487
#     4  11  22  43  74 113 142 201 253 335 404 480
#     4  11  24  44  74 118 152 202 250 341 404 484
#     4  12  31  55  83 114 159 224 278 337 404 489
#
# _framework density 24.800136999999999
#
# number of rings (size 3 to 8) (size 9 to 14) (size 15 to 20)
#    0.000    0.667    3.333    2.000   14.000    1.333 
#    0.000    0.000    0.000    0.000    0.000    0.000 
#    0.000    0.000    0.000    0.000    0.000    0.000 
#
# Total GULP energy -148743.838718 kJ/mol
# GULP energy per Si atom -12395.319893 kJ/mol
# Density = 2.474369 g / cm^3
# Si number density = 24.800137 Si / 1000 Ang^3
#
#
#
# Elastic Constant Matrix: (Units=GPa)
#
#
# Indices 1 2 3 4 5 6 
#
# 1 115.1439 24.4855 56.2982 12.3431 3.5240 19.9014
# 2 24.4855 143.3623 79.3704 3.2426 2.3541 13.7624
# 3 56.2982 79.3704 210.0688 0.0736 -4.9348 11.4143
# 4 12.3431 3.2426 0.0736 47.2016 9.2196 5.1944
# 5 3.5240 2.3541 -4.9348 9.2196 36.5473 -4.4060
# 6 19.9014 13.7624 11.4143 5.1944 -4.4060 37.3842
#
#
#
# Elastic Compliance Matrix: (Units=1/GPa)
#
#
# Indices 1 2 3 4 5 6 
#
# 1 0.011169 0.000222 -0.002838 -0.002070 -0.001562 -0.005057
# 2 0.000222 0.009082 -0.003383 -0.000132 -0.001339 -0.002568
# 3 -0.002838 -0.003383 0.006789 0.000618 0.001343 0.000756
# 4 -0.002070 -0.000132 0.000618 0.023218 -0.005923 -0.002962
# 5 -0.001562 -0.001339 0.001343 -0.005923 0.029909 0.005262
# 6 -0.005057 -0.002568 0.000756 -0.002962 0.005262 0.031188
#
#
# Mechanical properties :
#
#
# Convention : Reuss Voigt Hill
#
# Bulk Modulus (GPa) = 66.48133 87.65369 77.06751
# Shear Modulus (GPa) = 38.95081 44.78802 41.86941
#
# Velocity S-wave (km/s) = 3.96736 4.25427 4.11332
# Velocity P-wave (km/s) = 6.91749 7.71703 7.32817
#
# Compressibility (1/GPa) = 0.01504182
#
# Stress axis : x y z
#
# Youngs Moduli (GPa) = 89.53206 110.11124 147.28967
#
# Poissons Ratio (x) = -0.02441 0.41805
# Poissons Ratio (y) = -0.01985 0.49823
# Poissons Ratio (z) = 0.25412 0.37247
#
# Static dielectric constant tensor:
#      x y z
#    x 14.968810 -0.851930 0.418780 
#    y -0.851930 4.847910 -0.062760 
#    z 0.418780 -0.062760 4.711170 
# 
# 
# High freq. dielectric constant tensor:
#      x y z
#    x 1.987600 0.010700 -0.007760 
#    y 0.010700 1.988480 -0.001680 
#    z -0.007760 -0.001680 2.007490 
# 
# From -- ./inp_files/60271.got.cif
#   From: 2010.06.25/outbox.cif.g09.slc.cpg/sg2_31_cif.got.tgz:60271.got - 2010.06.27 13:26:56.
