data_PCOD8031705
_publ_section_title
;
Structure prediction by ZEFSAII (Michael W. Deem and Ramdas Pophale) SiO2 
 PCOD8031705
Probable space group: P -1
;
_chemical_formula_sum "Si O2"
_cell_formula_units_Z 16
_cell_length_a 8.848014
_cell_length_b 11.038242
_cell_length_c 9.126889
_cell_angle_alpha 123.394350
_cell_angle_beta 97.645662
_cell_angle_gamma 82.493232
_cell_volume 735.830694
_symmetry_space_group_name_H-M "P -1"
_symmetry_group_IT_number 2
_symmetry_cell_setting 'triclinic'
loop_
_space_group_symop_operation_xyz
x,y,z
-x,-y,-z
loop_
_atom_site_type_symbol
_atom_site_label
_atom_site_fract_x
_atom_site_fract_y
_atom_site_fract_z
Si Si1 0.399360 0.391143 0.826112
Si Si2 0.129742 0.550591 0.357808
Si Si3 0.397127 0.874651 0.366869
Si Si4 0.362443 0.832124 0.998387
Si Si5 0.142261 0.019915 0.924744
Si Si6 0.295584 0.296647 0.042487
Si Si7 0.893711 0.118955 0.479751
Si Si8 0.813353 0.427966 0.289620
O O1 0.516686 0.278282 0.686821
O O2 0.299695 0.451571 0.719719
O O3 0.500000 0.500000 0.000000
O O4 0.291666 0.314159 0.877507
O O5 0.253748 0.456408 0.212272
O O6 0.073097 0.709141 0.388071
O O7 0.210098 0.569717 0.537408
O O8 0.986156 0.453700 0.288246
O O9 0.267269 0.898188 0.482899
O O10 0.500000 0.000000 0.500000
O O11 0.345678 0.882581 0.197155
O O12 0.530682 0.762262 0.930042
O O13 0.228722 0.724184 0.882997
O O14 0.307891 0.969402 0.982488
O O15 0.106652 0.921835 0.716857
O O16 0.166854 0.186928 0.996192
O O17 0.000000 0.000000 0.000000
O O18 0.000000 0.000000 0.500000
#
# Coordination Sequence:
#
# PCOD8031705 Si02
#       8
#     2   2   2   2   2   2   2   2
#     4  11  22  45  73 103 141 181 231 293 353 415
#     4  11  27  44  70 104 139 186 240 286 348 420
#     4  11  25  44  71 103 137 178 233 286 355 412
#     4  11  23  47  71 102 146 184 229 294 357 422
#     4  12  26  47  71 100 147 190 232 288 358 420
#     4  11  25  43  73 107 133 186 242 282 358 417
#     4  12  27  46  68 103 139 182 236 291 347 418
#     4  11  24  45  70  97 147 181 233 286 356 406
#
# _framework density 21.744133000000001
#
# number of rings (size 3 to 8) (size 9 to 14) (size 15 to 20)
#    0.000    0.750    3.750    4.125    5.250    3.000 
#    0.000    0.000    0.000    0.000    0.000    0.000 
#    0.000    0.000    0.000    0.000    0.000    0.000 
#
# Total GULP energy -198336.668796 kJ/mol
# GULP energy per Si atom -12396.041800 kJ/mol
# Density = 2.169464 g / cm^3
# Si number density = 21.744133 Si / 1000 Ang^3
#
#
#
# Elastic Constant Matrix: (Units=GPa)
#
#
# Indices 1 2 3 4 5 6 
#
# 1 105.3591 40.1773 54.6373 3.6966 -15.7875 11.6066
# 2 40.1773 130.1042 35.3495 5.1121 -7.1068 -7.6485
# 3 54.6373 35.3495 118.1966 10.1144 -6.8761 -1.1428
# 4 3.6966 5.1121 10.1144 42.4305 0.2714 8.6832
# 5 -15.7875 -7.1068 -6.8761 0.2714 43.9705 5.2376
# 6 11.6066 -7.6485 -1.1428 8.6832 5.2376 47.9951
#
#
#
# Elastic Compliance Matrix: (Units=1/GPa)
#
#
# Indices 1 2 3 4 5 6 
#
# 1 0.014895 -0.003111 -0.005866 0.001469 0.004514 -0.004996
# 2 -0.003111 0.009145 -0.001192 -0.001033 -0.000102 0.002379
# 3 -0.005866 -0.001192 0.011727 -0.002555 -0.000693 0.002046
# 4 0.001469 -0.001033 -0.002555 0.025233 0.000424 -0.005192
# 5 0.004514 -0.000102 -0.000693 0.000424 0.024700 -0.003896
# 6 -0.004996 0.002379 0.002046 -0.005192 -0.003896 0.023836
#
#
# Mechanical properties :
#
#
# Convention : Reuss Voigt Hill
#
# Bulk Modulus (GPa) = 64.81076 68.22089 66.51583
# Shear Modulus (GPa) = 37.03231 41.77894 39.40562
#
# Velocity S-wave (km/s) = 4.13133 4.38812 4.26166
# Velocity P-wave (km/s) = 7.25452 7.55755 7.40759
#
# Compressibility (1/GPa) = 0.01542954
#
# Stress axis : x y z
#
# Youngs Moduli (GPa) = 67.13684 109.34428 85.27463
#
# Poissons Ratio (x) = 0.34013 0.50026
# Poissons Ratio (y) = 0.20884 0.10163
# Poissons Ratio (z) = 0.39385 0.13032
#
# Static dielectric constant tensor:
#      x y z
#    x 3.859610 0.058180 -0.009330 
#    y 0.058180 3.943120 0.154970 
#    z -0.009330 0.154970 3.802390 
# 
# 
# High freq. dielectric constant tensor:
#      x y z
#    x 1.858510 0.001500 -0.003450 
#    y 0.001500 1.874200 0.005560 
#    z -0.003450 0.005560 1.857350 
# 
# From -- ./inp_files/190899.got.cif
#   From: 2010.06.25/outbox.cif.g09.slc.cpg/sg2_96_cif.got.tgz:190899.got - 2010.06.27 13:26:56.
