data_PCOD8031539
_publ_section_title
;
Structure prediction by ZEFSAII (Michael W. Deem and Ramdas Pophale) SiO2 
 PCOD8031539
Probable space group: P -1
;
_chemical_formula_sum "Si O2"
_cell_formula_units_Z 16
_cell_length_a 11.187686
_cell_length_b 12.038029
_cell_length_c 6.550978
_cell_angle_alpha 126.013874
_cell_angle_beta 82.067809
_cell_angle_gamma 105.623131
_cell_volume 687.045369
_symmetry_space_group_name_H-M "P -1"
_symmetry_group_IT_number 2
_symmetry_cell_setting 'triclinic'
loop_
_space_group_symop_operation_xyz
x,y,z
-x,-y,-z
loop_
_atom_site_type_symbol
_atom_site_label
_atom_site_fract_x
_atom_site_fract_y
_atom_site_fract_z
Si Si1 0.052368 0.083669 0.378055
Si Si2 0.756614 0.366424 0.928163
Si Si3 0.947310 0.369580 0.221548
Si Si4 0.351744 0.955955 0.508588
Si Si5 0.835227 0.098100 0.162735
Si Si6 0.368316 0.454944 0.578594
Si Si7 0.214225 0.406294 0.165881
Si Si8 0.288784 0.225213 0.640780
O O1 0.151539 0.221929 0.580422
O O2 0.938676 0.128390 0.347368
O O3 0.000000 0.000000 0.500000
O O4 0.131632 0.007675 0.124937
O O5 0.704111 0.199250 0.734021
O O6 0.778902 0.444237 0.788052
O O7 0.886339 0.406153 0.065093
O O8 0.651456 0.425410 0.132049
O O9 0.840113 0.249132 0.222128
O O10 0.000000 0.500000 0.500000
O O11 0.071564 0.312910 0.088047
O O12 0.299248 0.962065 0.760275
O O13 0.500000 0.000000 0.500000
O O14 0.306225 0.068372 0.498265
O O15 0.500000 0.500000 0.500000
O O16 0.257929 0.434730 0.418102
O O17 0.378799 0.313250 0.544746
O O18 0.301276 0.312877 0.943600
#
# Coordination Sequence:
#
# PCOD8031539 Si02
#       8
#     2   2   2   2   2   2   2   2
#     4  11  22  44  71 105 141 182 242 307 365 435
#     4  11  27  48  71 109 150 193 241 308 372 438
#     4  12  23  43  73 108 144 185 238 306 380 442
#     4  12  29  48  72 105 154 204 247 305 369 441
#     4  11  26  41  70 105 146 190 243 302 371 436
#     4  11  27  47  76 102 143 197 252 303 359 440
#     4  11  25  46  75 108 144 186 245 304 380 445
#     4  11  26  44  73 104 140 189 248 301 370 436
#
# _framework density 23.288125999999998
#
# number of rings (size 3 to 8) (size 9 to 14) (size 15 to 20)
#    0.000    0.750    2.500    3.375   10.500    1.000 
#    0.000    1.875    0.000    0.000    0.000    0.000 
#    0.000    0.000    0.000    0.000    0.000    0.000 
#
# Total GULP energy -198334.214791 kJ/mol
# GULP energy per Si atom -12395.888424 kJ/mol
# Density = 2.323512 g / cm^3
# Si number density = 23.288126 Si / 1000 Ang^3
#
#
#
# Elastic Constant Matrix: (Units=GPa)
#
#
# Indices 1 2 3 4 5 6 
#
# 1 102.0215 29.2594 19.8185 -9.3283 -15.2935 19.1416
# 2 29.2594 155.6342 40.2085 -4.2111 -12.9610 3.4088
# 3 19.8185 40.2085 93.7666 -6.7264 -5.9856 2.8998
# 4 -9.3283 -4.2111 -6.7264 38.6738 8.4886 -4.9224
# 5 -15.2935 -12.9610 -5.9856 8.4886 30.4824 -9.8730
# 6 19.1416 3.4088 2.8998 -4.9224 -9.8730 42.1072
#
#
#
# Elastic Compliance Matrix: (Units=1/GPa)
#
#
# Indices 1 2 3 4 5 6 
#
# 1 0.011917 -0.001457 -0.001463 0.001180 0.003360 -0.004273
# 2 -0.001457 0.007601 -0.002859 -0.000432 0.002297 0.000732
# 3 -0.001463 -0.002859 0.012307 0.001478 0.000138 0.000254
# 4 0.001180 -0.000432 0.001478 0.027969 -0.006738 0.001086
# 5 0.003360 0.002297 0.000138 -0.006738 0.039563 0.006766
# 6 -0.004273 0.000732 0.000254 0.001086 0.006766 0.027328
#
#
# Mechanical properties :
#
#
# Convention : Reuss Voigt Hill
#
# Bulk Modulus (GPa) = 49.33809 58.88833 54.11321
# Shear Modulus (GPa) = 34.48305 39.72841 37.10573
#
# Velocity S-wave (km/s) = 3.85218 4.13480 3.99599
# Velocity P-wave (km/s) = 6.40450 6.93809 6.67663
#
# Compressibility (1/GPa) = 0.02026832
#
# Stress axis : x y z
#
# Youngs Moduli (GPa) = 83.91250 131.55510 81.25641
#
# Poissons Ratio (x) = 0.19171 0.11885
# Poissons Ratio (y) = 0.12228 0.23228
# Poissons Ratio (z) = 0.12273 0.37606
#
# Static dielectric constant tensor:
#      x y z
#    x 4.453050 0.099210 0.038330 
#    y 0.099210 4.550560 -0.399530 
#    z 0.038330 -0.399530 4.591790 
# 
# 
# High freq. dielectric constant tensor:
#      x y z
#    x 1.909980 0.003960 -0.008630 
#    y 0.003960 1.932890 -0.009960 
#    z -0.008630 -0.009960 1.931820 
# 
# From -- ./inp_files/72322.got.cif
#   From: 2010.06.25/outbox.cif.g09.slc.cpg/sg2_37_cif.got.tgz:72322.got - 2010.06.27 13:26:56.
