data_PCOD8031006
_publ_section_title
;
Structure prediction by ZEFSAII (Michael W. Deem and Ramdas Pophale) SiO2 
 PCOD8031006
Probable space group: P -1
;
_chemical_formula_sum "Si O2"
_cell_formula_units_Z 16
_cell_length_a 9.377516
_cell_length_b 15.890584
_cell_length_c 11.397325
_cell_angle_alpha 53.389319
_cell_angle_beta 78.355244
_cell_angle_gamma 121.232133
_cell_volume 778.136237
_symmetry_space_group_name_H-M "P -1"
_symmetry_group_IT_number 2
_symmetry_cell_setting 'triclinic'
loop_
_space_group_symop_operation_xyz
x,y,z
-x,-y,-z
loop_
_atom_site_type_symbol
_atom_site_label
_atom_site_fract_x
_atom_site_fract_y
_atom_site_fract_z
Si Si1 0.127327 0.146339 0.636279
Si Si2 0.487787 0.171495 0.628670
Si Si3 0.336897 0.245459 0.951749
Si Si4 0.889563 0.500030 0.125127
Si Si5 0.532835 0.480998 0.140860
Si Si6 0.210814 0.304029 0.720978
Si Si7 0.289217 0.685525 0.271736
Si Si8 0.188770 0.792173 0.018285
O O1 0.293895 0.149817 0.655021
O O2 0.263707 0.283618 0.392464
O O3 0.087629 0.206706 0.697335
O O4 0.857255 0.950947 0.794726
O O5 0.725407 0.325200 0.377258
O O6 0.559653 0.214072 0.717390
O O7 0.359832 0.985090 0.778766
O O8 0.372950 0.366976 0.924931
O O9 0.189299 0.191664 0.902883
O O10 0.603969 0.351138 0.788492
O O11 0.732688 0.505092 0.095912
O O12 0.000000 0.500000 0.000000
O O13 0.119749 0.676494 0.017767
O O14 0.500000 0.500000 0.000000
O O15 0.500000 0.500000 0.500000
O O16 0.070719 0.320538 0.787549
O O17 0.000000 0.500000 0.500000
O O18 0.335357 0.814088 0.076088
#
# Coordination Sequence:
#
# PCOD8031006 Si02
#       8
#     2   2   2   2   2   2   2   2
#     4  11  22  41  71  98 126 170 215 264 321 384
#     4  11  22  43  68  96 132 170 211 263 322 389
#     4  12  23  43  67  96 132 169 215 264 320 387
#     4  11  25  46  67  91 128 174 219 266 320 383
#     4  11  26  44  68  95 123 170 226 271 315 371
#     4  12  19  38  69  97 126 166 209 255 324 395
#     4  12  25  40  64 103 141 167 203 265 328 388
#     4  12  24  42  64  98 134 167 213 261 325 388
#
# _framework density 20.56195
#
# number of rings (size 3 to 8) (size 9 to 14) (size 15 to 20)
#    0.000    0.500    6.250    3.000    1.750    1.000 
#    2.250    0.000    0.000    0.000    0.000    0.000 
#    0.000    0.000    0.000    0.000    0.000    0.000 
#
# Total GULP energy -198451.316244 kJ/mol
# GULP energy per Si atom -12403.207265 kJ/mol
# Density = 2.051515 g / cm^3
# Si number density = 20.561950 Si / 1000 Ang^3
#
#
#
# Elastic Constant Matrix: (Units=GPa)
#
#
# Indices 1 2 3 4 5 6 
#
# 1 89.8998 55.9291 40.8573 16.5270 5.7157 -4.6668
# 2 55.9291 121.1090 92.5174 -0.0975 0.8713 -21.1656
# 3 40.8573 92.5174 138.0977 -5.4609 7.6877 -1.3598
# 4 16.5270 -0.0975 -5.4609 34.6867 3.9322 0.3206
# 5 5.7157 0.8713 7.6877 3.9322 35.1056 9.7725
# 6 -4.6668 -21.1656 -1.3598 0.3206 9.7725 33.3802
#
#
#
# Elastic Compliance Matrix: (Units=1/GPa)
#
#
# Indices 1 2 3 4 5 6 
#
# 1 0.018129 -0.009344 0.000594 -0.008421 -0.001080 -0.002969
# 2 -0.009344 0.026377 -0.014659 0.002115 -0.000305 0.014890
# 3 0.000594 -0.014659 0.016992 0.002594 -0.001487 -0.008109
# 4 -0.008421 0.002115 0.002594 0.033618 -0.003267 0.000903
# 5 -0.001080 -0.000305 -0.001487 -0.003267 0.032079 -0.009765
# 6 -0.002969 0.014890 -0.008109 0.000903 -0.009765 0.041504
#
#
# Mechanical properties :
#
#
# Convention : Reuss Voigt Hill
#
# Bulk Modulus (GPa) = 68.12075 80.85712 74.48894
# Shear Modulus (GPa) = 22.68500 31.28801 26.98651
#
# Velocity S-wave (km/s) = 3.32513 3.90506 3.62670
# Velocity P-wave (km/s) = 6.92412 7.72928 7.33775
#
# Compressibility (1/GPa) = 0.01467982
#
# Stress axis : x y z
#
# Youngs Moduli (GPa) = 55.15967 37.91226 58.85213
#
# Poissons Ratio (x) = 0.35425 -0.03497
# Poissons Ratio (y) = 0.51541 0.86272
# Poissons Ratio (z) = -0.03277 0.55576
#
# Static dielectric constant tensor:
#      x y z
#    x 4.048940 0.260650 0.318310 
#    y 0.260650 4.140820 0.243900 
#    z 0.318310 0.243900 4.388050 
# 
# 
# High freq. dielectric constant tensor:
#      x y z
#    x 1.804570 -0.006870 0.003870 
#    y -0.006870 1.795850 -0.008980 
#    z 0.003870 -0.008980 1.815990 
# 
# From -- ./inp_files/260990.got.cif
#   From: 2010.06.25/outbox.cif.g09.slc.cpg/sg2_131_cif.got.tgz:260990.got - 2010.06.27 13:26:56.
