data_PCOD8031850
_publ_section_title
;
Structure prediction by ZEFSAII (Michael W. Deem and Ramdas Pophale) SiO2 
 PCOD8031850
Probable space group: P -1
;
_chemical_formula_sum "Si O2"
_cell_formula_units_Z 16
_cell_length_a 16.306518
_cell_length_b 9.074806
_cell_length_c 9.056469
_cell_angle_alpha 115.040246
_cell_angle_beta 33.033837
_cell_angle_gamma 116.119696
_cell_volume 651.930014
_symmetry_space_group_name_H-M "P -1"
_symmetry_group_IT_number 2
_symmetry_cell_setting 'triclinic'
loop_
_space_group_symop_operation_xyz
x,y,z
-x,-y,-z
loop_
_atom_site_type_symbol
_atom_site_label
_atom_site_fract_x
_atom_site_fract_y
_atom_site_fract_z
Si Si1 0.172262 0.253839 0.670103
Si Si2 0.253070 0.109346 0.959006
Si Si3 0.847304 0.013549 0.649650
Si Si4 0.142917 0.413443 0.253562
Si Si5 0.736131 0.317618 0.023706
Si Si6 0.326518 0.507898 0.309710
Si Si7 0.824423 0.253170 0.184998
Si Si8 0.421398 0.310135 0.555147
O O1 0.158443 0.076133 0.535890
O O2 0.275922 0.386780 0.469458
O O3 0.264013 0.247722 0.680237
O O4 0.004575 0.297559 0.973883
O O5 0.394644 0.242504 0.736356
O O6 0.222359 0.944334 0.838573
O O7 0.282663 0.070063 0.070010
O O8 0.110273 0.213023 0.201833
O O9 0.000000 0.000000 0.500000
O O10 0.830389 0.204938 0.735208
O O11 0.223471 0.450245 0.302484
O O12 0.000000 0.500000 0.500000
O O13 0.250162 0.498591 0.992302
O O14 0.804411 0.340815 0.095462
O O15 0.560341 0.223857 0.248862
O O16 0.285560 0.684547 0.499759
O O17 0.500000 0.500000 0.000000
O O18 0.500000 0.500000 0.500000
#
# Coordination Sequence:
#
# PCOD8031850 Si02
#       8
#     2   2   2   2   2   2   2   2
#     4  12  25  46  78 104 155 193 250 307 374 438
#     4  11  25  47  76 106 152 191 248 303 378 435
#     4  11  22  47  73 109 144 192 243 308 367 438
#     4  12  25  43  74 106 139 194 248 303 363 435
#     4  11  24  44  75 103 152 190 247 299 379 435
#     4  12  28  46  71 109 152 191 248 301 374 448
#     4  11  27  49  77 109 142 199 250 306 373 445
#     4  12  27  45  69 107 151 194 243 307 369 439
#
# _framework density 24.542508999999999
#
# number of rings (size 3 to 8) (size 9 to 14) (size 15 to 20)
#    0.000    0.500    5.000    3.375    3.500    5.000 
#    0.000    0.000    0.000    0.000    0.000    0.000 
#    0.000    0.000    0.000    0.000    0.000    0.000 
#
# Total GULP energy -198278.910418 kJ/mol
# GULP energy per Si atom -12392.431901 kJ/mol
# Density = 2.448665 g / cm^3
# Si number density = 24.542509 Si / 1000 Ang^3
#
#
#
# Elastic Constant Matrix: (Units=GPa)
#
#
# Indices 1 2 3 4 5 6 
#
# 1 83.3261 10.7723 20.1650 15.4843 -0.9302 9.3556
# 2 10.7723 110.8308 13.3382 26.4365 12.3706 -2.6897
# 3 20.1650 13.3382 135.3494 24.2559 -5.9063 15.9398
# 4 15.4843 26.4365 24.2559 51.2511 -1.5581 9.8922
# 5 -0.9302 12.3706 -5.9063 -1.5581 36.1482 -0.4051
# 6 9.3556 -2.6897 15.9398 9.8922 -0.4051 35.9088
#
#
#
# Elastic Compliance Matrix: (Units=1/GPa)
#
#
# Indices 1 2 3 4 5 6 
#
# 1 0.013102 -0.000570 -0.001145 -0.002691 0.000204 -0.002204
# 2 -0.000570 0.011089 -0.000439 -0.006001 -0.004109 0.002781
# 3 -0.001145 -0.000439 0.008496 -0.002887 0.001354 -0.002695
# 4 -0.002691 -0.006001 -0.002887 0.025943 0.002568 -0.005585
# 5 0.000204 -0.004109 0.001354 0.002568 0.029392 -0.001338
# 6 -0.002204 0.002781 -0.002695 -0.005585 -0.001338 0.031351
#
#
# Mechanical properties :
#
#
# Convention : Reuss Voigt Hill
#
# Bulk Modulus (GPa) = 35.23887 46.45082 40.84484
# Shear Modulus (GPa) = 37.55450 43.67701 40.61575
#
# Velocity S-wave (km/s) = 3.91600 4.22316 4.07248
# Velocity P-wave (km/s) = 5.90222 6.53819 6.22833
#
# Compressibility (1/GPa) = 0.02837776
#
# Stress axis : x y z
#
# Youngs Moduli (GPa) = 76.32644 90.18254 117.70145
#
# Poissons Ratio (x) = 0.05142 0.13477
# Poissons Ratio (y) = 0.04352 0.05168
# Poissons Ratio (z) = 0.08740 0.03960
#
# Static dielectric constant tensor:
#      x y z
#    x 5.578380 -0.458710 1.219510 
#    y -0.458710 4.774610 -0.320150 
#    z 1.219510 -0.320150 6.973820 
# 
# 
# High freq. dielectric constant tensor:
#      x y z
#    x 1.948500 -0.014430 0.001630 
#    y -0.014430 1.987280 0.010570 
#    z 0.001630 0.010570 2.010380 
# 
# From -- ./inp_files/299067.got.cif
#   From: 2010.06.25/outbox.cif.g09.slc.cpg/sg2_150_cif.got.tgz:299067.got - 2010.06.27 13:26:56.
