data_PCOD8031107
_publ_section_title
;
Structure prediction by ZEFSAII (Michael W. Deem and Ramdas Pophale) SiO2 
 PCOD8031107
Probable space group: P -1
;
_chemical_formula_sum "Si O2"
_cell_formula_units_Z 16
_cell_length_a 9.796711
_cell_length_b 14.387159
_cell_length_c 5.206034
_cell_angle_alpha 77.781979
_cell_angle_beta 90.393206
_cell_angle_gamma 109.335643
_cell_volume 675.111312
_symmetry_space_group_name_H-M "P -1"
_symmetry_group_IT_number 2
_symmetry_cell_setting 'triclinic'
loop_
_space_group_symop_operation_xyz
x,y,z
-x,-y,-z
loop_
_atom_site_type_symbol
_atom_site_label
_atom_site_fract_x
_atom_site_fract_y
_atom_site_fract_z
Si Si1 0.928043 0.298381 0.668403
Si Si2 0.061997 0.411764 0.099799
Si Si3 0.897899 0.116747 0.466130
Si Si4 0.592065 0.869283 0.106293
Si Si5 0.381307 0.678567 0.417285
Si Si6 0.888039 0.926075 0.847096
Si Si7 0.607400 0.066904 0.256918
Si Si8 0.620792 0.449832 0.004250
O O1 0.935915 0.186744 0.678876
O O2 0.765930 0.299229 0.648890
O O3 0.024694 0.372151 0.410805
O O4 0.993523 0.325804 0.936612
O O5 0.233317 0.454789 0.051801
O O6 0.000000 0.500000 0.000000
O O7 0.762545 0.138772 0.319709
O O8 0.037450 0.143686 0.263805
O O9 0.844530 0.997840 0.600676
O O10 0.518233 0.784568 0.369252
O O11 0.638721 0.987650 0.109067
O O12 0.739272 0.853416 0.015971
O O13 0.464059 0.854454 0.904716
O O14 0.378260 0.624148 0.718688
O O15 0.405412 0.610879 0.226256
O O16 0.000000 0.000000 0.000000
O O17 0.500000 0.000000 0.500000
O O18 0.500000 0.500000 0.000000
#
# Coordination Sequence:
#
# PCOD8031107 Si02
#       8
#     2   2   2   2   2   2   2   2
#     4  12  26  44  80 113 139 183 257 307 347 440
#     4  12  24  49  78 106 143 188 236 302 382 432
#     4  11  26  42  71 102 142 195 242 302 355 421
#     4  11  26  40  72 104 141 195 241 295 362 425
#     4  12  26  46  78 109 148 183 252 308 352 449
#     4  11  24  48  65  96 154 196 236 293 361 427
#     4  11  22  42  68 101 144 189 238 292 362 424
#     4  12  28  52  75 107 149 192 233 304 388 444
#
# _framework density 23.699795000000002
#
# number of rings (size 3 to 8) (size 9 to 14) (size 15 to 20)
#    0.000    0.500    5.000    2.250    8.750    1.000 
#    2.250    0.000    0.000    0.000    0.000    0.000 
#    0.000    0.000    0.000    0.000    0.000    0.000 
#
# Total GULP energy -198426.754513 kJ/mol
# GULP energy per Si atom -12401.672157 kJ/mol
# Density = 2.364585 g / cm^3
# Si number density = 23.699795 Si / 1000 Ang^3
#
#
#
# Elastic Constant Matrix: (Units=GPa)
#
#
# Indices 1 2 3 4 5 6 
#
# 1 150.3162 27.8828 10.8415 1.3687 -28.4486 13.2604
# 2 27.8828 83.3471 -1.1457 12.0563 -15.8061 3.6005
# 3 10.8415 -1.1457 67.1626 1.3556 -18.6297 7.4956
# 4 1.3687 12.0563 1.3556 48.6998 6.4877 -13.9739
# 5 -28.4486 -15.8061 -18.6297 6.4877 39.7725 0.6027
# 6 13.2604 3.6005 7.4956 -13.9739 0.6027 37.9665
#
#
#
# Elastic Compliance Matrix: (Units=1/GPa)
#
#
# Indices 1 2 3 4 5 6 
#
# 1 0.008341 -0.001157 0.000827 -0.001883 0.006258 -0.003759
# 2 -0.001157 0.014873 0.003085 -0.005857 0.007542 -0.003891
# 3 0.000827 0.003085 0.018766 -0.004603 0.011452 -0.006162
# 4 -0.001883 -0.005857 -0.004603 0.027070 -0.010432 0.012251
# 5 0.006258 0.007542 0.011452 -0.010432 0.039828 -0.009633
# 6 -0.003759 -0.003891 -0.006162 0.012251 -0.009633 0.033899
#
#
# Mechanical properties :
#
#
# Convention : Reuss Voigt Hill
#
# Bulk Modulus (GPa) = 21.05751 41.77591 31.41671
# Shear Modulus (GPa) = 32.65906 42.83757 37.74832
#
# Velocity S-wave (km/s) = 3.71621 4.25609 3.99528
# Velocity P-wave (km/s) = 5.22667 6.46667 5.87945
#
# Compressibility (1/GPa) = 0.04748899
#
# Stress axis : x y z
#
# Youngs Moduli (GPa) = 119.89328 67.23515 53.28921
#
# Poissons Ratio (x) = 0.07782 -0.04408
# Poissons Ratio (y) = 0.13877 -0.16440
# Poissons Ratio (z) = -0.09917 -0.20742
#
# Static dielectric constant tensor:
#      x y z
#    x 4.697700 -0.398580 -0.064010 
#    y -0.398580 4.574350 0.069970 
#    z -0.064010 0.069970 4.505960 
# 
# 
# High freq. dielectric constant tensor:
#      x y z
#    x 1.952350 -0.000360 -0.010720 
#    y -0.000360 1.930690 0.002040 
#    z -0.010720 0.002040 1.948400 
# 
# From -- ./inp_files/38058.got.cif
#   From: 2010.06.25/outbox.cif.g09.slc.cpg/sg2_20_cif.got.tgz:38058.got - 2010.06.27 13:26:56.
