data_PCOD8031161
_publ_section_title
;
Structure prediction by ZEFSAII (Michael W. Deem and Ramdas Pophale) SiO2 
 PCOD8031161
Probable space group: P -1
;
_chemical_formula_sum "Si O2"
_cell_formula_units_Z 16
_cell_length_a 13.343708
_cell_length_b 9.590959
_cell_length_c 15.136029
_cell_angle_alpha 77.236143
_cell_angle_beta 130.891779
_cell_angle_gamma 61.597734
_cell_volume 771.936510
_symmetry_space_group_name_H-M "P -1"
_symmetry_group_IT_number 2
_symmetry_cell_setting 'triclinic'
loop_
_space_group_symop_operation_xyz
x,y,z
-x,-y,-z
loop_
_atom_site_type_symbol
_atom_site_label
_atom_site_fract_x
_atom_site_fract_y
_atom_site_fract_z
Si Si1 0.018378 0.275635 0.987558
Si Si2 0.397075 0.449372 0.985794
Si Si3 0.129606 0.425463 0.494724
Si Si4 0.777102 0.776517 0.717383
Si Si5 0.417917 0.792941 0.165089
Si Si6 0.564847 0.551777 0.786796
Si Si7 0.124615 0.160901 0.409146
Si Si8 0.661355 0.994822 0.094122
O O1 0.924825 0.494737 0.846311
O O2 0.788631 0.398087 0.876359
O O3 0.203317 0.160148 0.186956
O O4 0.167125 0.039292 0.040359
O O5 0.148000 0.650241 0.757691
O O6 0.500000 0.500000 0.000000
O O7 0.357123 0.492493 0.061269
O O8 0.588792 0.147525 0.119140
O O9 0.378199 0.286496 0.668242
O O10 0.194851 0.224474 0.506553
O O11 0.000000 0.500000 0.500000
O O12 0.945398 0.694713 0.297685
O O13 0.893545 0.769515 0.711260
O O14 0.500000 0.000000 0.500000
O O15 0.498591 0.555628 0.252731
O O16 0.382058 0.861896 0.032765
O O17 0.321742 0.857671 0.577307
O O18 0.500000 0.000000 0.000000
#
# Coordination Sequence:
#
# PCOD8031161 Si02
#       8
#     2   2   2   2   2   2   2   2
#     4  11  25  44  72  97 139 179 230 284 336 410
#     4  12  26  46  69 101 140 183 227 278 348 414
#     4  12  25  43  70 103 135 175 233 282 336 400
#     4  11  22  42  70 104 128 173 231 280 337 395
#     4  12  27  45  67 103 139 184 225 279 345 406
#     4  12  27  46  69 101 142 181 227 280 347 414
#     4  12  25  44  72 102 136 179 228 287 341 404
#     4  12  24  45  69  98 138 180 227 283 335 402
#
# _framework density 20.727094000000001
#
# number of rings (size 3 to 8) (size 9 to 14) (size 15 to 20)
#    0.000    0.250    6.250    2.625    3.500    0.500 
#    0.000    0.625    0.000    0.000    0.000    0.000 
#    0.000    0.000    0.000    0.000    0.000    0.000 
#
# Total GULP energy -198482.666345 kJ/mol
# GULP energy per Si atom -12405.166647 kJ/mol
# Density = 2.067992 g / cm^3
# Si number density = 20.727094 Si / 1000 Ang^3
#
#
#
# Elastic Constant Matrix: (Units=GPa)
#
#
# Indices 1 2 3 4 5 6 
#
# 1 94.9584 46.7797 40.2501 -14.4623 -7.1982 11.8259
# 2 46.7797 147.3195 40.7051 -15.6124 -6.1456 9.1019
# 3 40.2501 40.7051 114.0548 -6.8916 -4.0395 8.8703
# 4 -14.4623 -15.6124 -6.8916 33.2208 2.9065 2.5194
# 5 -7.1982 -6.1456 -4.0395 2.9065 34.9618 -1.9663
# 6 11.8259 9.1019 8.8703 2.5194 -1.9663 36.7936
#
#
#
# Elastic Compliance Matrix: (Units=1/GPa)
#
#
# Indices 1 2 3 4 5 6 
#
# 1 0.014692 -0.002947 -0.003552 0.004394 0.001543 -0.003355
# 2 -0.002947 0.008541 -0.001780 0.002390 0.000441 -0.000877
# 3 -0.003552 -0.001780 0.010733 -0.000094 0.000148 -0.000991
# 4 0.004394 0.002390 -0.000094 0.033601 -0.001725 -0.004374
# 5 0.001543 0.000441 0.000148 -0.001725 0.029217 0.001039
# 6 -0.003355 -0.000877 -0.000991 -0.004374 0.001039 0.029068
#
#
# Mechanical properties :
#
#
# Convention : Reuss Voigt Hill
#
# Bulk Modulus (GPa) = 57.44231 67.97806 62.71018
# Shear Modulus (GPa) = 33.73518 36.23510 34.98514
#
# Velocity S-wave (km/s) = 4.03872 4.18568 4.11286
# Velocity P-wave (km/s) = 7.03719 7.49852 7.27152
#
# Compressibility (1/GPa) = 0.01740877
#
# Stress axis : x y z
#
# Youngs Moduli (GPa) = 68.06339 117.07752 93.16808
#
# Poissons Ratio (x) = 0.34497 0.33095
# Poissons Ratio (y) = 0.20055 0.16586
# Poissons Ratio (z) = 0.24178 0.20843
#
# Static dielectric constant tensor:
#      x y z
#    x 4.307150 -0.230580 -0.160260 
#    y -0.230580 3.812580 -0.013420 
#    z -0.160260 -0.013420 3.958650 
# 
# 
# High freq. dielectric constant tensor:
#      x y z
#    x 1.823960 -0.001200 0.000360 
#    y -0.001200 1.819460 -0.002960 
#    z 0.000360 -0.002960 1.820000 
# 
# From -- ./inp_files/272847.got.cif
#   From: 2010.06.25/outbox.cif.g09.slc.cpg/sg2_137_cif.got.tgz:272847.got - 2010.06.27 13:26:56.
