data_PCOD8031227
_publ_section_title
;
Structure prediction by ZEFSAII (Michael W. Deem and Ramdas Pophale) SiO2 
 PCOD8031227
Probable space group: P -1
;
_chemical_formula_sum "Si O2"
_cell_formula_units_Z 14
_cell_length_a 9.618634
_cell_length_b 14.780901
_cell_length_c 12.836579
_cell_angle_alpha 46.314630
_cell_angle_beta 122.954704
_cell_angle_gamma 151.354200
_cell_volume 622.414077
_symmetry_space_group_name_H-M "P -1"
_symmetry_group_IT_number 2
_symmetry_cell_setting 'triclinic'
loop_
_space_group_symop_operation_xyz
x,y,z
-x,-y,-z
loop_
_atom_site_type_symbol
_atom_site_label
_atom_site_fract_x
_atom_site_fract_y
_atom_site_fract_z
Si Si1 0.665219 0.640343 0.638151
Si Si2 0.039309 0.510606 0.683275
Si Si3 0.523319 0.662343 0.873110
Si Si4 0.276176 0.084457 0.064401
Si Si5 0.956063 0.007450 0.313988
Si Si6 0.997620 0.676687 0.371506
Si Si7 0.554232 0.284804 0.809830
O O1 0.874728 0.832591 0.483738
O O2 0.355574 0.520202 0.617709
O O3 0.600127 0.457783 0.723772
O O4 0.856533 0.773143 0.717169
O O5 0.311726 0.593837 0.757815
O O6 0.890615 0.346736 0.655582
O O7 0.101357 0.687324 0.518504
O O8 0.855821 0.409913 0.795390
O O9 0.477758 0.685310 0.953302
O O10 0.500000 0.500000 0.000000
O O11 0.849337 0.906938 0.774757
O O12 0.422344 0.129993 0.979504
O O13 0.181571 0.914677 0.236204
O O14 0.000000 0.000000 0.000000
O O15 0.653455 0.869967 0.251569
#
# Coordination Sequence:
#
# PCOD8031227 Si02
#       7
#     2   2   2   2   2   2   2
#     4  11  22  42  73 105 143 186 245 288 336 447
#     4  11  27  45  71 102 146 184 225 312 357 395
#     4  12  25  47  71 101 141 189 239 291 358 433
#     4  12  24  42  74 103 137 194 239 278 358 429
#     4  11  23  40  75 103 134 197 241 277 360 419
#     4  11  23  47  69 105 148 182 236 291 353 429
#     4  12  25  45  70 109 143 183 237 301 350 408
#
# _framework density 22.493065999999999
#
# number of rings (size 3 to 8) (size 9 to 14) (size 15 to 20)
#    0.000    0.571    5.714    2.143    2.000    1.714 
#    2.571    0.000    0.000    0.000    0.000    0.000 
#    0.000    0.000    0.000    0.000    0.000    0.000 
#
# Total GULP energy -173503.121177 kJ/mol
# GULP energy per Si atom -12393.080084 kJ/mol
# Density = 2.244187 g / cm^3
# Si number density = 22.493066 Si / 1000 Ang^3
#
#
#
# Elastic Constant Matrix: (Units=GPa)
#
#
# Indices 1 2 3 4 5 6 
#
# 1 97.7697 26.0091 43.4154 -7.4198 -5.8569 1.3742
# 2 26.0091 89.7269 53.8272 6.8869 10.7355 -15.9684
# 3 43.4154 53.8272 129.9789 -6.7228 2.2309 -0.9099
# 4 -7.4198 6.8869 -6.7228 37.1708 3.6967 -10.5552
# 5 -5.8569 10.7355 2.2309 3.6967 41.9167 2.9945
# 6 1.3742 -15.9684 -0.9099 -10.5552 2.9945 25.9310
#
#
#
# Elastic Compliance Matrix: (Units=1/GPa)
#
#
# Indices 1 2 3 4 5 6 
#
# 1 0.012602 -0.002571 -0.003121 0.001600 0.002588 -0.002008
# 2 -0.002571 0.018808 -0.006827 -0.001407 -0.005513 0.011543
# 3 -0.003121 -0.006827 0.011624 0.001826 0.000745 -0.002974
# 4 0.001600 -0.001407 0.001826 0.031640 -0.003187 0.012360
# 5 0.002588 -0.005513 0.000745 -0.003187 0.026433 -0.007856
# 6 -0.002008 0.011543 -0.002974 0.012360 -0.007856 0.051612
#
#
# Mechanical properties :
#
#
# Convention : Reuss Voigt Hill
#
# Bulk Modulus (GPa) = 55.56549 62.66432 59.11490
# Shear Modulus (GPa) = 27.21010 33.95194 30.58102
#
# Velocity S-wave (km/s) = 3.48186 3.88937 3.69124
# Velocity P-wave (km/s) = 6.39699 6.93465 6.67124
#
# Compressibility (1/GPa) = 0.01799678
#
# Stress axis : x y z
#
# Youngs Moduli (GPa) = 79.35010 53.16993 86.02882
#
# Poissons Ratio (x) = 0.13669 0.26845
# Poissons Ratio (y) = 0.20400 0.58734
# Poissons Ratio (z) = 0.24761 0.36301
#
# Static dielectric constant tensor:
#      x y z
#    x 1.372100 0.930440 0.891500 
#    y 0.930440 3.583370 -0.384910 
#    z 0.891500 -0.384910 3.976720 
# 
# 
# High freq. dielectric constant tensor:
#      x y z
#    x 1.881050 -0.009840 -0.018950 
#    y -0.009840 1.875500 0.000940 
#    z -0.018950 0.000940 1.905180 
# 
# From -- ./inp_files/189642.got.cif
#   From: 2010.06.25/outbox.cif.g09.slc.cpg/sg2_95_cif.got.tgz:189642.got - 2010.06.27 13:26:56.
