data_PCOD8031641
_publ_section_title
;
Structure prediction by ZEFSAII (Michael W. Deem and Ramdas Pophale) SiO2 
 PCOD8031641
Probable space group: P -1
;
_chemical_formula_sum "Si O2"
_cell_formula_units_Z 14
_cell_length_a 16.194225
_cell_length_b 12.192425
_cell_length_c 5.244509
_cell_angle_alpha 58.812270
_cell_angle_beta 91.886232
_cell_angle_gamma 130.143204
_cell_volume 601.215755
_symmetry_space_group_name_H-M "P -1"
_symmetry_group_IT_number 2
_symmetry_cell_setting 'triclinic'
loop_
_space_group_symop_operation_xyz
x,y,z
-x,-y,-z
loop_
_atom_site_type_symbol
_atom_site_label
_atom_site_fract_x
_atom_site_fract_y
_atom_site_fract_z
Si Si1 0.522180 0.914460 0.907632
Si Si2 0.208166 0.327311 0.913972
Si Si3 0.869171 0.614804 0.661710
Si Si4 0.483067 0.604920 0.541194
Si Si5 0.145165 0.972851 0.250833
Si Si6 0.282581 0.044025 0.677292
Si Si7 0.692559 0.196999 0.200272
O O1 0.410823 0.810769 0.824654
O O2 0.656747 0.083185 0.595391
O O3 0.511352 0.758614 0.184871
O O4 0.500000 0.000000 0.000000
O O5 0.196112 0.407165 0.573843
O O6 0.349741 0.458717 0.824988
O O7 0.153268 0.322475 0.171158
O O8 0.135341 0.114769 0.104991
O O9 0.011671 0.764113 0.444553
O O10 0.821004 0.416472 0.955800
O O11 0.500000 0.500000 0.500000
O O12 0.587643 0.733220 0.617341
O O13 0.198571 0.972490 0.512696
O O14 0.223929 0.031453 0.942017
O O15 0.304015 0.914473 0.874910
#
# Coordination Sequence:
#
# PCOD8031641 Si02
#       7
#     2   2   2   2   2   2   2
#     4  11  22  45  68 103 149 190 236 300 362 436
#     4  12  26  46  75 108 141 190 246 302 366 431
#     4  12  27  48  75 106 139 200 248 294 352 446
#     4  12  25  45  76 111 149 185 243 304 378 433
#     4  12  27  49  72 103 153 190 242 300 363 429
#     4  12  27  46  71 109 147 193 232 307 369 432
#     4  11  26  41  73 102 146 190 249 290 366 436
#
# _framework density 23.286149000000002
#
# number of rings (size 3 to 8) (size 9 to 14) (size 15 to 20)
#    0.000    0.286    4.286    4.286    2.000    2.857 
#    0.000    0.000    0.000    0.000    0.000    0.000 
#    0.000    0.000    0.000    0.000    0.000    0.000 
#
# Total GULP energy -173602.579984 kJ/mol
# GULP energy per Si atom -12400.184285 kJ/mol
# Density = 2.323315 g / cm^3
# Si number density = 23.286149 Si / 1000 Ang^3
#
#
#
# Elastic Constant Matrix: (Units=GPa)
#
#
# Indices 1 2 3 4 5 6 
#
# 1 78.9395 36.1315 10.3888 -2.3985 3.7740 -9.4534
# 2 36.1315 107.3103 28.8642 -17.9116 -9.7547 -7.1391
# 3 10.3888 28.8642 77.0301 -9.5521 -0.2299 -0.0952
# 4 -2.3985 -17.9116 -9.5521 62.7088 -1.3232 -2.7125
# 5 3.7740 -9.7547 -0.2299 -1.3232 37.5199 -8.4755
# 6 -9.4534 -7.1391 -0.0952 -2.7125 -8.4755 48.7128
#
#
#
# Elastic Compliance Matrix: (Units=1/GPa)
#
#
# Indices 1 2 3 4 5 6 
#
# 1 0.015487 -0.005458 -0.000170 -0.000975 -0.002630 0.001694
# 2 -0.005458 0.013242 -0.003818 0.003166 0.004494 0.001832
# 3 -0.000170 -0.003818 0.014564 0.001071 -0.001002 -0.000679
# 4 -0.000975 0.003166 0.001071 0.017084 0.001882 0.001556
# 5 -0.002630 0.004494 -0.001002 0.001882 0.029356 0.005359
# 6 0.001694 0.001832 -0.000679 0.001556 0.005359 0.022143
#
#
# Mechanical properties :
#
#
# Convention : Reuss Voigt Hill
#
# Bulk Modulus (GPa) = 40.97947 46.00544 43.49246
# Shear Modulus (GPa) = 35.99631 42.31466 39.15549
#
# Velocity S-wave (km/s) = 3.93596 4.26744 4.10505
# Velocity P-wave (km/s) = 6.18807 6.63934 6.41767
#
# Compressibility (1/GPa) = 0.02440246
#
# Stress axis : x y z
#
# Youngs Moduli (GPa) = 64.56864 75.51610 68.66053
#
# Poissons Ratio (x) = 0.41216 0.01169
# Poissons Ratio (y) = 0.35241 0.26212
# Poissons Ratio (z) = 0.01099 0.28829
#
# Static dielectric constant tensor:
#      x y z
#    x 5.069270 0.104950 0.286670 
#    y 0.104950 4.523170 -0.186430 
#    z 0.286670 -0.186430 4.413880 
# 
# 
# High freq. dielectric constant tensor:
#      x y z
#    x 1.928320 -0.005970 0.000500 
#    y -0.005970 1.929400 -0.004270 
#    z 0.000500 -0.004270 1.928900 
# 
# From -- ./inp_files/68274.got.cif
#   From: 2010.06.25/outbox.cif.g09.slc.cpg/sg2_35_cif.got.tgz:68274.got - 2010.06.27 13:26:56.
