data_PCOD8031894
_publ_section_title
;
Structure prediction by ZEFSAII (Michael W. Deem and Ramdas Pophale) SiO2 
 PCOD8031894
Probable space group: P -1
;
_chemical_formula_sum "Si O2"
_cell_formula_units_Z 16
_cell_length_a 15.078659
_cell_length_b 15.722873
_cell_length_c 11.475110
_cell_angle_alpha 144.633477
_cell_angle_beta 41.781910
_cell_angle_gamma 152.908834
_cell_volume 715.103304
_symmetry_space_group_name_H-M "P -1"
_symmetry_group_IT_number 2
_symmetry_cell_setting 'triclinic'
loop_
_space_group_symop_operation_xyz
x,y,z
-x,-y,-z
loop_
_atom_site_type_symbol
_atom_site_label
_atom_site_fract_x
_atom_site_fract_y
_atom_site_fract_z
Si Si1 0.448554 0.522205 0.450937
Si Si2 0.428325 0.132158 0.638964
Si Si3 0.028267 0.266112 0.052002
Si Si4 0.871827 0.523314 0.593704
Si Si5 0.056868 0.330761 0.577123
Si Si6 0.228730 0.147382 0.657838
Si Si7 0.237605 0.702597 0.227850
Si Si8 0.603590 0.823316 0.007190
O O1 0.500000 0.500000 0.500000
O O2 0.271873 0.498414 0.609704
O O3 0.629220 0.760912 0.489430
O O4 0.396434 0.349484 0.217910
O O5 0.649046 0.290979 0.557378
O O6 0.333747 0.186941 0.718609
O O7 0.414555 0.168816 0.827700
O O8 0.321725 0.890448 0.448511
O O9 0.087063 0.300301 0.168810
O O10 0.082265 0.472270 0.186449
O O11 0.165810 0.265683 0.847884
O O12 0.798666 0.052776 0.019944
O O13 0.932441 0.625934 0.521996
O O14 0.000000 0.500000 0.500000
O O15 0.894904 0.321134 0.768533
O O16 0.970356 0.103037 0.440214
O O17 0.417349 0.756326 0.056083
#
# Coordination Sequence:
#
# PCOD8031894 Si02
#       8
#     2   2   2   2   2   2   2   2
#     4  12  27  48  72  97 130 181 238 289 333 387
#     4  11  23  37  66  99 143 175 213 273 340 414
#     4  12  23  36  65 100 142 177 216 265 340 411
#     4  12  21  36  62 101 141 180 213 261 342 414
#     4  11  24  43  66 101 137 178 224 280 336 402
#     4  11  24  43  66 100 136 175 223 281 341 404
#     4  11  23  40  64 102 139 178 214 267 339 416
#     4  12  24  42  66  98 138 178 224 273 335 406
#
# _framework density 22.374389999999998
#
# number of rings (size 3 to 8) (size 9 to 14) (size 15 to 20)
#    0.000    0.500    6.250    2.625    1.750    2.500 
#    0.000    0.625    0.000    3.750    0.000    0.000 
#    0.000    0.000    0.000    0.000    0.000    0.000 
#
# Total GULP energy -198277.583748 kJ/mol
# GULP energy per Si atom -12392.348984 kJ/mol
# Density = 2.232347 g / cm^3
# Si number density = 22.374390 Si / 1000 Ang^3
#
#
#
# Elastic Constant Matrix: (Units=GPa)
#
#
# Indices 1 2 3 4 5 6 
#
# 1 92.4145 42.0688 18.0871 -16.9440 -20.5540 1.3195
# 2 42.0688 157.7620 25.5210 -7.8357 -8.6931 7.2819
# 3 18.0871 25.5210 40.9662 -1.3597 -20.3695 -1.7003
# 4 -16.9440 -7.8357 -1.3597 29.0014 6.4523 -18.0607
# 5 -20.5540 -8.6931 -20.3695 6.4523 28.7423 -7.9778
# 6 1.3195 7.2819 -1.7003 -18.0607 -7.9778 30.6164
#
#
#
# Elastic Compliance Matrix: (Units=1/GPa)
#
#
# Indices 1 2 3 4 5 6 
#
# 1 0.017544 -0.004205 0.002378 0.013697 0.013185 0.011892
# 2 -0.004205 0.008320 -0.006656 -0.002375 -0.006107 -0.005160
# 3 0.002378 -0.006656 0.046086 0.003332 0.035861 0.015350
# 4 0.013697 -0.002375 0.003332 0.065775 0.008070 0.041063
# 5 0.013185 -0.006107 0.035861 0.008070 0.073405 0.026764
# 6 0.011892 -0.005160 0.015350 0.041063 0.026764 0.065427
#
#
# Mechanical properties :
#
#
# Convention : Reuss Voigt Hill
#
# Bulk Modulus (GPa) = 18.18738 51.38851 34.78795
# Shear Modulus (GPa) = 16.03332 31.36975 23.70153
#
# Velocity S-wave (km/s) = 2.67983 3.74844 3.25824
# Velocity P-wave (km/s) = 4.20970 6.46157 5.45314
#
# Compressibility (1/GPa) = 0.05498317
#
# Stress axis : x y z
#
# Youngs Moduli (GPa) = 57.00075 120.18623 21.69867
#
# Poissons Ratio (x) = 0.50537 -0.05160
# Poissons Ratio (y) = 0.23968 0.14443
# Poissons Ratio (z) = -0.13554 0.80000
#
# Static dielectric constant tensor:
#      x y z
#    x 4.119180 0.328190 -0.449630 
#    y 0.328190 4.370270 -0.135140 
#    z -0.449630 -0.135140 4.207840 
# 
# 
# High freq. dielectric constant tensor:
#      x y z
#    x 1.860620 0.013940 -0.040880 
#    y 0.013940 1.909470 -0.008240 
#    z -0.040880 -0.008240 1.859090 
# 
# From -- ./inp_files/455060.got.cif
#   From: 2010.06.25/outbox.cif.g09.slc.cpg/sg2_228_cif.got.tgz:455060.got - 2010.06.27 13:26:56.
