data_PCOD8031233
_publ_section_title
;
Structure prediction by ZEFSAII (Michael W. Deem and Ramdas Pophale) SiO2 
 PCOD8031233
Probable space group: P -1
;
_chemical_formula_sum "Si O2"
_cell_formula_units_Z 16
_cell_length_a 12.096647
_cell_length_b 14.126342
_cell_length_c 8.790197
_cell_angle_alpha 69.985552
_cell_angle_beta 47.895875
_cell_angle_gamma 43.598621
_cell_volume 737.759116
_symmetry_space_group_name_H-M "P -1"
_symmetry_group_IT_number 2
_symmetry_cell_setting 'triclinic'
loop_
_space_group_symop_operation_xyz
x,y,z
-x,-y,-z
loop_
_atom_site_type_symbol
_atom_site_label
_atom_site_fract_x
_atom_site_fract_y
_atom_site_fract_z
Si Si1 0.937262 0.143503 0.321750
Si Si2 0.501698 0.964872 0.690286
Si Si3 0.324258 0.848135 0.002295
Si Si4 0.912932 0.797111 0.595380
Si Si5 0.207647 0.255460 0.972606
Si Si6 0.816360 0.394480 0.106285
Si Si7 0.266976 0.651183 0.108844
Si Si8 0.512157 0.281209 0.753769
O O1 0.842028 0.288853 0.253678
O O2 0.738009 0.169392 0.526984
O O3 0.063715 0.111632 0.377645
O O4 0.091179 0.005476 0.151246
O O5 0.721576 0.894180 0.600349
O O6 0.500000 0.000000 0.500000
O O7 0.315044 0.102030 0.890444
O O8 0.467450 0.860397 0.772977
O O9 0.283353 0.763106 0.999621
O O10 0.459435 0.761117 0.074934
O O11 0.132012 0.682691 0.363429
O O12 0.870356 0.725893 0.791891
O O13 0.369319 0.268928 0.805905
O O14 0.009071 0.378033 0.979396
O O15 0.594253 0.557359 0.247603
O O16 0.842808 0.346739 0.935498
O O17 0.500000 0.500000 0.000000
#
# Coordination Sequence:
#
# PCOD8031233 Si02
#       8
#     2   2   2   2   2   2   2   2
#     4  11  24  42  71 107 136 183 242 294 345 412
#     4  12  25  45  69 108 144 183 229 298 351 417
#     4  12  24  44  73 103 138 184 240 283 355 415
#     4  11  22  42  73  99 142 186 226 292 350 407
#     4  11  24  44  71 104 141 178 244 283 344 422
#     4  11  24  46  65 103 147 182 232 294 346 416
#     4  12  26  46  70 102 147 187 230 293 352 419
#     4  12  23  43  74 104 138 189 239 286 350 418
#
# _framework density 21.687296
#
# number of rings (size 3 to 8) (size 9 to 14) (size 15 to 20)
#    0.000    0.500    6.250    3.000    1.750    2.500 
#    0.000    3.750    0.000    0.000    0.000    0.000 
#    0.000    0.000    0.000    0.000    0.000    0.000 
#
# Total GULP energy -198406.623230 kJ/mol
# GULP energy per Si atom -12400.413952 kJ/mol
# Density = 2.163793 g / cm^3
# Si number density = 21.687296 Si / 1000 Ang^3
#
#
#
# Elastic Constant Matrix: (Units=GPa)
#
#
# Indices 1 2 3 4 5 6 
#
# 1 129.3193 36.7094 52.7192 -10.3915 -12.4402 -9.3918
# 2 36.7094 119.3390 43.2785 -2.7517 -4.4715 -3.5691
# 3 52.7192 43.2785 115.9673 -2.5134 -13.2830 -8.4799
# 4 -10.3915 -2.7517 -2.5134 31.9030 -2.1440 1.0901
# 5 -12.4402 -4.4715 -13.2830 -2.1440 36.5940 -3.7977
# 6 -9.3918 -3.5691 -8.4799 1.0901 -3.7977 38.7681
#
#
#
# Elastic Compliance Matrix: (Units=1/GPa)
#
#
# Indices 1 2 3 4 5 6 
#
# 1 0.010253 -0.001644 -0.003591 0.003014 0.002333 0.001691
# 2 -0.001644 0.009965 -0.003037 0.000060 -0.000460 -0.000192
# 3 -0.003591 -0.003037 0.011836 -0.000366 0.002862 0.001730
# 4 0.003014 0.000060 -0.000366 0.032491 0.002804 0.000017
# 5 0.002333 -0.000460 0.002862 0.002804 0.029680 0.003977
# 6 0.001691 -0.000192 0.001730 0.000017 0.003977 0.026954
#
#
# Mechanical properties :
#
#
# Convention : Reuss Voigt Hill
#
# Bulk Modulus (GPa) = 64.47885 70.00441 67.24163
# Shear Modulus (GPa) = 34.99142 36.91427 35.95284
#
# Velocity S-wave (km/s) = 4.02114 4.13015 4.07601
# Velocity P-wave (km/s) = 7.16625 7.42248 7.29549
#
# Compressibility (1/GPa) = 0.01550896
#
# Stress axis : x y z
#
# Youngs Moduli (GPa) = 97.53292 100.35167 84.49146
#
# Poissons Ratio (x) = 0.16498 0.30344
# Poissons Ratio (y) = 0.16034 0.25659
# Poissons Ratio (z) = 0.35027 0.30476
#
# Static dielectric constant tensor:
#      x y z
#    x 4.332480 -0.059360 -0.141870 
#    y -0.059360 3.943630 0.043300 
#    z -0.141870 0.043300 3.895560 
# 
# 
# High freq. dielectric constant tensor:
#      x y z
#    x 1.865060 -0.008830 -0.016210 
#    y -0.008830 1.851450 0.002550 
#    z -0.016210 0.002550 1.848830 
# 
# From -- ./inp_files/272366.got.cif
#   From: 2010.06.25/outbox.cif.g09.slc.cpg/sg2_137_cif.got.tgz:272366.got - 2010.06.27 13:26:56.
