data_PCOD8031916
_publ_section_title
;
Structure prediction by ZEFSAII (Michael W. Deem and Ramdas Pophale) SiO2 
 PCOD8031916
Probable space group: P -1
;
_chemical_formula_sum "Si O2"
_cell_formula_units_Z 16
_cell_length_a 12.424038
_cell_length_b 9.483322
_cell_length_c 9.483274
_cell_angle_alpha 46.591496
_cell_angle_beta 84.116188
_cell_angle_gamma 97.830427
_cell_volume 773.703373
_symmetry_space_group_name_H-M "P -1"
_symmetry_group_IT_number 2
_symmetry_cell_setting 'triclinic'
loop_
_space_group_symop_operation_xyz
x,y,z
-x,-y,-z
loop_
_atom_site_type_symbol
_atom_site_label
_atom_site_fract_x
_atom_site_fract_y
_atom_site_fract_z
Si Si1 0.258551 0.259860 0.407861
Si Si2 0.284496 0.602189 0.718638
Si Si3 0.851688 0.848571 0.996898
Si Si4 0.741448 0.333575 0.998716
Si Si5 0.284504 0.003158 0.317680
Si Si6 0.892706 0.048763 0.156071
Si Si7 0.490595 0.863922 0.958027
Si Si8 0.490598 0.448636 0.373317
O O1 0.231191 0.472170 0.240956
O O2 0.369525 0.289903 0.468545
O O3 0.279033 0.169511 0.318177
O O4 0.153402 0.110592 0.603746
O O5 0.213315 0.387054 0.815502
O O6 0.234692 0.777314 0.542600
O O7 0.413671 0.652157 0.617078
O O8 0.279029 0.597205 0.890469
O O9 0.859055 0.943289 0.084206
O O10 0.973294 0.870743 0.897436
O O11 0.786658 0.971124 0.826311
O O12 0.630476 0.161917 0.079647
O O13 0.846595 0.242828 0.042856
O O14 0.413678 0.030749 0.238496
O O15 0.506650 0.648087 0.141427
O O16 0.500000 0.000000 0.000000
O O17 0.500000 0.500000 0.500000
#
# Coordination Sequence:
#
# PCOD8031916 Si02
#       8
#     2   2   2   2   2   2   2   2
#     4  11  24  43  66 101 133 172 222 276 328 394
#     4  12  24  42  68 100 132 177 219 274 334 389
#     4  11  26  48  67  96 137 171 227 278 326 400
#     4  11  24  43  66 101 133 172 222 276 328 394
#     4  12  24  42  68 100 132 177 219 274 334 389
#     4  11  26  46  71  94 131 183 217 276 338 392
#     4  11  23  38  64  99 140 175 213 270 330 401
#     4  11  23  38  64  99 140 175 213 270 330 401
#
# _framework density 20.679762
#
# number of rings (size 3 to 8) (size 9 to 14) (size 15 to 20)
#    0.000    0.750    3.750    3.000    3.500    8.000 
#    0.000    2.500    0.000    0.000    0.000    0.000 
#    0.000    0.000    0.000    0.000    0.000    0.000 
#
# Total GULP energy -198520.896888 kJ/mol
# GULP energy per Si atom -12407.556055 kJ/mol
# Density = 2.063269 g / cm^3
# Si number density = 20.679762 Si / 1000 Ang^3
#
#
#
# Elastic Constant Matrix: (Units=GPa)
#
#
# Indices 1 2 3 4 5 6 
#
# 1 80.4164 5.2232 33.9898 -13.0887 -9.5791 -20.8887
# 2 5.2232 56.3077 10.1604 -0.3055 -1.2242 -18.1057
# 3 33.9898 10.1604 103.9099 -14.0554 -0.7596 -8.5480
# 4 -13.0887 -0.3055 -14.0554 39.5431 -9.8374 -2.7751
# 5 -9.5791 -1.2242 -0.7596 -9.8374 28.7595 5.5189
# 6 -20.8887 -18.1057 -8.5480 -2.7751 5.5189 28.2135
#
#
#
# Elastic Compliance Matrix: (Units=1/GPa)
#
#
# Indices 1 2 3 4 5 6 
#
# 1 0.020269 0.004227 -0.004639 0.007806 0.006443 0.015821
# 2 0.004227 0.023468 -0.001931 0.002056 -0.000372 0.017880
# 3 -0.004639 -0.001931 0.011585 0.002426 -0.000326 -0.000862
# 4 0.007806 0.002056 0.002426 0.032385 0.012171 0.008638
# 5 0.006443 -0.000372 -0.000326 0.012171 0.041535 -0.002495
# 6 0.015821 0.017880 -0.000862 0.008638 -0.002495 0.059709
#
#
# Mechanical properties :
#
#
# Convention : Reuss Voigt Hill
#
# Bulk Modulus (GPa) = 19.74905 37.70896 28.72900
# Shear Modulus (GPa) = 23.75119 32.05392 27.90256
#
# Velocity S-wave (km/s) = 3.39266 3.94129 3.67722
# Velocity P-wave (km/s) = 4.99175 6.24388 5.65259
#
# Compressibility (1/GPa) = 0.05063536
#
# Stress axis : x y z
#
# Youngs Moduli (GPa) = 49.33604 42.61086 86.31951
#
# Poissons Ratio (x) = -0.18010 0.40044
# Poissons Ratio (y) = -0.20853 0.16669
# Poissons Ratio (z) = 0.22887 0.08228
#
# Static dielectric constant tensor:
#      x y z
#    x 3.677270 0.041290 0.011750 
#    y 0.041290 3.736680 0.030710 
#    z 0.011750 0.030710 3.659440 
# 
# 
# High freq. dielectric constant tensor:
#      x y z
#    x 1.805290 -0.004190 0.003670 
#    y -0.004190 1.822100 0.000170 
#    z 0.003670 0.000170 1.823320 
# 
# From -- ./inp_files/187242.got.cif
#   From: 2010.06.25/outbox.cif.g09.slc.cpg/sg2_94_cif.got.tgz:187242.got - 2010.06.27 13:26:56.
