data_PCOD8031881
_publ_section_title
;
Structure prediction by ZEFSAII (Michael W. Deem and Ramdas Pophale) SiO2 
 PCOD8031881
Probable space group: P -1
;
_chemical_formula_sum "Si O2"
_cell_formula_units_Z 16
_cell_length_a 11.858107
_cell_length_b 30.940088
_cell_length_c 6.932547
_cell_angle_alpha 121.278945
_cell_angle_beta 133.487494
_cell_angle_gamma 25.862275
_cell_volume 763.669379
_symmetry_space_group_name_H-M "P -1"
_symmetry_group_IT_number 2
_symmetry_cell_setting 'triclinic'
loop_
_space_group_symop_operation_xyz
x,y,z
-x,-y,-z
loop_
_atom_site_type_symbol
_atom_site_label
_atom_site_fract_x
_atom_site_fract_y
_atom_site_fract_z
Si Si1 0.112339 0.775500 0.973782
Si Si2 0.154080 0.577166 0.719586
Si Si3 0.112319 0.275501 0.973766
Si Si4 0.313461 0.752179 0.743918
Si Si5 0.510998 0.881982 0.625075
Si Si6 0.686561 0.747818 0.256087
Si Si7 0.845919 0.922835 0.280415
Si Si8 0.489027 0.618013 0.374934
O O1 0.218378 0.751074 0.823862
O O2 0.778584 0.840595 0.741869
O O3 0.381318 0.666588 0.149120
O O4 0.077586 0.841054 0.185512
O O5 0.184262 0.507963 0.561972
O O6 0.014599 0.643208 0.516260
O O7 0.500000 0.500000 0.000000
O O8 0.922411 0.658950 0.814491
O O9 0.218336 0.251077 0.823819
O O10 0.778555 0.340603 0.741866
O O11 0.381292 0.166590 0.149099
O O12 0.547523 0.648946 0.656369
O O13 0.985412 0.856785 0.483728
O O14 0.500001 0.750003 0.999982
O O15 0.452503 0.851047 0.343645
O O16 0.184279 0.007959 0.561966
O O17 0.500000 0.000000 0.000000
#
# Coordination Sequence:
#
# PCOD8031881 Si02
#       8
#     2   2   2   2   2   2   2   2
#     4   9  19  37  58  80 109 143 183 226 266 319
#     4   9  20  37  57  82 107 141 187 225 265 320
#     4   9  19  37  58  80 109 143 183 226 266 319
#     4  11  23  36  54  84 116 143 176 223 276 324
#     4   9  19  36  58  81 106 143 185 224 268 318
#     4  11  23  36  54  84 116 143 176 223 276 324
#     4   9  20  37  57  82 107 141 187 225 265 320
#     4   9  19  36  58  81 106 143 185 224 268 318
#
# _framework density 20.951474999999999
#
# number of rings (size 3 to 8) (size 9 to 14) (size 15 to 20)
#    0.000    2.500    0.000    2.250    0.000   11.000 
#    0.000    2.500    0.000    0.000    0.000    0.000 
#    0.000    0.000    0.000    0.000    0.000    0.000 
#
# Total GULP energy -198312.006945 kJ/mol
# GULP energy per Si atom -12394.500434 kJ/mol
# Density = 2.090379 g / cm^3
# Si number density = 20.951475 Si / 1000 Ang^3
#
#
#
# Elastic Constant Matrix: (Units=GPa)
#
#
# Indices 1 2 3 4 5 6 
#
# 1 45.5575 14.1804 41.9755 -10.3904 -12.0863 16.8363
# 2 14.1804 127.6964 34.9748 26.5009 -7.3348 32.6711
# 3 41.9755 34.9748 109.8588 15.2855 -12.2251 13.7225
# 4 -10.3904 26.5009 15.2855 32.2631 11.3626 8.7525
# 5 -12.0863 -7.3348 -12.2251 11.3626 31.5769 1.0615
# 6 16.8363 32.6711 13.7225 8.7525 1.0615 19.4279
#
#
#
# Elastic Compliance Matrix: (Units=1/GPa)
#
#
# Indices 1 2 3 4 5 6 
#
# 1 0.208148 0.032930 -0.076689 0.136667 0.016655 -0.244071
# 2 0.032930 0.021593 -0.012111 0.011650 0.010828 -0.062134
# 3 -0.076689 -0.012111 0.039708 -0.056700 0.000776 0.084281
# 4 0.136667 0.011650 -0.056700 0.140020 -0.011928 -0.160407
# 5 0.016655 0.010828 0.000776 -0.011928 0.046171 -0.030339
# 6 -0.244071 -0.062134 0.084281 -0.160407 -0.030339 0.381867
#
#
# Mechanical properties :
#
#
# Convention : Reuss Voigt Hill
#
# Bulk Modulus (GPa) = 6.34085 51.70824 29.02455
# Shear Modulus (GPa) = 4.99093 29.45237 17.22165
#
# Velocity S-wave (km/s) = 1.54509 3.75339 2.87013
# Velocity P-wave (km/s) = 2.49321 6.59678 4.98666
#
# Compressibility (1/GPa) = 0.15770749
#
# Stress axis : x y z
#
# Youngs Moduli (GPa) = 4.80428 46.31207 25.18373
#
# Poissons Ratio (x) = -1.52504 1.93132
# Poissons Ratio (y) = -0.15820 0.30500
# Poissons Ratio (z) = 0.36844 0.56089
#
# Static dielectric constant tensor:
#      x y z
#    x 3.457120 0.369310 -0.093190 
#    y 0.369310 4.599260 0.447200 
#    z -0.093190 0.447200 3.978850 
# 
# 
# High freq. dielectric constant tensor:
#      x y z
#    x 1.784650 0.023230 -0.013180 
#    y 0.023230 1.831700 0.019330 
#    z -0.013180 0.019330 1.826920 
# 
# From -- ./inp_files/52636.got.cif
#   From: 2010.06.25/outbox.cif.g09.slc.cpg/sg2_27_cif.got.tgz:52636.got - 2010.06.27 13:26:56.
