data_PCOD8031939
_publ_section_title
;
Structure prediction by ZEFSAII (Michael W. Deem and Ramdas Pophale) SiO2 
 PCOD8031939
Probable space group: P -1
;
_chemical_formula_sum "Si O2"
_cell_formula_units_Z 16
_cell_length_a 21.779943
_cell_length_b 7.964214
_cell_length_c 9.559841
_cell_angle_alpha 130.808830
_cell_angle_beta 52.842880
_cell_angle_gamma 147.027575
_cell_volume 676.801138
_symmetry_space_group_name_H-M "P -1"
_symmetry_group_IT_number 2
_symmetry_cell_setting 'triclinic'
loop_
_space_group_symop_operation_xyz
x,y,z
-x,-y,-z
loop_
_atom_site_type_symbol
_atom_site_label
_atom_site_fract_x
_atom_site_fract_y
_atom_site_fract_z
Si Si1 0.308177 0.590862 0.651914
Si Si2 0.389963 0.264766 0.857806
Si Si3 0.992578 0.294101 0.149356
Si Si4 0.197140 0.620279 0.214728
Si Si5 0.271284 0.337534 0.853086
Si Si6 0.925018 0.732019 0.252258
Si Si7 0.358829 0.305963 0.229505
Si Si8 0.917140 0.573458 0.467532
O O1 0.343911 0.556555 0.732940
O O2 0.171198 0.313701 0.703305
O O3 0.347681 0.523829 0.432285
O O4 0.358994 0.942070 0.749386
O O5 0.329034 0.250735 0.802331
O O6 0.525006 0.564899 0.809393
O O7 0.356736 0.331773 0.079157
O O8 0.068778 0.296683 0.148012
O O9 0.015552 0.593346 0.337776
O O10 0.031993 0.353694 0.967406
O O11 0.857680 0.991612 0.190181
O O12 0.186513 0.693550 0.426726
O O13 0.253949 0.927008 0.208244
O O14 0.269495 0.547853 0.072639
O O15 0.867491 0.484945 0.330028
O O16 0.032373 0.090009 0.360999
#
# Coordination Sequence:
#
# PCOD8031939 Si02
#       8
#     2   2   2   2   2   2   2   2
#     4  12  24  47  71 103 139 181 229 293 347 406
#     4  11  27  50  71 105 135 183 237 287 349 405
#     4  12  22  42  66  97 144 184 222 283 343 408
#     4  12  23  45  69 103 142 186 229 284 348 408
#     4  12  25  44  74 102 144 186 227 284 345 416
#     4  11  23  39  63 100 142 177 230 280 342 412
#     4  11  26  49  75  98 140 181 232 296 344 406
#     4  11  24  37  62 102 136 188 231 272 341 415
#
# _framework density 23.640620999999999
#
# number of rings (size 3 to 8) (size 9 to 14) (size 15 to 20)
#    0.000    0.500    3.750    4.500    1.750    2.000 
#    0.000    0.000    0.000    0.000    0.000    0.000 
#    0.000    0.000    0.000    0.000    0.000    0.000 
#
# Total GULP energy -198387.340087 kJ/mol
# GULP energy per Si atom -12399.208755 kJ/mol
# Density = 2.358681 g / cm^3
# Si number density = 23.640621 Si / 1000 Ang^3
#
#
#
# Elastic Constant Matrix: (Units=GPa)
#
#
# Indices 1 2 3 4 5 6 
#
# 1 103.4357 36.5462 12.6472 5.1431 8.5597 -19.0662
# 2 36.5462 60.3695 23.8716 -4.8638 4.5990 -2.3485
# 3 12.6472 23.8716 154.1899 -0.7273 -8.8648 -18.5388
# 4 5.1431 -4.8638 -0.7273 24.6117 -4.3991 -0.1850
# 5 8.5597 4.5990 -8.8648 -4.3991 34.4152 -3.8944
# 6 -19.0662 -2.3485 -18.5388 -0.1850 -3.8944 25.8824
#
#
#
# Elastic Compliance Matrix: (Units=1/GPa)
#
#
# Indices 1 2 3 4 5 6 
#
# 1 0.015413 -0.009792 0.001492 -0.005303 -0.001544 0.011264
# 2 -0.009792 0.024436 -0.004043 0.006340 -0.001983 -0.008145
# 3 0.001492 -0.004043 0.007988 -0.000292 0.002970 0.006899
# 4 -0.005303 0.006340 -0.000292 0.043994 0.005753 -0.002360
# 5 -0.001544 -0.001983 0.002970 0.005753 0.031845 0.005643
# 6 0.011264 -0.008145 0.006899 -0.002360 0.005643 0.051968
#
#
# Mechanical properties :
#
#
# Convention : Reuss Voigt Hill
#
# Bulk Modulus (GPa) = 43.19515 51.56945 47.38230
# Shear Modulus (GPa) = 24.03292 33.31055 28.67173
#
# Velocity S-wave (km/s) = 3.19187 3.75779 3.48633
# Velocity P-wave (km/s) = 5.64759 6.37881 6.02430
#
# Compressibility (1/GPa) = 0.02315075
#
# Stress axis : x y z
#
# Youngs Moduli (GPa) = 64.88076 40.92247 125.18849
#
# Poissons Ratio (x) = 0.40072 -0.18683
# Poissons Ratio (y) = 0.63532 0.50620
# Poissons Ratio (z) = -0.09682 0.16547
#
# Static dielectric constant tensor:
#      x y z
#    x 4.285600 -0.205920 -0.000040 
#    y -0.205920 4.170900 -0.046200 
#    z -0.000040 -0.046200 4.690630 
# 
# 
# High freq. dielectric constant tensor:
#      x y z
#    x 1.923420 -0.017280 -0.000330 
#    y -0.017280 1.924720 -0.003510 
#    z -0.000330 -0.003510 1.960590 
# 
# From -- ./inp_files/313994.got.cif
#   From: 2010.06.25/outbox.cif.g09.slc.cpg/sg2_157_cif.got.tgz:313994.got - 2010.06.27 13:26:56.
