data_PCOD8031796
_publ_section_title
;
Structure prediction by ZEFSAII (Michael W. Deem and Ramdas Pophale) SiO2 
 PCOD8031796
Probable space group: P -1
;
_chemical_formula_sum "Si O2"
_cell_formula_units_Z 16
_cell_length_a 9.291296
_cell_length_b 12.413080
_cell_length_c 15.634667
_cell_angle_alpha 67.373949
_cell_angle_beta 50.557677
_cell_angle_gamma 109.693811
_cell_volume 743.682766
_symmetry_space_group_name_H-M "P -1"
_symmetry_group_IT_number 2
_symmetry_cell_setting 'triclinic'
loop_
_space_group_symop_operation_xyz
x,y,z
-x,-y,-z
loop_
_atom_site_type_symbol
_atom_site_label
_atom_site_fract_x
_atom_site_fract_y
_atom_site_fract_z
Si Si1 0.157754 0.116970 0.815888
Si Si2 0.235163 0.499425 0.206014
Si Si3 0.882208 0.099534 0.401158
Si Si4 0.247929 0.731220 0.846881
Si Si5 0.174112 0.890662 0.185403
Si Si6 0.065851 0.206063 0.105759
Si Si7 0.385737 0.172902 0.165497
Si Si8 0.901330 0.511551 0.446943
O O1 0.526591 0.321881 0.632522
O O2 0.004345 0.154350 0.819204
O O3 0.126562 0.001188 0.793342
O O4 0.000000 0.000000 0.000000
O O5 0.981226 0.263757 0.369396
O O6 0.080744 0.534214 0.296914
O O7 0.551175 0.617458 0.101732
O O8 0.350212 0.599079 0.037934
O O9 0.939269 0.162182 0.262429
O O10 0.105255 0.102646 0.340288
O O11 0.510255 0.875682 0.627242
O O12 0.446637 0.826541 0.830844
O O13 0.024043 0.729693 0.937717
O O14 0.000000 0.500000 0.000000
O O15 0.981393 0.689327 0.366054
O O16 0.232125 0.024859 0.189349
O O17 0.500000 0.000000 0.000000
O O18 0.000000 0.500000 0.500000
#
# Coordination Sequence:
#
# PCOD8031796 Si02
#       8
#     2   2   2   2   2   2   2   2
#     4  12  26  47  72 104 138 186 240 290 353 417
#     4  11  22  46  73  97 136 185 227 283 354 420
#     4  11  23  45  70  96 139 185 227 279 354 416
#     4  12  26  42  65 106 140 179 233 284 342 420
#     4  12  24  49  72 103 144 180 236 293 356 414
#     4  11  23  44  69 101 138 176 231 290 347 417
#     4  11  24  45  70 101 139 180 226 291 353 412
#     4  12  27  45  72 106 139 188 236 286 353 422
#
# _framework density 21.514548999999999
#
# number of rings (size 3 to 8) (size 9 to 14) (size 15 to 20)
#    0.000    0.500    3.750    6.375    5.250    1.000 
#    2.250    0.000    0.000    0.000    0.000    0.000 
#    0.000    0.000    0.000    0.000    0.000    0.000 
#
# Total GULP energy -198426.788201 kJ/mol
# GULP energy per Si atom -12401.674263 kJ/mol
# Density = 2.146558 g / cm^3
# Si number density = 21.514549 Si / 1000 Ang^3
#
#
#
# Elastic Constant Matrix: (Units=GPa)
#
#
# Indices 1 2 3 4 5 6 
#
# 1 183.3922 26.3661 39.0487 -8.5250 -8.0115 -4.7993
# 2 26.3661 90.5443 35.4082 -19.6170 2.0665 -6.2712
# 3 39.0487 35.4082 125.4050 -23.2945 -13.6357 -7.8721
# 4 -8.5250 -19.6170 -23.2945 37.4568 -2.1116 -0.2985
# 5 -8.0115 2.0665 -13.6357 -2.1116 31.9627 -1.3328
# 6 -4.7993 -6.2712 -7.8721 -0.2985 -1.3328 37.2792
#
#
#
# Elastic Compliance Matrix: (Units=1/GPa)
#
#
# Indices 1 2 3 4 5 6 
#
# 1 0.005973 -0.001210 -0.001410 -0.000093 0.000980 0.000302
# 2 -0.001210 0.013700 -0.002642 0.005161 -0.001910 0.001564
# 3 -0.001410 -0.002642 0.010786 0.005291 0.004846 0.001867
# 4 -0.000093 0.005161 0.005291 0.032924 0.004175 0.002386
# 5 0.000980 -0.001910 0.004846 0.004175 0.034086 0.002080
# 6 0.000302 0.001564 0.001867 0.002386 0.002080 0.027614
#
#
# Mechanical properties :
#
#
# Convention : Reuss Voigt Hill
#
# Bulk Modulus (GPa) = 50.16207 66.77639 58.46923
# Shear Modulus (GPa) = 35.14844 41.24098 38.19471
#
# Velocity S-wave (km/s) = 4.04630 4.38298 4.21800
# Velocity P-wave (km/s) = 6.72280 7.53121 7.13846
#
# Compressibility (1/GPa) = 0.01993538
#
# Stress axis : x y z
#
# Youngs Moduli (GPa) = 167.40993 72.99277 92.70890
#
# Poissons Ratio (x) = 0.08829 0.13074
# Poissons Ratio (y) = 0.20250 0.24497
# Poissons Ratio (z) = 0.23609 0.19287
#
# Static dielectric constant tensor:
#      x y z
#    x 4.480100 -0.170630 -0.277430 
#    y -0.170630 4.067440 -0.111990 
#    z -0.277430 -0.111990 3.938070 
# 
# 
# High freq. dielectric constant tensor:
#      x y z
#    x 1.864650 -0.007970 -0.006680 
#    y -0.007970 1.845660 -0.007120 
#    z -0.006680 -0.007120 1.848300 
# 
# From -- ./inp_files/307657.got.cif
#   From: 2010.06.25/outbox.cif.g09.slc.cpg/sg2_154_cif.got.tgz:307657.got - 2010.06.27 13:26:56.
