data_PCOD8031451
_publ_section_title
;
Structure prediction by ZEFSAII (Michael W. Deem and Ramdas Pophale) SiO2 
 PCOD8031451
Probable space group: P -1
;
_chemical_formula_sum "Si O2"
_cell_formula_units_Z 16
_cell_length_a 11.369511
_cell_length_b 14.894974
_cell_length_c 9.270010
_cell_angle_alpha 117.849329
_cell_angle_beta 66.511222
_cell_angle_gamma 59.296550
_cell_volume 651.203572
_symmetry_space_group_name_H-M "P -1"
_symmetry_group_IT_number 2
_symmetry_cell_setting 'triclinic'
loop_
_space_group_symop_operation_xyz
x,y,z
-x,-y,-z
loop_
_atom_site_type_symbol
_atom_site_label
_atom_site_fract_x
_atom_site_fract_y
_atom_site_fract_z
Si Si1 0.318722 0.871463 0.839565
Si Si2 0.604608 0.972032 0.201178
Si Si3 0.435567 0.395503 0.215857
Si Si4 0.837707 0.842996 0.280345
Si Si5 0.929163 0.651312 0.572718
Si Si6 0.620123 0.199669 0.691849
Si Si7 0.917719 0.471367 0.904866
Si Si8 0.250721 0.735121 0.558842
O O1 0.498170 0.722943 0.773667
O O2 0.291696 0.786175 0.703780
O O3 0.454397 0.868546 0.680454
O O4 0.040933 0.099956 0.188474
O O5 0.825978 0.818511 0.099527
O O6 0.370178 0.074771 0.461323
O O7 0.684613 0.862932 0.931191
O O8 0.157102 0.572527 0.424337
O O9 0.439055 0.513510 0.335490
O O10 0.630287 0.229653 0.873257
O O11 0.089037 0.629866 0.074952
O O12 0.829369 0.970396 0.394055
O O13 0.888059 0.665236 0.430224
O O14 0.000000 0.500000 0.500000
O O15 0.675934 0.262645 0.624512
O O16 0.359112 0.321633 0.867145
O O17 0.000000 0.500000 0.000000
#
# Coordination Sequence:
#
# PCOD8031451 Si02
#       8
#     2   2   2   2   2   2   2   2
#     4  11  25  43  71 100 134 180 224 281 343 394
#     4  11  22  44  66  96 140 175 226 282 330 409
#     4  11  25  43  69  98 139 177 226 277 343 398
#     4  11  24  42  67  96 137 180 222 279 342 398
#     4  11  24  42  67 102 138 174 227 278 331 412
#     4  11  25  45  68 103 135 178 229 277 332 415
#     4  11  25  43  68 101 138 179 223 272 347 404
#     4  11  24  47  67  99 137 175 232 281 328 406
#
# _framework density 24.569889
#
# number of rings (size 3 to 8) (size 9 to 14) (size 15 to 20)
#    0.000    1.000    2.500    4.500    3.500    3.000 
#    0.000    0.000    0.000    0.000    0.000    0.000 
#    0.000    0.000    0.000    0.000    0.000    0.000 
#
# Total GULP energy -198374.721434 kJ/mol
# GULP energy per Si atom -12398.420090 kJ/mol
# Density = 2.451397 g / cm^3
# Si number density = 24.569889 Si / 1000 Ang^3
#
#
#
# Elastic Constant Matrix: (Units=GPa)
#
#
# Indices 1 2 3 4 5 6 
#
# 1 47.7551 12.6679 14.8223 -2.8230 16.8362 1.1627
# 2 12.6679 157.2366 16.0493 -9.7497 24.3465 -1.3591
# 3 14.8223 16.0493 73.3017 -12.5454 29.4261 -6.7959
# 4 -2.8230 -9.7497 -12.5454 44.8659 6.5510 5.7503
# 5 16.8362 24.3465 29.4261 6.5510 33.5016 -4.3918
# 6 1.1627 -1.3591 -6.7959 5.7503 -4.3918 37.4080
#
#
#
# Elastic Compliance Matrix: (Units=1/GPa)
#
#
# Indices 1 2 3 4 5 6 
#
# 1 0.026524 0.000569 0.001839 0.005174 -0.016795 -0.003237
# 2 0.000569 0.007647 0.002230 0.003701 -0.008645 -0.000919
# 3 0.001839 0.002230 0.025900 0.011928 -0.027672 -0.000353
# 4 0.005174 0.003701 0.011928 0.030701 -0.022454 -0.005215
# 5 -0.016795 -0.008645 -0.027672 -0.022454 0.074232 0.007347
# 6 -0.003237 -0.000919 -0.000353 -0.005215 0.007347 0.028399
#
#
# Mechanical properties :
#
#
# Convention : Reuss Voigt Hill
#
# Bulk Modulus (GPa) = 14.42054 40.59695 27.50875
# Shear Modulus (GPa) = 24.12640 38.80537 31.46588
#
# Velocity S-wave (km/s) = 3.13701 3.97846 3.58253
# Velocity P-wave (km/s) = 4.35925 6.13703 5.32288
#
# Compressibility (1/GPa) = 0.06934551
#
# Stress axis : x y z
#
# Youngs Moduli (GPa) = 37.70166 130.77658 38.61077
#
# Poissons Ratio (x) = -0.07436 -0.07102
# Poissons Ratio (y) = -0.02144 -0.08608
# Poissons Ratio (z) = -0.06935 -0.29157
#
# Static dielectric constant tensor:
#      x y z
#    x 4.312660 -0.080920 0.081330 
#    y -0.080920 4.821460 -0.013810 
#    z 0.081330 -0.013810 4.566870 
# 
# 
# High freq. dielectric constant tensor:
#      x y z
#    x 1.964450 0.005660 0.016430 
#    y 0.005660 1.997300 -0.003780 
#    z 0.016430 -0.003780 1.973840 
# 
# From -- ./inp_files/274064.got.cif
#   From: 2010.06.25/outbox.cif.g09.slc.cpg/sg2_138_cif.got.tgz:274064.got - 2010.06.27 13:26:56.
