data_PCOD8031312
_publ_section_title
;
Structure prediction by ZEFSAII (Michael W. Deem and Ramdas Pophale) SiO2 
 PCOD8031312
Probable space group: P -1
;
_chemical_formula_sum "Si O2"
_cell_formula_units_Z 14
_cell_length_a 9.066160
_cell_length_b 20.863966
_cell_length_c 8.394367
_cell_angle_alpha 121.853602
_cell_angle_beta 112.408531
_cell_angle_gamma 28.228522
_cell_volume 623.904316
_symmetry_space_group_name_H-M "P -1"
_symmetry_group_IT_number 2
_symmetry_cell_setting 'triclinic'
loop_
_space_group_symop_operation_xyz
x,y,z
-x,-y,-z
loop_
_atom_site_type_symbol
_atom_site_label
_atom_site_fract_x
_atom_site_fract_y
_atom_site_fract_z
Si Si1 0.854562 0.249121 0.151325
Si Si2 0.122025 0.284412 0.416374
Si Si3 0.833290 0.521227 0.820607
Si Si4 0.731050 0.930366 0.224316
Si Si5 0.392716 0.276726 0.272666
Si Si6 0.694276 0.034969 0.851502
Si Si7 0.960367 0.082326 0.464441
O O1 0.505092 0.369083 0.105929
O O2 0.845978 0.335303 0.341245
O O3 0.974578 0.139388 0.186319
O O4 0.120323 0.142084 0.982848
O O5 0.126802 0.336044 0.330747
O O6 0.045065 0.362513 0.648322
O O7 0.462913 0.104680 0.337412
O O8 0.791459 0.587196 0.730543
O O9 0.000000 0.500000 0.000000
O O10 0.593537 0.907608 0.200716
O O11 0.002012 0.850721 0.350207
O O12 0.610846 0.225294 0.431065
O O13 0.616857 0.134273 0.067327
O O14 0.758859 0.043045 0.714859
O O15 0.000000 0.000000 0.500000
#
# Coordination Sequence:
#
# PCOD8031312 Si02
#       7
#     2   2   2   2   2   2   2
#     4  11  22  48  73 100 138 184 231 285 345 412
#     4  11  23  47  69 101 141 186 224 278 348 417
#     4  12  30  45  68 100 142 185 234 282 342 412
#     4  11  23  42  75 104 140 175 233 285 342 417
#     4  12  24  44  70  98 140 182 230 284 347 404
#     4  11  22  43  69 107 134 182 229 287 347 406
#     4  12  24  37  69 110 142 171 225 291 348 399
#
# _framework density 22.439339
#
# number of rings (size 3 to 8) (size 9 to 14) (size 15 to 20)
#    0.000    0.571    5.714    2.571    6.000    0.000 
#    0.000    0.714    0.000    0.000    0.000    0.000 
#    0.000    0.000    0.000    0.000    0.000    0.000 
#
# Total GULP energy -173657.816145 kJ/mol
# GULP energy per Si atom -12404.129725 kJ/mol
# Density = 2.238827 g / cm^3
# Si number density = 22.439339 Si / 1000 Ang^3
#
#
#
# Elastic Constant Matrix: (Units=GPa)
#
#
# Indices 1 2 3 4 5 6 
#
# 1 120.0120 46.1851 46.3854 -5.4098 -5.1916 -5.4842
# 2 46.1851 87.9458 54.6466 -12.5006 11.4538 -4.1810
# 3 46.3854 54.6466 148.8366 -6.0882 14.0141 -7.9127
# 4 -5.4098 -12.5006 -6.0882 42.1223 -8.6105 -1.4582
# 5 -5.1916 11.4538 14.0141 -8.6105 44.8465 -8.7117
# 6 -5.4842 -4.1810 -7.9127 -1.4582 -8.7117 25.3149
#
#
#
# Elastic Compliance Matrix: (Units=1/GPa)
#
#
# Indices 1 2 3 4 5 6 
#
# 1 0.011300 -0.005078 -0.001864 0.000521 0.003743 0.002345
# 2 -0.005078 0.017694 -0.004508 0.003284 -0.003162 -0.000486
# 3 -0.001864 -0.004508 0.009159 -0.000592 -0.001837 0.001048
# 4 0.000521 0.003284 -0.000592 0.025866 0.005094 0.003713
# 5 0.003743 -0.003162 -0.001837 0.005094 0.026890 0.009262
# 6 0.002345 -0.000486 0.001048 0.003713 0.009262 0.043659
#
#
# Mechanical properties :
#
#
# Convention : Reuss Voigt Hill
#
# Bulk Modulus (GPa) = 65.55636 72.35873 68.95755
# Shear Modulus (GPa) = 30.75961 36.42856 33.59408
#
# Velocity S-wave (km/s) = 3.70643 4.03354 3.87344
# Velocity P-wave (km/s) = 6.89893 7.34908 7.12756
#
# Compressibility (1/GPa) = 0.01525405
#
# Stress axis : x y z
#
# Youngs Moduli (GPa) = 88.49931 56.51723 109.18202
#
# Poissons Ratio (x) = 0.28699 0.20347
# Poissons Ratio (y) = 0.44939 0.49215
# Poissons Ratio (z) = 0.16493 0.25476
#
# Static dielectric constant tensor:
#      x y z
#    x 4.343120 -0.088590 0.175020 
#    y -0.088590 3.775920 -0.170170 
#    z 0.175020 -0.170170 4.242770 
# 
# 
# High freq. dielectric constant tensor:
#      x y z
#    x 1.906160 -0.010930 0.005930 
#    y -0.010930 1.853550 -0.008770 
#    z 0.005930 -0.008770 1.895370 
# 
# From -- ./inp_files/157949.got.cif
#   From: 2010.06.25/outbox.cif.g09.slc.cpg/sg2_79_cif.got.tgz:157949.got - 2010.06.27 13:26:56.
