data_PCOD8031196
_publ_section_title
;
Structure prediction by ZEFSAII (Michael W. Deem and Ramdas Pophale) SiO2 
 PCOD8031196
Probable space group: P -1
;
_chemical_formula_sum "Si O2"
_cell_formula_units_Z 16
_cell_length_a 11.243837
_cell_length_b 16.419346
_cell_length_c 8.135343
_cell_angle_alpha 120.258196
_cell_angle_beta 96.007794
_cell_angle_gamma 132.616369
_cell_volume 680.467049
_symmetry_space_group_name_H-M "P -1"
_symmetry_group_IT_number 2
_symmetry_cell_setting 'triclinic'
loop_
_space_group_symop_operation_xyz
x,y,z
-x,-y,-z
loop_
_atom_site_type_symbol
_atom_site_label
_atom_site_fract_x
_atom_site_fract_y
_atom_site_fract_z
Si Si1 0.438384 0.856073 0.640290
Si Si2 0.628756 0.313168 0.866727
Si Si3 0.304920 0.445883 0.437018
Si Si4 0.005666 0.144104 0.339975
Si Si5 0.823002 0.910618 0.520264
Si Si6 0.514791 0.232400 0.127294
Si Si7 0.069035 0.731837 0.342134
Si Si8 0.100120 0.826500 0.101626
O O1 0.385653 0.768855 0.370300
O O2 0.380896 0.755917 0.692379
O O3 0.273660 0.836623 0.599371
O O4 0.702291 0.065328 0.893432
O O5 0.430865 0.258667 0.761421
O O6 0.586489 0.236678 0.963746
O O7 0.872451 0.523592 0.114571
O O8 0.500000 0.500000 0.500000
O O9 0.397573 0.601672 0.691851
O O10 0.098668 0.262857 0.321157
O O11 0.161922 0.376659 0.182859
O O12 0.014761 0.220063 0.574056
O O13 0.167184 0.161985 0.410432
O O14 0.752955 0.940023 0.062411
O O15 0.890184 0.055367 0.750431
O O16 0.000000 0.000000 0.500000
O O17 0.161935 0.804395 0.245238
#
# Coordination Sequence:
#
# PCOD8031196 Si02
#       8
#     2   2   2   2   2   2   2   2
#     4  11  26  48  73 101 146 194 238 303 355 417
#     4  11  25  45  71 109 142 187 241 297 358 429
#     4  12  28  43  71 110 144 187 236 298 359 434
#     4  12  25  46  70 105 145 186 239 291 363 432
#     4  11  22  42  71  98 140 188 223 295 361 421
#     4  12  25  49  72 106 148 184 244 294 357 423
#     4  12  25  46  72 104 141 190 246 297 355 426
#     4  11  24  45  70 104 142 189 241 290 363 429
#
# _framework density 23.513262999999998
#
# number of rings (size 3 to 8) (size 9 to 14) (size 15 to 20)
#    0.000    0.500    5.000    3.000    5.250    2.500 
#    2.250    0.000    0.000    0.000    0.000    0.000 
#    0.000    0.000    0.000    0.000    0.000    0.000 
#
# Total GULP energy -198381.881395 kJ/mol
# GULP energy per Si atom -12398.867587 kJ/mol
# Density = 2.345975 g / cm^3
# Si number density = 23.513263 Si / 1000 Ang^3
#
#
#
# Elastic Constant Matrix: (Units=GPa)
#
#
# Indices 1 2 3 4 5 6 
#
# 1 62.6919 28.1638 22.3502 -6.2072 16.7564 -5.4149
# 2 28.1638 130.7980 29.3179 -10.8816 1.3512 -11.2904
# 3 22.3502 29.3179 108.2826 2.9678 10.2179 -1.2338
# 4 -6.2072 -10.8816 2.9678 46.6030 2.8919 7.0175
# 5 16.7564 1.3512 10.2179 2.8919 29.5936 -6.2901
# 6 -5.4149 -11.2904 -1.2338 7.0175 -6.2901 30.4793
#
#
#
# Elastic Compliance Matrix: (Units=1/GPa)
#
#
# Indices 1 2 3 4 5 6 
#
# 1 0.021976 -0.003873 -0.002458 0.003034 -0.011880 -0.000780
# 2 -0.003873 0.009247 -0.001983 0.001131 0.002985 0.003013
# 3 -0.002458 -0.001983 0.010511 -0.001181 -0.002230 -0.000934
# 4 0.003034 0.001131 -0.001181 0.023319 -0.004799 -0.005449
# 5 -0.011880 0.002985 -0.002230 -0.004799 0.043532 0.008994
# 6 -0.000780 0.003013 -0.000934 -0.005449 0.008994 0.036859
#
#
# Mechanical properties :
#
#
# Convention : Reuss Voigt Hill
#
# Bulk Modulus (GPa) = 39.83089 51.27069 45.55079
# Shear Modulus (GPa) = 29.33563 36.13122 32.73342
#
# Velocity S-wave (km/s) = 3.53600 3.92424 3.73517
# Velocity P-wave (km/s) = 5.80065 6.51039 6.16575
#
# Compressibility (1/GPa) = 0.02510614
#
# Stress axis : x y z
#
# Youngs Moduli (GPa) = 45.50516 108.14311 95.13440
#
# Poissons Ratio (x) = 0.41884 0.23387
# Poissons Ratio (y) = 0.17624 0.18861
# Poissons Ratio (z) = 0.11186 0.21440
#
# Static dielectric constant tensor:
#      x y z
#    x 4.600690 -0.042790 0.348140 
#    y -0.042790 4.551280 -0.104740 
#    z 0.348140 -0.104740 4.380090 
# 
# 
# High freq. dielectric constant tensor:
#      x y z
#    x 1.924600 -0.001650 0.011160 
#    y -0.001650 1.944820 -0.000770 
#    z 0.011160 -0.000770 1.936420 
# 
# From -- ./inp_files/273553.got.cif
#   From: 2010.06.25/outbox.cif.g09.slc.cpg/sg2_137_cif.got.tgz:273553.got - 2010.06.27 13:26:56.
