data_PCOD8031052
_publ_section_title
;
Structure prediction by ZEFSAII (Michael W. Deem and Ramdas Pophale) SiO2 
 PCOD8031052
Probable space group: P -1
;
_chemical_formula_sum "Si O2"
_cell_formula_units_Z 16
_cell_length_a 10.522157
_cell_length_b 14.013301
_cell_length_c 7.337638
_cell_angle_alpha 64.257238
_cell_angle_beta 44.928507
_cell_angle_gamma 53.625114
_cell_volume 615.010544
_symmetry_space_group_name_H-M "P -1"
_symmetry_group_IT_number 2
_symmetry_cell_setting 'triclinic'
loop_
_space_group_symop_operation_xyz
x,y,z
-x,-y,-z
loop_
_atom_site_type_symbol
_atom_site_label
_atom_site_fract_x
_atom_site_fract_y
_atom_site_fract_z
Si Si1 0.402615 0.488104 0.297169
Si Si2 0.293068 0.329931 0.315905
Si Si3 0.242693 0.511851 0.908662
Si Si4 0.450776 0.890965 0.335330
Si Si5 0.983771 0.969163 0.336854
Si Si6 0.814802 0.660822 0.130018
Si Si7 0.591047 0.084953 0.073217
Si Si8 0.994341 0.287417 0.455891
O O1 0.306469 0.394278 0.440215
O O2 0.587487 0.439991 0.297659
O O3 0.234897 0.617207 0.424693
O O4 0.500000 0.500000 0.000000
O O5 0.472191 0.198338 0.226950
O O6 0.079077 0.325505 0.518615
O O7 0.313459 0.409597 0.069975
O O8 0.016617 0.615314 0.087276
O O9 0.237464 0.450284 0.769415
O O10 0.226987 0.929054 0.614345
O O11 0.511673 0.989128 0.266278
O O12 0.622928 0.765708 0.337617
O O13 0.434584 0.881984 0.141343
O O14 0.988305 0.841300 0.426710
O O15 0.000000 0.000000 0.500000
O O16 0.178566 0.967935 0.042928
O O17 0.860840 0.716033 0.854413
#
# Coordination Sequence:
#
# PCOD8031052 Si02
#       8
#     2   2   2   2   2   2   2   2
#     4  10  21  33  51  74 101 136 182 220 252 305
#     4  10  18  35  53  76 106 137 175 219 259 304
#     4   9  19  34  50  75 104 140 172 208 263 308
#     4  10  17  31  49  76 108 136 167 211 263 317
#     4  10  19  26  49  79 106 135 166 213 267 314
#     4  10  19  33  53  72 112 140 163 213 263 320
#     4  10  17  31  50  77 107 130 171 218 265 303
#     4  11  19  32  51  80 105 135 173 213 273 311
#
# _framework density 26.015813000000001
#
# number of rings (size 3 to 8) (size 9 to 14) (size 15 to 20)
#    0.000    2.000    3.750    3.375    1.750    0.500 
#    0.000    0.000    0.000    0.750    0.000    4.375 
#    0.000    0.000    0.000    0.000    0.000    0.000 
#
# Total GULP energy -198324.812489 kJ/mol
# GULP energy per Si atom -12395.300781 kJ/mol
# Density = 2.595660 g / cm^3
# Si number density = 26.015813 Si / 1000 Ang^3
#
#
#
# Elastic Constant Matrix: (Units=GPa)
#
#
# Indices 1 2 3 4 5 6 
#
# 1 123.7797 58.0578 72.7134 18.6278 -43.3055 33.0219
# 2 58.0578 110.2203 43.0065 41.6692 -28.4599 3.7056
# 3 72.7134 43.0065 109.0494 33.7400 -56.6312 -7.6582
# 4 18.6278 41.6692 33.7400 44.9301 -8.9182 -15.7704
# 5 -43.3055 -28.4599 -56.6312 -8.9182 74.1746 5.4913
# 6 33.0219 3.7056 -7.6582 -15.7704 5.4913 39.4899
#
#
#
# Elastic Compliance Matrix: (Units=1/GPa)
#
#
# Indices 1 2 3 4 5 6 
#
# 1 0.032144 -0.005644 -0.016885 -0.005813 0.005432 -0.032701
# 2 -0.005644 0.019278 0.005035 -0.019853 0.005919 -0.004864
# 3 -0.016885 0.005035 0.029817 -0.013254 0.012326 0.012422
# 4 -0.005813 -0.019853 -0.013254 0.060568 -0.016112 0.030582
# 5 0.005432 0.005919 0.012326 -0.016112 0.027356 -0.012946
# 6 -0.032701 -0.004864 0.012422 0.030582 -0.012946 0.069546
#
#
# Mechanical properties :
#
#
# Convention : Reuss Voigt Hill
#
# Bulk Modulus (GPa) = 21.62015 76.73386 49.17701
# Shear Modulus (GPa) = 17.29423 43.00368 30.14896
#
# Velocity S-wave (km/s) = 2.58109 4.07010 3.40791
# Velocity P-wave (km/s) = 4.14863 7.18657 5.86762
#
# Compressibility (1/GPa) = 0.04625314
#
# Stress axis : x y z
#
# Youngs Moduli (GPa) = 31.11013 51.87145 33.53783
#
# Poissons Ratio (x) = 0.29276 0.56627
# Poissons Ratio (y) = 0.17558 -0.16888
# Poissons Ratio (z) = 0.52528 -0.26119
#
# Static dielectric constant tensor:
#      x y z
#    x 5.596220 0.454400 -0.603550 
#    y 0.454400 4.601300 0.133350 
#    z -0.603550 0.133350 5.093300 
# 
# 
# High freq. dielectric constant tensor:
#      x y z
#    x 2.052560 0.010990 -0.015120 
#    y 0.010990 2.032660 0.009800 
#    z -0.015120 0.009800 2.054390 
# 
# From -- ./inp_files/431376.got.cif
#   From: 2010.06.25/outbox.cif.g09.slc.cpg/sg2_216_cif.got.tgz:431376.got - 2010.06.27 13:26:56.
