data_PCOD8031264
_publ_section_title
;
Structure prediction by ZEFSAII (Michael W. Deem and Ramdas Pophale) SiO2 
 PCOD8031264
Probable space group: P -1
;
_chemical_formula_sum "Si O2"
_cell_formula_units_Z 16
_cell_length_a 8.776618
_cell_length_b 13.870302
_cell_length_c 9.505273
_cell_angle_alpha 106.059281
_cell_angle_beta 133.220509
_cell_angle_gamma 96.197178
_cell_volume 733.616026
_symmetry_space_group_name_H-M "P -1"
_symmetry_group_IT_number 2
_symmetry_cell_setting 'triclinic'
loop_
_space_group_symop_operation_xyz
x,y,z
-x,-y,-z
loop_
_atom_site_type_symbol
_atom_site_label
_atom_site_fract_x
_atom_site_fract_y
_atom_site_fract_z
Si Si1 0.786286 0.998927 0.785989
Si Si2 0.889839 0.337384 0.852784
Si Si3 0.323678 0.481413 0.754792
Si Si4 0.195659 0.677541 0.668686
Si Si5 0.370984 0.517256 0.292189
Si Si6 0.309866 0.801314 0.070226
Si Si7 0.779154 0.979569 0.441866
Si Si8 0.649224 0.166890 0.421476
O O1 0.744844 0.101989 0.858204
O O2 0.826862 0.007076 0.648152
O O3 0.582518 0.880433 0.650360
O O4 0.000000 0.000000 0.000000
O O5 0.751666 0.401835 0.719556
O O6 0.782384 0.302826 0.925709
O O7 0.854069 0.236366 0.686925
O O8 0.164641 0.403830 0.063108
O O9 0.310703 0.596545 0.755207
O O10 0.428466 0.436366 0.677701
O O11 0.063904 0.389371 0.583702
O O12 0.500000 0.500000 0.000000
O O13 0.358242 0.757787 0.683143
O O14 0.188738 0.754159 0.825559
O O15 0.500000 0.500000 0.500000
O O16 0.588231 0.853142 0.249554
O O17 0.689220 0.063525 0.347348
O O18 0.000000 0.000000 0.500000
#
# Coordination Sequence:
#
# PCOD8031264 Si02
#       8
#     2   2   2   2   2   2   2   2
#     4  11  25  44  67  99 137 175 223 279 328 405
#     4  11  22  43  66  92 132 177 218 275 334 398
#     4  11  24  47  64  98 142 172 222 285 337 391
#     4  11  26  41  70 102 132 181 226 277 334 402
#     4  11  24  39  66  98 128 170 225 278 330 398
#     4  11  23  45  66  93 137 177 220 272 337 395
#     4  11  25  44  69  99 136 174 222 276 338 396
#     4  11  23  45  66  93 137 177 220 272 337 395
#
# _framework density 21.809773
#
# number of rings (size 3 to 8) (size 9 to 14) (size 15 to 20)
#    0.000    1.000    2.500    3.750    3.500   11.000 
#    0.000    0.000    0.000    0.000    0.000    0.000 
#    0.000    0.000    0.000    0.000    0.000    0.000 
#
# Total GULP energy -198362.040403 kJ/mol
# GULP energy per Si atom -12397.627525 kJ/mol
# Density = 2.176013 g / cm^3
# Si number density = 21.809773 Si / 1000 Ang^3
#
#
#
# Elastic Constant Matrix: (Units=GPa)
#
#
# Indices 1 2 3 4 5 6 
#
# 1 110.0221 30.8932 27.4331 -7.5934 3.7129 13.9182
# 2 30.8932 94.2205 40.1753 -8.8735 6.1359 20.8739
# 3 27.4331 40.1753 122.1316 -14.3969 3.5598 -3.9352
# 4 -7.5934 -8.8735 -14.3969 38.5951 -0.6578 -2.5996
# 5 3.7129 6.1359 3.5598 -0.6578 45.8798 -3.9173
# 6 13.9182 20.8739 -3.9352 -2.5996 -3.9173 25.6720
#
#
#
# Elastic Compliance Matrix: (Units=1/GPa)
#
#
# Indices 1 2 3 4 5 6 
#
# 1 0.010699 -0.001421 -0.001990 0.000681 -0.000941 -0.005025
# 2 -0.001421 0.016798 -0.005515 0.000525 -0.002902 -0.014124
# 3 -0.001990 -0.005515 0.011026 0.002983 0.000741 0.007669
# 4 0.000681 0.000525 0.002983 0.027448 0.000248 0.002479
# 5 -0.000941 -0.002902 0.000741 0.000248 0.022760 0.006481
# 6 -0.005025 -0.014124 0.007669 0.002479 0.006481 0.055576
#
#
# Mechanical properties :
#
#
# Convention : Reuss Voigt Hill
#
# Bulk Modulus (GPa) = 48.37669 58.15305 53.26487
# Shear Modulus (GPa) = 29.57698 37.22088 33.39893
#
# Velocity S-wave (km/s) = 3.68657 4.13560 3.91752
# Velocity P-wave (km/s) = 6.35220 7.03746 6.70359
#
# Compressibility (1/GPa) = 0.02067111
#
# Stress axis : x y z
#
# Youngs Moduli (GPa) = 93.47017 59.52961 90.69275
#
# Poissons Ratio (x) = 0.08458 0.18047
# Poissons Ratio (y) = 0.13280 0.50020
# Poissons Ratio (z) = 0.18599 0.32833
#
# Static dielectric constant tensor:
#      x y z
#    x 3.759680 0.144080 0.082880 
#    y 0.144080 4.029040 0.061700 
#    z 0.082880 0.061700 3.915740 
# 
# 
# High freq. dielectric constant tensor:
#      x y z
#    x 1.858460 0.012990 -0.002910 
#    y 0.012990 1.863810 0.004880 
#    z -0.002910 0.004880 1.865760 
# 
# From -- ./inp_files/202735.got.cif
#   From: 2010.06.25/outbox.cif.g09.slc.cpg/sg2_102_cif.got.tgz:202735.got - 2010.06.27 13:26:56.
