data_PCOD8031940
_publ_section_title
;
Structure prediction by ZEFSAII (Michael W. Deem and Ramdas Pophale) SiO2 
 PCOD8031940
Probable space group: P -1
;
_chemical_formula_sum "Si O2"
_cell_formula_units_Z 10
_cell_length_a 6.680264
_cell_length_b 18.968930
_cell_length_c 12.392317
_cell_angle_alpha 151.913369
_cell_angle_beta 47.939279
_cell_angle_gamma 134.847629
_cell_volume 518.775374
_symmetry_space_group_name_H-M "P -1"
_symmetry_group_IT_number 2
_symmetry_cell_setting 'triclinic'
loop_
_space_group_symop_operation_xyz
x,y,z
-x,-y,-z
loop_
_atom_site_type_symbol
_atom_site_label
_atom_site_fract_x
_atom_site_fract_y
_atom_site_fract_z
Si Si1 0.846238 0.585900 0.386455
Si Si2 0.198102 0.364697 0.923504
Si Si3 0.208035 0.410224 0.344738
Si Si4 0.097915 0.805896 0.401893
Si Si5 0.734857 0.833805 0.173493
O O1 0.525735 0.533667 0.387075
O O2 0.863214 0.650388 0.589098
O O3 0.045628 0.726289 0.430688
O O4 0.952604 0.434618 0.141780
O O5 0.190348 0.223446 0.815663
O O6 0.145622 0.295770 0.728703
O O7 0.500000 0.500000 0.000000
O O8 0.000000 0.500000 0.500000
O O9 0.168315 0.256291 0.079145
O O10 0.400034 0.806349 0.247424
O O11 0.083671 0.981914 0.654434
#
# Coordination Sequence:
#
# PCOD8031940 Si02
#       5
#     2   2   2   2   2
#     4  11  23  39  63  92 120 160 212 247 294 368
#     4  12  21  38  67  93 119 161 209 249 301 362
#     4  11  23  41  64  88 121 166 209 245 298 363
#     4  11  24  40  62  95 124 156 204 257 310 353
#     4  11  23  41  63  91 127 159 198 259 308 357
#
# _framework density 19.276166
#
# number of rings (size 3 to 8) (size 9 to 14) (size 15 to 20)
#    0.000    0.800    6.000    2.400    0.000    0.800 
#    0.000    1.000    0.000    0.000    0.000    0.000 
#    0.000    0.000    0.000    0.000    0.000    0.000 
#
# Total GULP energy -124069.355753 kJ/mol
# GULP energy per Si atom -12406.935575 kJ/mol
# Density = 1.923229 g / cm^3
# Si number density = 19.276166 Si / 1000 Ang^3
#
#
#
# Elastic Constant Matrix: (Units=GPa)
#
#
# Indices 1 2 3 4 5 6 
#
# 1 103.6403 27.6120 51.4201 5.0255 -1.0709 3.5140
# 2 27.6120 73.1995 49.4028 10.4203 9.7708 -6.9478
# 3 51.4201 49.4028 143.2882 1.3115 0.7068 -4.0816
# 4 5.0255 10.4203 1.3115 31.3477 -7.0889 -3.9931
# 5 -1.0709 9.7708 0.7068 -7.0889 37.0824 -3.8202
# 6 3.5140 -6.9478 -4.0816 -3.9931 -3.8202 36.3367
#
#
#
# Elastic Compliance Matrix: (Units=1/GPa)
#
#
# Indices 1 2 3 4 5 6 
#
# 1 0.012193 -0.002235 -0.003656 -0.001197 0.000567 -0.002089
# 2 -0.002235 0.020872 -0.006236 -0.007581 -0.006692 0.001970
# 3 -0.003656 -0.006236 0.010430 0.002772 0.001955 0.000843
# 4 -0.001197 -0.007581 0.002772 0.037144 0.009428 0.004051
# 5 0.000567 -0.006692 0.001955 0.009428 0.030838 0.003163
# 6 -0.002089 0.001970 0.000843 0.004051 0.003163 0.028972
#
#
# Mechanical properties :
#
#
# Convention : Reuss Voigt Hill
#
# Bulk Modulus (GPa) = 51.97283 64.11087 58.04185
# Shear Modulus (GPa) = 29.21977 33.73289 31.47633
#
# Velocity S-wave (km/s) = 3.89762 4.18781 4.04532
# Velocity P-wave (km/s) = 6.87575 7.53094 7.21079
#
# Compressibility (1/GPa) = 0.01924082
#
# Stress axis : x y z
#
# Youngs Moduli (GPa) = 82.01411 47.90997 95.87792
#
# Poissons Ratio (x) = 0.10710 0.35055
# Poissons Ratio (y) = 0.18334 0.59786
# Poissons Ratio (z) = 0.29986 0.29875
#
# Static dielectric constant tensor:
#      x y z
#    x 3.741600 -0.065750 -0.046840 
#    y -0.065750 3.456130 -0.087810 
#    z -0.046840 -0.087810 3.661120 
# 
# 
# High freq. dielectric constant tensor:
#      x y z
#    x 1.767550 -0.007040 -0.002400 
#    y -0.007040 1.742750 -0.006560 
#    z -0.002400 -0.006560 1.753790 
# 
# From -- ./inp_files/15195.got.cif
#   From: 2010.06.25/outbox.cif.g09.slc.cpg/sg2_8_cif.got.tgz:15195.got - 2010.06.27 13:26:56.
