data_PCOD8031533
_publ_section_title
;
Structure prediction by ZEFSAII (Michael W. Deem and Ramdas Pophale) SiO2 
 PCOD8031533
Probable space group: P -1
;
_chemical_formula_sum "Si O2"
_cell_formula_units_Z 16
_cell_length_a 7.757447
_cell_length_b 11.301143
_cell_length_c 9.272204
_cell_angle_alpha 97.976700
_cell_angle_beta 121.123204
_cell_angle_gamma 82.396152
_cell_volume 687.373250
_symmetry_space_group_name_H-M "P -1"
_symmetry_group_IT_number 2
_symmetry_cell_setting 'triclinic'
loop_
_space_group_symop_operation_xyz
x,y,z
-x,-y,-z
loop_
_atom_site_type_symbol
_atom_site_label
_atom_site_fract_x
_atom_site_fract_y
_atom_site_fract_z
Si Si1 0.818039 0.935591 0.848849
Si Si2 0.550479 0.554833 0.879649
Si Si3 0.771261 0.774320 0.048197
Si Si4 0.177993 0.624057 0.197362
Si Si5 0.993127 0.133781 0.577495
Si Si6 0.627332 0.153410 0.632914
Si Si7 0.200642 0.505060 0.496247
Si Si8 0.185705 0.236056 0.415249
O O1 0.916755 0.826711 0.773990
O O2 0.671673 0.034831 0.725110
O O3 0.703401 0.874789 0.918729
O O4 0.000000 0.000000 0.000000
O O5 0.757752 0.489294 0.894735
O O6 0.377004 0.546591 0.683048
O O7 0.500000 0.500000 0.000000
O O8 0.582614 0.692145 0.959143
O O9 0.825639 0.845543 0.228344
O O10 0.961995 0.684918 0.068973
O O11 0.339934 0.722278 0.249521
O O12 0.175540 0.590560 0.361344
O O13 0.033296 0.227364 0.482693
O O14 0.773262 0.158635 0.556883
O O15 0.000000 0.000000 0.500000
O O16 0.392264 0.150619 0.498198
O O17 0.247061 0.369932 0.434566
O O18 0.000000 0.500000 0.500000
#
# Coordination Sequence:
#
# PCOD8031533 Si02
#       8
#     2   2   2   2   2   2   2   2
#     4  12  23  45  70 105 137 183 234 297 354 417
#     4  12  25  44  70 106 147 179 234 303 359 422
#     4  11  25  44  73 102 142 181 236 296 364 415
#     4  11  23  45  71  97 142 189 232 284 358 432
#     4  11  22  44  71 102 137 185 237 287 348 429
#     4  11  24  45  75  98 141 190 235 287 355 426
#     4  12  26  47  72 105 138 190 244 289 357 441
#     4  12  25  45  75  97 140 187 240 285 358 431
#
# _framework density 23.277018000000002
#
# number of rings (size 3 to 8) (size 9 to 14) (size 15 to 20)
#    0.000    0.500    5.000    4.875    1.750    1.000 
#    0.000    0.625    2.750    0.000    0.000    0.000 
#    0.000    0.000    0.000    0.000    0.000    0.000 
#
# Total GULP energy -198311.765176 kJ/mol
# GULP energy per Si atom -12394.485324 kJ/mol
# Density = 2.322404 g / cm^3
# Si number density = 23.277018 Si / 1000 Ang^3
#
#
#
# Elastic Constant Matrix: (Units=GPa)
#
#
# Indices 1 2 3 4 5 6 
#
# 1 70.0362 25.9956 30.1618 1.9181 2.5343 13.5152
# 2 25.9956 132.2830 55.1852 11.3647 4.3331 30.5922
# 3 30.1618 55.1852 99.7556 19.2689 -10.1601 11.7638
# 4 1.9181 11.3647 19.2689 54.3258 7.4024 -1.0339
# 5 2.5343 4.3331 -10.1601 7.4024 37.0491 -5.3231
# 6 13.5152 30.5922 11.7638 -1.0339 -5.3231 45.9579
#
#
#
# Elastic Compliance Matrix: (Units=1/GPa)
#
#
# Indices 1 2 3 4 5 6 
#
# 1 0.017550 -0.000340 -0.005356 0.001759 -0.003546 -0.003936
# 2 -0.000340 0.011832 -0.006086 0.000115 -0.004012 -0.006680
# 3 -0.005356 -0.006086 0.016496 -0.005298 0.006961 0.002090
# 4 0.001759 0.000115 -0.005298 0.020988 -0.005697 0.000574
# 5 -0.003546 -0.004012 0.006961 -0.005697 0.031534 0.005456
# 6 -0.003936 -0.006680 0.002090 0.000574 0.005456 0.027473
#
#
# Mechanical properties :
#
#
# Convention : Reuss Voigt Hill
#
# Bulk Modulus (GPa) = 44.81000 58.30668 51.55834
# Shear Modulus (GPa) = 31.87292 40.18203 36.02748
#
# Velocity S-wave (km/s) = 3.70440 4.15933 3.93844
# Velocity P-wave (km/s) = 6.13101 6.94047 6.54826
#
# Compressibility (1/GPa) = 0.02231645
#
# Stress axis : x y z
#
# Youngs Moduli (GPa) = 56.97883 84.52008 60.62044
#
# Poissons Ratio (x) = 0.02870 0.32466
# Poissons Ratio (y) = 0.01935 0.36891
# Poissons Ratio (z) = 0.30515 0.51436
#
# Static dielectric constant tensor:
#      x y z
#    x 4.049270 0.179700 -0.013820 
#    y 0.179700 4.570610 0.293480 
#    z -0.013820 0.293480 4.423670 
# 
# 
# High freq. dielectric constant tensor:
#      x y z
#    x 1.905860 0.019370 -0.001510 
#    y 0.019370 1.947710 0.017420 
#    z -0.001510 0.017420 1.922800 
# 
# From -- ./inp_files/180702.got.cif
#   From: 2010.06.25/outbox.cif.g09.slc.cpg/sg2_91_cif.got.tgz:180702.got - 2010.06.27 13:26:56.
