data_PCOD8031809
_publ_section_title
;
Structure prediction by ZEFSAII (Michael W. Deem and Ramdas Pophale) SiO2 
 PCOD8031809
Probable space group: P -1
;
_chemical_formula_sum "Si O2"
_cell_formula_units_Z 16
_cell_length_a 15.267816
_cell_length_b 14.081599
_cell_length_c 5.404882
_cell_angle_alpha 59.553769
_cell_angle_beta 59.332917
_cell_angle_gamma 37.294183
_cell_volume 594.136758
_symmetry_space_group_name_H-M "P -1"
_symmetry_group_IT_number 2
_symmetry_cell_setting 'triclinic'
loop_
_space_group_symop_operation_xyz
x,y,z
-x,-y,-z
loop_
_atom_site_type_symbol
_atom_site_label
_atom_site_fract_x
_atom_site_fract_y
_atom_site_fract_z
Si Si1 0.461423 0.345207 0.601421
Si Si2 0.274355 0.667346 0.196444
Si Si3 0.543331 0.084143 0.494565
Si Si4 0.993675 0.806268 0.689127
Si Si5 0.186283 0.226631 0.262084
Si Si6 0.222261 0.311229 0.589481
Si Si7 0.791520 0.455757 0.923040
Si Si8 0.289156 0.879447 0.099088
O O1 0.414908 0.497885 0.344872
O O2 0.461687 0.251022 0.519916
O O3 0.620356 0.235165 0.643918
O O4 0.342699 0.398447 0.905132
O O5 0.128997 0.770386 0.438766
O O6 0.244692 0.636810 0.013380
O O7 0.304460 0.775282 0.995554
O O8 0.396570 0.134528 0.535793
O O9 0.640744 0.942477 0.743049
O O10 0.651013 0.048616 0.172902
O O11 0.913050 0.804892 0.582691
O O12 0.056848 0.669284 0.977393
O O13 0.879586 0.975655 0.767360
O O14 0.136860 0.327612 0.451671
O O15 0.162382 0.319449 0.929650
O O16 0.194945 0.464346 0.420295
#
# Coordination Sequence:
#
# PCOD8031809 Si02
#       8
#     2   2   2   2   2   2   2   2
#     4  11  22  46  74 107 153 188 249 310 376 439
#     4  11  26  47  75 106 152 201 246 309 380 449
#     4  12  25  45  76 113 154 184 254 322 374 451
#     4  11  28  48  71 108 155 194 254 311 364 462
#     4  12  28  47  79 111 150 205 254 314 385 446
#     4  12  26  48  78 112 150 203 252 316 387 443
#     4  11  26  47  73 107 157 193 252 309 371 456
#     4  12  25  46  78 110 147 198 250 308 388 446
#
# _framework density 26.929824
#
# number of rings (size 3 to 8) (size 9 to 14) (size 15 to 20)
#    0.000    0.500    3.750    3.000    5.250    5.500 
#    0.000    0.000    0.000    0.000    0.000    0.000 
#    0.000    0.000    0.000    0.000    0.000    0.000 
#
# Total GULP energy -198503.294848 kJ/mol
# GULP energy per Si atom -12406.455928 kJ/mol
# Density = 2.686853 g / cm^3
# Si number density = 26.929824 Si / 1000 Ang^3
#
#
#
# Elastic Constant Matrix: (Units=GPa)
#
#
# Indices 1 2 3 4 5 6 
#
# 1 95.0962 -0.1928 15.0166 -21.6596 21.8180 -4.5043
# 2 -0.1928 101.2783 5.8835 -1.4598 13.1428 -18.2106
# 3 15.0166 5.8835 81.8656 -12.2303 18.7683 0.7683
# 4 -21.6596 -1.4598 -12.2303 28.7976 5.7705 1.3136
# 5 21.8180 13.1428 18.7683 5.7705 35.5550 -2.4627
# 6 -4.5043 -18.2106 0.7683 1.3136 -2.4627 33.7447
#
#
#
# Elastic Compliance Matrix: (Units=1/GPa)
#
#
# Indices 1 2 3 4 5 6 
#
# 1 0.018043 0.002583 0.002964 0.018166 -0.016413 0.001830
# 2 0.002583 0.011837 0.000694 0.003869 -0.006533 0.006089
# 3 0.002964 0.000694 0.016288 0.011762 -0.012650 -0.000982
# 4 0.018166 0.003869 0.011762 0.059280 -0.028416 -0.000137
# 5 -0.016413 -0.006533 -0.012650 -0.028416 0.051864 -0.000537
# 6 0.001830 0.006089 -0.000982 -0.000137 -0.000537 0.033153
#
#
# Mechanical properties :
#
#
# Convention : Reuss Voigt Hill
#
# Bulk Modulus (GPa) = 17.05036 35.51716 26.28376
# Shear Modulus (GPa) = 25.31231 36.78831 31.05031
#
# Velocity S-wave (km/s) = 3.06916 3.70006 3.39928
# Velocity P-wave (km/s) = 4.34797 5.60993 5.01877
#
# Compressibility (1/GPa) = 0.05864979
#
# Stress axis : x y z
#
# Youngs Moduli (GPa) = 55.42455 84.48195 61.39444
#
# Poissons Ratio (x) = -0.21820 -0.18199
# Poissons Ratio (y) = -0.14315 -0.04261
# Poissons Ratio (z) = -0.16429 -0.05864
#
# Static dielectric constant tensor:
#      x y z
#    x 4.953320 -0.069790 0.127830 
#    y -0.069790 4.963910 -0.123150 
#    z 0.127830 -0.123150 4.481110 
# 
# 
# High freq. dielectric constant tensor:
#      x y z
#    x 2.092950 -0.002730 0.010610 
#    y -0.002730 2.100430 -0.000590 
#    z 0.010610 -0.000590 2.064710 
# 
# From -- ./inp_files/97555.got.cif
#   From: 2010.06.25/outbox.cif.g09.slc.cpg/sg2_49_cif.got.tgz:97555.got - 2010.06.27 13:26:56.
