data_PCOD8031478
_publ_section_title
;
Structure prediction by ZEFSAII (Michael W. Deem and Ramdas Pophale) SiO2 
 PCOD8031478
Probable space group: P -1
;
_chemical_formula_sum "Si O2"
_cell_formula_units_Z 16
_cell_length_a 14.903507
_cell_length_b 15.265206
_cell_length_c 12.238467
_cell_angle_alpha 67.111097
_cell_angle_beta 150.060677
_cell_angle_gamma 135.581060
_cell_volume 732.033247
_symmetry_space_group_name_H-M "P -1"
_symmetry_group_IT_number 2
_symmetry_cell_setting 'triclinic'
loop_
_space_group_symop_operation_xyz
x,y,z
-x,-y,-z
loop_
_atom_site_type_symbol
_atom_site_label
_atom_site_fract_x
_atom_site_fract_y
_atom_site_fract_z
Si Si1 0.149984 0.405960 0.472029
Si Si2 0.436902 0.326592 0.589718
Si Si3 0.962800 0.714031 0.953995
Si Si4 0.653225 0.202940 0.861460
Si Si5 0.731174 0.807593 0.296753
Si Si6 0.864643 0.668137 0.107596
Si Si7 0.948936 0.488906 0.325843
Si Si8 0.055725 0.826861 0.463178
O O1 0.490069 0.505909 0.772131
O O2 0.203129 0.538367 0.501965
O O3 0.937417 0.265993 0.412144
O O4 0.975131 0.329834 0.208067
O O5 0.736851 0.524465 0.810947
O O6 0.187039 0.257167 0.272661
O O7 0.544313 0.265211 0.704400
O O8 0.261886 0.254996 0.557146
O O9 0.036371 0.779257 0.124513
O O10 0.275968 0.814104 0.173523
O O11 0.383290 0.024469 0.721809
O O12 0.783043 0.770957 0.258651
O O13 0.385244 0.702432 0.971954
O O14 0.000000 0.000000 0.500000
O O15 0.979699 0.611079 0.269260
O O16 0.963846 0.771676 0.267073
O O17 0.000000 0.500000 0.500000
#
# Coordination Sequence:
#
# PCOD8031478 Si02
#       8
#     2   2   2   2   2   2   2   2
#     4  12  22  41  71  99 129 172 221 274 336 389
#     4  11  22  44  68  99 129 170 226 280 322 383
#     4  11  24  42  68  93 131 181 226 265 320 389
#     4  12  25  42  67  99 130 172 226 274 323 384
#     4  12  22  43  71 101 135 163 213 283 341 382
#     4  12  25  45  64  97 138 177 220 269 325 402
#     4  12  23  41  66 101 134 174 213 265 338 401
#     4  12  24  42  65  98 141 169 212 278 338 395
#
# _framework density 21.856930999999999
#
# number of rings (size 3 to 8) (size 9 to 14) (size 15 to 20)
#    0.000    0.250    6.250    4.125    0.000    2.500 
#    0.000    0.625    0.000    0.000    0.000    0.000 
#    0.000    0.000    0.000    0.000    0.000    0.000 
#
# Total GULP energy -198362.298432 kJ/mol
# GULP energy per Si atom -12397.643652 kJ/mol
# Density = 2.180718 g / cm^3
# Si number density = 21.856931 Si / 1000 Ang^3
#
#
#
# Elastic Constant Matrix: (Units=GPa)
#
#
# Indices 1 2 3 4 5 6 
#
# 1 150.7491 31.0010 23.4443 -26.0203 -11.1088 12.4830
# 2 31.0010 84.7192 34.7661 -20.5528 1.7574 2.3906
# 3 23.4443 34.7661 50.4501 -22.2962 -16.1371 2.9608
# 4 -26.0203 -20.5528 -22.2962 33.0290 2.5391 1.3140
# 5 -11.1088 1.7574 -16.1371 2.5391 37.6826 -4.4203
# 6 12.4830 2.3906 2.9608 1.3140 -4.4203 39.2106
#
#
#
# Elastic Compliance Matrix: (Units=1/GPa)
#
#
# Indices 1 2 3 4 5 6 
#
# 1 0.008280 -0.001986 0.000996 0.005885 0.002266 -0.002532
# 2 -0.001986 0.018642 -0.013666 0.001397 -0.007443 -0.000358
# 3 0.000996 -0.013666 0.043675 0.020430 0.018090 -0.001427
# 4 0.005885 0.001397 0.020430 0.049242 0.006583 -0.004410
# 5 0.002266 -0.007443 0.018090 0.006583 0.035103 0.002103
# 6 -0.002532 -0.000358 -0.001427 -0.004410 0.002103 0.026824
#
#
# Mechanical properties :
#
#
# Convention : Reuss Voigt Hill
#
# Bulk Modulus (GPa) = 24.22259 51.59349 37.90804
# Shear Modulus (GPa) = 22.23797 35.09823 28.66810
#
# Velocity S-wave (km/s) = 3.19318 4.01161 3.62557
# Velocity P-wave (km/s) = 4.97007 6.71667 5.90827
#
# Compressibility (1/GPa) = 0.04128378
#
# Stress axis : x y z
#
# Youngs Moduli (GPa) = 120.77810 53.64233 22.89614
#
# Poissons Ratio (x) = 0.10654 -0.02279
# Poissons Ratio (y) = 0.23987 0.31290
# Poissons Ratio (z) = -0.12024 0.73309
#
# Static dielectric constant tensor:
#      x y z
#    x 4.350160 0.093280 0.029620 
#    y 0.093280 3.945940 -0.119650 
#    z 0.029620 -0.119650 3.668380 
# 
# 
# High freq. dielectric constant tensor:
#      x y z
#    x 1.884580 -0.001920 0.002820 
#    y -0.001920 1.851600 -0.021040 
#    z 0.002820 -0.021040 1.844050 
# 
# From -- ./inp_files/455666.got.cif
#   From: 2010.06.25/outbox.cif.g09.slc.cpg/sg2_228_cif.got.tgz:455666.got - 2010.06.27 13:26:56.
