data_PCOD8031353
_publ_section_title
;
Structure prediction by ZEFSAII (Michael W. Deem and Ramdas Pophale) SiO2 
 PCOD8031353
Probable space group: P -1
;
_chemical_formula_sum "Si O2"
_cell_formula_units_Z 16
_cell_length_a 15.032935
_cell_length_b 8.947930
_cell_length_c 10.747571
_cell_angle_alpha 53.809529
_cell_angle_beta 104.774685
_cell_angle_gamma 140.459250
_cell_volume 683.999741
_symmetry_space_group_name_H-M "P -1"
_symmetry_group_IT_number 2
_symmetry_cell_setting 'triclinic'
loop_
_space_group_symop_operation_xyz
x,y,z
-x,-y,-z
loop_
_atom_site_type_symbol
_atom_site_label
_atom_site_fract_x
_atom_site_fract_y
_atom_site_fract_z
Si Si1 0.857332 0.712698 0.440236
Si Si2 0.631320 0.455755 0.689740
Si Si3 0.884211 0.344384 0.642936
Si Si4 0.350199 0.112782 0.413542
Si Si5 0.344166 0.561167 0.718439
Si Si6 0.877491 0.964707 0.939402
Si Si7 0.323360 0.838492 0.763438
Si Si8 0.164203 0.348280 0.137069
O O1 0.745081 0.651266 0.517015
O O2 0.898550 0.578867 0.583622
O O3 0.772419 0.522608 0.375349
O O4 0.002992 0.077248 0.285689
O O5 0.629666 0.641047 0.674695
O O6 0.700167 0.415684 0.830398
O O7 0.461040 0.137381 0.747011
O O8 0.000000 0.500000 0.500000
O O9 0.720876 0.041680 0.670922
O O10 0.925937 0.258812 0.806383
O O11 0.513630 0.276522 0.389591
O O12 0.262895 0.887979 0.614402
O O13 0.388321 0.766793 0.746004
O O14 0.255564 0.245964 0.902128
O O15 0.819504 0.817249 0.853232
O O16 0.000000 0.000000 0.000000
O O17 0.184614 0.553515 0.946062
#
# Coordination Sequence:
#
# PCOD8031353 Si02
#       8
#     2   2   2   2   2   2   2   2
#     4  12  23  44  73 100 140 182 231 281 347 407
#     4  12  25  46  67  97 144 192 226 277 344 417
#     4  12  23  41  71 105 133 175 233 286 341 414
#     4  12  24  44  67 104 139 182 239 275 342 415
#     4  11  23  42  71 102 136 179 234 286 342 400
#     4  11  22  43  71 101 135 169 219 296 346 394
#     4  11  24  42  71  97 137 183 227 283 346 399
#     4  11  24  44  68 101 136 179 229 287 346 405
#
# _framework density 23.391822000000001
#
# number of rings (size 3 to 8) (size 9 to 14) (size 15 to 20)
#    0.000    0.500    6.250    2.250    1.750    0.500 
#    4.500    0.625    0.000    0.000    0.000    0.000 
#    0.000    0.000    0.000    0.000    0.000    0.000 
#
# Total GULP energy -198255.254840 kJ/mol
# GULP energy per Si atom -12390.953428 kJ/mol
# Density = 2.333858 g / cm^3
# Si number density = 23.391822 Si / 1000 Ang^3
#
#
#
# Elastic Constant Matrix: (Units=GPa)
#
#
# Indices 1 2 3 4 5 6 
#
# 1 55.0602 8.7830 20.5953 -13.8921 7.1606 0.8405
# 2 8.7830 74.1871 14.9126 1.3637 3.1322 3.7868
# 3 20.5953 14.9126 137.5445 -14.2557 11.2362 7.7359
# 4 -13.8921 1.3637 -14.2557 35.2637 6.1461 -1.0971
# 5 7.1606 3.1322 11.2362 6.1461 24.3453 6.1811
# 6 0.8405 3.7868 7.7359 -1.0971 6.1811 24.9100
#
#
#
# Elastic Compliance Matrix: (Units=1/GPa)
#
#
# Indices 1 2 3 4 5 6 
#
# 1 0.022771 -0.002335 -0.001536 0.010080 -0.008924 0.002722
# 2 -0.002335 0.014140 -0.001343 -0.002156 0.000508 -0.001875
# 3 -0.001536 -0.001343 0.008386 0.003460 -0.003801 -0.001253
# 4 0.010080 -0.002156 0.003460 0.036474 -0.014540 0.004127
# 5 -0.008924 0.000508 -0.003801 -0.014540 0.052152 -0.012177
# 6 0.002722 -0.001875 -0.001253 0.004127 -0.012177 0.043930
#
#
# Mechanical properties :
#
#
# Convention : Reuss Voigt Hill
#
# Bulk Modulus (GPa) = 28.67824 39.48597 34.08211
# Shear Modulus (GPa) = 25.01222 31.73718 28.37470
#
# Velocity S-wave (km/s) = 3.27352 3.68742 3.48662
# Velocity P-wave (km/s) = 5.15504 5.92000 5.55071
#
# Compressibility (1/GPa) = 0.03486964
#
# Stress axis : x y z
#
# Youngs Moduli (GPa) = 43.91511 70.72303 119.25240
#
# Poissons Ratio (x) = 0.16511 0.18315
# Poissons Ratio (y) = 0.10252 0.16015
# Poissons Ratio (z) = 0.06745 0.09498
#
# Static dielectric constant tensor:
#      x y z
#    x 3.984630 0.167840 0.280250 
#    y 0.167840 3.692120 0.140110 
#    z 0.280250 0.140110 4.958820 
# 
# 
# High freq. dielectric constant tensor:
#      x y z
#    x 1.892280 0.007160 -0.001830 
#    y 0.007160 1.928570 0.001690 
#    z -0.001830 0.001690 1.938640 
# 
# From -- ./inp_files/298152.got.cif
#   From: 2010.06.25/outbox.cif.g09.slc.cpg/sg2_150_cif.got.tgz:298152.got - 2010.06.27 13:26:56.
