data_PCOD8031990
_publ_section_title
;
Structure prediction by ZEFSAII (Michael W. Deem and Ramdas Pophale) SiO2 
 PCOD8031990
Probable space group: P -1
;
_chemical_formula_sum "Si O2"
_cell_formula_units_Z 12
_cell_length_a 18.289879
_cell_length_b 8.733202
_cell_length_c 14.749226
_cell_angle_alpha 43.948666
_cell_angle_beta 20.180068
_cell_angle_gamma 47.297592
_cell_volume 564.004718
_symmetry_space_group_name_H-M "P -1"
_symmetry_group_IT_number 2
_symmetry_cell_setting 'triclinic'
loop_
_space_group_symop_operation_xyz
x,y,z
-x,-y,-z
loop_
_atom_site_type_symbol
_atom_site_label
_atom_site_fract_x
_atom_site_fract_y
_atom_site_fract_z
Si Si1 0.978019 0.715909 0.722909
Si Si2 0.643097 0.038808 0.903915
Si Si3 0.620788 0.931960 0.632137
Si Si4 0.995975 0.767247 0.159745
Si Si5 0.966945 0.246783 0.153202
Si Si6 0.329863 0.960435 0.790780
O O1 0.170838 0.787710 0.403595
O O2 0.983396 0.447987 0.836409
O O3 0.015082 0.823186 0.732657
O O4 0.752823 0.807936 0.907577
O O5 0.486850 0.144448 0.116639
O O6 0.500000 0.000000 0.000000
O O7 0.785959 0.755305 0.472396
O O8 0.428564 0.952844 0.777549
O O9 0.742662 0.163341 0.409613
O O10 0.196854 0.747590 0.003562
O O11 0.000000 0.000000 0.000000
O O12 0.155584 0.153481 0.911835
O O13 0.000000 0.500000 0.000000
O O14 0.500000 0.000000 0.500000
#
# Coordination Sequence:
#
# PCOD8031990 Si02
#       6
#     2   2   2   2   2   2
#     4  11  24  43  70 101 130 175 225 277 327 390
#     4  11  24  46  69  95 134 176 230 275 319 391
#     4  11  23  43  64  94 133 176 218 268 332 394
#     4  11  24  43  66 101 140 167 215 276 336 399
#     4  11  24  39  66  99 133 167 223 278 330 390
#     4  11  23  40  61  93 136 173 208 264 333 401
#
# _framework density 21.276419000000001
#
# number of rings (size 3 to 8) (size 9 to 14) (size 15 to 20)
#    0.000    1.000    5.000    2.000    0.000    4.000 
#    0.000    1.667    0.000    0.000    0.000    0.000 
#    0.000    0.000    0.000    0.000    0.000    0.000 
#
# Total GULP energy -148704.572000 kJ/mol
# GULP energy per Si atom -12392.047667 kJ/mol
# Density = 2.122799 g / cm^3
# Si number density = 21.276419 Si / 1000 Ang^3
#
#
#
# Elastic Constant Matrix: (Units=GPa)
#
#
# Indices 1 2 3 4 5 6 
#
# 1 141.7359 20.6255 34.2787 9.8245 -13.4407 3.0365
# 2 20.6255 74.9615 21.4628 -1.9106 -0.9766 10.4560
# 3 34.2787 21.4628 112.5667 25.7475 8.1444 3.2662
# 4 9.8245 -1.9106 25.7475 27.3734 7.6042 2.2857
# 5 -13.4407 -0.9766 8.1444 7.6042 55.9942 6.4882
# 6 3.0365 10.4560 3.2662 2.2857 6.4882 32.4379
#
#
#
# Elastic Compliance Matrix: (Units=1/GPa)
#
#
# Indices 1 2 3 4 5 6 
#
# 1 0.008133 -0.001656 -0.001892 -0.001917 0.002506 -0.000403
# 2 -0.001656 0.015657 -0.003593 0.005415 0.000237 -0.004959
# 3 -0.001892 -0.003593 0.012798 -0.011434 -0.000946 0.001042
# 4 -0.001917 0.005415 -0.011434 0.050029 -0.005160 -0.002908
# 5 0.002506 0.000237 -0.000946 -0.005160 0.019743 -0.003801
# 6 -0.000403 -0.004959 0.001042 -0.002908 -0.003801 0.033325
#
#
# Mechanical properties :
#
#
# Convention : Reuss Voigt Hill
#
# Bulk Modulus (GPa) = 44.82892 53.55535 49.19213
# Shear Modulus (GPa) = 30.97828 40.02091 35.49960
#
# Velocity S-wave (km/s) = 3.81989 4.34175 4.08915
# Velocity P-wave (km/s) = 6.36953 7.09650 6.74282
#
# Compressibility (1/GPa) = 0.02230703
#
# Stress axis : x y z
#
# Youngs Moduli (GPa) = 122.95456 63.86757 78.13517
#
# Poissons Ratio (x) = 0.10577 0.14783
# Poissons Ratio (y) = 0.20363 0.28073
# Poissons Ratio (z) = 0.23262 0.22947
#
# Static dielectric constant tensor:
#      x y z
#    x 4.082430 0.181420 0.030010 
#    y 0.181420 3.154460 0.070990 
#    z 0.030010 0.070990 4.011940 
# 
# 
# High freq. dielectric constant tensor:
#      x y z
#    x 1.862760 0.017540 -0.002600 
#    y 0.017540 1.797710 0.021510 
#    z -0.002600 0.021510 1.849010 
# 
# From -- ./inp_files/23422.got.cif
#   From: 2010.06.25/outbox.cif.g09.slc.cpg/sg2_12_cif.got.tgz:23422.got - 2010.06.27 13:26:56.
