data_PCOD8031792
_publ_section_title
;
Structure prediction by ZEFSAII (Michael W. Deem and Ramdas Pophale) SiO2 
 PCOD8031792
Probable space group: P -1
;
_chemical_formula_sum "Si O2"
_cell_formula_units_Z 16
_cell_length_a 11.640322
_cell_length_b 9.298013
_cell_length_c 17.010270
_cell_angle_alpha 130.620490
_cell_angle_beta 31.832846
_cell_angle_gamma 131.304391
_cell_volume 710.284452
_symmetry_space_group_name_H-M "P -1"
_symmetry_group_IT_number 2
_symmetry_cell_setting 'triclinic'
loop_
_space_group_symop_operation_xyz
x,y,z
-x,-y,-z
loop_
_atom_site_type_symbol
_atom_site_label
_atom_site_fract_x
_atom_site_fract_y
_atom_site_fract_z
Si Si1 0.291838 0.054563 0.182020
Si Si2 0.754561 0.215562 0.164314
Si Si3 0.483476 0.827059 0.242457
Si Si4 0.534565 0.798734 0.376417
Si Si5 0.141501 0.337080 0.098639
Si Si6 0.621931 0.625183 0.624790
Si Si7 0.038339 0.990082 0.151065
Si Si8 0.105821 0.746934 0.315330
O O1 0.367207 0.262686 0.257999
O O2 0.114992 0.069001 0.221642
O O3 0.167228 0.883518 0.252609
O O4 0.500000 0.000000 0.000000
O O5 0.593302 0.356759 0.294311
O O6 0.993932 0.330861 0.102881
O O7 0.648411 0.045982 0.228412
O O8 0.782335 0.114035 0.028609
O O9 0.423171 0.754337 0.339636
O O10 0.258761 0.844715 0.334878
O O11 0.610973 0.683189 0.074099
O O12 0.407098 0.607279 0.432055
O O13 0.802043 0.822665 0.229833
O O14 0.500000 0.000000 0.500000
O O15 0.172357 0.546308 0.193418
O O16 0.017419 0.172245 0.174595
O O17 0.845226 0.718678 0.477722
#
# Coordination Sequence:
#
# PCOD8031792 Si02
#       8
#     2   2   2   2   2   2   2   2
#     4  12  26  47  73 107 144 186 241 293 353 429
#     4  11  22  46  73 102 143 188 240 296 357 427
#     4  11  23  46  74  97 145 187 243 295 350 431
#     4  12  28  46  71 107 142 191 241 300 361 415
#     4  11  23  45  75 106 138 189 244 292 360 417
#     4  12  29  47  70 107 151 188 234 293 370 426
#     4  11  23  45  71 107 141 184 246 302 346 422
#     4  12  28  46  70 107 148 192 232 294 366 428
#
# _framework density 22.526185999999999
#
# number of rings (size 3 to 8) (size 9 to 14) (size 15 to 20)
#    0.000    0.500    5.000    3.000    7.000    1.500 
#    0.000    0.000    0.000    0.000    0.000    0.000 
#    0.000    0.000    0.000    0.000    0.000    0.000 
#
# Total GULP energy -198460.548577 kJ/mol
# GULP energy per Si atom -12403.784286 kJ/mol
# Density = 2.247491 g / cm^3
# Si number density = 22.526186 Si / 1000 Ang^3
#
#
#
# Elastic Constant Matrix: (Units=GPa)
#
#
# Indices 1 2 3 4 5 6 
#
# 1 136.9077 22.8506 36.6425 -7.3396 -6.3037 -10.8411
# 2 22.8506 95.9770 63.9120 -5.5040 4.4524 -2.8448
# 3 36.6425 63.9120 92.4846 7.8944 -4.2268 -16.9547
# 4 -7.3396 -5.5040 7.8944 29.9039 3.2886 3.1457
# 5 -6.3037 4.4524 -4.2268 3.2886 28.8860 1.3393
# 6 -10.8411 -2.8448 -16.9547 3.1457 1.3393 25.2870
#
#
#
# Elastic Compliance Matrix: (Units=1/GPa)
#
#
# Indices 1 2 3 4 5 6 
#
# 1 0.008508 0.000887 -0.004124 0.003203 0.000727 0.000546
# 2 0.000887 0.025242 -0.021497 0.012688 -0.007714 -0.012364
# 3 -0.004124 -0.021497 0.032625 -0.016512 0.008172 0.019310
# 4 0.003203 0.012688 -0.016512 0.043189 -0.007977 -0.013221
# 5 0.000727 -0.007714 0.008172 -0.007977 0.037889 0.003909
# 6 0.000546 -0.012364 0.019310 -0.013221 0.003909 0.052774
#
#
# Mechanical properties :
#
#
# Convention : Reuss Voigt Hill
#
# Bulk Modulus (GPa) = 59.14814 63.57551 61.36183
# Shear Modulus (GPa) = 19.58238 30.27967 24.93103
#
# Velocity S-wave (km/s) = 2.95162 3.67031 3.33041
# Velocity P-wave (km/s) = 6.15878 6.80042 6.48754
#
# Compressibility (1/GPa) = 0.01690670
#
# Stress axis : x y z
#
# Youngs Moduli (GPa) = 117.53235 39.61605 30.65126
#
# Poissons Ratio (x) = -0.03512 0.12640
# Poissons Ratio (y) = -0.10419 0.65892
# Poissons Ratio (z) = 0.48468 0.85163
#
# Static dielectric constant tensor:
#      x y z
#    x 4.113910 0.062950 0.010550 
#    y 0.062950 4.085260 -0.043870 
#    z 0.010550 -0.043870 4.071790 
# 
# 
# High freq. dielectric constant tensor:
#      x y z
#    x 1.898200 0.001500 -0.005000 
#    y 0.001500 1.882900 0.000240 
#    z -0.005000 0.000240 1.890110 
# 
# From -- ./inp_files/209211.got.cif
#   From: 2010.06.25/outbox.cif.g09.slc.cpg/sg2_105_cif.got.tgz:209211.got - 2010.06.27 13:26:56.
