data_PCOD8031484
_publ_section_title
;
Structure prediction by ZEFSAII (Michael W. Deem and Ramdas Pophale) SiO2 
 PCOD8031484
Probable space group: P -1
;
_chemical_formula_sum "Si O2"
_cell_formula_units_Z 16
_cell_length_a 12.113261
_cell_length_b 9.536102
_cell_length_c 27.834982
_cell_angle_alpha 151.167175
_cell_angle_beta 27.828614
_cell_angle_gamma 142.720916
_cell_volume 720.715085
_symmetry_space_group_name_H-M "P -1"
_symmetry_group_IT_number 2
_symmetry_cell_setting 'triclinic'
loop_
_space_group_symop_operation_xyz
x,y,z
-x,-y,-z
loop_
_atom_site_type_symbol
_atom_site_label
_atom_site_fract_x
_atom_site_fract_y
_atom_site_fract_z
Si Si1 0.669182 0.898176 0.179059
Si Si2 0.003976 0.459028 0.604855
Si Si3 0.545923 0.106180 0.460418
Si Si4 0.286025 0.341888 0.804812
Si Si5 0.878042 0.531318 0.267541
Si Si6 0.105746 0.612699 0.104727
Si Si7 0.587604 0.852071 0.873913
Si Si8 0.876259 0.130846 0.646863
O O1 0.728081 0.802851 0.181183
O O2 0.393456 0.933056 0.286670
O O3 0.834229 0.193662 0.195544
O O4 0.745086 0.663121 0.041046
O O5 0.196861 0.719853 0.593929
O O6 0.749789 0.587915 0.742636
O O7 0.039358 0.325756 0.604326
O O8 0.019291 0.184246 0.480280
O O9 0.350297 0.313214 0.581383
O O10 0.500000 0.000000 0.500000
O O11 0.530707 0.821582 0.347161
O O12 0.366921 0.688911 0.881048
O O13 0.027134 0.318769 0.873089
O O14 0.918289 0.564373 0.205177
O O15 0.104014 0.687895 0.256499
O O16 0.284418 0.897264 0.133610
O O17 0.500000 0.000000 0.000000
#
# Coordination Sequence:
#
# PCOD8031484 Si02
#       8
#     2   2   2   2   2   2   2   2
#     4  12  26  46  73 103 138 187 238 289 349 416
#     4  11  22  44  69 101 140 178 235 289 341 417
#     4  12  24  45  71 104 143 183 232 285 358 418
#     4  12  25  44  78 101 140 183 238 294 343 413
#     4  12  27  45  71 103 145 187 227 290 356 421
#     4  12  27  47  68 107 142 187 236 284 355 419
#     4  12  24  43  72 103 138 179 235 284 348 408
#     4  11  25  44  72 102 141 180 236 291 351 410
#
# _framework density 22.200171999999998
#
# number of rings (size 3 to 8) (size 9 to 14) (size 15 to 20)
#    0.000    0.250    6.250    2.250    1.750    4.500 
#    0.000    2.500    0.000    0.000    0.000    0.000 
#    0.000    0.000    0.000    0.000    0.000    0.000 
#
# Total GULP energy -198443.385023 kJ/mol
# GULP energy per Si atom -12402.711564 kJ/mol
# Density = 2.214964 g / cm^3
# Si number density = 22.200172 Si / 1000 Ang^3
#
#
#
# Elastic Constant Matrix: (Units=GPa)
#
#
# Indices 1 2 3 4 5 6 
#
# 1 75.5542 44.5217 14.3950 5.2460 10.0749 -0.2223
# 2 44.5217 139.3608 40.6432 16.6221 17.3173 6.2388
# 3 14.3950 40.6432 134.6449 17.3443 9.0662 -4.6416
# 4 5.2460 16.6221 17.3443 43.0405 3.7934 6.2732
# 5 10.0749 17.3173 9.0662 3.7934 32.0283 2.3523
# 6 -0.2223 6.2388 -4.6416 6.2732 2.3523 16.7660
#
#
#
# Elastic Compliance Matrix: (Units=1/GPa)
#
#
# Indices 1 2 3 4 5 6 
#
# 1 0.016593 -0.005076 0.000055 -0.000227 -0.002653 0.002581
# 2 -0.005076 0.010150 -0.002239 -0.001648 -0.002809 -0.003453
# 3 0.000055 -0.002239 0.008758 -0.003239 -0.001243 0.004645
# 4 -0.000227 -0.001648 -0.003239 0.026740 -0.000537 -0.010216
# 5 -0.002653 -0.002809 -0.001243 -0.000537 0.034281 -0.003943
# 6 0.002581 -0.003453 0.004645 -0.010216 -0.003943 0.066625
#
#
# Mechanical properties :
#
#
# Convention : Reuss Voigt Hill
#
# Bulk Modulus (GPa) = 47.65965 60.96440 54.31202
# Shear Modulus (GPa) = 27.07664 35.03361 31.05512
#
# Velocity S-wave (km/s) = 3.49615 3.97681 3.74420
# Velocity P-wave (km/s) = 6.14916 6.97191 6.57342
#
# Compressibility (1/GPa) = 0.02098211
#
# Stress axis : x y z
#
# Youngs Moduli (GPa) = 60.26528 98.51821 114.18258
#
# Poissons Ratio (x) = 0.50007 -0.00628
# Poissons Ratio (y) = 0.30590 0.25564
# Poissons Ratio (z) = -0.00332 0.22057
#
# Static dielectric constant tensor:
#      x y z
#    x 3.772500 0.136160 0.092750 
#    y 0.136160 4.182830 0.247650 
#    z 0.092750 0.247650 4.353870 
# 
# 
# High freq. dielectric constant tensor:
#      x y z
#    x 1.854100 0.007580 0.003420 
#    y 0.007580 1.883630 0.009930 
#    z 0.003420 0.009930 1.896070 
# 
# From -- ./inp_files/273849.got.cif
#   From: 2010.06.25/outbox.cif.g09.slc.cpg/sg2_137_cif.got.tgz:273849.got - 2010.06.27 13:26:56.
