data_PCOD8031413
_publ_section_title
;
Structure prediction by ZEFSAII (Michael W. Deem and Ramdas Pophale) SiO2 
 PCOD8031413
Probable space group: P -1
;
_chemical_formula_sum "Si O2"
_cell_formula_units_Z 16
_cell_length_a 11.034042
_cell_length_b 8.362489
_cell_length_c 18.866332
_cell_angle_alpha 149.026017
_cell_angle_beta 51.095769
_cell_angle_gamma 120.948446
_cell_volume 695.927244
_symmetry_space_group_name_H-M "P -1"
_symmetry_group_IT_number 2
_symmetry_cell_setting 'triclinic'
loop_
_space_group_symop_operation_xyz
x,y,z
-x,-y,-z
loop_
_atom_site_type_symbol
_atom_site_label
_atom_site_fract_x
_atom_site_fract_y
_atom_site_fract_z
Si Si1 0.335816 0.688017 0.118374
Si Si2 0.393830 0.527984 0.649901
Si Si3 0.861438 0.764092 0.151945
Si Si4 0.695271 0.886435 0.851588
Si Si5 0.588734 0.440300 0.186919
Si Si6 0.031366 0.654972 0.620618
Si Si7 0.705396 0.741239 0.555158
Si Si8 0.842468 0.907703 0.059727
O O1 0.197773 0.449104 0.075272
O O2 0.329238 0.903556 0.131577
O O3 0.304267 0.901831 0.280722
O O4 0.500000 0.500000 0.000000
O O5 0.385181 0.408657 0.688320
O O6 0.572199 0.555807 0.572482
O O7 0.314701 0.290707 0.534970
O O8 0.306546 0.866642 0.817493
O O9 0.687671 0.640887 0.172921
O O10 0.883456 0.022952 0.302728
O O11 0.873063 0.958178 0.150110
O O12 0.000000 0.500000 0.000000
O O13 0.595673 0.575921 0.765984
O O14 0.867887 0.755109 0.754647
O O15 0.650200 0.080303 0.013310
O O16 0.127457 0.414737 0.544374
O O17 0.000000 0.500000 0.500000
O O18 0.000000 0.000000 0.000000
#
# Coordination Sequence:
#
# PCOD8031413 Si02
#       8
#     2   2   2   2   2   2   2   2
#     4  12  22  45  74 102 133 189 237 289 354 424
#     4  11  23  45  70 103 143 186 237 292 358 420
#     4  12  24  43  69 105 137 186 238 289 352 422
#     4  11  23  41  72 112 139 183 237 298 356 421
#     4  11  22  43  74 104 145 182 242 294 347 427
#     4  12  23  44  70 101 149 189 232 297 365 416
#     4  11  24  43  73 100 145 193 234 291 362 424
#     4  12  25  43  71 103 136 181 236 299 353 418
#
# _framework density 22.990908999999998
#
# number of rings (size 3 to 8) (size 9 to 14) (size 15 to 20)
#    0.000    0.500    7.500    0.750    0.000    0.000 
#    0.000    4.375    0.000    0.000    0.000    0.000 
#    0.000    0.000    0.000    0.000    0.000    0.000 
#
# Total GULP energy -198286.464889 kJ/mol
# GULP energy per Si atom -12392.904056 kJ/mol
# Density = 2.293858 g / cm^3
# Si number density = 22.990909 Si / 1000 Ang^3
#
#
#
# Elastic Constant Matrix: (Units=GPa)
#
#
# Indices 1 2 3 4 5 6 
#
# 1 124.8808 44.9879 57.4195 -6.0731 7.0368 19.8632
# 2 44.9879 114.0912 21.3751 -8.7763 6.9649 26.0712
# 3 57.4195 21.3751 120.5881 5.7265 21.3907 5.8106
# 4 -6.0731 -8.7763 5.7265 31.2553 1.9944 13.3245
# 5 7.0368 6.9649 21.3907 1.9944 64.2366 -0.6871
# 6 19.8632 26.0712 5.8106 13.3245 -0.6871 38.8129
#
#
#
# Elastic Compliance Matrix: (Units=1/GPa)
#
#
# Indices 1 2 3 4 5 6 
#
# 1 0.012571 -0.002142 -0.005664 0.005400 0.000510 -0.005991
# 2 -0.002142 0.012713 -0.000906 0.007637 -0.001185 -0.009950
# 3 -0.005664 -0.000906 0.011749 -0.004731 -0.003011 0.003319
# 4 0.005400 0.007637 -0.004731 0.045952 -0.001517 -0.022988
# 5 0.000510 -0.001185 -0.003011 -0.001517 0.016709 0.001803
# 6 -0.005991 -0.009950 0.003319 -0.022988 0.001803 0.042941
#
#
# Mechanical properties :
#
#
# Convention : Reuss Voigt Hill
#
# Bulk Modulus (GPa) = 51.00069 67.45836 59.22953
# Shear Modulus (GPa) = 30.01268 42.57946 36.29607
#
# Velocity S-wave (km/s) = 3.61697 4.30817 3.97761
# Velocity P-wave (km/s) = 6.29877 7.35881 6.84933
#
# Compressibility (1/GPa) = 0.01960758
#
# Stress axis : x y z
#
# Youngs Moduli (GPa) = 79.55112 78.65933 85.11189
#
# Poissons Ratio (x) = 0.16851 0.48208
# Poissons Ratio (y) = 0.17042 0.07714
# Poissons Ratio (z) = 0.45058 0.07129
#
# Static dielectric constant tensor:
#      x y z
#    x 22.325980 6.364210 -9.713980 
#    y 6.364210 6.036950 -3.458110 
#    z -9.713980 -3.458110 9.871280 
# 
# 
# High freq. dielectric constant tensor:
#      x y z
#    x 1.927130 0.016260 0.014910 
#    y 0.016260 1.877420 -0.008680 
#    z 0.014910 -0.008680 1.918350 
# 
# From -- ./inp_files/593874.got.cif
#   From: 2010.06.25/outbox.cif.g09.slc.cpg/sg2_297_cif.got.tgz:593874.got - 2010.06.27 13:26:56.
