data_PCOD8031316
_publ_section_title
;
Structure prediction by ZEFSAII (Michael W. Deem and Ramdas Pophale) SiO2 
 PCOD8031316
Probable space group: P -1
;
_chemical_formula_sum "Si O2"
_cell_formula_units_Z 16
_cell_length_a 9.284132
_cell_length_b 20.081836
_cell_length_c 23.412694
_cell_angle_alpha 18.698614
_cell_angle_beta 31.008706
_cell_angle_gamma 31.087006
_cell_volume 694.230139
_symmetry_space_group_name_H-M "P -1"
_symmetry_group_IT_number 2
_symmetry_cell_setting 'triclinic'
loop_
_space_group_symop_operation_xyz
x,y,z
-x,-y,-z
loop_
_atom_site_type_symbol
_atom_site_label
_atom_site_fract_x
_atom_site_fract_y
_atom_site_fract_z
Si Si1 0.720758 0.288662 0.801609
Si Si2 0.746005 0.810476 0.641228
Si Si3 0.062464 0.165067 0.963921
Si Si4 0.396600 0.281495 0.110010
Si Si5 0.678351 0.541730 0.295747
Si Si6 0.774360 0.643665 0.358700
Si Si7 0.372101 0.091163 0.158338
Si Si8 0.250736 0.769511 0.763016
O O1 0.453841 0.454328 0.726368
O O2 0.975067 0.398243 0.643552
O O3 0.609146 0.214920 0.958942
O O4 0.824379 0.081726 0.892967
O O5 0.758131 0.755218 0.748900
O O6 0.459450 0.761421 0.752491
O O7 0.034462 0.661423 0.633544
O O8 0.712528 0.063801 0.434610
O O9 0.242718 0.235011 0.897485
O O10 0.087443 0.329335 0.770932
O O11 0.739842 0.199421 0.068123
O O12 0.286646 0.145380 0.209324
O O13 0.311582 0.526785 0.916788
O O14 0.403885 0.536904 0.434705
O O15 0.515913 0.841811 0.306155
O O16 0.085585 0.156079 0.163147
#
# Coordination Sequence:
#
# PCOD8031316 Si02
#       8
#     2   2   2   2   2   2   2   2
#     4  11  23  43  68  98 130 179 223 273 342 401
#     4  11  26  44  67 101 136 173 226 278 333 402
#     4  11  23  43  67  98 131 177 226 273 338 406
#     4  12  23  44  69  97 138 177 221 278 335 398
#     4  12  24  43  67  99 134 174 224 282 336 396
#     4  11  22  46  66  93 136 174 220 282 333 400
#     4  11  22  43  69  91 133 178 221 273 336 401
#     4  11  24  45  67  98 134 180 221 277 337 392
#
# _framework density 23.047113
#
# number of rings (size 3 to 8) (size 9 to 14) (size 15 to 20)
#    0.000    0.750    5.000    3.375    1.750    0.500 
#    4.500    0.000    0.000    0.000    0.000    0.000 
#    0.000    0.000    0.000    0.000    0.000    0.000 
#
# Total GULP energy -198334.155266 kJ/mol
# GULP energy per Si atom -12395.884704 kJ/mol
# Density = 2.299466 g / cm^3
# Si number density = 23.047113 Si / 1000 Ang^3
#
#
#
# Elastic Constant Matrix: (Units=GPa)
#
#
# Indices 1 2 3 4 5 6 
#
# 1 82.3638 36.2298 -1.9613 10.4138 -6.1860 -19.7553
# 2 36.2298 80.2107 16.2134 11.5629 -2.0822 -15.9714
# 3 -1.9613 16.2134 56.6753 8.8691 5.0172 -1.4831
# 4 10.4138 11.5629 8.8691 33.7067 -9.6772 -1.1719
# 5 -6.1860 -2.0822 5.0172 -9.6772 28.5603 12.1403
# 6 -19.7553 -15.9714 -1.4831 -1.1719 12.1403 42.8807
#
#
#
# Elastic Compliance Matrix: (Units=1/GPa)
#
#
# Indices 1 2 3 4 5 6 
#
# 1 0.016918 -0.006654 0.003360 -0.003964 -0.001156 0.005651
# 2 -0.006654 0.017551 -0.004453 -0.003267 -0.002113 0.003826
# 3 0.003360 -0.004453 0.020723 -0.006746 -0.006483 0.002257
# 4 -0.003964 -0.003267 -0.006746 0.038107 0.015859 -0.006725
# 5 -0.001156 -0.002113 -0.006483 0.015859 0.047284 -0.014497
# 6 0.005651 0.003826 0.002257 -0.006725 -0.014497 0.031348
#
#
# Mechanical properties :
#
#
# Convention : Reuss Voigt Hill
#
# Bulk Modulus (GPa) = 25.19069 35.57930 30.38500
# Shear Modulus (GPa) = 24.91805 32.28074 28.59939
#
# Velocity S-wave (km/s) = 3.29170 3.74657 3.52648
# Velocity P-wave (km/s) = 5.03992 5.84696 5.45838
#
# Compressibility (1/GPa) = 0.03969720
#
# Stress axis : x y z
#
# Youngs Moduli (GPa) = 59.10888 56.97774 48.25545
#
# Poissons Ratio (x) = 0.37913 -0.16212
# Poissons Ratio (y) = 0.39331 0.21487
# Poissons Ratio (z) = -0.19858 0.25371
#
# Static dielectric constant tensor:
#      x y z
#    x 4.077570 -0.266340 -0.159320 
#    y -0.266340 4.095720 0.063300 
#    z -0.159320 0.063300 4.203850 
# 
# 
# High freq. dielectric constant tensor:
#      x y z
#    x 1.910470 -0.021130 -0.012400 
#    y -0.021130 1.906830 0.010850 
#    z -0.012400 0.010850 1.911380 
# 
# From -- ./inp_files/223209.got.cif
#   From: 2010.06.25/outbox.cif.g09.slc.cpg/sg2_112_cif.got.tgz:223209.got - 2010.06.27 13:26:56.
