data_PCOD8031076
_publ_section_title
;
Structure prediction by ZEFSAII (Michael W. Deem and Ramdas Pophale) SiO2 
 PCOD8031076
Probable space group: P -1
;
_chemical_formula_sum "Si O2"
_cell_formula_units_Z 16
_cell_length_a 7.580452
_cell_length_b 18.400155
_cell_length_c 9.196913
_cell_angle_alpha 92.340925
_cell_angle_beta 86.895663
_cell_angle_gamma 41.664896
_cell_volume 845.107572
_symmetry_space_group_name_H-M "P -1"
_symmetry_group_IT_number 2
_symmetry_cell_setting 'triclinic'
loop_
_space_group_symop_operation_xyz
x,y,z
-x,-y,-z
loop_
_atom_site_type_symbol
_atom_site_label
_atom_site_fract_x
_atom_site_fract_y
_atom_site_fract_z
Si Si1 0.176574 0.037149 0.621481
Si Si2 0.045013 0.372952 0.258000
Si Si3 0.338686 0.196717 0.467368
Si Si4 0.533620 0.571956 0.454006
Si Si5 0.747140 0.377159 0.031017
Si Si6 0.150823 0.886911 0.626587
Si Si7 0.960917 0.252615 0.717073
Si Si8 0.543194 0.315807 0.241845
O O1 0.064595 0.083355 0.466497
O O2 0.083350 0.134207 0.728185
O O3 0.501356 0.928011 0.590571
O O4 0.055355 0.998027 0.688204
O O5 0.816596 0.492397 0.353470
O O6 0.938797 0.367256 0.118345
O O7 0.135990 0.280187 0.354399
O O8 0.285989 0.351305 0.199300
O O9 0.560552 0.192037 0.476830
O O10 0.176666 0.236798 0.626095
O O11 0.500000 0.500000 0.500000
O O12 0.307539 0.667451 0.359288
O O13 0.530817 0.623040 0.598891
O O14 0.631337 0.344383 0.118667
O O15 0.500000 0.500000 0.000000
O O16 0.917795 0.298800 0.880250
O O17 0.206759 0.816808 0.754708
#
# Coordination Sequence:
#
# PCOD8031076 Si02
#       8
#     2   2   2   2   2   2   2   2
#     4   9  18  37  62  95 118 149 207 263 306 352
#     4  11  23  42  63  92 121 165 210 254 303 365
#     4   9  19  36  65  89 116 149 212 263 292 356
#     4  12  20  38  65  91 121 155 211 263 301 354
#     4  12  26  44  57  87 138 167 203 245 306 381
#     4   8  18  36  63  92 119 148 203 267 305 351
#     4  12  21  37  62  91 121 169 197 252 318 357
#     4  11  22  42  66  89 122 167 199 260 312 354
#
# _framework density 18.932500000000001
#
# number of rings (size 3 to 8) (size 9 to 14) (size 15 to 20)
#    0.750    0.750    5.000    0.750    0.000    0.500 
#    2.250    1.250    0.000    0.000    0.000    0.000 
#    0.000    0.000    0.000    0.000    0.000    0.000 
#
# Total GULP energy -198313.082678 kJ/mol
# GULP energy per Si atom -12394.567667 kJ/mol
# Density = 1.888941 g / cm^3
# Si number density = 18.932500 Si / 1000 Ang^3
#
#
#
# Elastic Constant Matrix: (Units=GPa)
#
#
# Indices 1 2 3 4 5 6 
#
# 1 77.9944 32.6493 43.3495 -9.6997 9.4069 8.9056
# 2 32.6493 118.0209 56.3296 -10.5028 -1.6568 -5.0971
# 3 43.3495 56.3296 115.3801 3.3068 9.5875 8.2296
# 4 -9.6997 -10.5028 3.3068 28.6868 6.7843 -2.4271
# 5 9.4069 -1.6568 9.5875 6.7843 19.8392 -6.3109
# 6 8.9056 -5.0971 8.2296 -2.4271 -6.3109 24.6717
#
#
#
# Elastic Compliance Matrix: (Units=1/GPa)
#
#
# Indices 1 2 3 4 5 6 
#
# 1 0.020535 -0.003332 -0.004537 0.008714 -0.013744 -0.009246
# 2 -0.003332 0.013286 -0.006537 0.003467 0.007316 0.008341
# 3 -0.004537 -0.006537 0.014664 -0.004769 -0.005949 -0.006595
# 4 0.008714 0.003467 -0.004769 0.043499 -0.016675 -0.000825
# 5 -0.013744 0.007316 -0.005949 -0.016675 0.074326 0.025829
# 6 -0.009246 0.008341 -0.006595 -0.000825 0.025829 0.054318
#
#
# Mechanical properties :
#
#
# Convention : Reuss Voigt Hill
#
# Bulk Modulus (GPa) = 50.82815 64.00581 57.41698
# Shear Modulus (GPa) = 19.53146 26.57733 23.05440
#
# Velocity S-wave (km/s) = 3.21539 3.75079 3.49336
# Velocity P-wave (km/s) = 6.37890 7.25525 6.83114
#
# Compressibility (1/GPa) = 0.01967414
#
# Stress axis : x y z
#
# Youngs Moduli (GPa) = 48.69750 75.26623 68.19400
#
# Poissons Ratio (x) = 0.25081 0.30937
# Poissons Ratio (y) = 0.16227 0.44576
# Poissons Ratio (z) = 0.22092 0.49199
#
# Static dielectric constant tensor:
#      x y z
#    x 3.415610 0.086410 -0.010260 
#    y 0.086410 3.998910 -0.154170 
#    z -0.010260 -0.154170 3.187670 
# 
# 
# High freq. dielectric constant tensor:
#      x y z
#    x 1.736140 0.002330 0.002500 
#    y 0.002330 1.757320 -0.017380 
#    z 0.002500 -0.017380 1.698780 
# 
# From -- ./inp_files/220840.got.cif
#   From: 2010.06.25/outbox.cif.g09.slc.cpg/sg2_111_cif.got.tgz:220840.got - 2010.06.27 13:26:56.
