data_PCOD8031712
_publ_section_title
;
Structure prediction by ZEFSAII (Michael W. Deem and Ramdas Pophale) SiO2 
 PCOD8031712
Probable space group: P -1
;
_chemical_formula_sum "Si O2"
_cell_formula_units_Z 16
_cell_length_a 18.182700
_cell_length_b 16.173512
_cell_length_c 10.711722
_cell_angle_alpha 146.261523
_cell_angle_beta 45.672266
_cell_angle_gamma 157.691817
_cell_volume 625.792082
_symmetry_space_group_name_H-M "P -1"
_symmetry_group_IT_number 2
_symmetry_cell_setting 'triclinic'
loop_
_space_group_symop_operation_xyz
x,y,z
-x,-y,-z
loop_
_atom_site_type_symbol
_atom_site_label
_atom_site_fract_x
_atom_site_fract_y
_atom_site_fract_z
Si Si1 0.643611 0.876490 0.958497
Si Si2 0.227622 0.230729 0.654886
Si Si3 0.886863 0.670108 0.484515
Si Si4 0.489755 0.159564 0.188398
Si Si5 0.184496 0.789857 0.305851
Si Si6 0.976628 0.735228 0.132942
Si Si7 0.235710 0.298343 0.118076
Si Si8 0.381393 0.151529 0.780422
O O1 0.476095 0.529569 0.736509
O O2 0.595662 0.915054 0.941716
O O3 0.874234 0.103385 0.959580
O O4 0.642538 0.965068 0.204124
O O5 0.194344 0.360143 0.820117
O O6 0.131692 0.988157 0.372353
O O7 0.101177 0.035819 0.687459
O O8 0.734909 0.512699 0.347949
O O9 0.737422 0.536964 0.604529
O O10 0.962017 0.592959 0.310147
O O11 0.340270 0.041078 0.326368
O O12 0.500000 0.000000 0.000000
O O13 0.273153 0.934970 0.520942
O O14 0.140478 0.560146 0.055411
O O15 0.374238 0.526707 0.125519
O O16 0.297549 0.211979 0.980833
O O17 0.000000 0.000000 0.000000
#
# Coordination Sequence:
#
# PCOD8031712 Si02
#       8
#     2   2   2   2   2   2   2   2
#     4  12  26  45  73 109 145 192 245 312 367 436
#     4  11  24  44  69 108 144 192 248 304 366 441
#     4  12  24  43  79 107 142 196 251 303 371 439
#     4  12  26  47  73 107 147 193 246 307 374 440
#     4  12  26  48  76 110 149 195 251 306 372 455
#     4  11  25  46  71 102 150 194 243 306 374 434
#     4  11  22  45  73 107 147 199 244 299 368 445
#     4  11  26  45  74 110 151 193 248 304 371 449
#
# _framework density 25.567596999999999
#
# number of rings (size 3 to 8) (size 9 to 14) (size 15 to 20)
#    0.000    0.500    2.500    6.375    1.750    4.000 
#    0.000    2.500    0.000    0.000    0.000    0.000 
#    0.000    0.000    0.000    0.000    0.000    0.000 
#
# Total GULP energy -198243.781996 kJ/mol
# GULP energy per Si atom -12390.236375 kJ/mol
# Density = 2.550940 g / cm^3
# Si number density = 25.567597 Si / 1000 Ang^3
#
#
#
# Elastic Constant Matrix: (Units=GPa)
#
#
# Indices 1 2 3 4 5 6 
#
# 1 113.2505 53.0091 50.8895 -14.1504 21.2059 -12.0248
# 2 53.0091 146.1318 28.5050 -1.6158 10.7989 -11.3866
# 3 50.8895 28.5050 81.2911 -12.0112 -4.5141 -9.2807
# 4 -14.1504 -1.6158 -12.0112 38.1016 -4.5528 0.8282
# 5 21.2059 10.7989 -4.5141 -4.5528 44.7125 -3.3051
# 6 -12.0248 -11.3866 -9.2807 0.8282 -3.3051 38.3027
#
#
#
# Elastic Compliance Matrix: (Units=1/GPa)
#
#
# Indices 1 2 3 4 5 6 
#
# 1 0.016267 -0.003492 -0.008914 0.002165 -0.007461 0.001218
# 2 -0.003492 0.008388 -0.000839 -0.001291 -0.000499 0.001179
# 3 -0.008914 -0.000839 0.019326 0.003524 0.006900 0.002154
# 4 0.002165 -0.001291 0.003524 0.028399 0.002588 0.000759
# 5 -0.007461 -0.000499 0.006900 0.002588 0.027092 0.001463
# 6 0.001218 0.001179 0.002154 0.000759 0.001463 0.027472
#
#
# Mechanical properties :
#
#
# Convention : Reuss Voigt Hill
#
# Bulk Modulus (GPa) = 57.17464 67.27563 62.22513
# Shear Modulus (GPa) = 31.39422 38.10802 34.75112
#
# Velocity S-wave (km/s) = 3.50793 3.86486 3.69071
# Velocity P-wave (km/s) = 6.23042 6.80340 6.52320
#
# Compressibility (1/GPa) = 0.01749027
#
# Stress axis : x y z
#
# Youngs Moduli (GPa) = 61.47412 119.21932 51.74396
#
# Poissons Ratio (x) = 0.41628 0.46126
# Poissons Ratio (y) = 0.21465 0.04342
# Poissons Ratio (z) = 0.54800 0.10005
#
# Static dielectric constant tensor:
#      x y z
#    x 4.530470 0.027790 0.323560 
#    y 0.027790 5.461830 -0.093700 
#    z 0.323560 -0.093700 4.390490 
# 
# 
# High freq. dielectric constant tensor:
#      x y z
#    x 2.009840 0.006400 0.013960 
#    y 0.006400 2.059570 -0.010350 
#    z 0.013960 -0.010350 2.007270 
# 
# From -- ./inp_files/472495.got.cif
#   From: 2010.06.25/outbox.cif.g09.slc.cpg/sg2_237_cif.got.tgz:472495.got - 2010.06.27 13:26:56.
