data_PCOD8031015
_publ_section_title
;
Structure prediction by ZEFSAII (Michael W. Deem and Ramdas Pophale) SiO2 
 PCOD8031015
Probable space group: P -1
;
_chemical_formula_sum "Si O2"
_cell_formula_units_Z 14
_cell_length_a 14.234249
_cell_length_b 14.438805
_cell_length_c 7.972557
_cell_angle_alpha 55.160576
_cell_angle_beta 109.500298
_cell_angle_gamma 152.137446
_cell_volume 562.417853
_symmetry_space_group_name_H-M "P -1"
_symmetry_group_IT_number 2
_symmetry_cell_setting 'triclinic'
loop_
_space_group_symop_operation_xyz
x,y,z
-x,-y,-z
loop_
_atom_site_type_symbol
_atom_site_label
_atom_site_fract_x
_atom_site_fract_y
_atom_site_fract_z
Si Si1 0.634859 0.323289 0.570318
Si Si2 0.494741 0.036015 0.269454
Si Si3 0.863357 0.140200 0.783106
Si Si4 0.183329 0.138508 0.833498
Si Si5 0.254880 0.062409 0.431782
Si Si6 0.306188 0.336482 0.344310
Si Si7 0.203336 0.475078 0.178340
O O1 0.511289 0.077013 0.740710
O O2 0.493646 0.271008 0.436079
O O3 0.653845 0.383839 0.709466
O O4 0.881229 0.561993 0.390676
O O5 0.282142 0.896333 0.234089
O O6 0.500000 0.000000 0.500000
O O7 0.723373 0.339694 0.071211
O O8 0.752851 0.962222 0.744992
O O9 0.845716 0.027299 0.035123
O O10 0.169084 0.180329 0.598445
O O11 0.430803 0.421811 0.748907
O O12 0.000000 0.000000 0.000000
O O13 0.203918 0.142439 0.353439
O O14 0.062553 0.786321 0.681381
O O15 0.263574 0.421393 0.169471
#
# Coordination Sequence:
#
# PCOD8031015 Si02
#       7
#     2   2   2   2   2   2   2
#     4  11  24  46  72  98 136 186 234 286 351 412
#     4  12  25  48  69 102 137 181 238 291 344 412
#     4  11  24  46  69 104 142 179 231 292 351 414
#     4  11  22  41  72 104 142 186 232 283 352 424
#     4  11  24  44  72 104 139 182 233 285 353 421
#     4  11  23  44  69 105 147 182 233 287 352 430
#     4  11  25  47  69  98 141 184 229 289 350 415
#
# _framework density 24.892524999999999
#
# number of rings (size 3 to 8) (size 9 to 14) (size 15 to 20)
#    0.000    0.857    2.857    5.571    0.000    2.286 
#    5.143    0.000    0.000    0.000    0.000    0.000 
#    0.000    0.000    0.000    0.000    0.000    0.000 
#
# Total GULP energy -173602.397568 kJ/mol
# GULP energy per Si atom -12400.171255 kJ/mol
# Density = 2.483587 g / cm^3
# Si number density = 24.892525 Si / 1000 Ang^3
#
#
#
# Elastic Constant Matrix: (Units=GPa)
#
#
# Indices 1 2 3 4 5 6 
#
# 1 106.2579 18.0027 23.5908 -12.2787 15.4354 -4.8677
# 2 18.0027 56.6358 -5.7573 -9.2907 4.2014 4.4666
# 3 23.5908 -5.7573 98.8835 -22.3152 18.3753 -1.6985
# 4 -12.2787 -9.2907 -22.3152 28.9615 -1.7073 2.3931
# 5 15.4354 4.2014 18.3753 -1.7073 49.4187 -11.4493
# 6 -4.8677 4.4666 -1.6985 2.3931 -11.4493 43.9967
#
#
#
# Elastic Compliance Matrix: (Units=1/GPa)
#
#
# Indices 1 2 3 4 5 6 
#
# 1 0.010973 -0.003280 -0.001966 0.001891 -0.002166 0.000805
# 2 -0.003280 0.021145 0.004540 0.009012 -0.002984 -0.003601
# 3 -0.001966 0.004540 0.014392 0.011579 -0.005212 -0.002109
# 4 0.001891 0.009012 0.011579 0.047190 -0.004987 -0.004123
# 5 -0.002166 -0.002984 -0.005212 -0.004987 0.024435 0.006492
# 6 0.000805 -0.003601 -0.002109 -0.004123 0.006492 0.025016
#
#
# Mechanical properties :
#
#
# Convention : Reuss Voigt Hill
#
# Bulk Modulus (GPa) = 22.17425 37.04995 29.61210
# Shear Modulus (GPa) = 31.32924 39.53810 35.43367
#
# Velocity S-wave (km/s) = 3.55150 3.98974 3.77698
# Velocity P-wave (km/s) = 5.07394 6.01168 5.56260
#
# Compressibility (1/GPa) = 0.04509735
#
# Stress axis : x y z
#
# Youngs Moduli (GPa) = 91.13022 47.29302 69.48516
#
# Poissons Ratio (x) = 0.15514 0.13660
# Poissons Ratio (y) = 0.29895 -0.31548
# Poissons Ratio (z) = 0.17915 -0.21472
#
# Static dielectric constant tensor:
#      x y z
#    x 4.508850 -0.035450 0.171980 
#    y -0.035450 4.510190 -0.305360 
#    z 0.171980 -0.305360 4.734410 
# 
# 
# High freq. dielectric constant tensor:
#      x y z
#    x 1.993060 0.005860 0.006680 
#    y 0.005860 1.994560 -0.021710 
#    z 0.006680 -0.021710 1.994360 
# 
# From -- ./inp_files/314709.got.cif
#   From: 2010.06.25/outbox.cif.g09.slc.cpg/sg2_158_cif.got.tgz:314709.got - 2010.06.27 13:26:56.
