data_PCOD8031585
_publ_section_title
;
Structure prediction by ZEFSAII (Michael W. Deem and Ramdas Pophale) SiO2 
 PCOD8031585
Probable space group: P -1
;
_chemical_formula_sum "Si O2"
_cell_formula_units_Z 16
_cell_length_a 8.630360
_cell_length_b 14.718920
_cell_length_c 14.176798
_cell_angle_alpha 129.297866
_cell_angle_beta 41.983654
_cell_angle_gamma 97.234707
_cell_volume 695.229507
_symmetry_space_group_name_H-M "P -1"
_symmetry_group_IT_number 2
_symmetry_cell_setting 'triclinic'
loop_
_space_group_symop_operation_xyz
x,y,z
-x,-y,-z
loop_
_atom_site_type_symbol
_atom_site_label
_atom_site_fract_x
_atom_site_fract_y
_atom_site_fract_z
Si Si1 0.905999 0.253113 0.613702
Si Si2 0.222430 0.380301 0.241532
Si Si3 0.886376 0.110957 0.032305
Si Si4 0.312380 0.961067 0.106731
Si Si5 0.190432 0.400888 0.572566
Si Si6 0.784890 0.337035 0.932553
Si Si7 0.239946 0.415177 0.952909
Si Si8 0.211438 0.155340 0.779601
O O1 0.969259 0.236884 0.687591
O O2 0.533365 0.369741 0.848214
O O3 0.066615 0.314951 0.537387
O O4 0.066642 0.088247 0.380284
O O5 0.000000 0.500000 0.500000
O O6 0.982344 0.436538 0.301441
O O7 0.434391 0.200641 0.057806
O O8 0.431381 0.417973 0.137276
O O9 0.560328 0.282209 0.316706
O O10 0.867672 0.039535 0.898946
O O11 0.130568 0.132438 0.906071
O O12 0.000000 0.000000 0.000000
O O13 0.500000 0.000000 0.000000
O O14 0.089129 0.461710 0.764210
O O15 0.922758 0.223945 0.886555
O O16 0.800149 0.473551 0.038655
O O17 0.302764 0.260601 0.799625
O O18 0.500000 0.000000 0.500000
#
# Coordination Sequence:
#
# PCOD8031585 Si02
#       8
#     2   2   2   2   2   2   2   2
#     4  11  22  44  73 110 140 182 244 301 369 430
#     4  12  21  41  72 106 143 182 243 312 358 424
#     4  12  28  50  72 103 155 198 239 305 370 435
#     4  12  25  43  72 109 139 191 243 301 367 427
#     4  11  22  47  73 104 143 184 249 305 361 429
#     4  11  23  45  73 105 145 190 238 311 366 427
#     4  11  24  43  75 106 140 194 237 290 369 442
#     4  12  28  48  69 106 151 193 245 293 363 451
#
# _framework density 23.013983
#
# number of rings (size 3 to 8) (size 9 to 14) (size 15 to 20)
#    0.000    0.500    6.250    1.875    3.500    3.000 
#    2.250    0.000    0.000    0.000    0.000    0.000 
#    0.000    0.000    0.000    0.000    0.000    0.000 
#
# Total GULP energy -198221.534191 kJ/mol
# GULP energy per Si atom -12388.845887 kJ/mol
# Density = 2.296160 g / cm^3
# Si number density = 23.013983 Si / 1000 Ang^3
#
#
#
# Elastic Constant Matrix: (Units=GPa)
#
#
# Indices 1 2 3 4 5 6 
#
# 1 53.1072 40.1204 22.4215 9.2505 1.2370 -11.5010
# 2 40.1204 150.5948 62.9320 0.1421 -2.2721 -19.5816
# 3 22.4215 62.9320 155.7607 -4.3120 4.4814 6.0787
# 4 9.2505 0.1421 -4.3120 36.9859 1.6086 -1.1183
# 5 1.2370 -2.2721 4.4814 1.6086 38.2999 7.5032
# 6 -11.5010 -19.5816 6.0787 -1.1183 7.5032 38.0529
#
#
#
# Elastic Compliance Matrix: (Units=1/GPa)
#
#
# Indices 1 2 3 4 5 6 
#
# 1 0.026136 -0.005469 -0.001898 -0.006493 -0.001760 0.005544
# 2 -0.005469 0.010051 -0.003412 0.001039 0.000339 0.004028
# 3 -0.001898 -0.003412 0.008260 0.001365 -0.000476 -0.003515
# 4 -0.006493 0.001039 0.001365 0.028841 -0.000981 -0.000605
# 5 -0.001760 0.000339 -0.000476 -0.000981 0.027403 -0.005713
# 6 0.005544 0.004028 -0.003515 -0.000605 -0.005713 0.031698
#
#
# Mechanical properties :
#
#
# Convention : Reuss Voigt Hill
#
# Bulk Modulus (GPa) = 43.68902 67.82340 55.75621
# Shear Modulus (GPa) = 30.94515 38.26698 34.60606
#
# Velocity S-wave (km/s) = 3.67089 4.08213 3.88196
# Velocity P-wave (km/s) = 6.08212 7.19395 6.66127
#
# Compressibility (1/GPa) = 0.02288905
#
# Stress axis : x y z
#
# Youngs Moduli (GPa) = 38.26208 99.49198 121.05856
#
# Poissons Ratio (x) = 0.54415 0.22976
# Poissons Ratio (y) = 0.20927 0.41303
# Poissons Ratio (z) = 0.07262 0.33945
#
# Static dielectric constant tensor:
#      x y z
#    x 4.291960 -0.046250 -0.156780 
#    y -0.046250 4.353430 -0.056110 
#    z -0.156780 -0.056110 4.191690 
# 
# 
# High freq. dielectric constant tensor:
#      x y z
#    x 1.891420 -0.006360 -0.004720 
#    y -0.006360 1.925280 -0.005470 
#    z -0.004720 -0.005470 1.919680 
# 
# From -- ./inp_files/314484.got.cif
#   From: 2010.06.25/outbox.cif.g09.slc.cpg/sg2_158_cif.got.tgz:314484.got - 2010.06.27 13:26:56.
