data_PCOD8031037
_publ_section_title
;
Structure prediction by ZEFSAII (Michael W. Deem and Ramdas Pophale) SiO2 
 PCOD8031037
Probable space group: P -1
;
_chemical_formula_sum "Si O2"
_cell_formula_units_Z 12
_cell_length_a 8.380575
_cell_length_b 7.664032
_cell_length_c 13.371255
_cell_angle_alpha 109.968585
_cell_angle_beta 79.920008
_cell_angle_gamma 144.067099
_cell_volume 465.600157
_symmetry_space_group_name_H-M "P -1"
_symmetry_group_IT_number 2
_symmetry_cell_setting 'triclinic'
loop_
_space_group_symop_operation_xyz
x,y,z
-x,-y,-z
loop_
_atom_site_type_symbol
_atom_site_label
_atom_site_fract_x
_atom_site_fract_y
_atom_site_fract_z
Si Si1 0.321005 0.991192 0.899723
Si Si2 0.246330 0.940371 0.615643
Si Si3 0.740251 0.431527 0.782272
Si Si4 0.023069 0.100101 0.729487
Si Si5 0.475568 0.226839 0.145753
Si Si6 0.035841 0.666591 0.375245
O O1 0.355719 0.800979 0.845805
O O2 0.043431 0.807458 0.836537
O O3 0.585380 0.326766 0.882999
O O4 0.305728 0.033337 0.024882
O O5 0.242409 0.906392 0.490743
O O6 0.191350 0.694963 0.632072
O O7 0.543514 0.306912 0.685867
O O8 0.009699 0.867561 0.661664
O O9 0.790747 0.260472 0.721510
O O10 0.083577 0.257007 0.645611
O O11 0.290370 0.400184 0.826744
O O12 0.740083 0.896762 0.773765
#
# Coordination Sequence:
#
# PCOD8031037 Si02
#       6
#     2   2   2   2   2   2
#     4  11  22  41  75 101 137 189 232 282 350 417
#     4  11  27  45  73 106 142 184 235 287 350 415
#     4  12  21  44  68 103 137 181 234 283 342 416
#     4  12  25  47  72 106 143 180 233 293 344 413
#     4  11  23  43  70 109 138 182 240 284 346 419
#     4  11  24  48  72 103 139 192 230 285 349 416
#
# _framework density 25.773187
#
# number of rings (size 3 to 8) (size 9 to 14) (size 15 to 20)
#    0.000    0.667    5.000    2.000    2.333    2.667 
#    0.000    6.667    0.000    0.000    0.000    0.000 
#    0.000    0.000    0.000    0.000    0.000    0.000 
#
# Total GULP energy -148673.555253 kJ/mol
# GULP energy per Si atom -12389.462938 kJ/mol
# Density = 2.571453 g / cm^3
# Si number density = 25.773187 Si / 1000 Ang^3
#
#
#
# Elastic Constant Matrix: (Units=GPa)
#
#
# Indices 1 2 3 4 5 6 
#
# 1 62.6351 26.6552 33.8242 11.5135 8.0724 13.7907
# 2 26.6552 119.2472 39.8080 3.5885 5.9301 26.0162
# 3 33.8242 39.8080 88.6565 0.5879 24.2033 11.0585
# 4 11.5135 3.5885 0.5879 27.1484 3.4805 1.9554
# 5 8.0724 5.9301 24.2033 3.4805 29.8307 5.6679
# 6 13.7907 26.0162 11.0585 1.9554 5.6679 35.6324
#
#
#
# Elastic Compliance Matrix: (Units=1/GPa)
#
#
# Indices 1 2 3 4 5 6 
#
# 1 0.023717 -0.001037 -0.008629 -0.009709 0.003003 -0.005689
# 2 -0.001037 0.011645 -0.004862 -0.000916 0.003362 -0.007077
# 3 -0.008629 -0.004862 0.020303 0.005511 -0.014301 0.002561
# 4 -0.009709 -0.000916 0.005511 0.041719 -0.006817 0.001511
# 5 0.003003 0.003362 -0.014301 -0.006817 0.045591 -0.006056
# 6 -0.005689 -0.007077 0.002561 0.001511 -0.006056 0.035519
#
#
# Mechanical properties :
#
#
# Convention : Reuss Voigt Hill
#
# Bulk Modulus (GPa) = 37.58107 52.34596 44.96351
# Shear Modulus (GPa) = 23.10337 29.87240 26.48789
#
# Velocity S-wave (km/s) = 2.99726 3.40818 3.20930
# Velocity P-wave (km/s) = 5.15667 5.98681 5.58718
#
# Compressibility (1/GPa) = 0.02660914
#
# Stress axis : x y z
#
# Youngs Moduli (GPa) = 42.16435 85.87243 49.25410
#
# Poissons Ratio (x) = 0.08904 0.42499
# Poissons Ratio (y) = 0.04372 0.23949
# Poissons Ratio (z) = 0.36382 0.41754
#
# Static dielectric constant tensor:
#      x y z
#    x 4.741720 0.142410 -0.032630 
#    y 0.142410 4.267410 0.018970 
#    z -0.032630 0.018970 4.725600 
# 
# 
# High freq. dielectric constant tensor:
#      x y z
#    x 2.026800 0.012390 0.005310 
#    y 0.012390 2.019440 -0.000650 
#    z 0.005310 -0.000650 2.039730 
# 
# From -- ./inp_files/495581.got.cif
#   From: 2010.06.25/outbox.cif.g09.slc.cpg/sg2_248_cif.got.tgz:495581.got - 2010.06.27 13:26:56.
