data_PCOD8031001
_publ_section_title
;
Structure prediction by ZEFSAII (Michael W. Deem and Ramdas Pophale) SiO2 
 PCOD8031001
Probable space group: P -1
;
_chemical_formula_sum "Si O2"
_cell_formula_units_Z 14
_cell_length_a 11.918307
_cell_length_b 10.060017
_cell_length_c 12.197129
_cell_angle_alpha 87.438175
_cell_angle_beta 134.985740
_cell_angle_gamma 58.505103
_cell_volume 641.316737
_symmetry_space_group_name_H-M "P -1"
_symmetry_group_IT_number 2
_symmetry_cell_setting 'triclinic'
loop_
_space_group_symop_operation_xyz
x,y,z
-x,-y,-z
loop_
_atom_site_type_symbol
_atom_site_label
_atom_site_fract_x
_atom_site_fract_y
_atom_site_fract_z
Si Si1 0.518559 0.531137 0.133963
Si Si2 0.815417 0.006922 0.160994
Si Si3 0.099648 0.133411 0.543603
Si Si4 0.735411 0.903123 0.732946
Si Si5 0.596356 0.931472 0.873687
Si Si6 0.749595 0.108766 0.565526
Si Si7 0.279682 0.439461 0.096802
O O1 0.391415 0.498332 0.117642
O O2 0.815181 0.363470 0.373442
O O3 0.500000 0.500000 0.000000
O O4 0.367647 0.768105 0.035688
O O5 0.796078 0.030180 0.279535
O O6 0.108439 0.842437 0.330280
O O7 0.737688 0.910237 0.072661
O O8 0.287950 0.137690 0.667799
O O9 0.110669 0.054111 0.436187
O O10 0.662543 0.966792 0.806758
O O11 0.500000 0.000000 0.500000
O O12 0.805931 0.996707 0.722455
O O13 0.980609 0.645269 0.907331
O O14 0.679484 0.721275 0.939749
O O15 0.444677 0.316208 0.327879
#
# Coordination Sequence:
#
# PCOD8031001 Si02
#       7
#     2   2   2   2   2   2   2
#     4  12  22  38  72  95 127 175 226 255 313 396
#     4  12  24  44  62 103 137 163 213 277 326 375
#     4  11  22  42  66  98 130 175 213 262 321 391
#     4  12  23  45  70  94 128 170 227 264 312 395
#     4  11  27  42  65  99 138 166 209 279 330 368
#     4  11  22  41  71  94 125 176 222 259 311 391
#     4  11  23  43  68  96 119 178 226 254 316 395
#
# _framework density 21.830089999999998
#
# number of rings (size 3 to 8) (size 9 to 14) (size 15 to 20)
#    0.000    0.571    7.143    3.000    0.000    1.143 
#    2.571    0.714    0.000    0.000    0.000    0.000 
#    0.000    0.000    0.000    0.000    0.000    0.000 
#
# Total GULP energy -173525.436596 kJ/mol
# GULP energy per Si atom -12394.674043 kJ/mol
# Density = 2.178040 g / cm^3
# Si number density = 21.830090 Si / 1000 Ang^3
#
#
#
# Elastic Constant Matrix: (Units=GPa)
#
#
# Indices 1 2 3 4 5 6 
#
# 1 134.6082 29.6222 39.6699 -4.7723 -1.1963 1.8877
# 2 29.6222 47.7272 38.4701 -7.8282 8.8988 13.8207
# 3 39.6699 38.4701 120.8793 -22.3903 24.3297 0.8598
# 4 -4.7723 -7.8282 -22.3903 27.4512 4.3188 3.2769
# 5 -1.1963 8.8988 24.3297 4.3188 54.0483 1.5026
# 6 1.8877 13.8207 0.8598 3.2769 1.5026 26.9018
#
#
#
# Elastic Compliance Matrix: (Units=1/GPa)
#
#
# Indices 1 2 3 4 5 6 
#
# 1 0.009166 -0.005415 -0.002181 -0.002359 0.002199 0.002373
# 2 -0.005415 0.038462 -0.008815 0.005556 -0.002382 -0.019642
# 3 -0.002181 -0.008815 0.014812 0.009752 -0.006137 0.003363
# 4 -0.002359 0.005556 0.009752 0.047962 -0.008957 -0.008343
# 5 0.002199 -0.002382 -0.006137 -0.008957 0.022390 0.001106
# 6 0.002373 -0.019642 0.003363 -0.008343 0.001106 0.047943
#
#
# Mechanical properties :
#
#
# Convention : Reuss Voigt Hill
#
# Bulk Modulus (GPa) = 33.76431 57.63767 45.70099
# Shear Modulus (GPa) = 22.37841 34.71043 28.54442
#
# Velocity S-wave (km/s) = 3.20522 3.99184 3.61996
# Velocity P-wave (km/s) = 5.40355 6.90699 6.20100
#
# Compressibility (1/GPa) = 0.02961707
#
# Stress axis : x y z
#
# Youngs Moduli (GPa) = 109.09877 25.99988 67.51467
#
# Poissons Ratio (x) = 0.14079 0.14726
# Poissons Ratio (y) = 0.59075 0.59515
# Poissons Ratio (z) = 0.23796 0.22919
#
# Static dielectric constant tensor:
#      x y z
#    x 4.301100 0.033170 0.088660 
#    y 0.033170 3.547850 -0.331790 
#    z 0.088660 -0.331790 4.608820 
# 
# 
# High freq. dielectric constant tensor:
#      x y z
#    x 1.887260 0.007250 0.011770 
#    y 0.007250 1.799620 -0.005220 
#    z 0.011770 -0.005220 1.873810 
# 
# From -- ./inp_files/428228.got.cif
#   From: 2010.06.25/outbox.cif.g09.slc.cpg/sg2_215_cif.got.tgz:428228.got - 2010.06.27 13:26:56.
