data_PCOD8031932
_publ_section_title
;
Structure prediction by ZEFSAII (Michael W. Deem and Ramdas Pophale) SiO2 
 PCOD8031932
Probable space group: P -1
;
_chemical_formula_sum "Si O2"
_cell_formula_units_Z 16
_cell_length_a 10.608234
_cell_length_b 11.170940
_cell_length_c 8.453854
_cell_angle_alpha 91.474694
_cell_angle_beta 83.348951
_cell_angle_gamma 126.596988
_cell_volume 797.713603
_symmetry_space_group_name_H-M "P -1"
_symmetry_group_IT_number 2
_symmetry_cell_setting 'triclinic'
loop_
_space_group_symop_operation_xyz
x,y,z
-x,-y,-z
loop_
_atom_site_type_symbol
_atom_site_label
_atom_site_fract_x
_atom_site_fract_y
_atom_site_fract_z
Si Si1 0.465767 0.119430 0.510942
Si Si2 0.069282 0.978273 0.143259
Si Si3 0.667360 0.540956 0.251427
Si Si4 0.991073 0.546698 0.747430
Si Si5 0.007748 0.327519 0.933374
Si Si6 0.241252 0.574760 0.493546
Si Si7 0.769533 0.835630 0.373835
Si Si8 0.639029 0.770811 0.716270
O O1 0.608814 0.266425 0.583061
O O2 0.307275 0.073344 0.627974
O O3 0.451928 0.161013 0.332874
O O4 0.500000 0.000000 0.500000
O O5 0.080879 0.842485 0.113530
O O6 0.954664 0.942759 0.307155
O O7 0.244211 0.129288 0.153845
O O8 0.000000 0.000000 0.000000
O O9 0.801872 0.572743 0.111001
O O10 0.705040 0.511714 0.420442
O O11 0.676002 0.689856 0.268047
O O12 0.493813 0.399845 0.212905
O O13 0.854131 0.518449 0.651245
O O14 0.937265 0.393845 0.837319
O O15 0.144690 0.610831 0.621424
O O16 0.027977 0.668566 0.876860
O O17 0.744826 0.777411 0.556743
#
# Coordination Sequence:
#
# PCOD8031932 Si02
#       8
#     2   2   2   2   2   2   2   2
#     4   9  20  34  56  83 112 141 182 234 279 332
#     4  11  23  39  53  84 116 153 189 228 279 344
#     4   9  17  37  57  86 109 140 187 242 280 327
#     4   9  18  35  56  82 109 151 184 230 276 325
#     4   9  20  36  56  77 119 151 185 225 280 336
#     4   9  18  31  58  85 108 138 194 232 270 331
#     4   9  20  37  61  80 111 148 189 237 281 325
#     4   9  20  36  60  80 114 147 184 238 281 329
#
# _framework density 20.057323
#
# number of rings (size 3 to 8) (size 9 to 14) (size 15 to 20)
#    0.750    2.000    0.000    0.750    1.750    2.000 
#    2.250    1.250    0.000    3.750    0.000    0.000 
#    0.000    0.000    0.000    0.000    0.000    0.000 
#
# Total GULP energy -198268.354843 kJ/mol
# GULP energy per Si atom -12391.772178 kJ/mol
# Density = 2.001167 g / cm^3
# Si number density = 20.057323 Si / 1000 Ang^3
#
#
#
# Elastic Constant Matrix: (Units=GPa)
#
#
# Indices 1 2 3 4 5 6 
#
# 1 73.7090 34.7164 18.8930 20.6195 2.2236 -2.4387
# 2 34.7164 80.1841 9.8721 16.8454 1.9211 10.5084
# 3 18.8930 9.8721 70.4854 13.5529 -1.1896 6.7343
# 4 20.6195 16.8454 13.5529 22.5040 0.1779 0.9049
# 5 2.2236 1.9211 -1.1896 0.1779 25.9501 10.2448
# 6 -2.4387 10.5084 6.7343 0.9049 10.2448 38.1230
#
#
#
# Elastic Compliance Matrix: (Units=1/GPa)
#
#
# Indices 1 2 3 4 5 6 
#
# 1 0.021361 -0.006734 -0.002806 -0.013013 -0.003313 0.004917
# 2 -0.006734 0.017522 0.001385 -0.007561 0.001676 -0.005776
# 3 -0.002806 0.001385 0.016795 -0.008439 0.002550 -0.004013
# 4 -0.013013 -0.007561 -0.008439 0.067056 0.000418 0.001038
# 5 -0.003313 0.001676 0.002550 0.000418 0.043916 -0.012936
# 6 0.004917 -0.005776 -0.004013 0.001038 -0.012936 0.032298
#
#
# Mechanical properties :
#
#
# Convention : Reuss Voigt Hill
#
# Bulk Modulus (GPa) = 25.40252 39.03794 32.22023
# Shear Modulus (GPa) = 21.89336 28.04188 24.96762
#
# Velocity S-wave (km/s) = 3.30743 3.74316 3.53202
# Velocity P-wave (km/s) = 5.22283 6.17957 5.72123
#
# Compressibility (1/GPa) = 0.03936617
#
# Stress axis : x y z
#
# Youngs Moduli (GPa) = 46.81513 57.07245 59.54314
#
# Poissons Ratio (x) = 0.38433 0.16708
# Poissons Ratio (y) = 0.31526 -0.08246
# Poissons Ratio (z) = 0.13136 -0.07904
#
# Static dielectric constant tensor:
#      x y z
#    x 3.589330 0.031530 -0.130160 
#    y 0.031530 3.592360 -0.008020 
#    z -0.130160 -0.008020 3.428700 
# 
# 
# High freq. dielectric constant tensor:
#      x y z
#    x 1.776120 0.001800 -0.009930 
#    y 0.001800 1.771310 0.003960 
#    z -0.009930 0.003960 1.760210 
# 
# From -- ./inp_files/254111.got.cif
#   From: 2010.06.25/outbox.cif.g09.slc.cpg/sg2_128_cif.got.tgz:254111.got - 2010.06.27 13:26:56.
