data_PCOD8031808
_publ_section_title
;
Structure prediction by ZEFSAII (Michael W. Deem and Ramdas Pophale) SiO2 
 PCOD8031808
Probable space group: P -1
;
_chemical_formula_sum "Si O2"
_cell_formula_units_Z 16
_cell_length_a 11.414461
_cell_length_b 10.891126
_cell_length_c 6.493553
_cell_angle_alpha 77.501141
_cell_angle_beta 111.228132
_cell_angle_gamma 111.440020
_cell_volume 697.112697
_symmetry_space_group_name_H-M "P -1"
_symmetry_group_IT_number 2
_symmetry_cell_setting 'triclinic'
loop_
_space_group_symop_operation_xyz
x,y,z
-x,-y,-z
loop_
_atom_site_type_symbol
_atom_site_label
_atom_site_fract_x
_atom_site_fract_y
_atom_site_fract_z
Si Si1 0.608351 0.608745 0.157881
Si Si2 0.446805 0.184147 0.211696
Si Si3 0.933885 0.257621 0.709245
Si Si4 0.693863 0.693750 0.586762
Si Si5 0.264510 0.735765 0.763829
Si Si6 0.895397 0.895271 0.336792
Si Si7 0.815345 0.553106 0.050965
Si Si8 0.742763 0.066295 0.967707
O O1 0.591482 0.591603 0.400511
O O2 0.751800 0.599818 0.193458
O O3 0.500000 0.500000 0.000000
O O4 0.598645 0.752036 0.041148
O O5 0.386392 0.230321 0.359093
O O6 0.606094 0.237010 0.308336
O O7 0.390314 0.024875 0.200905
O O8 0.864784 0.291717 0.450402
O O9 0.029659 0.174478 0.742297
O O10 0.025471 0.390874 0.835385
O O11 0.821765 0.178989 0.822291
O O12 0.796472 0.796335 0.466516
O O13 0.769590 0.613068 0.796608
O O14 0.238085 0.606305 0.938433
O O15 0.291389 0.865038 0.876018
O O16 0.825505 0.970012 0.112894
O O17 0.000000 0.000000 0.500000
#
# Coordination Sequence:
#
# PCOD8031808 Si02
#       8
#     2   2   2   2   2   2   2   2
#     4  11  22  46  74 107 138 184 237 303 350 413
#     4  11  25  46  72 110 141 184 254 285 362 433
#     4  12  26  46  72 105 143 193 241 299 361 423
#     4  11  24  44  82 104 137 188 230 322 349 405
#     4  12  28  48  68 102 158 196 230 300 350 444
#     4  12  21  44  74 101 139 179 246 300 357 417
#     4  11  25  46  72 110 141 184 254 285 362 433
#     4  12  26  46  72 105 143 193 241 299 361 423
#
# _framework density 22.951813999999999
#
# number of rings (size 3 to 8) (size 9 to 14) (size 15 to 20)
#    0.000    0.500    5.000    3.375    0.000    5.000 
#    0.000    0.000    0.000    0.000    0.000    0.000 
#    0.000    0.000    0.000    0.000    0.000    0.000 
#
# Total GULP energy -198407.129342 kJ/mol
# GULP energy per Si atom -12400.445584 kJ/mol
# Density = 2.289957 g / cm^3
# Si number density = 22.951814 Si / 1000 Ang^3
#
#
#
# Elastic Constant Matrix: (Units=GPa)
#
#
# Indices 1 2 3 4 5 6 
#
# 1 72.5011 44.5858 29.1979 0.9676 -5.0923 1.1445
# 2 44.5858 90.6806 45.8226 17.7417 13.9780 24.3062
# 3 29.1979 45.8226 132.3021 22.8193 -10.7226 0.0130
# 4 0.9676 17.7417 22.8193 43.9899 6.9967 5.6521
# 5 -5.0923 13.9780 -10.7226 6.9967 27.9084 -3.4175
# 6 1.1445 24.3062 0.0130 5.6521 -3.4175 37.7976
#
#
#
# Elastic Compliance Matrix: (Units=1/GPa)
#
#
# Indices 1 2 3 4 5 6 
#
# 1 0.027127 -0.021777 0.002672 0.002049 0.018147 0.014516
# 2 -0.021777 0.040019 -0.011403 -0.001171 -0.031502 -0.027744
# 3 0.002672 -0.011403 0.012993 -0.005582 0.013732 0.009324
# 4 0.002049 -0.001171 -0.005582 0.027993 -0.008727 -0.004282
# 5 0.018147 -0.031502 0.013732 -0.008727 0.065684 0.026947
# 6 0.014516 -0.027744 0.009324 -0.004282 0.026947 0.046932
#
#
# Mechanical properties :
#
#
# Convention : Reuss Voigt Hill
#
# Bulk Modulus (GPa) = 52.29481 59.41071 55.85276
# Shear Modulus (GPa) = 17.35272 33.66435 25.50854
#
# Velocity S-wave (km/s) = 2.75262 3.83396 3.33738
# Velocity P-wave (km/s) = 5.73904 6.74834 6.26406
#
# Compressibility (1/GPa) = 0.01912236
#
# Stress axis : x y z
#
# Youngs Moduli (GPa) = 36.86337 24.98828 76.96471
#
# Poissons Ratio (x) = 0.54417 -0.20562
# Poissons Ratio (y) = 0.80277 0.87762
# Poissons Ratio (z) = -0.09849 0.28494
#
# Static dielectric constant tensor:
#      x y z
#    x 4.099190 0.147860 0.289390 
#    y 0.147860 4.398810 0.182950 
#    z 0.289390 0.182950 3.737030 
# 
# 
# High freq. dielectric constant tensor:
#      x y z
#    x 1.908200 0.013230 0.002180 
#    y 0.013230 1.921330 0.007960 
#    z 0.002180 0.007960 1.908520 
# 
# From -- ./inp_files/70061.got.cif
#   From: 2010.06.25/outbox.cif.g09.slc.cpg/sg2_36_cif.got.tgz:70061.got - 2010.06.27 13:26:56.
