data_PCOD8031658
_publ_section_title
;
Structure prediction by ZEFSAII (Michael W. Deem and Ramdas Pophale) SiO2 
 PCOD8031658
Probable space group: P -1
;
_chemical_formula_sum "Si O2"
_cell_formula_units_Z 16
_cell_length_a 8.948987
_cell_length_b 11.512672
_cell_length_c 17.178584
_cell_angle_alpha 50.286089
_cell_angle_beta 41.894622
_cell_angle_gamma 80.187762
_cell_volume 731.255510
_symmetry_space_group_name_H-M "P -1"
_symmetry_group_IT_number 2
_symmetry_cell_setting 'triclinic'
loop_
_space_group_symop_operation_xyz
x,y,z
-x,-y,-z
loop_
_atom_site_type_symbol
_atom_site_label
_atom_site_fract_x
_atom_site_fract_y
_atom_site_fract_z
Si Si1 0.088246 0.468733 0.060947
Si Si2 0.543219 0.140890 0.663643
Si Si3 0.729359 0.252463 0.002441
Si Si4 0.999841 0.885442 0.284356
Si Si5 0.562818 0.684758 0.044200
Si Si6 0.958470 0.607441 0.534577
Si Si7 0.787847 0.700247 0.290652
Si Si8 0.548683 0.145042 0.483366
O O1 0.279483 0.667930 0.944737
O O2 0.822852 0.347121 0.270958
O O3 0.236203 0.367044 0.040158
O O4 0.000000 0.500000 0.000000
O O5 0.289383 0.158331 0.761963
O O6 0.581882 0.096814 0.579111
O O7 0.829465 0.330710 0.502124
O O8 0.474363 0.971753 0.817376
O O9 0.621173 0.328096 0.949396
O O10 0.039340 0.315410 0.836370
O O11 0.029753 0.797014 0.387583
O O12 0.983998 0.776746 0.259050
O O13 0.708260 0.848210 0.422962
O O14 0.252799 0.104822 0.082762
O O15 0.359373 0.533250 0.253006
O O16 0.000000 0.500000 0.500000
O O17 0.500000 0.500000 0.500000
O O18 0.500000 0.000000 0.500000
#
# Coordination Sequence:
#
# PCOD8031658 Si02
#       8
#     2   2   2   2   2   2   2   2
#     4  12  26  45  73 102 134 183 237 286 346 414
#     4  11  25  43  68 105 135 185 237 285 349 416
#     4  12  25  45  69 101 144 183 229 289 350 415
#     4  11  24  45  71 105 139 183 231 287 349 412
#     4  12  26  46  71 104 142 184 232 285 347 419
#     4  12  26  45  71 103 143 184 230 286 355 417
#     4  11  24  45  70 101 139 184 234 292 346 412
#     4  11  22  45  69  96 139 178 232 289 342 409
#
# _framework density 21.880177
#
# number of rings (size 3 to 8) (size 9 to 14) (size 15 to 20)
#    0.000    0.500    2.500    6.750    3.500    2.000 
#    0.000    1.875    0.000    0.000    0.000    0.000 
#    0.000    0.000    0.000    0.000    0.000    0.000 
#
# Total GULP energy -198456.970537 kJ/mol
# GULP energy per Si atom -12403.560659 kJ/mol
# Density = 2.183038 g / cm^3
# Si number density = 21.880177 Si / 1000 Ang^3
#
#
#
# Elastic Constant Matrix: (Units=GPa)
#
#
# Indices 1 2 3 4 5 6 
#
# 1 109.9239 48.5384 35.3672 -2.8467 -0.8881 6.5382
# 2 48.5384 112.4754 35.4542 -11.2246 1.2688 24.3652
# 3 35.3672 35.4542 119.1364 -8.4960 -3.4440 -1.0825
# 4 -2.8467 -11.2246 -8.4960 31.3933 1.5746 1.7787
# 5 -0.8881 1.2688 -3.4440 1.5746 33.0730 -9.6916
# 6 6.5382 24.3652 -1.0825 1.7787 -9.6916 34.2930
#
#
#
# Elastic Compliance Matrix: (Units=1/GPa)
#
#
# Indices 1 2 3 4 5 6 
#
# 1 0.011824 -0.004895 -0.002116 -0.001371 0.000774 0.001446
# 2 -0.004895 0.014896 -0.002859 0.004976 -0.004544 -0.011283
# 3 -0.002116 -0.002859 0.010047 0.001221 0.001994 0.003252
# 4 -0.001371 0.004976 0.001221 0.034355 -0.003496 -0.006005
# 5 0.000774 -0.004544 0.001994 -0.003496 0.034649 0.013117
# 6 0.001446 -0.011283 0.003252 -0.006005 0.013117 0.041023
#
#
# Mechanical properties :
#
#
# Convention : Reuss Voigt Hill
#
# Bulk Modulus (GPa) = 58.72545 64.47283 61.59914
# Shear Modulus (GPa) = 29.03457 34.56359 31.79908
#
# Velocity S-wave (km/s) = 3.64673 3.97883 3.81639
# Velocity P-wave (km/s) = 6.68052 7.11606 6.90173
#
# Compressibility (1/GPa) = 0.01702839
#
# Stress axis : x y z
#
# Youngs Moduli (GPa) = 84.57446 67.13049 99.53303
#
# Poissons Ratio (x) = 0.32857 0.21059
# Poissons Ratio (y) = 0.41395 0.28457
# Poissons Ratio (z) = 0.17894 0.19193
#
# Static dielectric constant tensor:
#      x y z
#    x 4.723120 0.165310 0.193940 
#    y 0.165310 3.903300 0.000930 
#    z 0.193940 0.000930 4.134980 
# 
# 
# High freq. dielectric constant tensor:
#      x y z
#    x 1.868080 0.002190 -0.002270 
#    y 0.002190 1.870770 -0.006750 
#    z -0.002270 -0.006750 1.868090 
# 
# From -- ./inp_files/428324.got.cif
#   From: 2010.06.25/outbox.cif.g09.slc.cpg/sg2_215_cif.got.tgz:428324.got - 2010.06.27 13:26:56.
