data_PCOD8031083
_publ_section_title
;
Structure prediction by ZEFSAII (Michael W. Deem and Ramdas Pophale) SiO2 
 PCOD8031083
Probable space group: P -1
;
_chemical_formula_sum "Si O2"
_cell_formula_units_Z 14
_cell_length_a 7.403230
_cell_length_b 15.158451
_cell_length_c 14.720927
_cell_angle_alpha 152.862326
_cell_angle_beta 109.502058
_cell_angle_gamma 86.145566
_cell_volume 600.266884
_symmetry_space_group_name_H-M "P -1"
_symmetry_group_IT_number 2
_symmetry_cell_setting 'triclinic'
loop_
_space_group_symop_operation_xyz
x,y,z
-x,-y,-z
loop_
_atom_site_type_symbol
_atom_site_label
_atom_site_fract_x
_atom_site_fract_y
_atom_site_fract_z
Si Si1 0.503350 0.729176 0.200711
Si Si2 0.836301 0.063245 0.081908
Si Si3 0.972073 0.435988 0.106920
Si Si4 0.856280 0.602338 0.410264
Si Si5 0.494623 0.165926 0.031251
Si Si6 0.229724 0.044684 0.369503
Si Si7 0.636077 0.071064 0.384743
O O1 0.616892 0.886000 0.451207
O O2 0.646705 0.888623 0.284910
O O3 0.500000 0.500000 0.000000
O O4 0.242165 0.642979 0.066300
O O5 0.699642 0.125810 0.047922
O O6 0.981627 0.281889 0.370861
O O7 0.650148 0.853521 0.921887
O O8 0.000000 0.000000 0.000000
O O9 0.935607 0.471445 0.238909
O O10 0.182877 0.668821 0.315955
O O11 0.997278 0.214444 0.901975
O O12 0.606692 0.419087 0.240008
O O13 0.844183 0.780879 0.506254
O O14 0.322507 0.976421 0.755411
O O15 0.388605 0.036520 0.311382
#
# Coordination Sequence:
#
# PCOD8031083 Si02
#       7
#     2   2   2   2   2   2   2
#     4  11  22  42  66  97 140 175 222 285 331 399
#     4  11  26  44  71 106 136 176 234 283 350 416
#     4  11  23  41  67  95 133 177 223 278 330 402
#     4  12  23  46  70  96 139 177 222 286 339 406
#     4  11  23  46  71 100 140 181 225 288 347 409
#     4  11  24  42  67  99 134 179 227 276 340 402
#     4  11  22  42  67  97 134 177 228 275 339 407
#
# _framework density 23.322959000000001
#
# number of rings (size 3 to 8) (size 9 to 14) (size 15 to 20)
#    0.000    0.857    5.714    3.000    0.000    4.571 
#    2.571    0.000    0.000    0.000    0.000    0.000 
#    0.000    0.000    0.000    0.000    0.000    0.000 
#
# Total GULP energy -173543.551381 kJ/mol
# GULP energy per Si atom -12395.967956 kJ/mol
# Density = 2.326987 g / cm^3
# Si number density = 23.322959 Si / 1000 Ang^3
#
#
#
# Elastic Constant Matrix: (Units=GPa)
#
#
# Indices 1 2 3 4 5 6 
#
# 1 76.4922 25.9878 17.9851 2.0377 -3.3068 5.5982
# 2 25.9878 111.6898 62.6675 6.0785 3.8428 1.1179
# 3 17.9851 62.6675 168.7340 13.9288 11.4117 -4.4065
# 4 2.0377 6.0785 13.9288 52.0294 9.6179 1.1327
# 5 -3.3068 3.8428 11.4117 9.6179 32.1800 3.1171
# 6 5.5982 1.1179 -4.4065 1.1327 3.1171 22.7670
#
#
#
# Elastic Compliance Matrix: (Units=1/GPa)
#
#
# Indices 1 2 3 4 5 6 
#
# 1 0.014686 -0.003069 -0.000670 -0.000437 0.002624 -0.003928
# 2 -0.003069 0.012000 -0.004122 -0.000130 -0.000190 -0.000600
# 3 -0.000670 -0.004122 0.007838 -0.001232 -0.002206 0.002247
# 4 -0.000437 -0.000130 -0.001232 0.020649 -0.005728 -0.000368
# 5 0.002624 -0.000190 -0.002206 -0.005728 0.034393 -0.005487
# 6 -0.003928 -0.000600 0.002247 -0.000368 -0.005487 0.046123
#
#
# Mechanical properties :
#
#
# Convention : Reuss Voigt Hill
#
# Bulk Modulus (GPa) = 53.18062 63.35520 58.26791
# Shear Modulus (GPa) = 31.71057 38.08032 34.89544
#
# Velocity S-wave (km/s) = 3.69132 4.04510 3.87225
# Velocity P-wave (km/s) = 6.40461 7.00288 6.71042
#
# Compressibility (1/GPa) = 0.01880384
#
# Stress axis : x y z
#
# Youngs Moduli (GPa) = 68.09343 83.33645 127.58054
#
# Poissons Ratio (x) = 0.25572 0.08543
# Poissons Ratio (y) = 0.20894 0.52584
# Poissons Ratio (z) = 0.04560 0.34348
#
# Static dielectric constant tensor:
#      x y z
#    x 3.845960 0.064150 0.026100 
#    y 0.064150 4.538940 0.246510 
#    z 0.026100 0.246510 4.646280 
# 
# 
# High freq. dielectric constant tensor:
#      x y z
#    x 1.895010 0.008660 0.003560 
#    y 0.008660 1.930330 0.002400 
#    z 0.003560 0.002400 1.946930 
# 
# From -- ./inp_files/504761.got.cif
#   From: 2010.06.25/outbox.cif.g09.slc.cpg/sg2_253_cif.got.tgz:504761.got - 2010.06.27 13:26:56.
