data_PCOD8031181
_publ_section_title
;
Structure prediction by ZEFSAII (Michael W. Deem and Ramdas Pophale) SiO2 
 PCOD8031181
Probable space group: P -1
;
_chemical_formula_sum "Si O2"
_cell_formula_units_Z 14
_cell_length_a 24.954934
_cell_length_b 6.564793
_cell_length_c 14.892781
_cell_angle_alpha 75.778238
_cell_angle_beta 161.372324
_cell_angle_gamma 113.011478
_cell_volume 649.510435
_symmetry_space_group_name_H-M "P -1"
_symmetry_group_IT_number 2
_symmetry_cell_setting 'triclinic'
loop_
_space_group_symop_operation_xyz
x,y,z
-x,-y,-z
loop_
_atom_site_type_symbol
_atom_site_label
_atom_site_fract_x
_atom_site_fract_y
_atom_site_fract_z
Si Si1 0.313224 0.987655 0.660109
Si Si2 0.656446 0.165252 0.805070
Si Si3 0.333975 0.182744 0.386001
Si Si4 0.913349 0.705172 0.150419
Si Si5 0.184688 0.167930 0.832459
Si Si6 0.439058 0.459874 0.698112
Si Si7 0.206130 0.711164 0.335973
O O1 0.387895 0.262736 0.716422
O O2 0.215616 0.805360 0.441289
O O3 0.141590 0.889042 0.471713
O O4 0.500000 0.000000 0.000000
O O5 0.554979 0.270207 0.698897
O O6 0.500000 0.000000 0.500000
O O7 0.843968 0.423391 0.042215
O O8 0.720161 0.991560 0.970809
O O9 0.325605 0.336557 0.439205
O O10 0.239979 0.904460 0.293364
O O11 0.213861 0.202098 0.112032
O O12 0.882315 0.727750 0.203691
O O13 0.331573 0.390393 0.976809
O O14 0.000000 0.000000 0.500000
O O15 0.373104 0.644097 0.606167
O O16 0.000000 0.500000 0.000000
#
# Coordination Sequence:
#
# PCOD8031181 Si02
#       7
#     2   2   2   2   2   2   2
#     4  11  29  47  68 101 142 191 230 285 352 422
#     4  12  24  42  72 105 136 179 232 290 350 412
#     4  11  22  42  71 106 134 175 230 293 351 402
#     4  12  26  45  72 104 143 179 238 289 345 425
#     4  12  28  44  71 105 140 188 232 288 355 416
#     4  11  24  47  70  99 141 180 229 291 345 414
#     4  11  24  43  72 100 138 181 235 286 348 415
#
# _framework density 21.554694999999999
#
# number of rings (size 3 to 8) (size 9 to 14) (size 15 to 20)
#    0.000    0.571    4.286    3.000    6.000    4.571 
#    0.000    0.000    0.000    0.000    0.000    0.000 
#    0.000    0.000    0.000    0.000    0.000    0.000 
#
# Total GULP energy -173582.953073 kJ/mol
# GULP energy per Si atom -12398.782362 kJ/mol
# Density = 2.150564 g / cm^3
# Si number density = 21.554695 Si / 1000 Ang^3
#
#
#
# Elastic Constant Matrix: (Units=GPa)
#
#
# Indices 1 2 3 4 5 6 
#
# 1 70.2889 32.2150 40.8908 10.4488 15.9884 5.3992
# 2 32.2150 101.7856 39.4604 26.3950 4.2487 2.6842
# 3 40.8908 39.4604 139.8607 23.8182 4.0515 11.8237
# 4 10.4488 26.3950 23.8182 29.2578 6.2855 14.2251
# 5 15.9884 4.2487 4.0515 6.2855 47.3494 1.5187
# 6 5.3992 2.6842 11.8237 14.2251 1.5187 28.2461
#
#
#
# Elastic Compliance Matrix: (Units=1/GPa)
#
#
# Indices 1 2 3 4 5 6 
#
# 1 0.020584 -0.005469 -0.004769 0.004488 -0.006541 -0.003327
# 2 -0.005469 0.015670 -0.000862 -0.015739 0.002356 0.007717
# 3 -0.004769 -0.000862 0.009726 -0.005621 0.001612 -0.000334
# 4 0.004488 -0.015739 -0.005621 0.067990 -0.007659 -0.030838
# 5 -0.006541 0.002356 0.001612 -0.007659 0.023902 0.002923
# 6 -0.003327 0.007717 -0.000334 -0.030838 0.002923 0.050819
#
#
# Mechanical properties :
#
#
# Convention : Reuss Voigt Hill
#
# Bulk Modulus (GPa) = 42.05231 59.67419 50.86325
# Shear Modulus (GPa) = 22.85013 34.26193 28.55603
#
# Velocity S-wave (km/s) = 3.25945 3.99122 3.64375
# Velocity P-wave (km/s) = 5.80666 6.99892 6.43048
#
# Compressibility (1/GPa) = 0.02377991
#
# Stress axis : x y z
#
# Youngs Moduli (GPa) = 48.58145 63.81816 102.81511
#
# Poissons Ratio (x) = 0.34903 0.49028
# Poissons Ratio (y) = 0.26570 0.08865
# Poissons Ratio (z) = 0.23166 0.05503
#
# Static dielectric constant tensor:
#      x y z
#    x 4.173030 0.160210 0.213150 
#    y 0.160210 4.148270 0.211580 
#    z 0.213150 0.211580 3.750120 
# 
# 
# High freq. dielectric constant tensor:
#      x y z
#    x 1.851200 0.002020 0.008030 
#    y 0.002020 1.862190 0.011060 
#    z 0.008030 0.011060 1.850110 
# 
# From -- ./inp_files/65382.got.cif
#   From: 2010.06.25/outbox.cif.g09.slc.cpg/sg2_33_cif.got.tgz:65382.got - 2010.06.27 13:26:56.
