data_PCOD8031355
_publ_section_title
;
Structure prediction by ZEFSAII (Michael W. Deem and Ramdas Pophale) SiO2 
 PCOD8031355
Probable space group: P -1
;
_chemical_formula_sum "Si O2"
_cell_formula_units_Z 16
_cell_length_a 18.437571
_cell_length_b 12.079941
_cell_length_c 8.976916
_cell_angle_alpha 77.044217
_cell_angle_beta 142.521081
_cell_angle_gamma 131.216548
_cell_volume 693.402734
_symmetry_space_group_name_H-M "P -1"
_symmetry_group_IT_number 2
_symmetry_cell_setting 'triclinic'
loop_
_space_group_symop_operation_xyz
x,y,z
-x,-y,-z
loop_
_atom_site_type_symbol
_atom_site_label
_atom_site_fract_x
_atom_site_fract_y
_atom_site_fract_z
Si Si1 0.733129 0.405999 0.193107
Si Si2 0.207239 0.624393 0.382577
Si Si3 0.642588 0.028647 0.387318
Si Si4 0.641528 0.455639 0.549097
Si Si5 0.950683 0.988335 0.590405
Si Si6 0.597732 0.665828 0.303008
Si Si7 0.021616 0.285412 0.739179
Si Si8 0.269527 0.115985 0.257727
O O1 0.849276 0.466819 0.517589
O O2 0.893573 0.547272 0.277529
O O3 0.618082 0.437636 0.015632
O O4 0.578161 0.184114 0.964498
O O5 0.362358 0.849886 0.587088
O O6 0.335439 0.632298 0.497028
O O7 0.000000 0.500000 0.000000
O O8 0.793563 0.143137 0.456683
O O9 0.726663 0.014051 0.660543
O O10 0.575760 0.513644 0.326909
O O11 0.467583 0.301642 0.432020
O O12 0.850344 0.633651 0.925675
O O13 0.711760 0.787310 0.298306
O O14 0.000000 0.000000 0.500000
O O15 0.027304 0.173774 0.690710
O O16 0.064573 0.982420 0.876438
O O17 0.735376 0.817248 0.617603
#
# Coordination Sequence:
#
# PCOD8031355 Si02
#       8
#     2   2   2   2   2   2   2   2
#     4  11  26  47  76 110 138 192 245 299 363 430
#     4  12  29  47  72 108 146 194 248 301 354 422
#     4  11  24  49  75 100 145 196 247 296 355 421
#     4  12  24  43  73 107 143 189 237 294 360 434
#     4  12  26  38  68 115 146 185 233 300 368 434
#     4  11  22  44  72 104 144 184 229 297 368 432
#     4  12  22  46  75 105 146 189 243 289 368 437
#     4  11  22  43  71 102 138 192 236 287 364 434
#
# _framework density 23.074614
#
# number of rings (size 3 to 8) (size 9 to 14) (size 15 to 20)
#    0.000    0.500    7.500    2.625    3.500    1.500 
#    0.000    0.000    0.000    0.000    0.000    0.000 
#    0.000    0.000    0.000    0.000    0.000    0.000 
#
# Total GULP energy -198469.054370 kJ/mol
# GULP energy per Si atom -12404.315898 kJ/mol
# Density = 2.302210 g / cm^3
# Si number density = 23.074614 Si / 1000 Ang^3
#
#
#
# Elastic Constant Matrix: (Units=GPa)
#
#
# Indices 1 2 3 4 5 6 
#
# 1 111.4978 67.3302 7.1272 12.7887 -19.3358 -10.4555
# 2 67.3302 144.0372 40.7701 6.4867 -5.4845 -1.1835
# 3 7.1272 40.7701 70.9230 -12.2232 -15.4415 3.0245
# 4 12.7887 6.4867 -12.2232 33.7889 7.9621 8.5273
# 5 -19.3358 -5.4845 -15.4415 7.9621 24.0593 5.4969
# 6 -10.4555 -1.1835 3.0245 8.5273 5.4969 55.8742
#
#
#
# Elastic Compliance Matrix: (Units=1/GPa)
#
#
# Indices 1 2 3 4 5 6 
#
# 1 0.018657 -0.009351 0.006129 -0.008102 0.018944 0.002334
# 2 -0.009351 0.013472 -0.009025 0.000104 -0.010275 0.000019
# 3 0.006129 -0.009025 0.023241 0.004508 0.016899 -0.002653
# 4 -0.008102 0.000104 0.004508 0.039443 -0.015213 -0.006281
# 5 0.018944 -0.010275 0.016899 -0.015213 0.070838 -0.002235
# 6 0.002334 0.000019 -0.002653 -0.006281 -0.002235 0.019657
#
#
# Mechanical properties :
#
#
# Convention : Reuss Voigt Hill
#
# Bulk Modulus (GPa) = 32.38593 61.87923 47.13258
# Shear Modulus (GPa) = 22.71768 36.82653 29.77211
#
# Velocity S-wave (km/s) = 3.14113 3.99930 3.59591
# Velocity P-wave (km/s) = 5.21741 6.94270 6.14095
#
# Compressibility (1/GPa) = 0.03087760
#
# Stress axis : x y z
#
# Youngs Moduli (GPa) = 53.59882 74.22622 43.02733
#
# Poissons Ratio (x) = 0.69407 -0.26371
# Poissons Ratio (y) = 0.50119 0.38831
# Poissons Ratio (z) = -0.32851 0.66987
#
# Static dielectric constant tensor:
#      x y z
#    x 4.234590 0.040730 0.023740 
#    y 0.040730 4.487260 -0.078200 
#    z 0.023740 -0.078200 4.106370 
# 
# 
# High freq. dielectric constant tensor:
#      x y z
#    x 1.914150 0.003720 0.001980 
#    y 0.003720 1.926390 -0.006840 
#    z 0.001980 -0.006840 1.903560 
# 
# From -- ./inp_files/333200.got.cif
#   From: 2010.06.25/outbox.cif.g09.slc.cpg/sg2_167_cif.got.tgz:333200.got - 2010.06.27 13:26:56.
