data_PCOD8031991
_publ_section_title
;
Structure prediction by ZEFSAII (Michael W. Deem and Ramdas Pophale) SiO2 
 PCOD8031991
Probable space group: P -1
;
_chemical_formula_sum "Si O2"
_cell_formula_units_Z 14
_cell_length_a 5.397098
_cell_length_b 18.678810
_cell_length_c 11.317074
_cell_angle_alpha 136.387392
_cell_angle_beta 52.914336
_cell_angle_gamma 114.440863
_cell_volume 627.245842
_symmetry_space_group_name_H-M "P -1"
_symmetry_group_IT_number 2
_symmetry_cell_setting 'triclinic'
loop_
_space_group_symop_operation_xyz
x,y,z
-x,-y,-z
loop_
_atom_site_type_symbol
_atom_site_label
_atom_site_fract_x
_atom_site_fract_y
_atom_site_fract_z
Si Si1 0.607567 0.904911 0.692100
Si Si2 0.767445 0.290212 0.090171
Si Si3 0.494348 0.943941 0.311396
Si Si4 0.676218 0.450115 0.000131
Si Si5 0.836243 0.097072 0.979317
Si Si6 0.934701 0.240104 0.733643
Si Si7 0.210499 0.410688 0.276781
O O1 0.772319 0.794681 0.474360
O O2 0.567881 0.966272 0.656764
O O3 0.802401 0.975525 0.810095
O O4 0.289683 0.881562 0.825479
O O5 0.432346 0.348813 0.233818
O O6 0.974913 0.337428 0.189539
O O7 0.671509 0.175288 0.024664
O O8 0.987153 0.290841 0.909279
O O9 0.233560 0.862285 0.302436
O O10 0.802691 0.879435 0.105563
O O11 0.500000 0.000000 0.500000
O O12 0.736847 0.325337 0.815279
O O13 0.500000 0.500000 0.000000
O O14 0.438779 0.471156 0.199198
O O15 0.000000 0.500000 0.000000
O O16 0.000000 0.500000 0.500000
#
# Coordination Sequence:
#
# PCOD8031991 Si02
#       7
#     2   2   2   2   2   2   2
#     4  11  24  40  61 100 135 178 220 286 335 402
#     4  11  23  43  71 101 135 186 227 284 339 426
#     4  12  22  40  67  95 133 188 228 274 329 416
#     4  11  25  45  69  99 134 175 226 294 345 406
#     4  11  23  40  61  95 144 169 226 276 342 396
#     4  11  23  44  67  97 132 182 235 268 345 412
#     4  11  25  46  73 100 133 176 236 288 352 412
#
# _framework density 22.319797000000001
#
# number of rings (size 3 to 8) (size 9 to 14) (size 15 to 20)
#    0.000    0.857    2.857    5.571    0.000    3.429 
#    0.000    0.000    0.000    0.000    0.000    0.000 
#    0.000    0.000    0.000    0.000    0.000    0.000 
#
# Total GULP energy -173482.592016 kJ/mol
# GULP energy per Si atom -12391.613715 kJ/mol
# Density = 2.226900 g / cm^3
# Si number density = 22.319797 Si / 1000 Ang^3
#
#
#
# Elastic Constant Matrix: (Units=GPa)
#
#
# Indices 1 2 3 4 5 6 
#
# 1 117.6371 33.0100 44.0790 3.0983 -14.3197 -6.4949
# 2 33.0100 98.8430 46.3279 -9.3553 -15.1085 -22.9637
# 3 44.0790 46.3279 184.5418 -15.6750 -25.5936 -5.1930
# 4 3.0983 -9.3553 -15.6750 32.4354 1.7376 -13.0170
# 5 -14.3197 -15.1085 -25.5936 1.7376 32.9730 3.3595
# 6 -6.4949 -22.9637 -5.1930 -13.0170 3.3595 32.0474
#
#
#
# Elastic Compliance Matrix: (Units=1/GPa)
#
#
# Indices 1 2 3 4 5 6 
#
# 1 0.010272 -0.003155 -0.001752 -0.003731 0.002076 -0.002196
# 2 -0.003155 0.016913 -0.001801 0.010180 0.002915 0.015017
# 3 -0.001752 -0.001801 0.007067 0.002997 0.003708 0.000328
# 4 -0.003731 0.010180 0.002997 0.045827 0.000347 0.025601
# 5 0.002076 0.002915 0.003708 0.000347 0.035473 -0.000467
# 6 -0.002196 0.015017 0.000328 0.025601 -0.000467 0.052020
#
#
# Mechanical properties :
#
#
# Convention : Reuss Voigt Hill
#
# Bulk Modulus (GPa) = 47.99392 71.98398 59.98895
# Shear Modulus (GPa) = 26.60509 37.99814 32.30162
#
# Velocity S-wave (km/s) = 3.45627 4.13054 3.80836
# Velocity P-wave (km/s) = 6.12187 7.42090 6.80246
#
# Compressibility (1/GPa) = 0.02083597
#
# Stress axis : x y z
#
# Youngs Moduli (GPa) = 97.34823 59.12750 141.49310
#
# Poissons Ratio (x) = 0.18657 0.24794
# Poissons Ratio (y) = 0.30716 0.25477
# Poissons Ratio (z) = 0.17059 0.10647
#
# Static dielectric constant tensor:
#      x y z
#    x 4.047310 -0.081480 -0.080770 
#    y -0.081480 4.180070 -0.186440 
#    z -0.080770 -0.186440 4.185080 
# 
# 
# High freq. dielectric constant tensor:
#      x y z
#    x 1.871880 -0.010350 -0.008380 
#    y -0.010350 1.885460 -0.002500 
#    z -0.008380 -0.002500 1.887510 
# 
# From -- ./inp_files/44986.got.cif
#   From: 2010.06.25/outbox.cif.g09.slc.cpg/sg2_23_cif.got.tgz:44986.got - 2010.06.27 13:26:56.
