data_PCOD8031348
_publ_section_title
;
Structure prediction by ZEFSAII (Michael W. Deem and Ramdas Pophale) SiO2 
 PCOD8031348
Probable space group: P -1
;
_chemical_formula_sum "Si O2"
_cell_formula_units_Z 14
_cell_length_a 16.117396
_cell_length_b 9.194995
_cell_length_c 13.473599
_cell_angle_alpha 133.649387
_cell_angle_beta 26.098292
_cell_angle_gamma 122.714681
_cell_volume 615.498937
_symmetry_space_group_name_H-M "P -1"
_symmetry_group_IT_number 2
_symmetry_cell_setting 'triclinic'
loop_
_space_group_symop_operation_xyz
x,y,z
-x,-y,-z
loop_
_atom_site_type_symbol
_atom_site_label
_atom_site_fract_x
_atom_site_fract_y
_atom_site_fract_z
Si Si1 0.733842 0.650674 0.766827
Si Si2 0.741816 0.136938 0.261433
Si Si3 0.154137 0.122207 0.422754
Si Si4 0.673369 0.120782 0.701042
Si Si5 0.349372 0.105404 0.576911
Si Si6 0.017312 0.541874 0.884625
Si Si7 0.989812 0.761695 0.704965
O O1 0.747573 0.831142 0.761613
O O2 0.866333 0.430694 0.481906
O O3 0.808059 0.695562 0.818166
O O4 0.501153 0.669472 0.026955
O O5 0.553875 0.154881 0.403732
O O6 0.806894 0.349939 0.278777
O O7 0.688176 0.086652 0.407757
O O8 0.918761 0.946387 0.945774
O O9 0.049480 0.326845 0.691937
O O10 0.323500 0.978997 0.240871
O O11 0.000000 0.000000 0.500000
O O12 0.880659 0.175174 0.491308
O O13 0.648270 0.952877 0.567935
O O14 0.182592 0.312884 0.874405
O O15 0.000000 0.500000 0.000000
#
# Coordination Sequence:
#
# PCOD8031348 Si02
#       7
#     2   2   2   2   2   2   2
#     4  11  25  42  67 100 137 184 231 278 349 406
#     4  11  24  45  72 102 141 180 232 294 344 415
#     4  12  26  48  69 100 143 187 231 285 348 416
#     4  12  23  45  68  99 139 185 229 285 342 411
#     4  11  24  43  72 105 139 180 236 286 352 412
#     4  12  25  46  72 102 140 185 233 285 351 412
#     4  11  22  43  70  99 136 178 231 288 338 410
#
# _framework density 22.745774000000001
#
# number of rings (size 3 to 8) (size 9 to 14) (size 15 to 20)
#    0.000    0.571    5.714    2.143    2.000    0.571 
#    5.143    0.000    0.000    0.000    0.000    0.000 
#    0.000    0.000    0.000    0.000    0.000    0.000 
#
# Total GULP energy -173632.272341 kJ/mol
# GULP energy per Si atom -12402.305167 kJ/mol
# Density = 2.269400 g / cm^3
# Si number density = 22.745774 Si / 1000 Ang^3
#
#
#
# Elastic Constant Matrix: (Units=GPa)
#
#
# Indices 1 2 3 4 5 6 
#
# 1 104.6785 36.9523 29.7793 8.7605 -12.8176 -3.0367
# 2 36.9523 110.2128 27.5402 9.7759 -4.2153 6.1610
# 3 29.7793 27.5402 82.9053 5.1175 -20.1937 8.0240
# 4 8.7605 9.7759 5.1175 32.2649 -2.6171 2.9853
# 5 -12.8176 -4.2153 -20.1937 -2.6171 42.9261 1.5364
# 6 -3.0367 6.1610 8.0240 2.9853 1.5364 39.4866
#
#
#
# Elastic Compliance Matrix: (Units=1/GPa)
#
#
# Indices 1 2 3 4 5 6 
#
# 1 0.011918 -0.003155 -0.002905 -0.001874 0.001693 0.002075
# 2 -0.003155 0.010974 -0.002544 -0.002043 -0.001141 -0.001239
# 3 -0.002905 -0.002544 0.015847 -0.000127 0.006448 -0.003288
# 4 -0.001874 -0.002043 -0.000127 0.032455 0.001241 -0.002302
# 5 0.001693 -0.001141 0.006448 0.001241 0.026875 -0.002141
# 6 0.002075 -0.001239 -0.003288 -0.002302 -0.002141 0.026603
#
#
# Mechanical properties :
#
#
# Convention : Reuss Voigt Hill
#
# Bulk Modulus (GPa) = 46.44742 54.03781 50.24262
# Shear Modulus (GPa) = 33.54421 36.50384 35.02402
#
# Velocity S-wave (km/s) = 3.84441 4.01042 3.92829
# Velocity P-wave (km/s) = 6.33802 6.72707 6.53544
#
# Compressibility (1/GPa) = 0.02152972
#
# Stress axis : x y z
#
# Youngs Moduli (GPa) = 83.90924 91.12765 63.10248
#
# Poissons Ratio (x) = 0.28749 0.18334
# Poissons Ratio (y) = 0.26471 0.16054
# Poissons Ratio (z) = 0.24380 0.23184
#
# Static dielectric constant tensor:
#      x y z
#    x 4.125190 -0.159180 -0.184700 
#    y -0.159180 4.123540 -0.072240 
#    z -0.184700 -0.072240 4.300690 
# 
# 
# High freq. dielectric constant tensor:
#      x y z
#    x 1.910160 -0.006280 -0.009890 
#    y -0.006280 1.895650 -0.003610 
#    z -0.009890 -0.003610 1.898530 
# 
# From -- ./inp_files/416066.got.cif
#   From: 2010.06.25/outbox.cif.g09.slc.cpg/sg2_209_cif.got.tgz:416066.got - 2010.06.27 13:26:56.
