data_PCOD8031212
_publ_section_title
;
Structure prediction by ZEFSAII (Michael W. Deem and Ramdas Pophale) SiO2 
 PCOD8031212
Probable space group: P -1
;
_chemical_formula_sum "Si O2"
_cell_formula_units_Z 12
_cell_length_a 11.536184
_cell_length_b 8.829247
_cell_length_c 12.933706
_cell_angle_alpha 49.394358
_cell_angle_beta 34.939020
_cell_angle_gamma 55.391718
_cell_volume 570.997744
_symmetry_space_group_name_H-M "P -1"
_symmetry_group_IT_number 2
_symmetry_cell_setting 'triclinic'
loop_
_space_group_symop_operation_xyz
x,y,z
-x,-y,-z
loop_
_atom_site_type_symbol
_atom_site_label
_atom_site_fract_x
_atom_site_fract_y
_atom_site_fract_z
Si Si1 0.110425 0.601271 0.467365
Si Si2 0.439232 0.473998 0.769482
Si Si3 0.030562 0.453663 0.182373
Si Si4 0.986719 0.033551 0.301765
Si Si5 0.746951 0.792393 0.131701
Si Si6 0.548421 0.107638 0.521470
O O1 0.019459 0.510744 0.677396
O O2 0.000000 0.500000 0.500000
O O3 0.351197 0.544787 0.312840
O O4 0.078180 0.840395 0.382151
O O5 0.414250 0.279673 0.802367
O O6 0.572513 0.340032 0.382394
O O7 0.261294 0.502744 0.971546
O O8 0.001196 0.225389 0.277718
O O9 0.881923 0.596783 0.157615
O O10 0.754165 0.999085 0.463549
O O11 0.108284 0.056287 0.095477
O O12 0.631235 0.913170 0.255160
O O13 0.500000 0.000000 0.500000
#
# Coordination Sequence:
#
# PCOD8031212 Si02
#       6
#     2   2   2   2   2   2
#     4  12  27  42  61  95 140 170 201 261 327 378
#     4  11  22  43  69  92 125 169 217 258 318 373
#     4  11  22  43  71  92 125 170 215 268 310 369
#     4  11  24  42  64 100 125 162 224 260 309 381
#     4  11  22  42  72  95 122 165 220 272 306 365
#     4  12  23  37  65  96 127 169 209 256 319 379
#
# _framework density 21.015847000000001
#
# number of rings (size 3 to 8) (size 9 to 14) (size 15 to 20)
#    0.000    0.667    5.000    4.000    0.000    6.667 
#    0.000    0.000    0.000    0.000    0.000    0.000 
#    0.000    0.000    0.000    0.000    0.000    0.000 
#
# Total GULP energy -148877.748470 kJ/mol
# GULP energy per Si atom -12406.479039 kJ/mol
# Density = 2.096801 g / cm^3
# Si number density = 21.015847 Si / 1000 Ang^3
#
#
#
# Elastic Constant Matrix: (Units=GPa)
#
#
# Indices 1 2 3 4 5 6 
#
# 1 107.5736 16.5904 48.2902 21.0091 -13.7282 -3.0667
# 2 16.5904 43.7256 28.2661 7.7945 -7.0346 -9.1230
# 3 48.2902 28.2661 129.1265 35.8486 -5.6516 -4.9617
# 4 21.0091 7.7945 35.8486 33.0385 -7.6304 10.7949
# 5 -13.7282 -7.0346 -5.6516 -7.6304 26.3689 4.7343
# 6 -3.0667 -9.1230 -4.9617 10.7949 4.7343 37.9831
#
#
#
# Elastic Compliance Matrix: (Units=1/GPa)
#
#
# Indices 1 2 3 4 5 6 
#
# 1 0.012083 -0.001141 -0.003163 -0.003219 0.004256 0.000673
# 2 -0.001141 0.028809 -0.005012 -0.001583 0.004471 0.006065
# 3 -0.003163 -0.005012 0.014228 -0.015231 -0.005310 0.005390
# 4 -0.003219 -0.001583 -0.015231 0.059954 0.015873 -0.021647
# 5 0.004256 0.004471 -0.005310 0.015873 0.046508 -0.009584
# 6 0.000673 0.006065 0.005390 -0.021647 -0.009584 0.035889
#
#
# Mechanical properties :
#
#
# Convention : Reuss Voigt Hill
#
# Bulk Modulus (GPa) = 27.40588 51.85767 39.63177
# Shear Modulus (GPa) = 21.90438 31.96338 26.93388
#
# Velocity S-wave (km/s) = 3.23194 3.90413 3.58383
# Velocity P-wave (km/s) = 5.19578 6.71208 6.00200
#
# Compressibility (1/GPa) = 0.03648852
#
# Stress axis : x y z
#
# Youngs Moduli (GPa) = 82.76201 34.71095 70.28556
#
# Poissons Ratio (x) = 0.03960 0.22233
# Poissons Ratio (y) = 0.09441 0.35225
# Poissons Ratio (z) = 0.26179 0.17396
#
# Static dielectric constant tensor:
#      x y z
#    x 3.738100 -0.164130 0.046350 
#    y -0.164130 3.751480 0.094420 
#    z 0.046350 0.094420 4.142770 
# 
# 
# High freq. dielectric constant tensor:
#      x y z
#    x 1.821180 -0.005830 -0.000800 
#    y -0.005830 1.816880 0.008000 
#    z -0.000800 0.008000 1.838410 
# 
# From -- ./inp_files/381160.got.cif
#   From: 2010.06.25/outbox.cif.g09.slc.cpg/sg2_191_cif.got.tgz:381160.got - 2010.06.27 13:26:56.
