data_PCOD8031082
_publ_section_title
;
Structure prediction by ZEFSAII (Michael W. Deem and Ramdas Pophale) SiO2 
 PCOD8031082
Probable space group: P -1
;
_chemical_formula_sum "Si O2"
_cell_formula_units_Z 16
_cell_length_a 9.335804
_cell_length_b 9.424452
_cell_length_c 15.359517
_cell_angle_alpha 127.680318
_cell_angle_beta 79.847413
_cell_angle_gamma 64.435075
_cell_volume 759.776090
_symmetry_space_group_name_H-M "P -1"
_symmetry_group_IT_number 2
_symmetry_cell_setting 'triclinic'
loop_
_space_group_symop_operation_xyz
x,y,z
-x,-y,-z
loop_
_atom_site_type_symbol
_atom_site_label
_atom_site_fract_x
_atom_site_fract_y
_atom_site_fract_z
Si Si1 0.240712 0.582986 0.343867
Si Si2 0.889533 0.844333 0.187625
Si Si3 0.206654 0.471927 0.883008
Si Si4 0.923550 0.071931 0.663399
Si Si5 0.060116 0.779801 0.852930
Si Si6 0.428794 0.755640 0.132907
Si Si7 0.673273 0.893888 0.872811
Si Si8 0.400958 0.648806 0.656114
O O1 0.229245 0.671564 0.280229
O O2 0.236101 0.371749 0.269464
O O3 0.441717 0.484577 0.331868
O O4 0.040550 0.826137 0.502288
O O5 0.879829 0.652159 0.148790
O O6 0.919619 0.939288 0.305528
O O7 0.682070 0.079621 0.250724
O O8 0.074231 0.712852 0.050961
O O9 0.191276 0.538267 0.809195
O O10 0.436902 0.288179 0.818190
O O11 0.798585 0.061864 0.741322
O O12 0.203196 0.701527 0.725153
O O13 0.854356 0.858820 0.877178
O O14 0.000000 0.000000 0.000000
O O15 0.440163 0.895244 0.109474
O O16 0.500000 0.500000 0.000000
O O17 0.500000 0.000000 0.000000
O O18 0.500000 0.500000 0.500000
#
# Coordination Sequence:
#
# PCOD8031082 Si02
#       8
#     2   2   2   2   2   2   2   2
#     4  11  25  44  69  95 134 180 221 276 338 401
#     4  11  22  42  66  97 130 176 218 281 332 397
#     4  11  24  39  69  97 133 169 227 279 334 385
#     4  11  23  45  67  93 134 180 224 268 339 405
#     4  12  24  44  68  99 133 174 226 275 331 399
#     4  12  23  41  66  96 132 173 218 273 334 392
#     4  12  27  43  68 102 136 170 226 285 335 396
#     4  12  24  45  70  97 135 181 223 271 339 405
#
# _framework density 21.058837
#
# number of rings (size 3 to 8) (size 9 to 14) (size 15 to 20)
#    0.000    0.500    3.750    5.250    3.500    0.500 
#    2.250    0.625    0.000    0.000    0.000    0.000 
#    0.000    0.000    0.000    0.000    0.000    0.000 
#
# Total GULP energy -198427.939494 kJ/mol
# GULP energy per Si atom -12401.746218 kJ/mol
# Density = 2.101091 g / cm^3
# Si number density = 21.058837 Si / 1000 Ang^3
#
#
#
# Elastic Constant Matrix: (Units=GPa)
#
#
# Indices 1 2 3 4 5 6 
#
# 1 114.8774 22.5458 38.7182 -1.5648 -11.0488 -6.3193
# 2 22.5458 130.8629 36.3039 8.3992 -12.4470 -2.2710
# 3 38.7182 36.3039 102.2047 4.2885 -5.3268 19.0186
# 4 -1.5648 8.3992 4.2885 34.7132 5.2143 -3.1455
# 5 -11.0488 -12.4470 -5.3268 5.2143 30.5120 -2.6129
# 6 -6.3193 -2.2710 19.0186 -3.1455 -2.6129 40.9636
#
#
#
# Elastic Compliance Matrix: (Units=1/GPa)
#
#
# Indices 1 2 3 4 5 6 
#
# 1 0.010878 -0.000270 -0.004667 0.001026 0.003191 0.004112
# 2 -0.000270 0.009100 -0.003228 -0.002172 0.003595 0.002024
# 3 -0.004667 -0.003228 0.014150 -0.001737 -0.000895 -0.007659
# 4 0.001026 -0.002172 -0.001737 0.030726 -0.005826 0.002832
# 5 0.003191 0.003595 -0.000895 -0.005826 0.036491 0.002988
# 6 0.004112 0.002024 -0.007659 0.002832 0.002988 0.029122
#
#
# Mechanical properties :
#
#
# Convention : Reuss Voigt Hill
#
# Bulk Modulus (GPa) = 56.18676 60.34228 58.26452
# Shear Modulus (GPa) = 32.73729 37.92957 35.33343
#
# Velocity S-wave (km/s) = 3.94707 4.24857 4.10059
# Velocity P-wave (km/s) = 6.89284 7.26522 7.08148
#
# Compressibility (1/GPa) = 0.01779779
#
# Stress axis : x y z
#
# Youngs Moduli (GPa) = 91.92909 109.88733 70.66989
#
# Poissons Ratio (x) = 0.02972 0.32980
# Poissons Ratio (y) = 0.02486 0.22813
# Poissons Ratio (z) = 0.42901 0.35473
#
# Static dielectric constant tensor:
#      x y z
#    x 3.784610 -0.047670 -0.007860 
#    y -0.047670 4.192030 -0.025610 
#    z -0.007860 -0.025610 3.902570 
# 
# 
# High freq. dielectric constant tensor:
#      x y z
#    x 1.826880 -0.006850 -0.003090 
#    y -0.006850 1.848630 0.002520 
#    z -0.003090 0.002520 1.818430 
# 
# From -- ./inp_files/227704.got.cif
#   From: 2010.06.25/outbox.cif.g09.slc.cpg/sg2_114_cif.got.tgz:227704.got - 2010.06.27 13:26:56.
