data_PCOD8031955
_publ_section_title
;
Structure prediction by ZEFSAII (Michael W. Deem and Ramdas Pophale) SiO2 
 PCOD8031955
Probable space group: P -1
;
_chemical_formula_sum "Si O2"
_cell_formula_units_Z 16
_cell_length_a 20.379994
_cell_length_b 8.859834
_cell_length_c 24.554845
_cell_angle_alpha 147.184728
_cell_angle_beta 21.034493
_cell_angle_gamma 150.379862
_cell_volume 775.938614
_symmetry_space_group_name_H-M "P -1"
_symmetry_group_IT_number 2
_symmetry_cell_setting 'triclinic'
loop_
_space_group_symop_operation_xyz
x,y,z
-x,-y,-z
loop_
_atom_site_type_symbol
_atom_site_label
_atom_site_fract_x
_atom_site_fract_y
_atom_site_fract_z
Si Si1 0.240557 0.130728 0.759659
Si Si2 0.869492 0.821559 0.876310
Si Si3 0.553479 0.205364 0.446639
Si Si4 0.377716 0.838264 0.876445
Si Si5 0.579895 0.136238 0.920157
Si Si6 0.901961 0.889979 0.598075
Si Si7 0.809154 0.205360 0.466098
Si Si8 0.741191 0.895227 0.533851
O O1 0.409766 0.145561 0.591271
O O2 0.272871 0.469778 0.855998
O O3 0.281260 0.937368 0.718749
O O4 0.016037 0.954575 0.855187
O O5 0.679695 0.508448 0.948395
O O6 0.997701 0.776562 0.712847
O O7 0.781172 0.062281 0.000000
O O8 0.666653 0.571955 0.461848
O O9 0.408951 0.057471 0.462490
O O10 0.576170 0.933113 0.712770
O O11 0.423681 0.996895 0.948476
O O12 0.747281 0.025940 0.752614
O O13 0.500000 0.000000 0.000000
O O14 0.792476 0.523535 0.573499
O O15 0.000000 0.000000 0.500000
O O16 0.060655 0.060004 0.573524
O O17 0.828891 0.158220 0.500191
#
# Coordination Sequence:
#
# PCOD8031955 Si02
#       8
#     2   2   2   2   2   2   2   2
#     4   9  19  38  66  91 119 167 201 254 304 362
#     4  11  23  42  63  92 129 163 202 251 313 367
#     4   9  19  36  65  94 124 153 211 251 303 360
#     4  11  23  42  63  92 129 163 202 251 313 367
#     4  12  27  42  64  90 123 166 208 257 308 360
#     4  12  23  42  64  90 121 158 216 256 298 364
#     4  11  23  39  66  95 124 163 203 255 305 364
#     4  11  23  39  66  95 124 163 203 255 305 364
#
# _framework density 20.620187999999999
#
# number of rings (size 3 to 8) (size 9 to 14) (size 15 to 20)
#    0.000    1.250    2.500    3.000    7.000    0.000 
#    0.000    0.625    0.000    0.000    0.000    0.000 
#    0.000    0.000    0.000    0.000    0.000    0.000 
#
# Total GULP energy -198226.999578 kJ/mol
# GULP energy per Si atom -12389.187474 kJ/mol
# Density = 2.057326 g / cm^3
# Si number density = 20.620188 Si / 1000 Ang^3
#
#
#
# Elastic Constant Matrix: (Units=GPa)
#
#
# Indices 1 2 3 4 5 6 
#
# 1 97.0303 46.6383 13.5930 7.3801 -4.3430 -9.6812
# 2 46.6383 101.5594 2.2818 5.2465 -2.4025 12.2070
# 3 13.5930 2.2818 36.9784 10.4391 -16.0601 -5.5919
# 4 7.3801 5.2465 10.4391 29.9044 -9.9419 3.7840
# 5 -4.3430 -2.4025 -16.0601 -9.9419 43.4867 -0.0127
# 6 -9.6812 12.2070 -5.5919 3.7840 -0.0127 38.7787
#
#
#
# Elastic Compliance Matrix: (Units=1/GPa)
#
#
# Indices 1 2 3 4 5 6 
#
# 1 0.015155 -0.007475 -0.004037 -0.002031 -0.000853 0.005752
# 2 -0.007475 0.014001 0.001183 -0.000108 0.000437 -0.006092
# 3 -0.004037 0.001183 0.036502 -0.008858 0.011119 0.004751
# 4 -0.002031 -0.000108 -0.008858 0.039616 0.005575 -0.005614
# 5 -0.000853 0.000437 0.011119 0.005575 0.028316 0.000718
# 6 0.005752 -0.006092 0.004751 -0.005614 0.000718 0.030374
#
#
# Mechanical properties :
#
#
# Convention : Reuss Voigt Hill
#
# Bulk Modulus (GPa) = 22.22230 40.06603 31.14416
# Shear Modulus (GPa) = 25.04729 33.97096 29.50913
#
# Velocity S-wave (km/s) = 3.48903 4.06330 3.78707
# Velocity P-wave (km/s) = 5.19918 6.44100 5.85312
#
# Compressibility (1/GPa) = 0.04499984
#
# Stress axis : x y z
#
# Youngs Moduli (GPa) = 65.98498 71.42358 27.39576
#
# Poissons Ratio (x) = 0.53393 0.11059
# Poissons Ratio (y) = 0.49327 -0.03242
# Poissons Ratio (z) = 0.26637 -0.08451
#
# Static dielectric constant tensor:
#      x y z
#    x 4.186000 -0.003080 -0.142830 
#    y -0.003080 4.150960 0.139540 
#    z -0.142830 0.139540 3.614860 
# 
# 
# High freq. dielectric constant tensor:
#      x y z
#    x 1.821260 0.000520 -0.015960 
#    y 0.000520 1.818340 0.011780 
#    z -0.015960 0.011780 1.795030 
# 
# From -- ./inp_files/279135.got.cif
#   From: 2010.06.25/outbox.cif.g09.slc.cpg/sg2_140_cif.got.tgz:279135.got - 2010.06.27 13:26:56.
