data_PCOD8031495
_publ_section_title
;
Structure prediction by ZEFSAII (Michael W. Deem and Ramdas Pophale) SiO2 
 PCOD8031495
Probable space group: P -1
;
_chemical_formula_sum "Si O2"
_cell_formula_units_Z 16
_cell_length_a 8.937907
_cell_length_b 15.324150
_cell_length_c 20.938962
_cell_angle_alpha 20.065055
_cell_angle_beta 59.000130
_cell_angle_gamma 69.323307
_cell_volume 755.562396
_symmetry_space_group_name_H-M "P -1"
_symmetry_group_IT_number 2
_symmetry_cell_setting 'triclinic'
loop_
_space_group_symop_operation_xyz
x,y,z
-x,-y,-z
loop_
_atom_site_type_symbol
_atom_site_label
_atom_site_fract_x
_atom_site_fract_y
_atom_site_fract_z
Si Si1 0.233418 0.772758 0.892723
Si Si2 0.014102 0.935366 0.730002
Si Si3 0.140737 0.173987 0.293169
Si Si4 0.649332 0.906122 0.888002
Si Si5 0.974484 0.740267 0.085962
Si Si6 0.154068 0.793069 0.236898
Si Si7 0.641963 0.156298 0.587425
Si Si8 0.775831 0.398021 0.776673
O O1 0.175692 0.865256 0.775108
O O2 0.418855 0.043477 0.692935
O O3 0.273834 0.498919 0.061927
O O4 0.053787 0.680083 0.043890
O O5 0.079445 0.271106 0.483495
O O6 0.807883 0.792809 0.912108
O O7 0.990209 0.821180 0.741595
O O8 0.276420 0.031636 0.339943
O O9 0.000000 0.000000 0.500000
O O10 0.692606 0.047733 0.850667
O O11 0.655104 0.128085 0.680068
O O12 0.430221 0.651059 0.113173
O O13 0.758369 0.486340 0.317869
O O14 0.121676 0.758615 0.097472
O O15 0.959475 0.033177 0.883372
O O16 0.265114 0.732759 0.195283
O O17 0.000000 0.500000 0.500000
#
# Coordination Sequence:
#
# PCOD8031495 Si02
#       8
#     2   2   2   2   2   2   2   2
#     4  12  23  42  68  99 132 177 219 268 334 390
#     4  11  24  44  67  96 140 167 222 276 324 386
#     4  11  22  44  69  95 135 174 218 272 330 390
#     4  11  23  42  66  95 133 177 214 272 325 382
#     4  12  23  44  68  97 134 172 222 272 323 395
#     4  12  24  45  68  97 137 172 218 275 329 386
#     4  11  24  43  68  96 135 176 219 268 331 392
#     4  12  23  44  67  96 132 179 219 271 327 389
#
# _framework density 21.176279999999998
#
# number of rings (size 3 to 8) (size 9 to 14) (size 15 to 20)
#    0.000    0.500    7.500    1.500    1.750    0.000 
#    2.250    1.875    0.000    0.000    0.000    0.000 
#    0.000    0.000    0.000    0.000    0.000    0.000 
#
# Total GULP energy -198443.436907 kJ/mol
# GULP energy per Si atom -12402.714807 kJ/mol
# Density = 2.112808 g / cm^3
# Si number density = 21.176280 Si / 1000 Ang^3
#
#
#
# Elastic Constant Matrix: (Units=GPa)
#
#
# Indices 1 2 3 4 5 6 
#
# 1 99.7932 9.2445 43.2559 15.8848 -7.6316 6.4847
# 2 9.2445 80.5073 23.3487 17.7891 -3.7248 10.6097
# 3 43.2559 23.3487 98.4235 8.6225 0.2430 -8.8829
# 4 15.8848 17.7891 8.6225 29.7718 -1.3093 3.0219
# 5 -7.6316 -3.7248 0.2430 -1.3093 35.4220 -1.8982
# 6 6.4847 10.6097 -8.8829 3.0219 -1.8982 35.5636
#
#
#
# Elastic Compliance Matrix: (Units=1/GPa)
#
#
# Indices 1 2 3 4 5 6 
#
# 1 0.014218 0.002440 -0.006645 -0.006559 0.002894 -0.004269
# 2 0.002440 0.016309 -0.004659 -0.009055 0.001637 -0.005617
# 3 -0.006645 -0.004659 0.014612 0.001412 -0.001646 0.006044
# 4 -0.006559 -0.009055 0.001412 0.041991 -0.000789 0.000640
# 5 0.002894 0.001637 -0.001646 -0.000789 0.029019 0.000189
# 6 -0.004269 -0.005617 0.006044 0.000640 0.000189 0.032038
#
#
# Mechanical properties :
#
#
# Convention : Reuss Voigt Hill
#
# Bulk Modulus (GPa) = 36.48221 47.82469 42.15345
# Shear Modulus (GPa) = 28.56302 33.67649 31.11976
#
# Velocity S-wave (km/s) = 3.67662 3.99217 3.83764
# Velocity P-wave (km/s) = 5.94042 6.62443 6.29173
#
# Compressibility (1/GPa) = 0.02741062
#
# Stress axis : x y z
#
# Youngs Moduli (GPa) = 70.33427 61.31501 68.43782
#
# Poissons Ratio (x) = -0.14963 0.45479
# Poissons Ratio (y) = -0.17164 0.31887
# Poissons Ratio (z) = 0.46739 0.28568
#
# Static dielectric constant tensor:
#      x y z
#    x 3.958250 0.187240 -0.001240 
#    y 0.187240 3.963910 0.169280 
#    z -0.001240 0.169280 3.837500 
# 
# 
# High freq. dielectric constant tensor:
#      x y z
#    x 1.833410 0.015660 -0.001320 
#    y 0.015660 1.832910 0.014010 
#    z -0.001320 0.014010 1.828650 
# 
# From -- ./inp_files/202450.got.cif
#   From: 2010.06.25/outbox.cif.g09.slc.cpg/sg2_102_cif.got.tgz:202450.got - 2010.06.27 13:26:56.
