data_PCOD8031827
_publ_section_title
;
Structure prediction by ZEFSAII (Michael W. Deem and Ramdas Pophale) SiO2 
 PCOD8031827
Probable space group: P -1
;
_chemical_formula_sum "Si O2"
_cell_formula_units_Z 14
_cell_length_a 21.874608
_cell_length_b 13.980457
_cell_length_c 6.749166
_cell_angle_alpha 115.433521
_cell_angle_beta 74.020242
_cell_angle_gamma 159.520297
_cell_volume 597.139758
_symmetry_space_group_name_H-M "P -1"
_symmetry_group_IT_number 2
_symmetry_cell_setting 'triclinic'
loop_
_space_group_symop_operation_xyz
x,y,z
-x,-y,-z
loop_
_atom_site_type_symbol
_atom_site_label
_atom_site_fract_x
_atom_site_fract_y
_atom_site_fract_z
Si Si1 0.178479 0.361380 0.660752
Si Si2 0.839505 0.165657 0.887448
Si Si3 0.017608 0.254561 0.034109
Si Si4 0.302791 0.707787 0.527862
Si Si5 0.388385 0.296360 0.616623
Si Si6 0.524904 0.829789 0.008105
Si Si7 0.341217 0.398435 0.065738
O O1 0.219701 0.473963 0.506804
O O2 0.143205 0.403531 0.878957
O O3 0.376356 0.616499 0.773417
O O4 0.000000 0.000000 0.500000
O O5 0.898661 0.170522 0.998783
O O6 0.804971 0.060877 0.608223
O O7 0.000000 0.500000 0.000000
O O8 0.650134 0.924104 0.925558
O O9 0.148886 0.499151 0.314946
O O10 0.867835 0.927772 0.940771
O O11 0.500000 0.000000 0.500000
O O12 0.336554 0.853808 0.789180
O O13 0.500000 0.500000 0.500000
O O14 0.329554 0.305156 0.801598
O O15 0.503993 0.394419 0.729745
O O16 0.401158 0.608561 0.120053
#
# Coordination Sequence:
#
# PCOD8031827 Si02
#       7
#     2   2   2   2   2   2   2
#     4  12  30  52  80 110 154 202 256 309 379 456
#     4  12  28  44  76 111 151 196 246 315 383 441
#     4  12  28  50  74 112 152 197 256 310 379 451
#     4  12  29  51  77 107 156 200 251 315 373 455
#     4  11  22  47  67 106 156 195 240 309 380 446
#     4  12  27  49  77 113 149 201 254 311 385 445
#     4  11  25  43  76 110 144 199 256 306 376 450
#
# _framework density 23.445097000000001
#
# number of rings (size 3 to 8) (size 9 to 14) (size 15 to 20)
#    0.000    0.286    4.286    3.000   14.000    1.714 
#    0.000    0.000    0.000    0.000    0.000    0.000 
#    0.000    0.000    0.000    0.000    0.000    0.000 
#
# Total GULP energy -173638.412338 kJ/mol
# GULP energy per Si atom -12402.743738 kJ/mol
# Density = 2.339173 g / cm^3
# Si number density = 23.445097 Si / 1000 Ang^3
#
#
#
# Elastic Constant Matrix: (Units=GPa)
#
#
# Indices 1 2 3 4 5 6 
#
# 1 111.4487 43.0465 51.7082 5.1148 19.7185 3.1888
# 2 43.0465 126.7615 40.4067 6.9957 9.8966 -17.9297
# 3 51.7082 40.4067 156.2393 20.1535 21.3887 -6.8557
# 4 5.1148 6.9957 20.1535 48.1789 -0.7949 -2.2607
# 5 19.7185 9.8966 21.3887 -0.7949 27.1257 8.4109
# 6 3.1888 -17.9297 -6.8557 -2.2607 8.4109 48.2662
#
#
#
# Elastic Compliance Matrix: (Units=1/GPa)
#
#
# Indices 1 2 3 4 5 6 
#
# 1 0.012395 -0.003162 -0.002628 0.000087 -0.005338 -0.001433
# 2 -0.003162 0.010048 -0.001057 -0.000519 -0.001815 0.004083
# 3 -0.002628 -0.001057 0.008760 -0.003234 -0.005261 0.001790
# 4 0.000087 -0.000519 -0.003234 0.022221 0.003392 -0.000208
# 5 -0.005338 -0.001815 -0.005261 0.003392 0.048561 -0.009372
# 6 -0.001433 0.004083 0.001790 -0.000208 -0.009372 0.024208
#
#
# Mechanical properties :
#
#
# Convention : Reuss Voigt Hill
#
# Bulk Modulus (GPa) = 57.11922 73.86358 65.49140
# Shear Modulus (GPa) = 34.31192 42.00005 38.15598
#
# Velocity S-wave (km/s) = 3.82972 4.23711 4.03856
# Velocity P-wave (km/s) = 6.63111 7.45056 7.05274
#
# Compressibility (1/GPa) = 0.01750724
#
# Stress axis : x y z
#
# Youngs Moduli (GPa) = 80.68011 99.52653 114.16158
#
# Poissons Ratio (x) = 0.31472 0.29998
# Poissons Ratio (y) = 0.25512 0.12072
# Poissons Ratio (z) = 0.21200 0.10524
#
# Static dielectric constant tensor:
#      x y z
#    x 4.361540 -0.128000 -0.203950 
#    y -0.128000 4.525050 0.058340 
#    z -0.203950 0.058340 4.516810 
# 
# 
# High freq. dielectric constant tensor:
#      x y z
#    x 1.924570 -0.005980 0.005430 
#    y -0.005980 1.942650 0.005760 
#    z 0.005430 0.005760 1.943010 
# 
# From -- ./inp_files/124353.got.cif
#   From: 2010.06.25/outbox.cif.g09.slc.cpg/sg2_63_cif.got.tgz:124353.got - 2010.06.27 13:26:56.
