data_PCOD8031491
_publ_section_title
;
Structure prediction by ZEFSAII (Michael W. Deem and Ramdas Pophale) SiO2 
 PCOD8031491
Probable space group: P -1
;
_chemical_formula_sum "Si O2"
_cell_formula_units_Z 14
_cell_length_a 17.171946
_cell_length_b 9.919386
_cell_length_c 8.423306
_cell_angle_alpha 119.481478
_cell_angle_beta 32.700332
_cell_angle_gamma 122.935820
_cell_volume 648.657510
_symmetry_space_group_name_H-M "P -1"
_symmetry_group_IT_number 2
_symmetry_cell_setting 'triclinic'
loop_
_space_group_symop_operation_xyz
x,y,z
-x,-y,-z
loop_
_atom_site_type_symbol
_atom_site_label
_atom_site_fract_x
_atom_site_fract_y
_atom_site_fract_z
Si Si1 0.866696 0.872504 0.242733
Si Si2 0.971363 0.665181 0.202910
Si Si3 0.724999 0.267536 0.136030
Si Si4 0.680317 0.559618 0.222433
Si Si5 0.367313 0.992070 0.102414
Si Si6 0.524213 0.263917 0.760850
Si Si7 0.699358 0.537944 0.820967
O O1 0.942125 0.771084 0.170066
O O2 0.748452 0.748320 0.258429
O O3 0.775812 0.978597 0.549546
O O4 0.000000 0.000000 0.000000
O O5 0.838055 0.640745 0.542540
O O6 0.000000 0.500000 0.000000
O O7 0.119812 0.765011 0.097274
O O8 0.742388 0.457559 0.188211
O O9 0.605757 0.199359 0.440433
O O10 0.673877 0.183232 0.007105
O O11 0.500000 0.500000 0.500000
O O12 0.743123 0.529531 0.924638
O O13 0.411463 0.116507 0.954843
O O14 0.500000 0.000000 0.000000
O O15 0.646195 0.358889 0.735077
O O16 0.436641 0.381745 0.904535
#
# Coordination Sequence:
#
# PCOD8031491 Si02
#       7
#     2   2   2   2   2   2   2
#     4  12  29  49  72 107 153 192 238 306 367 425
#     4  12  25  49  72 104 145 190 242 294 358 439
#     4  12  26  44  76 103 141 190 240 293 364 436
#     4  12  24  46  75 106 139 191 249 294 355 430
#     4  12  28  47  70 107 148 184 239 305 363 426
#     4  11  22  44  69 106 137 185 238 293 356 425
#     4  11  23  40  77 100 137 186 241 293 351 430
#
# _framework density 21.583038999999999
#
# number of rings (size 3 to 8) (size 9 to 14) (size 15 to 20)
#    0.000    0.286    5.714    3.000    4.000    3.429 
#    0.000    0.000    0.000    0.000    0.000    0.000 
#    0.000    0.000    0.000    0.000    0.000    0.000 
#
# Total GULP energy -173669.707162 kJ/mol
# GULP energy per Si atom -12404.979083 kJ/mol
# Density = 2.153392 g / cm^3
# Si number density = 21.583039 Si / 1000 Ang^3
#
#
#
# Elastic Constant Matrix: (Units=GPa)
#
#
# Indices 1 2 3 4 5 6 
#
# 1 109.3093 29.4953 52.3293 -4.0584 2.3381 9.0381
# 2 29.4953 97.8914 56.0232 -15.7094 6.1766 5.6767
# 3 52.3293 56.0232 144.4820 -16.0818 10.9463 10.0781
# 4 -4.0584 -15.7094 -16.0818 41.6402 -1.6340 4.4539
# 5 2.3381 6.1766 10.9463 -1.6340 42.6299 0.3150
# 6 9.0381 5.6767 10.0781 4.4539 0.3150 44.7682
#
#
#
# Elastic Compliance Matrix: (Units=1/GPa)
#
#
# Indices 1 2 3 4 5 6 
#
# 1 0.011309 -0.001433 -0.003565 -0.000664 0.000486 -0.001236
# 2 -0.001433 0.013766 -0.004328 0.003444 -0.000667 -0.000820
# 3 -0.003565 -0.004328 0.010342 0.002080 -0.001744 -0.001254
# 4 -0.000664 0.003444 0.002080 0.026418 0.000041 -0.003399
# 5 0.000486 -0.000667 -0.001744 0.000041 0.023975 0.000206
# 6 -0.001236 -0.000820 -0.001254 -0.003399 0.000206 0.023310
#
#
# Mechanical properties :
#
#
# Convention : Reuss Voigt Hill
#
# Bulk Modulus (GPa) = 59.64591 69.70871 64.67731
# Shear Modulus (GPa) = 37.49257 40.06332 38.77795
#
# Velocity S-wave (km/s) = 4.17241 4.31309 4.24333
# Velocity P-wave (km/s) = 7.13495 7.56119 7.35116
#
# Compressibility (1/GPa) = 0.01676561
#
# Stress axis : x y z
#
# Youngs Moduli (GPa) = 88.42754 72.64131 96.69652
#
# Poissons Ratio (x) = 0.10408 0.34470
# Poissons Ratio (y) = 0.12670 0.41850
# Poissons Ratio (z) = 0.31523 0.31439
#
# Static dielectric constant tensor:
#      x y z
#    x 4.034330 0.051510 -0.021100 
#    y 0.051510 3.953750 -0.023000 
#    z -0.021100 -0.023000 4.002040 
# 
# 
# High freq. dielectric constant tensor:
#      x y z
#    x 1.858400 0.000130 0.005300 
#    y 0.000130 1.845060 -0.003750 
#    z 0.005300 -0.003750 1.857840 
# 
# From -- ./inp_files/157203.got.cif
#   From: 2010.06.25/outbox.cif.g09.slc.cpg/sg2_79_cif.got.tgz:157203.got - 2010.06.27 13:26:56.
