data_PCOD8031045
_publ_section_title
;
Structure prediction by ZEFSAII (Michael W. Deem and Ramdas Pophale) SiO2 
 PCOD8031045
Probable space group: P -1
;
_chemical_formula_sum "Si O2"
_cell_formula_units_Z 14
_cell_length_a 14.378471
_cell_length_b 17.101682
_cell_length_c 6.830869
_cell_angle_alpha 50.617899
_cell_angle_beta 113.041665
_cell_angle_gamma 147.400371
_cell_volume 656.855507
_symmetry_space_group_name_H-M "P -1"
_symmetry_group_IT_number 2
_symmetry_cell_setting 'triclinic'
loop_
_space_group_symop_operation_xyz
x,y,z
-x,-y,-z
loop_
_atom_site_type_symbol
_atom_site_label
_atom_site_fract_x
_atom_site_fract_y
_atom_site_fract_z
Si Si1 0.695367 0.909701 0.722848
Si Si2 0.595401 0.684321 0.327493
Si Si3 0.137690 0.748342 0.703492
Si Si4 0.755936 0.369972 0.893201
Si Si5 0.943567 0.888399 0.446053
Si Si6 0.426412 0.676351 0.521725
Si Si7 0.830095 0.577246 0.948273
O O1 0.587386 0.841301 0.540962
O O2 0.749494 0.066467 0.601666
O O3 0.569727 0.743865 0.036647
O O4 0.875819 0.993061 0.709004
O O5 0.500000 0.500000 0.500000
O O6 0.813912 0.851931 0.267540
O O7 0.497236 0.640647 0.513115
O O8 0.273338 0.769839 0.836698
O O9 0.974776 0.571163 0.706609
O O10 0.040690 0.713512 0.877071
O O11 0.701550 0.404057 0.967099
O O12 0.628811 0.279376 0.742143
O O13 0.820284 0.687669 0.716964
O O14 0.000000 0.000000 0.500000
O O15 0.240720 0.493833 0.776295
#
# Coordination Sequence:
#
# PCOD8031045 Si02
#       7
#     2   2   2   2   2   2   2
#     4  11  24  42  60  93 124 157 205 257 295 362
#     4  12  27  41  61  89 125 169 202 246 308 360
#     4   8  20  44  66  88 122 157 206 253 304 355
#     4   9  19  42  66  91 118 162 202 249 308 361
#     4  11  22  42  62  89 121 161 207 251 300 355
#     4  12  23  38  62  90 126 157 205 248 303 365
#     4   9  21  40  64  89 123 157 206 251 297 365
#
# _framework density 21.313669000000001
#
# number of rings (size 3 to 8) (size 9 to 14) (size 15 to 20)
#    0.857    0.857    1.429    3.000    2.000    3.429 
#    0.000    2.857    0.000    0.000    0.000    0.000 
#    0.000    0.000    0.000    0.000    0.000    0.000 
#
# Total GULP energy -173489.750221 kJ/mol
# GULP energy per Si atom -12392.125016 kJ/mol
# Density = 2.126516 g / cm^3
# Si number density = 21.313669 Si / 1000 Ang^3
#
#
#
# Elastic Constant Matrix: (Units=GPa)
#
#
# Indices 1 2 3 4 5 6 
#
# 1 91.2658 34.1626 53.7690 -0.5691 14.6733 -0.8685
# 2 34.1626 85.0902 45.8835 14.7647 14.9556 2.1105
# 3 53.7690 45.8835 117.5038 -0.1600 12.9007 -7.1878
# 4 -0.5691 14.7647 -0.1600 39.6573 -0.0831 11.1368
# 5 14.6733 14.9556 12.9007 -0.0831 34.3672 -1.2405
# 6 -0.8685 2.1105 -7.1878 11.1368 -1.2405 33.9916
#
#
#
# Elastic Compliance Matrix: (Units=1/GPa)
#
#
# Indices 1 2 3 4 5 6 
#
# 1 0.016088 -0.002918 -0.005926 0.001659 -0.003419 -0.001329
# 2 -0.002918 0.017593 -0.005061 -0.006550 -0.004535 -0.000257
# 3 -0.005926 -0.005061 0.013381 0.001117 -0.000193 0.002619
# 4 0.001659 -0.006550 0.001117 0.030263 0.001464 -0.009176
# 5 -0.003419 -0.004535 -0.000193 0.001464 0.032638 0.000865
# 6 -0.001329 -0.000257 0.002619 -0.009176 0.000865 0.032993
#
#
# Mechanical properties :
#
#
# Convention : Reuss Voigt Hill
#
# Bulk Modulus (GPa) = 51.94277 62.38777 57.16527
# Shear Modulus (GPa) = 28.21937 32.27289 30.24613
#
# Velocity S-wave (km/s) = 3.64263 3.89548 3.77118
# Velocity P-wave (km/s) = 6.48963 7.04044 6.77064
#
# Compressibility (1/GPa) = 0.01925196
#
# Stress axis : x y z
#
# Youngs Moduli (GPa) = 62.15896 56.84130 74.73025
#
# Poissons Ratio (x) = 0.16584 0.44286
# Poissons Ratio (y) = 0.18135 0.37824
# Poissons Ratio (z) = 0.36836 0.28770
#
# Static dielectric constant tensor:
#      x y z
#    x 3.417690 -0.111470 -0.015670 
#    y -0.111470 3.634030 -0.073920 
#    z -0.015670 -0.073920 3.524110 
# 
# 
# High freq. dielectric constant tensor:
#      x y z
#    x 1.845970 0.015480 0.013020 
#    y 0.015480 1.829190 -0.004150 
#    z 0.013020 -0.004150 1.814040 
# 
# From -- ./inp_files/99508.got.cif
#   From: 2010.06.25/outbox.cif.g09.slc.cpg/sg2_50_cif.got.tgz:99508.got - 2010.06.27 13:26:56.
