data_PCOD8031867
_publ_section_title
;
Structure prediction by ZEFSAII (Michael W. Deem and Ramdas Pophale) SiO2 
 PCOD8031867
Probable space group: P -1
;
_chemical_formula_sum "Si O2"
_cell_formula_units_Z 14
_cell_length_a 10.955375
_cell_length_b 9.843010
_cell_length_c 8.259428
_cell_angle_alpha 87.043591
_cell_angle_beta 121.019723
_cell_angle_gamma 121.616172
_cell_volume 620.151422
_symmetry_space_group_name_H-M "P -1"
_symmetry_group_IT_number 2
_symmetry_cell_setting 'triclinic'
loop_
_space_group_symop_operation_xyz
x,y,z
-x,-y,-z
loop_
_atom_site_type_symbol
_atom_site_label
_atom_site_fract_x
_atom_site_fract_y
_atom_site_fract_z
Si Si1 0.393494 0.493998 0.776551
Si Si2 0.113230 0.441375 0.140938
Si Si3 0.269112 0.936831 0.563179
Si Si4 0.098481 0.917825 0.116166
Si Si5 0.966740 0.629821 0.535880
Si Si6 0.509010 0.698817 0.348737
Si Si7 0.474265 0.168730 0.300777
O O1 0.185399 0.383364 0.674403
O O2 0.420810 0.411352 0.644537
O O3 0.455810 0.684049 0.788099
O O4 0.500000 0.500000 0.000000
O O5 0.108759 0.423172 0.331960
O O6 0.302560 0.582668 0.191552
O O7 0.000000 0.500000 0.000000
O O8 0.044058 0.269370 0.021234
O O9 0.142771 0.920708 0.335397
O O10 0.389947 0.880089 0.583389
O O11 0.144714 0.817110 0.632140
O O12 0.394558 0.128672 0.702414
O O13 0.280353 0.006010 0.132201
O O14 0.000000 0.000000 0.000000
O O15 0.000000 0.500000 0.500000
O O16 0.555239 0.762433 0.559542
#
# Coordination Sequence:
#
# PCOD8031867 Si02
#       7
#     2   2   2   2   2   2   2
#     4  12  28  43  71 103 145 181 232 293 353 402
#     4  12  25  44  76 105 136 183 238 282 344 422
#     4  11  25  47  72 100 144 186 227 284 352 416
#     4  11  25  41  71 107 138 173 238 292 339 409
#     4  12  26  47  70 103 143 187 230 287 351 417
#     4  11  24  45  72 102 136 183 233 284 344 411
#     4  11  22  48  71  98 138 190 231 278 347 421
#
# _framework density 22.575133000000001
#
# number of rings (size 3 to 8) (size 9 to 14) (size 15 to 20)
#    0.000    0.571    2.857    5.571   10.000    1.714 
#    0.000    2.143    0.000    0.000    0.000    0.000 
#    0.000    0.000    0.000    0.000    0.000    0.000 
#
# Total GULP energy -173554.518734 kJ/mol
# GULP energy per Si atom -12396.751338 kJ/mol
# Density = 2.252375 g / cm^3
# Si number density = 22.575133 Si / 1000 Ang^3
#
#
#
# Elastic Constant Matrix: (Units=GPa)
#
#
# Indices 1 2 3 4 5 6 
#
# 1 106.9869 45.6746 43.5576 3.9040 34.8432 6.5267
# 2 45.6746 167.4458 44.5737 16.7974 23.1213 16.0921
# 3 43.5576 44.5737 104.9966 1.8840 29.5589 -7.6261
# 4 3.9040 16.7974 1.8840 44.4530 -3.4608 13.8326
# 5 34.8432 23.1213 29.5589 -3.4608 36.6957 5.4796
# 6 6.5267 16.0921 -7.6261 13.8326 5.4796 50.2335
#
#
#
# Elastic Compliance Matrix: (Units=1/GPa)
#
#
# Indices 1 2 3 4 5 6 
#
# 1 0.014680 -0.001728 -0.002180 -0.001392 -0.011213 -0.000078
# 2 -0.001728 0.007610 -0.002248 -0.002161 -0.001275 -0.001820
# 3 -0.002180 -0.002248 0.014228 -0.001676 -0.008818 0.004587
# 4 -0.001392 -0.002161 -0.001676 0.026433 0.007646 -0.007494
# 5 -0.011213 -0.001275 -0.008818 0.007646 0.047536 -0.006764
# 6 -0.000078 -0.001820 0.004587 -0.007494 -0.006764 0.023998
#
#
# Mechanical properties :
#
#
# Convention : Reuss Voigt Hill
#
# Bulk Modulus (GPa) = 41.31344 71.89347 56.60345
# Shear Modulus (GPa) = 32.28596 42.65133 37.46865
#
# Velocity S-wave (km/s) = 3.78584 4.35133 4.07840
# Velocity P-wave (km/s) = 6.11966 7.56048 6.87791
#
# Compressibility (1/GPa) = 0.02420520
#
# Stress axis : x y z
#
# Youngs Moduli (GPa) = 68.12026 131.41068 70.28160
#
# Poissons Ratio (x) = 0.22713 0.15322
# Poissons Ratio (y) = 0.11774 0.15800
# Poissons Ratio (z) = 0.14850 0.29542
#
# Static dielectric constant tensor:
#      x y z
#    x 4.302010 0.310350 0.229970 
#    y 0.310350 4.894150 0.195160 
#    z 0.229970 0.195160 4.012590 
# 
# 
# High freq. dielectric constant tensor:
#      x y z
#    x 1.890760 0.005690 0.026680 
#    y 0.005690 1.917780 0.005420 
#    z 0.026680 0.005420 1.878710 
# 
# From -- ./inp_files/157173.got.cif
#   From: 2010.06.25/outbox.cif.g09.slc.cpg/sg2_79_cif.got.tgz:157173.got - 2010.06.27 13:26:56.
