data_PCOD8031432
_publ_section_title
;
Structure prediction by ZEFSAII (Michael W. Deem and Ramdas Pophale) SiO2 
 PCOD8031432
Probable space group: P -1
;
_chemical_formula_sum "Si O2"
_cell_formula_units_Z 12
_cell_length_a 9.020255
_cell_length_b 8.720318
_cell_length_c 9.781080
_cell_angle_alpha 101.500422
_cell_angle_beta 110.029844
_cell_angle_gamma 51.101402
_cell_volume 562.425605
_symmetry_space_group_name_H-M "P -1"
_symmetry_group_IT_number 2
_symmetry_cell_setting 'triclinic'
loop_
_space_group_symop_operation_xyz
x,y,z
-x,-y,-z
loop_
_atom_site_type_symbol
_atom_site_label
_atom_site_fract_x
_atom_site_fract_y
_atom_site_fract_z
Si Si1 0.017433 0.562698 0.368970
Si Si2 0.648720 0.376446 0.902517
Si Si3 0.709414 0.963438 0.431331
Si Si4 0.000766 0.367570 0.092456
Si Si5 0.660213 0.019012 0.734083
Si Si6 0.560520 0.597926 0.637150
O O1 0.242716 0.440088 0.366857
O O2 0.000000 0.500000 0.500000
O O3 0.910163 0.797013 0.382310
O O4 0.908697 0.509360 0.221343
O O5 0.584221 0.522150 0.782516
O O6 0.652179 0.193838 0.830176
O O7 0.500000 0.500000 0.000000
O O8 0.869139 0.296895 0.000625
O O9 0.765187 0.958930 0.607386
O O10 0.562552 0.904860 0.351974
O O11 0.618787 0.171474 0.372144
O O12 0.221847 0.168304 0.159731
O O13 0.000000 0.500000 0.000000
O O14 0.500000 0.500000 0.500000
#
# Coordination Sequence:
#
# PCOD8031432 Si02
#       6
#     2   2   2   2   2   2
#     4  12  24  44  76 103 136 189 234 282 349 415
#     4  12  27  45  68 103 146 185 228 290 356 413
#     4  11  22  43  76 101 134 184 239 284 346 407
#     4  12  24  45  69 100 147 183 228 290 347 414
#     4  11  22  44  70 103 138 184 234 290 343 414
#     4  12  26  47  70 106 142 176 239 295 334 418
#
# _framework density 21.336155000000002
#
# number of rings (size 3 to 8) (size 9 to 14) (size 15 to 20)
#    0.000    0.333    6.667    2.500    2.333    2.000 
#    3.000    3.333    0.000    0.000    0.000    0.000 
#    0.000    0.000    0.000    0.000    0.000    0.000 
#
# Total GULP energy -148804.741586 kJ/mol
# GULP energy per Si atom -12400.395132 kJ/mol
# Density = 2.128759 g / cm^3
# Si number density = 21.336155 Si / 1000 Ang^3
#
#
#
# Elastic Constant Matrix: (Units=GPa)
#
#
# Indices 1 2 3 4 5 6 
#
# 1 71.1683 31.6767 48.3595 4.6866 -2.8914 12.1782
# 2 31.6767 170.7139 63.0230 2.7143 -4.2008 13.2799
# 3 48.3595 63.0230 160.4874 6.4146 -6.1795 13.3355
# 4 4.6866 2.7143 6.4146 48.9525 13.8474 5.8229
# 5 -2.8914 -4.2008 -6.1795 13.8474 43.9200 2.6845
# 6 12.1782 13.2799 13.3355 5.8229 2.6845 30.2641
#
#
#
# Elastic Compliance Matrix: (Units=1/GPa)
#
#
# Indices 1 2 3 4 5 6 
#
# 1 0.018726 -0.001348 -0.004640 -0.000820 0.001005 -0.004830
# 2 -0.001348 0.007062 -0.002224 0.000129 0.000333 -0.001631
# 3 -0.004640 -0.002224 0.008646 -0.000736 0.000986 -0.000912
# 4 -0.000820 0.000129 -0.000736 0.023014 -0.007206 -0.003191
# 5 0.001005 0.000333 0.000986 -0.007206 0.025390 -0.001851
# 6 -0.004830 -0.001631 -0.000912 -0.003191 -0.001851 0.036882
#
#
# Mechanical properties :
#
#
# Convention : Reuss Voigt Hill
#
# Bulk Modulus (GPa) = 55.52811 76.49868 66.01339
# Shear Modulus (GPa) = 35.17486 41.91469 38.54478
#
# Velocity S-wave (km/s) = 4.06470 4.43707 4.25496
# Velocity P-wave (km/s) = 6.93621 7.88555 7.42607
#
# Compressibility (1/GPa) = 0.01800890
#
# Stress axis : x y z
#
# Youngs Moduli (GPa) = 53.40231 141.60587 115.66322
#
# Poissons Ratio (x) = 0.19089 0.53673
# Poissons Ratio (y) = 0.07199 0.25721
# Poissons Ratio (z) = 0.24781 0.31490
#
# Static dielectric constant tensor:
#      x y z
#    x 3.791770 0.001540 0.254920 
#    y 0.001540 4.182280 0.176450 
#    z 0.254920 0.176450 4.424140 
# 
# 
# High freq. dielectric constant tensor:
#      x y z
#    x 1.817910 0.009480 0.011630 
#    y 0.009480 1.854630 0.003570 
#    z 0.011630 0.003570 1.859550 
# 
# From -- ./inp_files/148773.got.cif
#   From: 2010.06.25/outbox.cif.g09.slc.cpg/sg2_75_cif.got.tgz:148773.got - 2010.06.27 13:26:56.
