data_PCOD8031752
_publ_section_title
;
Structure prediction by ZEFSAII (Michael W. Deem and Ramdas Pophale) SiO2 
 PCOD8031752
Probable space group: P -1
;
_chemical_formula_sum "Si O2"
_cell_formula_units_Z 14
_cell_length_a 17.188074
_cell_length_b 9.506610
_cell_length_c 9.353299
_cell_angle_alpha 45.118782
_cell_angle_beta 63.114597
_cell_angle_gamma 98.260777
_cell_volume 657.792853
_symmetry_space_group_name_H-M "P -1"
_symmetry_group_IT_number 2
_symmetry_cell_setting 'triclinic'
loop_
_space_group_symop_operation_xyz
x,y,z
-x,-y,-z
loop_
_atom_site_type_symbol
_atom_site_label
_atom_site_fract_x
_atom_site_fract_y
_atom_site_fract_z
Si Si1 0.160780 0.736363 0.458408
Si Si2 0.887201 0.701738 0.390142
Si Si3 0.538749 0.157292 0.502786
Si Si4 0.246606 0.551483 0.690673
Si Si5 0.379602 0.670898 0.210521
Si Si6 0.031330 0.916908 0.398166
Si Si7 0.556052 0.628291 0.207080
O O1 0.136083 0.558109 0.467536
O O2 0.153491 0.584226 0.715507
O O3 0.052683 0.725110 0.565645
O O4 0.300217 0.064103 0.107940
O O5 0.758068 0.617526 0.537089
O O6 0.916224 0.732474 0.512272
O O7 0.000000 0.000000 0.000000
O O8 0.677920 0.301147 0.329129
O O9 0.551584 0.412545 0.282895
O O10 0.500000 0.000000 0.500000
O O11 0.437880 0.938086 0.868656
O O12 0.353518 0.720062 0.354131
O O13 0.161497 0.210907 0.004424
O O14 0.473306 0.639561 0.169580
O O15 0.000000 0.000000 0.500000
O O16 0.500000 0.500000 0.500000
#
# Coordination Sequence:
#
# PCOD8031752 Si02
#       7
#     2   2   2   2   2   2   2
#     4  11  23  43  75  92 133 183 229 278 333 399
#     4  11  24  45  67  99 136 177 232 276 319 411
#     4  12  26  42  66 105 142 171 223 288 343 398
#     4  11  22  46  68  97 137 178 226 277 335 409
#     4  11  23  43  72  98 135 181 224 279 332 405
#     4  12  26  46  69  97 140 180 225 283 341 399
#     4  12  22  41  74 103 130 181 229 272 346 405
#
# _framework density 21.283294000000001
#
# number of rings (size 3 to 8) (size 9 to 14) (size 15 to 20)
#    0.000    0.571    7.143    2.571    2.000    1.143 
#    5.143    0.000    0.000    0.000    0.000    0.000 
#    0.000    0.000    0.000    0.000    0.000    0.000 
#
# Total GULP energy -173563.158471 kJ/mol
# GULP energy per Si atom -12397.368462 kJ/mol
# Density = 2.123485 g / cm^3
# Si number density = 21.283294 Si / 1000 Ang^3
#
#
#
# Elastic Constant Matrix: (Units=GPa)
#
#
# Indices 1 2 3 4 5 6 
#
# 1 181.6833 81.5010 25.1322 -9.9451 0.7313 16.0214
# 2 81.5010 163.7580 30.2887 -18.6638 -0.1859 13.9290
# 3 25.1322 30.2887 71.2816 -18.3889 3.0179 -1.1166
# 4 -9.9451 -18.6638 -18.3889 30.4048 1.8728 -2.9865
# 5 0.7313 -0.1859 3.0179 1.8728 30.7973 -13.2836
# 6 16.0214 13.9290 -1.1166 -2.9865 -13.2836 40.0201
#
#
#
# Elastic Compliance Matrix: (Units=1/GPa)
#
#
# Indices 1 2 3 4 5 6 
#
# 1 0.007325 -0.003280 -0.001331 -0.000578 -0.000975 -0.002195
# 2 -0.003280 0.008539 -0.001694 0.003016 -0.000615 -0.001685
# 3 -0.001331 -0.001694 0.017774 0.009547 -0.001512 0.001829
# 4 -0.000578 0.003016 0.009547 0.040648 -0.002690 0.001588
# 5 -0.000975 -0.000615 -0.001512 -0.002690 0.038464 0.013128
# 6 -0.002195 -0.001685 0.001829 0.001588 0.013128 0.030980
#
#
# Mechanical properties :
#
#
# Convention : Reuss Voigt Hill
#
# Bulk Modulus (GPa) = 47.55719 76.72963 62.14341
# Shear Modulus (GPa) = 30.60932 38.89784 34.75358
#
# Velocity S-wave (km/s) = 3.79646 4.27971 4.04530
# Velocity P-wave (km/s) = 6.45064 7.78146 7.14709
#
# Compressibility (1/GPa) = 0.02102732
#
# Stress axis : x y z
#
# Youngs Moduli (GPa) = 136.51177 117.11438 56.26316
#
# Poissons Ratio (x) = 0.38411 0.07490
# Poissons Ratio (y) = 0.44773 0.09531
# Poissons Ratio (z) = 0.18174 0.19840
#
# Static dielectric constant tensor:
#      x y z
#    x 4.687670 -0.023680 0.185380 
#    y -0.023680 3.697280 -0.423750 
#    z 0.185380 -0.423750 3.972180 
# 
# 
# High freq. dielectric constant tensor:
#      x y z
#    x 1.855000 0.014280 0.002400 
#    y 0.014280 1.813440 -0.024750 
#    z 0.002400 -0.024750 1.836280 
# 
# From -- ./inp_files/203525.got.cif
#   From: 2010.06.25/outbox.cif.g09.slc.cpg/sg2_102_cif.got.tgz:203525.got - 2010.06.27 13:26:56.
