data_PCOD8031901
_publ_section_title
;
Structure prediction by ZEFSAII (Michael W. Deem and Ramdas Pophale) SiO2 
 PCOD8031901
Probable space group: P -1
;
_chemical_formula_sum "Si O2"
_cell_formula_units_Z 16
_cell_length_a 14.854844
_cell_length_b 12.964271
_cell_length_c 15.920693
_cell_angle_alpha 68.258308
_cell_angle_beta 49.740321
_cell_angle_gamma 27.793298
_cell_volume 899.684999
_symmetry_space_group_name_H-M "P -1"
_symmetry_group_IT_number 2
_symmetry_cell_setting 'triclinic'
loop_
_space_group_symop_operation_xyz
x,y,z
-x,-y,-z
loop_
_atom_site_type_symbol
_atom_site_label
_atom_site_fract_x
_atom_site_fract_y
_atom_site_fract_z
Si Si1 0.644263 0.931221 0.854330
Si Si2 0.417665 0.761436 0.207215
Si Si3 0.430492 0.701003 0.396887
Si Si4 0.985452 0.844029 0.025400
Si Si5 0.093045 0.891196 0.687033
Si Si6 0.247807 0.161790 0.907758
Si Si7 0.875480 0.501336 0.190477
Si Si8 0.826948 0.198653 0.917753
O O1 0.977411 0.648216 0.761934
O O2 0.518204 0.162376 0.846631
O O3 0.563050 0.925760 0.823557
O O4 0.500000 0.000000 0.000000
O O5 0.287142 0.825489 0.353614
O O6 0.711191 0.446634 0.109434
O O7 0.190514 0.933787 0.219180
O O8 0.188582 0.892315 0.554958
O O9 0.661561 0.405677 0.350751
O O10 0.574606 0.698099 0.321726
O O11 0.039617 0.818395 0.099500
O O12 0.755615 0.942472 0.119206
O O13 0.845593 0.069012 0.997179
O O14 0.021511 0.027673 0.769186
O O15 0.138918 0.354882 0.857034
O O16 0.046836 0.306004 0.065674
O O17 0.500000 0.500000 0.000000
#
# Coordination Sequence:
#
# PCOD8031901 Si02
#       8
#     2   2   2   2   2   2   2   2
#     4  10  20  27  50  83 113 142 174 215 276 337
#     4  12  19  35  54  83 116 142 180 221 279 330
#     4  11  21  36  55  82 119 143 179 224 274 339
#     4  11  22  34  57  80 108 144 181 230 273 318
#     4  11  23  36  56  81 112 153 182 221 275 323
#     4  10  18  32  51  76 114 138 176 226 273 324
#     4  10  17  31  50  80 110 145 173 218 279 326
#     4  11  23  39  56  78 108 146 189 229 264 318
#
# _framework density 17.784002000000001
#
# number of rings (size 3 to 8) (size 9 to 14) (size 15 to 20)
#    0.000    1.250    6.250    1.875    1.750    1.000 
#    0.000    0.000    0.000    0.750    0.000    1.750 
#    0.000    0.000    0.000    0.000    0.000    0.000 
#
# Total GULP energy -198327.429304 kJ/mol
# GULP energy per Si atom -12395.464331 kJ/mol
# Density = 1.774353 g / cm^3
# Si number density = 17.784002 Si / 1000 Ang^3
#
#
#
# Elastic Constant Matrix: (Units=GPa)
#
#
# Indices 1 2 3 4 5 6 
#
# 1 149.1322 38.0910 33.2106 -2.8058 12.5542 1.8773
# 2 38.0910 79.3961 19.7563 -6.7293 9.4791 -7.2999
# 3 33.2106 19.7563 70.5573 -8.2793 10.1344 4.3952
# 4 -2.8058 -6.7293 -8.2793 20.9104 -1.3528 -3.2083
# 5 12.5542 9.4791 10.1344 -1.3528 24.5189 -5.1708
# 6 1.8773 -7.2999 4.3952 -3.2083 -5.1708 26.9347
#
#
#
# Elastic Compliance Matrix: (Units=1/GPa)
#
#
# Indices 1 2 3 4 5 6 
#
# 1 0.008350 -0.003325 -0.002737 -0.001434 -0.002285 -0.001646
# 2 -0.003325 0.015868 -0.002371 0.004353 -0.002152 0.005025
# 3 -0.002737 -0.002371 0.017741 0.004949 -0.005548 -0.003822
# 4 -0.001434 0.004353 0.004949 0.052143 0.001347 0.006942
# 5 -0.002285 -0.002152 -0.005548 0.001347 0.047201 0.009703
# 6 -0.001646 0.005025 -0.003822 0.006942 0.009703 0.041917
#
#
# Mechanical properties :
#
#
# Convention : Reuss Voigt Hill
#
# Bulk Modulus (GPa) = 39.85167 53.46682 46.65924
# Shear Modulus (GPa) = 23.98652 28.34130 26.16391
#
# Velocity S-wave (km/s) = 3.67654 3.99637 3.83979
# Velocity P-wave (km/s) = 6.36239 7.17109 6.77881
#
# Compressibility (1/GPa) = 0.02509305
#
# Stress axis : x y z
#
# Youngs Moduli (GPa) = 119.75543 63.01878 56.36781
#
# Poissons Ratio (x) = 0.20955 0.15427
# Poissons Ratio (y) = 0.39821 0.13365
# Poissons Ratio (z) = 0.32775 0.14942
#
# Static dielectric constant tensor:
#      x y z
#    x 4.027280 -0.584250 -0.036150 
#    y -0.584250 3.730950 -0.142130 
#    z -0.036150 -0.142130 3.053130 
# 
# 
# High freq. dielectric constant tensor:
#      x y z
#    x 1.703300 -0.020300 -0.009810 
#    y -0.020300 1.695600 -0.024030 
#    z -0.009810 -0.024030 1.638490 
# 
# From -- ./inp_files/426526.got.cif
#   From: 2010.06.25/outbox.cif.g09.slc.cpg/sg2_214_cif.got.tgz:426526.got - 2010.06.27 13:26:56.
