data_PCOD8031746
_publ_section_title
;
Structure prediction by ZEFSAII (Michael W. Deem and Ramdas Pophale) SiO2 
 PCOD8031746
Probable space group: P -1
;
_chemical_formula_sum "Si O2"
_cell_formula_units_Z 16
_cell_length_a 11.239837
_cell_length_b 20.228079
_cell_length_c 9.109495
_cell_angle_alpha 30.630844
_cell_angle_beta 52.980440
_cell_angle_gamma 43.547134
_cell_volume 725.642651
_symmetry_space_group_name_H-M "P -1"
_symmetry_group_IT_number 2
_symmetry_cell_setting 'triclinic'
loop_
_space_group_symop_operation_xyz
x,y,z
-x,-y,-z
loop_
_atom_site_type_symbol
_atom_site_label
_atom_site_fract_x
_atom_site_fract_y
_atom_site_fract_z
Si Si1 0.552433 0.801709 0.424288
Si Si2 0.945189 0.307670 0.458034
Si Si3 0.660424 0.330766 0.177517
Si Si4 0.019342 0.150636 0.412209
Si Si5 0.503566 0.846029 0.820658
Si Si6 0.205391 0.814916 0.954223
Si Si7 0.225673 0.392516 0.129034
Si Si8 0.354211 0.115825 0.090083
O O1 0.402567 0.781569 0.500869
O O2 0.676529 0.647810 0.711644
O O3 0.467361 0.933409 0.358229
O O4 0.661462 0.832579 0.165117
O O5 0.034436 0.170074 0.539210
O O6 0.061060 0.372353 0.313471
O O7 0.872277 0.261711 0.738062
O O8 0.804230 0.444471 0.201546
O O9 0.699851 0.299293 0.033043
O O10 0.837103 0.279072 0.233638
O O11 0.500000 0.500000 0.000000
O O12 0.163343 0.173923 0.180476
O O13 0.056920 0.979523 0.689390
O O14 0.333064 0.845564 0.900157
O O15 0.670237 0.712170 0.881204
O O16 0.542067 0.820488 0.016208
O O17 0.500000 0.000000 0.500000
#
# Coordination Sequence:
#
# PCOD8031746 Si02
#       8
#     2   2   2   2   2   2   2   2
#     4  11  24  44  69  99 140 185 234 285 353 411
#     4  11  27  42  69 105 135 189 233 295 357 403
#     4  12  27  47  67 102 149 184 227 294 355 422
#     4  12  24  46  70 103 142 181 240 288 348 423
#     4  12  20  43  72  97 140 180 236 288 347 410
#     4  12  26  45  73 103 140 187 237 294 347 421
#     4  11  22  46  66  92 147 177 236 292 344 418
#     4  11  24  41  73 104 130 189 235 289 342 419
#
# _framework density 22.049423000000001
#
# number of rings (size 3 to 8) (size 9 to 14) (size 15 to 20)
#    0.000    0.500    6.250    1.500    3.500    2.500 
#    0.000    1.250    0.000    0.000    0.000    0.000 
#    0.000    0.000    0.000    0.000    0.000    0.000 
#
# Total GULP energy -198307.377797 kJ/mol
# GULP energy per Si atom -12394.211112 kJ/mol
# Density = 2.199924 g / cm^3
# Si number density = 22.049423 Si / 1000 Ang^3
#
#
#
# Elastic Constant Matrix: (Units=GPa)
#
#
# Indices 1 2 3 4 5 6 
#
# 1 101.1599 38.0135 31.0760 4.7776 6.6591 -4.5355
# 2 38.0135 133.2030 55.2548 3.9142 0.3381 0.0946
# 3 31.0760 55.2548 103.4269 6.5547 -3.5379 -11.3266
# 4 4.7776 3.9142 6.5547 32.4901 -8.3338 -0.8641
# 5 6.6591 0.3381 -3.5379 -8.3338 32.8391 -4.6896
# 6 -4.5355 0.0946 -11.3266 -0.8641 -4.6896 33.5940
#
#
#
# Elastic Compliance Matrix: (Units=1/GPa)
#
#
# Indices 1 2 3 4 5 6 
#
# 1 0.011755 -0.002379 -0.002210 -0.001752 -0.002987 0.000387
# 2 -0.002379 0.010272 -0.005017 -0.000054 -0.000479 -0.002110
# 3 -0.002210 -0.005017 0.013669 -0.001102 0.002353 0.004625
# 4 -0.001752 -0.000054 -0.001102 0.033609 0.008982 0.001510
# 5 -0.002987 -0.000479 0.002353 0.008982 0.034369 0.005420
# 6 0.000387 -0.002110 0.004625 0.001510 0.005420 0.032180
#
#
# Mechanical properties :
#
#
# Convention : Reuss Voigt Hill
#
# Bulk Modulus (GPa) = 60.66115 65.16425 62.91270
# Shear Modulus (GPa) = 31.14096 34.01433 32.57764
#
# Velocity S-wave (km/s) = 3.76217 3.93191 3.84797
# Velocity P-wave (km/s) = 6.81491 7.08739 6.95249
#
# Compressibility (1/GPa) = 0.01648501
#
# Stress axis : x y z
#
# Youngs Moduli (GPa) = 85.07121 97.35567 73.15586
#
# Poissons Ratio (x) = 0.23163 0.16165
# Poissons Ratio (y) = 0.20240 0.36699
# Poissons Ratio (z) = 0.18797 0.48840
#
# Static dielectric constant tensor:
#      x y z
#    x 3.767590 -0.102140 0.221630 
#    y -0.102140 4.027670 0.015150 
#    z 0.221630 0.015150 3.763720 
# 
# 
# High freq. dielectric constant tensor:
#      x y z
#    x 1.874560 0.007220 0.000600 
#    y 0.007220 1.877330 -0.002060 
#    z 0.000600 -0.002060 1.859260 
# 
# From -- ./inp_files/282608.got.cif
#   From: 2010.06.25/outbox.cif.g09.slc.cpg/sg2_142_cif.got.tgz:282608.got - 2010.06.27 13:26:56.
