data_PCOD8031837
_publ_section_title
;
Structure prediction by ZEFSAII (Michael W. Deem and Ramdas Pophale) SiO2 
 PCOD8031837
Probable space group: P -1
;
_chemical_formula_sum "Si O2"
_cell_formula_units_Z 16
_cell_length_a 15.902651
_cell_length_b 9.325189
_cell_length_c 14.486525
_cell_angle_alpha 75.380669
_cell_angle_beta 148.843591
_cell_angle_gamma 82.243968
_cell_volume 766.980577
_symmetry_space_group_name_H-M "P -1"
_symmetry_group_IT_number 2
_symmetry_cell_setting 'triclinic'
loop_
_space_group_symop_operation_xyz
x,y,z
-x,-y,-z
loop_
_atom_site_type_symbol
_atom_site_label
_atom_site_fract_x
_atom_site_fract_y
_atom_site_fract_z
Si Si1 0.800274 0.574434 0.866766
Si Si2 0.314146 0.927423 0.260352
Si Si3 0.906067 0.025200 0.309655
Si Si4 0.006980 0.358960 0.599183
Si Si5 0.967505 0.162307 0.045640
Si Si6 0.468212 0.473851 0.866554
Si Si7 0.305963 0.198066 0.083727
Si Si8 0.724287 0.123067 0.461343
O O1 0.559028 0.769766 0.563694
O O2 0.802182 0.637668 0.961302
O O3 0.841498 0.372132 0.949207
O O4 0.000000 0.500000 0.000000
O O5 0.324836 0.014507 0.161806
O O6 0.235625 0.810941 0.185880
O O7 0.123798 0.127010 0.114857
O O8 0.881941 0.863683 0.299576
O O9 0.079385 0.000284 0.410310
O O10 0.000000 0.000000 0.500000
O O11 0.662037 0.254950 0.036235
O O12 0.000000 0.500000 0.500000
O O13 0.747604 0.491510 0.356604
O O14 0.140532 0.323301 0.821338
O O15 0.143465 0.952029 0.305459
O O16 0.445093 0.631840 0.754396
O O17 0.500000 0.500000 0.000000
O O18 0.562151 0.082580 0.314282
#
# Coordination Sequence:
#
# PCOD8031837 Si02
#       8
#     2   2   2   2   2   2   2   2
#     4  12  24  44  70  99 136 184 230 281 351 410
#     4  11  23  46  67  96 141 174 226 292 337 406
#     4  11  24  45  74  96 133 186 238 279 345 415
#     4  11  26  46  69 106 142 179 228 290 347 406
#     4  11  24  43  70  99 132 180 230 280 344 412
#     4  11  22  47  70  96 135 180 230 289 338 407
#     4  12  25  47  66 101 146 178 228 291 345 411
#     4  11  24  42  69  98 136 182 230 279 347 404
#
# _framework density 20.861024
#
# number of rings (size 3 to 8) (size 9 to 14) (size 15 to 20)
#    0.000    0.750    5.000    3.750    1.750    0.500 
#    6.750    0.000    0.000    0.000    0.000    0.000 
#    0.000    0.000    0.000    0.000    0.000    0.000 
#
# Total GULP energy -198355.461976 kJ/mol
# GULP energy per Si atom -12397.216373 kJ/mol
# Density = 2.081354 g / cm^3
# Si number density = 20.861024 Si / 1000 Ang^3
#
#
#
# Elastic Constant Matrix: (Units=GPa)
#
#
# Indices 1 2 3 4 5 6 
#
# 1 118.0949 54.4715 51.3333 4.2385 -5.6619 10.8798
# 2 54.4715 104.8428 60.1087 -12.3263 7.4403 -9.4371
# 3 51.3333 60.1087 132.2971 3.0096 -1.1052 -3.7788
# 4 4.2385 -12.3263 3.0096 47.8370 -2.4774 -3.4695
# 5 -5.6619 7.4403 -1.1052 -2.4774 49.0509 1.8099
# 6 10.8798 -9.4371 -3.7788 -3.4695 1.8099 35.7774
#
#
#
# Elastic Compliance Matrix: (Units=1/GPa)
#
#
# Indices 1 2 3 4 5 6 
#
# 1 0.013434 -0.006879 -0.002180 -0.003166 0.002628 -0.006570
# 2 -0.006879 0.017751 -0.005360 0.005840 -0.003569 0.006955
# 3 -0.002180 -0.005360 0.010893 -0.001823 0.000708 0.000187
# 4 -0.003166 0.005840 -0.001823 0.023121 -0.000293 0.004568
# 5 0.002628 -0.003569 0.000708 -0.000293 0.021335 -0.002773
# 6 -0.006570 0.006955 0.000187 0.004568 -0.002773 0.032386
#
#
# Mechanical properties :
#
#
# Convention : Reuss Voigt Hill
#
# Bulk Modulus (GPa) = 75.54013 76.34018 75.94016
# Shear Modulus (GPa) = 32.85755 39.15446 36.00601
#
# Velocity S-wave (km/s) = 3.97302 4.33704 4.15902
# Velocity P-wave (km/s) = 7.57207 7.85837 7.71655
#
# Compressibility (1/GPa) = 0.01323800
#
# Stress axis : x y z
#
# Youngs Moduli (GPa) = 74.44006 56.33389 91.80380
#
# Poissons Ratio (x) = 0.38755 0.20018
# Poissons Ratio (y) = 0.51211 0.49206
# Poissons Ratio (z) = 0.16231 0.30195
#
# Static dielectric constant tensor:
#      x y z
#    x 3.904370 0.040110 0.168540 
#    y 0.040110 3.749650 -0.000950 
#    z 0.168540 -0.000950 4.048210 
# 
# 
# High freq. dielectric constant tensor:
#      x y z
#    x 1.826240 0.011960 0.000520 
#    y 0.011960 1.815880 0.002180 
#    z 0.000520 0.002180 1.833310 
# 
# From -- ./inp_files/529576.got.cif
#   From: 2010.06.25/outbox.cif.g09.slc.cpg/sg2_265_cif.got.tgz:529576.got - 2010.06.27 13:26:56.
