data_PCOD8031337
_publ_section_title
;
Structure prediction by ZEFSAII (Michael W. Deem and Ramdas Pophale) SiO2 
 PCOD8031337
Probable space group: P -1
;
_chemical_formula_sum "Si O2"
_cell_formula_units_Z 16
_cell_length_a 16.119385
_cell_length_b 9.555038
_cell_length_c 6.655260
_cell_angle_alpha 46.421403
_cell_angle_beta 93.755658
_cell_angle_gamma 87.625941
_cell_volume 735.649514
_symmetry_space_group_name_H-M "P -1"
_symmetry_group_IT_number 2
_symmetry_cell_setting 'triclinic'
loop_
_space_group_symop_operation_xyz
x,y,z
-x,-y,-z
loop_
_atom_site_type_symbol
_atom_site_label
_atom_site_fract_x
_atom_site_fract_y
_atom_site_fract_z
Si Si1 0.241929 0.033915 0.970425
Si Si2 0.893556 0.047115 0.274226
Si Si3 0.343171 0.162185 0.504849
Si Si4 0.524224 0.563504 0.657290
Si Si5 0.412128 0.777583 0.725827
Si Si6 0.206712 0.330747 0.991848
Si Si7 0.971984 0.712908 0.859228
Si Si8 0.233404 0.762252 0.608530
O O1 0.313635 0.037318 0.810513
O O2 0.240267 0.242508 0.872774
O O3 0.155696 0.994748 0.891806
O O4 0.259636 0.868363 0.305487
O O5 0.833823 0.105107 0.399591
O O6 0.951911 0.217035 0.067533
O O7 0.955571 0.852833 0.524942
O O8 0.388752 0.342097 0.411889
O O9 0.408799 0.009288 0.542015
O O10 0.263435 0.243016 0.275231
O O11 0.500000 0.500000 0.500000
O O12 0.450223 0.725395 0.563119
O O13 0.528869 0.360674 0.979317
O O14 0.318535 0.719114 0.790828
O O15 0.199916 0.561614 0.747980
O O16 0.113346 0.274082 0.043723
O O17 0.000000 0.500000 0.000000
#
# Coordination Sequence:
#
# PCOD8031337 Si02
#       8
#     2   2   2   2   2   2   2   2
#     4  12  25  42  70 105 130 177 237 277 330 404
#     4  11  24  44  68  98 139 179 227 284 335 398
#     4  12  25  47  73  94 141 179 226 278 336 406
#     4  11  28  44  69 106 138 173 224 279 337 405
#     4  11  24  46  70  99 138 176 222 278 342 396
#     4  12  25  44  70 101 132 184 230 277 339 401
#     4  11  22  43  70  95 139 184 221 279 348 394
#     4  12  24  45  72  98 137 180 225 285 337 395
#
# _framework density 21.749487999999999
#
# number of rings (size 3 to 8) (size 9 to 14) (size 15 to 20)
#    0.000    0.500    7.500    0.375    3.500    3.000 
#    0.000    1.250    0.000    0.000    0.000    0.000 
#    0.000    0.000    0.000    0.000    0.000    0.000 
#
# Total GULP energy -198374.747217 kJ/mol
# GULP energy per Si atom -12398.421701 kJ/mol
# Density = 2.169998 g / cm^3
# Si number density = 21.749488 Si / 1000 Ang^3
#
#
#
# Elastic Constant Matrix: (Units=GPa)
#
#
# Indices 1 2 3 4 5 6 
#
# 1 93.5425 41.7225 18.3221 5.9641 3.4809 -0.4700
# 2 41.7225 147.2803 57.3807 2.3445 3.8369 8.7626
# 3 18.3221 57.3807 76.4935 -3.1919 -1.0535 -9.0322
# 4 5.9641 2.3445 -3.1919 37.4138 0.6211 -0.4051
# 5 3.4809 3.8369 -1.0535 0.6211 27.0557 -2.7442
# 6 -0.4700 8.7626 -9.0322 -0.4051 -2.7442 39.5627
#
#
#
# Elastic Compliance Matrix: (Units=1/GPa)
#
#
# Indices 1 2 3 4 5 6 
#
# 1 0.012420 -0.003307 -0.000504 -0.001791 -0.001039 0.000674
# 2 -0.003307 0.011290 -0.008282 -0.000904 -0.001941 -0.004575
# 3 -0.000504 -0.008282 0.020330 0.002362 0.002654 0.006678
# 4 -0.001791 -0.000904 0.002362 0.027284 -0.000075 0.000992
# 5 -0.001039 -0.001941 0.002654 -0.000075 0.037845 0.003648
# 6 0.000674 -0.004575 0.006678 0.000992 0.003648 0.028085
#
#
# Mechanical properties :
#
#
# Convention : Reuss Voigt Hill
#
# Bulk Modulus (GPa) = 50.36402 61.35188 55.85795
# Shear Modulus (GPa) = 29.75168 34.13249 31.94209
#
# Velocity S-wave (km/s) = 3.70256 3.96580 3.83644
# Velocity P-wave (km/s) = 6.44091 7.01710 6.73517
#
# Compressibility (1/GPa) = 0.01985544
#
# Stress axis : x y z
#
# Youngs Moduli (GPa) = 80.51434 88.57158 49.18863
#
# Poissons Ratio (x) = 0.29288 0.02478
# Poissons Ratio (y) = 0.26624 0.40737
# Poissons Ratio (z) = 0.04057 0.73354
#
# Static dielectric constant tensor:
#      x y z
#    x 4.285430 0.002920 0.038350 
#    y 0.002920 4.077330 -0.136280 
#    z 0.038350 -0.136280 3.724990 
# 
# 
# High freq. dielectric constant tensor:
#      x y z
#    x 1.864920 0.006720 0.001790 
#    y 0.006720 1.866600 -0.014570 
#    z 0.001790 -0.014570 1.840290 
# 
# From -- ./inp_files/106121.got.cif
#   From: 2010.06.25/outbox.cif.g09.slc.cpg/sg2_54_cif.got.tgz:106121.got - 2010.06.27 13:26:56.
