data_PCOD8031471
_publ_section_title
;
Structure prediction by ZEFSAII (Michael W. Deem and Ramdas Pophale) SiO2 
 PCOD8031471
Probable space group: P -1
;
_chemical_formula_sum "Si O2"
_cell_formula_units_Z 14
_cell_length_a 9.646784
_cell_length_b 18.373308
_cell_length_c 8.638123
_cell_angle_alpha 52.446485
_cell_angle_beta 148.940430
_cell_angle_gamma 129.212117
_cell_volume 603.127366
_symmetry_space_group_name_H-M "P -1"
_symmetry_group_IT_number 2
_symmetry_cell_setting 'triclinic'
loop_
_space_group_symop_operation_xyz
x,y,z
-x,-y,-z
loop_
_atom_site_type_symbol
_atom_site_label
_atom_site_fract_x
_atom_site_fract_y
_atom_site_fract_z
Si Si1 0.615103 0.600077 0.087911
Si Si2 0.866708 0.397417 0.596814
Si Si3 0.747384 0.794684 0.122561
Si Si4 0.241531 0.232281 0.472553
Si Si5 0.753429 0.194308 0.847408
Si Si6 0.500365 0.447919 0.408142
Si Si7 0.665902 0.106332 0.557977
O O1 0.763858 0.690836 0.215763
O O2 0.415023 0.516267 0.109131
O O3 0.855625 0.550806 0.308797
O O4 0.431219 0.627379 0.743593
O O5 0.927783 0.294779 0.810840
O O6 0.808519 0.438353 0.658644
O O7 0.709542 0.792192 0.273011
O O8 0.029721 0.873855 0.251152
O O9 0.488339 0.819810 0.758467
O O10 0.455635 0.196371 0.620742
O O11 0.279331 0.345386 0.340558
O O12 0.937804 0.173760 0.194487
O O13 0.702151 0.115151 0.766811
O O14 0.500000 0.500000 0.500000
O O15 0.500000 0.000000 0.500000
#
# Coordination Sequence:
#
# PCOD8031471 Si02
#       7
#     2   2   2   2   2   2   2
#     4  12  22  43  64  95 133 181 227 276 313 394
#     4  11  23  41  65  92 136 181 231 267 327 378
#     4  12  23  46  70 102 136 175 220 277 346 398
#     4  11  25  43  67  98 142 185 213 271 333 402
#     4  11  22  44  68  96 134 178 224 268 344 397
#     4  11  24  41  62 101 141 180 232 272 319 381
#     4  12  26  47  76 103 128 167 228 287 339 411
#
# _framework density 23.212344000000002
#
# number of rings (size 3 to 8) (size 9 to 14) (size 15 to 20)
#    0.000    0.571    4.286    4.714    0.000    2.286 
#    0.000   11.429    0.000    0.000    0.000    0.000 
#    0.000    0.000    0.000    0.000    0.000    0.000 
#
# Total GULP energy -173591.126092 kJ/mol
# GULP energy per Si atom -12399.366149 kJ/mol
# Density = 2.315951 g / cm^3
# Si number density = 23.212344 Si / 1000 Ang^3
#
#
#
# Elastic Constant Matrix: (Units=GPa)
#
#
# Indices 1 2 3 4 5 6 
#
# 1 126.1622 42.0805 22.2859 6.5172 -8.2601 -26.5040
# 2 42.0805 96.1827 -0.1864 14.3897 -9.9176 -18.9945
# 3 22.2859 -0.1864 106.0093 9.2618 -8.4058 -11.9784
# 4 6.5172 14.3897 9.2618 26.9912 -3.0276 -3.6291
# 5 -8.2601 -9.9176 -8.4058 -3.0276 31.0380 5.6616
# 6 -26.5040 -18.9945 -11.9784 -3.6291 5.6616 32.0261
#
#
#
# Elastic Compliance Matrix: (Units=1/GPa)
#
#
# Indices 1 2 3 4 5 6 
#
# 1 0.010660 -0.003532 -0.001594 0.000711 0.000220 0.006173
# 2 -0.003532 0.014186 0.002113 -0.006459 0.002607 0.005089
# 3 -0.001594 0.002113 0.010622 -0.003723 0.002200 0.003096
# 4 0.000711 -0.006459 -0.003723 0.041718 0.001208 -0.000122
# 5 0.000220 0.002607 0.002200 0.001208 0.034444 -0.003401
# 6 0.006173 0.005089 0.003096 -0.000122 -0.003401 0.041097
#
#
# Mechanical properties :
#
#
# Convention : Reuss Voigt Hill
#
# Bulk Modulus (GPa) = 33.96419 50.74602 42.35510
# Shear Modulus (GPa) = 29.66193 35.62267 32.64230
#
# Velocity S-wave (km/s) = 3.57858 3.92170 3.75407
# Velocity P-wave (km/s) = 5.63371 6.51271 6.08910
#
# Compressibility (1/GPa) = 0.02944278
#
# Stress axis : x y z
#
# Youngs Moduli (GPa) = 93.80492 70.49139 94.14803
#
# Poissons Ratio (x) = 0.24895 0.15011
# Poissons Ratio (y) = 0.33128 -0.19897
# Poissons Ratio (z) = 0.14956 -0.14898
#
# Static dielectric constant tensor:
#      x y z
#    x 4.398420 -0.048250 -0.007580 
#    y -0.048250 4.103110 -0.065340 
#    z -0.007580 -0.065340 4.112950 
# 
# 
# High freq. dielectric constant tensor:
#      x y z
#    x 1.932730 -0.008990 0.001570 
#    y -0.008990 1.904120 0.005320 
#    z 0.001570 0.005320 1.921140 
# 
# From -- ./inp_files/37531.got.cif
#   From: 2010.06.25/outbox.cif.g09.slc.cpg/sg2_19_cif.got.tgz:37531.got - 2010.06.27 13:26:56.
