data_PCOD8031786
_publ_section_title
;
Structure prediction by ZEFSAII (Michael W. Deem and Ramdas Pophale) SiO2 
 PCOD8031786
Probable space group: P -1
;
_chemical_formula_sum "Si O2"
_cell_formula_units_Z 16
_cell_length_a 12.302805
_cell_length_b 11.885910
_cell_length_c 12.244451
_cell_angle_alpha 153.609422
_cell_angle_beta 126.313228
_cell_angle_gamma 56.000357
_cell_volume 639.233174
_symmetry_space_group_name_H-M "P -1"
_symmetry_group_IT_number 2
_symmetry_cell_setting 'triclinic'
loop_
_space_group_symop_operation_xyz
x,y,z
-x,-y,-z
loop_
_atom_site_type_symbol
_atom_site_label
_atom_site_fract_x
_atom_site_fract_y
_atom_site_fract_z
Si Si1 0.710561 0.143388 0.085379
Si Si2 0.656117 0.068507 0.420858
Si Si3 0.109919 0.169324 0.761193
Si Si4 0.017047 0.579664 0.894727
Si Si5 0.446104 0.751952 0.126321
Si Si6 0.217948 0.941184 0.295765
Si Si7 0.984284 0.321425 0.438161
Si Si8 0.427585 0.391384 0.464658
O O1 0.874845 0.116634 0.166046
O O2 0.664211 0.368267 0.337248
O O3 0.667430 0.266480 0.050193
O O4 0.651673 0.866154 0.828266
O O5 0.771321 0.117109 0.619247
O O6 0.551585 0.312399 0.552064
O O7 0.738466 0.975144 0.279367
O O8 0.577508 0.844744 0.229939
O O9 0.103518 0.409723 0.886619
O O10 0.000000 0.000000 0.500000
O O11 0.087482 0.236686 0.934693
O O12 0.934801 0.445629 0.633934
O O13 0.124005 0.724216 0.011937
O O14 0.368167 0.937512 0.330640
O O15 0.500000 0.500000 0.000000
O O16 0.136762 0.205772 0.449715
O O17 0.000000 0.500000 0.500000
O O18 0.500000 0.500000 0.500000
#
# Coordination Sequence:
#
# PCOD8031786 Si02
#       8
#     2   2   2   2   2   2   2   2
#     4  11  28  52  76 117 161 211 276 320 411 486
#     4  11  24  46  77 112 153 197 267 332 408 483
#     4  11  22  46  72 110 152 193 258 334 400 478
#     4  11  24  44  74 109 152 202 258 329 403 477
#     4  11  25  45  80 111 153 207 266 334 400 484
#     4  12  25  47  75 113 152 200 266 326 411 474
#     4  12  29  47  76 112 167 211 264 337 405 495
#     4  11  27  54  80 111 157 213 268 335 404 487
#
# _framework density 25.029990000000002
#
# number of rings (size 3 to 8) (size 9 to 14) (size 15 to 20)
#    0.000    0.750    2.500    3.000    7.000    4.000 
#    4.500    0.000    0.000    0.000    0.000    0.000 
#    0.000    0.000    0.000    0.000    0.000    0.000 
#
# Total GULP energy -198243.992156 kJ/mol
# GULP energy per Si atom -12390.249510 kJ/mol
# Density = 2.497302 g / cm^3
# Si number density = 25.029990 Si / 1000 Ang^3
#
#
#
# Elastic Constant Matrix: (Units=GPa)
#
#
# Indices 1 2 3 4 5 6 
#
# 1 148.5260 39.5825 48.1242 9.7239 -7.6995 -8.9068
# 2 39.5825 112.4548 40.7272 -5.8706 8.9041 5.7382
# 3 48.1242 40.7272 115.2318 8.7796 -4.5087 -2.3648
# 4 9.7239 -5.8706 8.7796 37.6140 1.5351 -0.9116
# 5 -7.6995 8.9041 -4.5087 1.5351 41.1881 4.9779
# 6 -8.9068 5.7382 -2.3648 -0.9116 4.9779 43.6601
#
#
#
# Elastic Compliance Matrix: (Units=1/GPa)
#
#
# Indices 1 2 3 4 5 6 
#
# 1 0.008493 -0.002439 -0.002428 -0.002039 0.001722 0.001683
# 2 -0.002439 0.011529 -0.003473 0.003330 -0.003240 -0.001762
# 3 -0.002428 -0.003473 0.011185 -0.002581 0.001577 0.000333
# 4 -0.002039 0.003330 -0.002581 0.028331 -0.002424 -0.000126
# 5 0.001722 -0.003240 0.001577 -0.002424 0.025822 -0.002132
# 6 0.001683 -0.001762 0.000333 -0.000126 -0.002132 0.023738
#
#
# Mechanical properties :
#
#
# Convention : Reuss Voigt Hill
#
# Bulk Modulus (GPa) = 68.83321 70.34225 69.58773
# Shear Modulus (GPa) = 38.27939 41.01101 39.64520
#
# Velocity S-wave (km/s) = 3.91492 4.05220 3.98415
# Velocity P-wave (km/s) = 6.92788 7.07516 7.00191
#
# Compressibility (1/GPa) = 0.01452787
#
# Stress axis : x y z
#
# Youngs Moduli (GPa) = 117.74320 86.73856 89.40787
#
# Poissons Ratio (x) = 0.21154 0.21706
# Poissons Ratio (y) = 0.28716 0.31050
# Poissons Ratio (z) = 0.28585 0.30123
#
# Static dielectric constant tensor:
#      x y z
#    x 4.932220 -0.049200 -0.091310 
#    y -0.049200 4.381900 -0.656120 
#    z -0.091310 -0.656120 3.610960 
# 
# 
# High freq. dielectric constant tensor:
#      x y z
#    x 2.010810 0.000070 0.000920 
#    y 0.000070 2.007970 -0.002330 
#    z 0.000920 -0.002330 1.989820 
# 
# From -- ./inp_files/429281.got.cif
#   From: 2010.06.25/outbox.cif.g09.slc.cpg/sg2_215_cif.got.tgz:429281.got - 2010.06.27 13:26:56.
