data_PCOD8031815
_publ_section_title
;
Structure prediction by ZEFSAII (Michael W. Deem and Ramdas Pophale) SiO2 
 PCOD8031815
Probable space group: P -1
;
_chemical_formula_sum "Si O2"
_cell_formula_units_Z 14
_cell_length_a 7.325628
_cell_length_b 11.598757
_cell_length_c 9.461082
_cell_angle_alpha 140.378274
_cell_angle_beta 94.982066
_cell_angle_gamma 83.351271
_cell_volume 509.202938
_symmetry_space_group_name_H-M "P -1"
_symmetry_group_IT_number 2
_symmetry_cell_setting 'triclinic'
loop_
_space_group_symop_operation_xyz
x,y,z
-x,-y,-z
loop_
_atom_site_type_symbol
_atom_site_label
_atom_site_fract_x
_atom_site_fract_y
_atom_site_fract_z
Si Si1 0.337720 0.261731 0.788275
Si Si2 0.310168 0.722474 0.657277
Si Si3 0.112286 0.216719 0.287500
Si Si4 0.876771 0.501578 0.211432
Si Si5 0.279955 0.376076 0.192441
Si Si6 0.703395 0.138659 0.928890
Si Si7 0.407662 0.908901 0.562233
O O1 0.176631 0.398565 0.846433
O O2 0.516096 0.259102 0.691529
O O3 0.269770 0.055664 0.606727
O O4 0.399418 0.311396 0.001123
O O5 0.387741 0.524134 0.424778
O O6 0.319252 0.856196 0.652160
O O7 0.100062 0.718967 0.694142
O O8 0.415354 0.788048 0.867396
O O9 0.196681 0.360129 0.537124
O O10 0.223623 0.222361 0.152713
O O11 0.134478 0.009894 0.147522
O O12 0.095730 0.478316 0.209867
O O13 0.791057 0.307808 0.021873
O O14 0.582274 0.028405 0.712302
#
# Coordination Sequence:
#
# PCOD8031815 Si02
#       7
#     2   2   2   2   2   2   2
#     4  11  26  49  65 100 152 188 231 285 345 434
#     4  11  23  43  74 105 141 179 237 294 349 408
#     4  11  22  46  75 108 138 177 241 300 341 407
#     4  11  23  45  73 107 139 178 244 288 348 410
#     4  11  23  45  75 107 139 181 235 299 349 406
#     4  12  23  43  75 106 140 184 233 295 346 411
#     4  11  27  45  68 102 146 194 230 275 361 423
#
# _framework density 27.493950000000002
#
# number of rings (size 3 to 8) (size 9 to 14) (size 15 to 20)
#    0.000    0.857    4.286    3.000    2.000    4.571 
#    0.000    4.286    0.000    0.000    0.000    0.000 
#    0.000    0.000    0.000    0.000    0.000    0.000 
#
# Total GULP energy -173525.654746 kJ/mol
# GULP energy per Si atom -12394.689625 kJ/mol
# Density = 2.743137 g / cm^3
# Si number density = 27.493950 Si / 1000 Ang^3
#
#
#
# Elastic Constant Matrix: (Units=GPa)
#
#
# Indices 1 2 3 4 5 6 
#
# 1 40.5450 4.4009 29.4022 -10.4379 2.4129 11.5046
# 2 4.4009 147.7903 37.1003 -16.0978 3.2092 6.7293
# 3 29.4022 37.1003 148.5650 -6.5446 -15.3472 8.3231
# 4 -10.4379 -16.0978 -6.5446 47.5425 3.4939 -5.9867
# 5 2.4129 3.2092 -15.3472 3.4939 33.3928 1.3094
# 6 11.5046 6.7293 8.3231 -5.9867 1.3094 32.2484
#
#
#
# Elastic Compliance Matrix: (Units=1/GPa)
#
#
# Indices 1 2 3 4 5 6 
#
# 1 0.034332 0.002044 -0.007141 0.006529 -0.006275 -0.009365
# 2 0.002044 0.007700 -0.002373 0.002751 -0.002222 -0.001123
# 3 -0.007141 -0.002373 0.009190 -0.001458 0.005113 0.000193
# 4 0.006529 0.002751 -0.001458 0.023747 -0.003971 0.002043
# 5 -0.006275 -0.002222 0.005113 -0.003971 0.033407 -0.000711
# 6 -0.009365 -0.001123 0.000193 0.002043 -0.000711 0.034943
#
#
# Mechanical properties :
#
#
# Convention : Reuss Voigt Hill
#
# Bulk Modulus (GPa) = 27.56151 53.18967 40.37559
# Shear Modulus (GPa) = 29.35085 40.36986 34.86035
#
# Velocity S-wave (km/s) = 3.27087 3.83602 3.56466
# Velocity P-wave (km/s) = 4.93063 6.24564 5.62668
#
# Compressibility (1/GPa) = 0.03628248
#
# Stress axis : x y z
#
# Youngs Moduli (GPa) = 29.12737 129.86654 108.81322
#
# Poissons Ratio (x) = -0.26546 0.77704
# Poissons Ratio (y) = -0.05954 0.25821
# Poissons Ratio (z) = 0.20800 0.30816
#
# Static dielectric constant tensor:
#      x y z
#    x 4.604330 -0.409050 -0.200470 
#    y -0.409050 5.281870 0.028010 
#    z -0.200470 0.028010 5.592260 
# 
# 
# High freq. dielectric constant tensor:
#      x y z
#    x 2.076050 -0.024850 -0.017590 
#    y -0.024850 2.134550 -0.003920 
#    z -0.017590 -0.003920 2.129410 
# 
# From -- ./inp_files/191150.got.cif
#   From: 2010.06.25/outbox.cif.g09.slc.cpg/sg2_96_cif.got.tgz:191150.got - 2010.06.27 13:26:56.
