data_PCOD8031911
_publ_section_title
;
Structure prediction by ZEFSAII (Michael W. Deem and Ramdas Pophale) SiO2 
 PCOD8031911
Probable space group: P -1
;
_chemical_formula_sum "Si O2"
_cell_formula_units_Z 16
_cell_length_a 11.509565
_cell_length_b 11.613222
_cell_length_c 5.085906
_cell_angle_alpha 78.836735
_cell_angle_beta 76.671147
_cell_angle_gamma 81.913140
_cell_volume 645.678254
_symmetry_space_group_name_H-M "P -1"
_symmetry_group_IT_number 2
_symmetry_cell_setting 'triclinic'
loop_
_space_group_symop_operation_xyz
x,y,z
-x,-y,-z
loop_
_atom_site_type_symbol
_atom_site_label
_atom_site_fract_x
_atom_site_fract_y
_atom_site_fract_z
Si Si1 0.485652 0.364086 0.126944
Si Si2 0.966434 0.177033 0.083579
Si Si3 0.210251 0.083467 0.871025
Si Si4 0.726412 0.269770 0.850823
Si Si5 0.185496 0.507062 0.470279
Si Si6 0.336628 0.317508 0.733085
Si Si7 0.042370 0.395561 0.212541
Si Si8 0.789953 0.065029 0.546185
O O1 0.429419 0.349831 0.447948
O O2 0.500000 0.500000 0.000000
O O3 0.610311 0.277768 0.095861
O O4 0.398487 0.313346 0.982641
O O5 0.049278 0.271849 0.118669
O O6 0.922384 0.100484 0.382819
O O7 0.848198 0.230895 0.965794
O O8 0.066231 0.108599 0.869846
O O9 0.286540 0.193367 0.757464
O O10 0.264423 0.985048 0.674495
O O11 0.211221 0.034885 0.188436
O O12 0.717282 0.404322 0.689684
O O13 0.713012 0.181896 0.650469
O O14 0.227323 0.424974 0.736486
O O15 0.064920 0.596458 0.520978
O O16 0.167496 0.414006 0.284024
O O17 0.000000 0.500000 0.000000
#
# Coordination Sequence:
#
# PCOD8031911 Si02
#       8
#     2   2   2   2   2   2   2   2
#     4  12  29  51  80 111 153 198 253 309 373 450
#     4  12  26  43  78 110 159 194 249 311 372 461
#     4  12  29  49  77 110 153 197 255 302 382 437
#     4  12  27  47  76 113 147 199 254 306 380 441
#     4  11  25  41  70 110 156 192 243 303 388 450
#     4  12  29  51  78 111 150 203 248 316 370 446
#     4  11  23  38  64 111 157 190 232 300 384 463
#     4  12  27  49  75 111 150 203 249 311 366 452
#
# _framework density 24.780144
#
# number of rings (size 3 to 8) (size 9 to 14) (size 15 to 20)
#    0.000    0.250    5.000    2.625   12.250    0.000 
#    0.000    3.750    0.000    0.000    0.000    0.000 
#    0.000    0.000    0.000    0.000    0.000    0.000 
#
# Total GULP energy -198291.650804 kJ/mol
# GULP energy per Si atom -12393.228175 kJ/mol
# Density = 2.472374 g / cm^3
# Si number density = 24.780144 Si / 1000 Ang^3
#
#
#
# Elastic Constant Matrix: (Units=GPa)
#
#
# Indices 1 2 3 4 5 6 
#
# 1 68.2021 23.6145 6.4131 8.2924 -4.4643 -6.5040
# 2 23.6145 102.9556 28.5817 -1.2006 -18.9138 17.1394
# 3 6.4131 28.5817 90.2034 -1.0946 -3.5761 4.1564
# 4 8.2924 -1.2006 -1.0946 49.6913 0.4877 -7.8661
# 5 -4.4643 -18.9138 -3.5761 0.4877 39.5124 -0.7436
# 6 -6.5040 17.1394 4.1564 -7.8661 -0.7436 28.9760
#
#
#
# Elastic Compliance Matrix: (Units=1/GPa)
#
#
# Indices 1 2 3 4 5 6 
#
# 1 0.017253 -0.005118 0.000065 -0.001994 -0.000351 0.006340
# 2 -0.005118 0.014474 -0.003573 -0.000381 0.005859 -0.009151
# 3 0.000065 -0.003573 0.012173 0.000245 -0.000596 0.000433
# 4 -0.001994 -0.000381 0.000245 0.021332 -0.000545 0.005520
# 5 -0.000351 0.005859 -0.000596 -0.000545 0.027972 -0.002889
# 6 0.006340 -0.009151 0.000433 0.005520 -0.002889 0.042709
#
#
# Mechanical properties :
#
#
# Convention : Reuss Voigt Hill
#
# Bulk Modulus (GPa) = 37.52809 42.06440 39.79625
# Shear Modulus (GPa) = 30.85493 37.15272 34.00382
#
# Velocity S-wave (km/s) = 3.53249 3.87627 3.70837
# Velocity P-wave (km/s) = 5.64051 6.08653 5.86776
#
# Compressibility (1/GPa) = 0.02664670
#
# Stress axis : x y z
#
# Youngs Moduli (GPa) = 57.96248 69.08858 82.14918
#
# Poissons Ratio (x) = 0.35362 -0.00534
# Poissons Ratio (y) = 0.29668 0.29352
# Poissons Ratio (z) = -0.00376 0.24686
#
# Static dielectric constant tensor:
#      x y z
#    x 5.029640 -0.041770 -0.576380 
#    y -0.041770 4.568900 0.121300 
#    z -0.576380 0.121300 4.730510 
# 
# 
# High freq. dielectric constant tensor:
#      x y z
#    x 1.965320 0.006520 -0.014550 
#    y 0.006520 2.001150 0.003570 
#    z -0.014550 0.003570 2.000950 
# 
# From -- ./inp_files/66239.got.cif
#   From: 2010.06.25/outbox.cif.g09.slc.cpg/sg2_34_cif.got.tgz:66239.got - 2010.06.27 13:26:56.
