data_PCOD8031953
_publ_section_title
;
Structure prediction by ZEFSAII (Michael W. Deem and Ramdas Pophale) SiO2 
 PCOD8031953
Probable space group: P -1
;
_chemical_formula_sum "Si O2"
_cell_formula_units_Z 16
_cell_length_a 14.539348
_cell_length_b 11.024748
_cell_length_c 6.472268
_cell_angle_alpha 74.922191
_cell_angle_beta 100.042735
_cell_angle_gamma 51.716813
_cell_volume 705.069305
_symmetry_space_group_name_H-M "P -1"
_symmetry_group_IT_number 2
_symmetry_cell_setting 'triclinic'
loop_
_space_group_symop_operation_xyz
x,y,z
-x,-y,-z
loop_
_atom_site_type_symbol
_atom_site_label
_atom_site_fract_x
_atom_site_fract_y
_atom_site_fract_z
Si Si1 0.416662 0.992961 0.327817
Si Si2 0.700713 0.650929 0.022172
Si Si3 0.446924 0.342737 0.713912
Si Si4 0.136667 0.330704 0.702551
Si Si5 0.076192 0.160814 0.035501
Si Si6 0.223999 0.596035 0.194214
Si Si7 0.277691 0.814785 0.010999
Si Si8 0.221575 0.056864 0.526344
O O1 0.512475 0.826328 0.294434
O O2 0.500000 0.000000 0.500000
O O3 0.333635 0.973104 0.438023
O O4 0.337187 0.165171 0.082725
O O5 0.595343 0.652750 0.070701
O O6 0.811903 0.575407 0.267795
O O7 0.746425 0.556278 0.861169
O O8 0.323096 0.515732 0.463351
O O9 0.572590 0.315164 0.790336
O O10 0.211210 0.188999 0.608484
O O11 0.000000 0.500000 0.500000
O O12 0.122379 0.251918 0.928236
O O13 0.090671 0.151238 0.296818
O O14 0.174393 0.963791 0.070949
O O15 0.928168 0.267913 0.860198
O O16 0.246946 0.697189 0.017296
O O17 0.259041 0.900824 0.746288
#
# Coordination Sequence:
#
# PCOD8031953 Si02
#       8
#     2   2   2   2   2   2   2   2
#     4  12  21  41  69  97 135 175 219 276 342 409
#     4  12  25  41  66 108 137 176 221 280 350 410
#     4  12  25  46  69 102 140 177 231 288 344 400
#     4  11  23  39  66 103 142 172 220 280 345 415
#     4  11  24  46  71 101 136 185 228 282 345 403
#     4  12  28  45  70 102 139 183 231 285 343 401
#     4  11  26  48  71  99 134 186 240 281 329 407
#     4  11  23  43  71  97 135 182 229 276 339 409
#
# _framework density 22.692803000000001
#
# number of rings (size 3 to 8) (size 9 to 14) (size 15 to 20)
#    0.000    0.500    3.750    4.875    1.750    4.000 
#    0.000    0.000    0.000    0.000    0.000    0.000 
#    0.000    0.000    0.000    0.000    0.000    0.000 
#
# Total GULP energy -198312.242737 kJ/mol
# GULP energy per Si atom -12394.515171 kJ/mol
# Density = 2.264115 g / cm^3
# Si number density = 22.692803 Si / 1000 Ang^3
#
#
#
# Elastic Constant Matrix: (Units=GPa)
#
#
# Indices 1 2 3 4 5 6 
#
# 1 107.5140 36.2735 24.4342 -6.3528 8.9039 -13.2939
# 2 36.2735 50.6273 33.1915 -7.6192 0.3563 -8.1666
# 3 24.4342 33.1915 106.7731 1.4696 4.1121 -9.8152
# 4 -6.3528 -7.6192 1.4696 27.8207 -1.1396 0.1408
# 5 8.9039 0.3563 4.1121 -1.1396 42.0196 -6.1813
# 6 -13.2939 -8.1666 -9.8152 0.1408 -6.1813 39.4857
#
#
#
# Elastic Compliance Matrix: (Units=1/GPa)
#
#
# Indices 1 2 3 4 5 6 
#
# 1 0.012709 -0.008744 0.000089 0.000397 -0.002303 0.002130
# 2 -0.008744 0.032894 -0.008235 0.007555 0.002914 0.002242
# 3 0.000089 -0.008235 0.012094 -0.002922 -0.001038 0.001181
# 4 0.000397 0.007555 -0.002922 0.038308 0.001330 0.001042
# 5 -0.002303 0.002914 -0.001038 0.001330 0.024909 0.003464
# 6 0.002130 0.002242 0.001181 0.001042 0.003464 0.027339
#
#
# Mechanical properties :
#
#
# Convention : Reuss Voigt Hill
#
# Bulk Modulus (GPa) = 41.81133 50.30144 46.05639
# Shear Modulus (GPa) = 26.31528 33.26622 29.79075
#
# Velocity S-wave (km/s) = 3.40903 3.83291 3.62717
# Velocity P-wave (km/s) = 5.82754 6.46550 6.15479
#
# Compressibility (1/GPa) = 0.02391696
#
# Stress axis : x y z
#
# Youngs Moduli (GPa) = 78.68627 30.40073 82.68671
#
# Poissons Ratio (x) = 0.26583 -0.00736
# Poissons Ratio (y) = 0.68805 0.68089
# Poissons Ratio (z) = -0.00700 0.25034
#
# Static dielectric constant tensor:
#      x y z
#    x 4.456720 0.523530 0.103900 
#    y 0.523530 4.690450 -0.161670 
#    z 0.103900 -0.161670 4.192640 
# 
# 
# High freq. dielectric constant tensor:
#      x y z
#    x 1.904040 -0.005090 0.011960 
#    y -0.005090 1.885010 -0.006340 
#    z 0.011960 -0.006340 1.906970 
# 
# From -- ./inp_files/94618.got.cif
#   From: 2010.06.25/outbox.cif.g09.slc.cpg/sg2_48_cif.got.tgz:94618.got - 2010.06.27 13:26:56.
