data_PCOD8031216
_publ_section_title
;
Structure prediction by ZEFSAII (Michael W. Deem and Ramdas Pophale) SiO2 
 PCOD8031216
Probable space group: P -1
;
_chemical_formula_sum "Si O2"
_cell_formula_units_Z 16
_cell_length_a 9.724429
_cell_length_b 9.573807
_cell_length_c 13.630673
_cell_angle_alpha 95.228567
_cell_angle_beta 130.952108
_cell_angle_gamma 114.356368
_cell_volume 742.954394
_symmetry_space_group_name_H-M "P -1"
_symmetry_group_IT_number 2
_symmetry_cell_setting 'triclinic'
loop_
_space_group_symop_operation_xyz
x,y,z
-x,-y,-z
loop_
_atom_site_type_symbol
_atom_site_label
_atom_site_fract_x
_atom_site_fract_y
_atom_site_fract_z
Si Si1 0.429547 0.504756 0.576926
Si Si2 0.278428 0.124065 0.149156
Si Si3 0.333963 0.302918 0.870498
Si Si4 0.877959 0.213109 0.672933
Si Si5 0.731120 0.815204 0.375926
Si Si6 0.448224 0.924784 0.324668
Si Si7 0.000310 0.518433 0.616888
Si Si8 0.522987 0.159081 0.068548
O O1 0.500000 0.500000 0.500000
O O2 0.625989 0.682835 0.745828
O O3 0.319400 0.312205 0.563786
O O4 0.233885 0.522157 0.463331
O O5 0.377789 0.039166 0.251428
O O6 0.359895 0.135060 0.077864
O O7 0.000000 0.000000 0.000000
O O8 0.321749 0.308722 0.748309
O O9 0.073071 0.190073 0.788555
O O10 0.500000 0.500000 0.000000
O O11 0.459031 0.219915 0.949212
O O12 0.664660 0.038531 0.507032
O O13 0.015948 0.382218 0.675275
O O14 0.778753 0.235366 0.728448
O O15 0.539971 0.850430 0.287717
O O16 0.000000 0.000000 0.500000
O O17 0.000000 0.500000 0.500000
O O18 0.215450 0.715492 0.761960
O O19 0.500000 0.000000 0.000000
#
# Coordination Sequence:
#
# PCOD8031216 Si02
#       8
#     2   2   2   2   2   2   2   2
#     4  12  28  47  75 107 144 188 244 296 360 432
#     4  12  27  49  71 103 147 190 235 296 364 430
#     4  12  24  44  68 100 142 183 231 291 354 423
#     4  11  22  42  72  99 134 187 231 281 359 417
#     4  12  27  45  74 111 141 184 246 299 351 426
#     4  11  24  44  71 101 140 182 232 289 349 427
#     4  12  23  45  74 100 138 186 241 297 349 429
#     4  12  27  43  71 106 140 184 236 294 362 417
#
# _framework density 21.535640999999998
#
# number of rings (size 3 to 8) (size 9 to 14) (size 15 to 20)
#    0.000    0.250    5.000    3.750    7.000    0.000 
#    0.000    1.250    0.000    0.000    0.000    0.000 
#    0.000    0.000    0.000    0.000    0.000    0.000 
#
# Total GULP energy -198233.347673 kJ/mol
# GULP energy per Si atom -12389.584230 kJ/mol
# Density = 2.148663 g / cm^3
# Si number density = 21.535641 Si / 1000 Ang^3
#
#
#
# Elastic Constant Matrix: (Units=GPa)
#
#
# Indices 1 2 3 4 5 6 
#
# 1 156.7663 34.3033 57.2751 14.2438 -11.9090 -0.9798
# 2 34.3033 117.4412 39.4473 7.5560 -11.0133 -0.9747
# 3 57.2751 39.4473 139.5753 13.8979 5.5422 -5.6091
# 4 14.2438 7.5560 13.8979 34.5309 -4.8663 0.3987
# 5 -11.9090 -11.0133 5.5422 -4.8663 40.7357 -6.3811
# 6 -0.9798 -0.9747 -5.6091 0.3987 -6.3811 40.5011
#
#
#
# Elastic Compliance Matrix: (Units=1/GPa)
#
#
# Indices 1 2 3 4 5 6 
#
# 1 0.007988 -0.001038 -0.002913 -0.001575 0.002285 0.000140
# 2 -0.001038 0.009917 -0.002434 -0.000384 0.002711 0.000307
# 3 -0.002913 -0.002434 0.009444 -0.002495 -0.002977 0.000734
# 4 -0.001575 -0.000384 -0.002495 0.031189 0.003477 -0.000152
# 5 0.002285 0.002711 -0.002977 0.003477 0.027395 0.003990
# 6 0.000140 0.000307 0.000734 -0.000152 0.003990 0.025433
#
#
# Mechanical properties :
#
#
# Convention : Reuss Voigt Hill
#
# Bulk Modulus (GPa) = 68.58967 75.09268 71.84117
# Shear Modulus (GPa) = 38.76109 42.00402 40.38255
#
# Velocity S-wave (km/s) = 4.24708 4.42117 4.33500
# Velocity P-wave (km/s) = 7.48122 7.81070 7.64774
#
# Compressibility (1/GPa) = 0.01457945
#
# Stress axis : x y z
#
# Youngs Moduli (GPa) = 125.19147 100.83573 105.88886
#
# Poissons Ratio (x) = 0.10467 0.30842
# Poissons Ratio (y) = 0.12996 0.25773
# Poissons Ratio (z) = 0.36464 0.24543
#
# Static dielectric constant tensor:
#      x y z
#    x 4.031360 -0.164770 0.081360 
#    y -0.164770 3.378550 0.024820 
#    z 0.081360 0.024820 4.017540 
# 
# 
# High freq. dielectric constant tensor:
#      x y z
#    x 1.867810 -0.000710 0.007050 
#    y -0.000710 1.846480 -0.009720 
#    z 0.007050 -0.009720 1.854000 
# 
# From -- ./inp_files/495307.got.cif
#   From: 2010.06.25/outbox.cif.g09.slc.cpg/sg2_248_cif.got.tgz:495307.got - 2010.06.27 13:26:56.
