data_PCOD8031125
_publ_section_title
;
Structure prediction by ZEFSAII (Michael W. Deem and Ramdas Pophale) SiO2 
 PCOD8031125
Probable space group: P -1
;
_chemical_formula_sum "Si O2"
_cell_formula_units_Z 12
_cell_length_a 12.307216
_cell_length_b 7.339131
_cell_length_c 11.041128
_cell_angle_alpha 56.959512
_cell_angle_beta 111.053127
_cell_angle_gamma 64.917427
_cell_volume 476.089311
_symmetry_space_group_name_H-M "P -1"
_symmetry_group_IT_number 2
_symmetry_cell_setting 'triclinic'
loop_
_space_group_symop_operation_xyz
x,y,z
-x,-y,-z
loop_
_atom_site_type_symbol
_atom_site_label
_atom_site_fract_x
_atom_site_fract_y
_atom_site_fract_z
Si Si1 0.026741 0.297932 0.407747
Si Si2 0.917944 0.301877 0.609842
Si Si3 0.562367 0.818839 0.423004
Si Si4 0.551642 0.341277 0.209878
Si Si5 0.842787 0.751906 0.948696
Si Si6 0.759807 0.258437 0.892904
O O1 0.055331 0.492637 0.405909
O O2 0.945147 0.253372 0.492811
O O3 0.885538 0.513182 0.158759
O O4 0.232282 0.911238 0.581628
O O5 0.705489 0.535688 0.473723
O O6 0.078619 0.915241 0.880486
O O7 0.668928 0.610441 0.669440
O O8 0.513408 0.141384 0.274645
O O9 0.369483 0.965621 0.288958
O O10 0.402029 0.652721 0.136879
O O11 0.500000 0.500000 0.000000
O O12 0.000000 0.500000 0.000000
O O13 0.855460 0.975519 0.927475
#
# Coordination Sequence:
#
# PCOD8031125 Si02
#       6
#     2   2   2   2   2   2
#     4   9  19  39  62  90 132 168 210 268 315 381
#     4   9  19  37  64  95 122 168 220 262 317 374
#     4  11  24  39  66 102 133 169 220 265 328 397
#     4  11  22  42  68  99 130 168 224 269 320 386
#     4  11  25  44  65  94 138 175 213 269 334 390
#     4  11  22  42  69  94 133 174 215 274 323 382
#
# _framework density 25.205352999999999
#
# number of rings (size 3 to 8) (size 9 to 14) (size 15 to 20)
#    0.000    1.667    1.667    2.500    2.333    4.667 
#    0.000    0.833    0.000    0.000    0.000    0.000 
#    0.000    0.000    0.000    0.000    0.000    0.000 
#
# Total GULP energy -148799.138343 kJ/mol
# GULP energy per Si atom -12399.928195 kJ/mol
# Density = 2.514798 g / cm^3
# Si number density = 25.205353 Si / 1000 Ang^3
#
#
#
# Elastic Constant Matrix: (Units=GPa)
#
#
# Indices 1 2 3 4 5 6 
#
# 1 85.5373 34.5191 48.1325 1.0844 -5.2398 -42.9262
# 2 34.5191 105.5449 38.1056 -0.5637 -1.4685 -49.5484
# 3 48.1325 38.1056 171.9892 2.8692 -12.5077 -22.2751
# 4 1.0844 -0.5637 2.8692 33.2960 -17.0427 4.8269
# 5 -5.2398 -1.4685 -12.5077 -17.0427 51.8335 -8.7390
# 6 -42.9262 -49.5484 -22.2751 4.8269 -8.7390 49.9639
#
#
#
# Elastic Compliance Matrix: (Units=1/GPa)
#
#
# Indices 1 2 3 4 5 6 
#
# 1 0.026023 0.006188 -0.004629 -0.001320 0.005907 0.027592
# 2 0.006188 0.020233 -0.002624 -0.000980 0.004473 0.025089
# 3 -0.004629 -0.002624 0.007328 0.000349 0.000801 -0.003205
# 4 -0.001320 -0.000980 0.000349 0.036305 0.011272 -0.003487
# 5 0.005907 0.004473 0.000801 0.011272 0.026168 0.013356
# 6 0.027592 0.025089 -0.003205 -0.003487 0.013356 0.069843
#
#
# Mechanical properties :
#
#
# Convention : Reuss Voigt Hill
#
# Bulk Modulus (GPa) = 19.43402 67.17620 43.30511
# Shear Modulus (GPa) = 24.36871 43.17295 33.77083
#
# Velocity S-wave (km/s) = 3.11273 4.14315 3.66434
# Velocity P-wave (km/s) = 4.54376 7.04251 5.92633
#
# Compressibility (1/GPa) = 0.05145616
#
# Stress axis : x y z
#
# Youngs Moduli (GPa) = 38.42701 49.42445 136.45786
#
# Poissons Ratio (x) = -0.30584 0.63163
# Poissons Ratio (y) = -0.23779 0.35800
# Poissons Ratio (z) = 0.17787 0.12967
#
# Static dielectric constant tensor:
#      x y z
#    x 4.343190 -0.695490 -0.114050 
#    y -0.695490 4.678500 -0.319600 
#    z -0.114050 -0.319600 4.938570 
# 
# 
# High freq. dielectric constant tensor:
#      x y z
#    x 1.989480 -0.041360 -0.009650 
#    y -0.041360 1.998870 -0.014180 
#    z -0.009650 -0.014180 2.021470 
# 
# From -- ./inp_files/158004.got.cif
#   From: 2010.06.25/outbox.cif.g09.slc.cpg/sg2_80_cif.got.tgz:158004.got - 2010.06.27 13:26:56.
