data_PCOD8031920
_publ_section_title
;
Structure prediction by ZEFSAII (Michael W. Deem and Ramdas Pophale) SiO2 
 PCOD8031920
Probable space group: P -1
;
_chemical_formula_sum "Si O2"
_cell_formula_units_Z 16
_cell_length_a 8.891423
_cell_length_b 8.793852
_cell_length_c 12.389198
_cell_angle_alpha 100.720190
_cell_angle_beta 62.549172
_cell_angle_gamma 64.583774
_cell_volume 681.602229
_symmetry_space_group_name_H-M "P -1"
_symmetry_group_IT_number 2
_symmetry_cell_setting 'triclinic'
loop_
_space_group_symop_operation_xyz
x,y,z
-x,-y,-z
loop_
_atom_site_type_symbol
_atom_site_label
_atom_site_fract_x
_atom_site_fract_y
_atom_site_fract_z
Si Si1 0.482440 0.600251 0.128934
Si Si2 0.276980 0.128518 0.463140
Si Si3 0.985782 0.063086 0.687503
Si Si4 0.686915 0.768471 0.173567
Si Si5 0.055029 0.668726 0.572993
Si Si6 0.519791 0.425547 0.313062
Si Si7 0.755320 0.584454 0.338956
Si Si8 0.866647 0.990826 0.134907
O O1 0.631172 0.673470 0.086874
O O2 0.557659 0.447107 0.178679
O O3 0.246747 0.778259 0.256474
O O4 0.500000 0.500000 0.000000
O O5 0.143187 0.075501 0.565016
O O6 0.356973 0.217212 0.530624
O O7 0.129788 0.287086 0.440149
O O8 0.472318 0.937319 0.322376
O O9 0.034951 0.859267 0.627177
O O10 0.997119 0.102218 0.814611
O O11 0.825031 0.609921 0.201353
O O12 0.807344 0.850097 0.094221
O O13 0.281731 0.508493 0.426113
O O14 0.041855 0.584587 0.681652
O O15 0.590234 0.532260 0.378242
O O16 0.658709 0.199067 0.260713
O O17 0.000000 0.000000 0.000000
#
# Coordination Sequence:
#
# PCOD8031920 Si02
#       8
#     2   2   2   2   2   2   2   2
#     4  11  24  48  70  99 142 193 235 282 341 418
#     4  12  23  41  69 110 143 176 226 291 362 415
#     4  12  23  45  70 102 144 182 226 288 357 417
#     4  11  25  45  73 103 139 183 238 289 353 413
#     4  12  23  40  68 105 146 176 223 288 359 416
#     4  11  24  43  68 103 141 183 233 284 349 410
#     4  11  23  38  65 105 140 176 218 288 348 414
#     4  12  27  49  70  98 139 193 243 286 338 415
#
# _framework density 23.474102999999999
#
# number of rings (size 3 to 8) (size 9 to 14) (size 15 to 20)
#    0.000    0.500    5.000    4.500    3.500    0.000 
#    2.250    4.375    0.000    0.000    0.000    0.000 
#    0.000    0.000    0.000    0.000    0.000    0.000 
#
# Total GULP energy -198455.284793 kJ/mol
# GULP energy per Si atom -12403.455300 kJ/mol
# Density = 2.342067 g / cm^3
# Si number density = 23.474103 Si / 1000 Ang^3
#
#
#
# Elastic Constant Matrix: (Units=GPa)
#
#
# Indices 1 2 3 4 5 6 
#
# 1 113.0630 40.2943 38.0393 -9.2705 26.1015 19.8474
# 2 40.2943 110.7102 22.2619 -6.1125 3.4754 13.9202
# 3 38.0393 22.2619 66.7970 -1.6974 13.4141 17.4881
# 4 -9.2705 -6.1125 -1.6974 31.2609 7.9063 -0.4001
# 5 26.1015 3.4754 13.4141 7.9063 43.9085 4.1444
# 6 19.8474 13.9202 17.4881 -0.4001 4.1444 43.2936
#
#
#
# Elastic Compliance Matrix: (Units=1/GPa)
#
#
# Indices 1 2 3 4 5 6 
#
# 1 0.014241 -0.003382 -0.004619 0.005159 -0.007450 -0.002815
# 2 -0.003382 0.010743 -0.001609 0.000567 0.001683 -0.001410
# 3 -0.004619 -0.001609 0.020056 0.000039 -0.002770 -0.005201
# 4 0.005159 0.000567 0.000039 0.036013 -0.009484 -0.001323
# 5 -0.007450 0.001683 -0.002770 -0.009484 0.029522 0.001080
# 6 -0.002815 -0.001410 -0.005201 -0.001323 0.001080 0.026827
#
#
# Mechanical properties :
#
#
# Convention : Reuss Voigt Hill
#
# Bulk Modulus (GPa) = 38.72776 54.64013 46.68394
# Shear Modulus (GPa) = 30.26121 36.35758 33.30940
#
# Velocity S-wave (km/s) = 3.59434 3.93980 3.77103
# Velocity P-wave (km/s) = 5.81030 6.63501 6.23630
#
# Compressibility (1/GPa) = 0.02582127
#
# Stress axis : x y z
#
# Youngs Moduli (GPa) = 70.22086 93.08685 49.85990
#
# Poissons Ratio (x) = 0.31480 0.23028
# Poissons Ratio (y) = 0.23747 0.08022
# Poissons Ratio (z) = 0.32432 0.14976
#
# Static dielectric constant tensor:
#      x y z
#    x 4.612780 -0.261050 0.242980 
#    y -0.261050 4.877470 -0.009480 
#    z 0.242980 -0.009480 3.873930 
# 
# 
# High freq. dielectric constant tensor:
#      x y z
#    x 1.936820 -0.000170 0.020680 
#    y -0.000170 1.956470 0.001810 
#    z 0.020680 0.001810 1.903510 
# 
# From -- ./inp_files/382916.got.cif
#   From: 2010.06.25/outbox.cif.g09.slc.cpg/sg2_192_cif.got.tgz:382916.got - 2010.06.27 13:26:56.
