data_PCOD8031136
_publ_section_title
;
Structure prediction by ZEFSAII (Michael W. Deem and Ramdas Pophale) SiO2 
 PCOD8031136
Probable space group: P -1
;
_chemical_formula_sum "Si O2"
_cell_formula_units_Z 16
_cell_length_a 11.905027
_cell_length_b 8.532391
_cell_length_c 9.524505
_cell_angle_alpha 85.215748
_cell_angle_beta 128.549119
_cell_angle_gamma 102.622491
_cell_volume 736.588799
_symmetry_space_group_name_H-M "P -1"
_symmetry_group_IT_number 2
_symmetry_cell_setting 'triclinic'
loop_
_space_group_symop_operation_xyz
x,y,z
-x,-y,-z
loop_
_atom_site_type_symbol
_atom_site_label
_atom_site_fract_x
_atom_site_fract_y
_atom_site_fract_z
Si Si1 0.643805 0.611163 0.431635
Si Si2 0.329320 0.567488 0.263949
Si Si3 0.122533 0.985779 0.862734
Si Si4 0.140061 0.812121 0.166534
Si Si5 0.344034 0.901555 0.831731
Si Si6 0.201604 0.036136 0.445227
Si Si7 0.834717 0.667400 0.055802
Si Si8 0.656843 0.465815 0.164196
O O1 0.476431 0.633568 0.282971
O O2 0.638691 0.466139 0.547665
O O3 0.744458 0.774778 0.553411
O O4 0.708117 0.557273 0.342100
O O5 0.239356 0.706393 0.177309
O O6 0.243565 0.400238 0.143753
O O7 0.224108 0.892091 0.861759
O O8 0.973839 0.994901 0.661862
O O9 0.212951 0.168119 0.948068
O O10 0.076094 0.902157 0.982960
O O11 0.009517 0.700329 0.162202
O O12 0.234474 0.940391 0.338717
O O13 0.356786 0.723401 0.813026
O O14 0.288924 0.986619 0.648730
O O15 0.500000 0.000000 0.000000
O O16 0.784596 0.533904 0.146916
O O17 0.500000 0.500000 0.000000
#
# Coordination Sequence:
#
# PCOD8031136 Si02
#       8
#     2   2   2   2   2   2   2   2
#     4  11  24  41  65  95 138 181 218 282 342 397
#     4  11  23  40  64  99 136 176 229 277 338 401
#     4  11  24  45  71 101 140 183 227 282 340 404
#     4  11  24  43  69 102 135 183 232 274 341 405
#     4  12  27  44  71 102 136 183 232 279 342 413
#     4  11  24  46  67  99 142 178 230 278 342 402
#     4  11  22  42  69  94 135 175 223 280 336 400
#     4  12  24  44  65  97 134 175 226 280 338 399
#
# _framework density 21.721755000000002
#
# number of rings (size 3 to 8) (size 9 to 14) (size 15 to 20)
#    0.000    0.750    1.250    7.500    1.750    2.500 
#    0.000    3.750    0.000    0.000    0.000    0.000 
#    0.000    0.000    0.000    0.000    0.000    0.000 
#
# Total GULP energy -198457.708383 kJ/mol
# GULP energy per Si atom -12403.606774 kJ/mol
# Density = 2.167231 g / cm^3
# Si number density = 21.721755 Si / 1000 Ang^3
#
#
#
# Elastic Constant Matrix: (Units=GPa)
#
#
# Indices 1 2 3 4 5 6 
#
# 1 96.8331 34.4796 42.0976 1.7574 -4.2498 -4.8624
# 2 34.4796 104.3632 38.4271 16.7007 3.2597 0.6873
# 3 42.0976 38.4271 123.0461 7.9758 -3.6962 -0.4242
# 4 1.7574 16.7007 7.9758 44.6750 1.5337 -5.0511
# 5 -4.2498 3.2597 -3.6962 1.5337 32.5567 -2.9632
# 6 -4.8624 0.6873 -0.4242 -5.0511 -2.9632 34.8490
#
#
#
# Elastic Compliance Matrix: (Units=1/GPa)
#
#
# Indices 1 2 3 4 5 6 
#
# 1 0.013224 -0.003402 -0.003502 0.001569 0.001800 0.002250
# 2 -0.003402 0.012355 -0.002488 -0.004146 -0.001906 -0.001512
# 3 -0.003502 -0.002488 0.010183 -0.000823 0.000955 -0.000354
# 4 0.001569 -0.004146 -0.000823 0.024460 -0.000279 0.003812
# 5 0.001800 -0.001906 0.000955 -0.000279 0.031531 0.002941
# 6 0.002250 -0.001512 -0.000354 0.003812 0.002941 0.029837
#
#
# Mechanical properties :
#
#
# Convention : Reuss Voigt Hill
#
# Bulk Modulus (GPa) = 58.89889 61.58345 60.24117
# Shear Modulus (GPa) = 34.23878 36.36534 35.30206
#
# Velocity S-wave (km/s) = 3.97450 4.09607 4.03574
# Velocity P-wave (km/s) = 6.94523 7.12622 7.03631
#
# Compressibility (1/GPa) = 0.01697825
#
# Stress axis : x y z
#
# Youngs Moduli (GPa) = 75.61846 80.93906 98.20266
#
# Poissons Ratio (x) = 0.27534 0.34390
# Poissons Ratio (y) = 0.25724 0.24436
# Poissons Ratio (z) = 0.26481 0.20140
#
# Static dielectric constant tensor:
#      x y z
#    x 3.912040 -0.085110 -0.080010 
#    y -0.085110 3.897040 0.157220 
#    z -0.080010 0.157220 3.915950 
# 
# 
# High freq. dielectric constant tensor:
#      x y z
#    x 1.857940 -0.004200 -0.009890 
#    y -0.004200 1.861750 0.008890 
#    z -0.009890 0.008890 1.857250 
# 
# From -- ./inp_files/205292.got.cif
#   From: 2010.06.25/outbox.cif.g09.slc.cpg/sg2_103_cif.got.tgz:205292.got - 2010.06.27 13:26:56.
