data_PCOD8031656
_publ_section_title
;
Structure prediction by ZEFSAII (Michael W. Deem and Ramdas Pophale) SiO2 
 PCOD8031656
Probable space group: P -1
;
_chemical_formula_sum "Si O2"
_cell_formula_units_Z 16
_cell_length_a 9.392307
_cell_length_b 24.453137
_cell_length_c 8.859196
_cell_angle_alpha 39.928182
_cell_angle_beta 81.315417
_cell_angle_gamma 50.543687
_cell_volume 740.537933
_symmetry_space_group_name_H-M "P -1"
_symmetry_group_IT_number 2
_symmetry_cell_setting 'triclinic'
loop_
_space_group_symop_operation_xyz
x,y,z
-x,-y,-z
loop_
_atom_site_type_symbol
_atom_site_label
_atom_site_fract_x
_atom_site_fract_y
_atom_site_fract_z
Si Si1 0.408909 0.910031 0.803172
Si Si2 0.738489 0.004247 0.693366
Si Si3 0.863064 0.484550 0.196994
Si Si4 0.852114 0.108822 0.935074
Si Si5 0.987044 0.765127 0.750460
Si Si6 0.067909 0.266448 0.857493
Si Si7 0.796825 0.703690 0.727683
Si Si8 0.405886 0.638250 0.764614
O O1 0.323587 0.932229 0.598779
O O2 0.283763 0.058669 0.565573
O O3 0.338276 0.867087 0.014893
O O4 0.706627 0.779608 0.033825
O O5 0.494449 0.129787 0.573042
O O6 0.829861 0.862521 0.982028
O O7 0.954580 0.958581 0.823285
O O8 0.862389 0.418117 0.474312
O O9 0.119964 0.345074 0.356936
O O10 0.848947 0.587444 0.045993
O O11 0.622835 0.588941 0.908260
O O12 0.690489 0.268216 0.568636
O O13 0.000000 0.000000 0.000000
O O14 0.969357 0.691150 0.804687
O O15 0.180808 0.739507 0.706986
O O16 0.076836 0.694479 0.052370
O O17 0.500000 0.500000 0.000000
#
# Coordination Sequence:
#
# PCOD8031656 Si02
#       8
#     2   2   2   2   2   2   2   2
#     4  11  23  44  70 101 134 162 225 282 322 390
#     4  11  23  45  69 100 131 171 219 276 331 386
#     4  11  27  41  63  99 137 172 221 267 325 392
#     4  12  26  42  70  98 130 179 218 267 338 382
#     4  11  22  45  69  93 136 171 218 275 327 385
#     4  11  24  44  71 100 126 178 220 269 335 388
#     4  11  23  43  66  94 137 170 215 280 319 382
#     4  12  25  45  64  94 138 174 217 271 320 392
#
# _framework density 21.605915
#
# number of rings (size 3 to 8) (size 9 to 14) (size 15 to 20)
#    0.000    0.750    5.000    2.625    5.250    1.500 
#    2.250    0.000    0.000    0.000    0.000    0.000 
#    0.000    0.000    0.000    0.000    0.000    0.000 
#
# Total GULP energy -198499.152533 kJ/mol
# GULP energy per Si atom -12406.197033 kJ/mol
# Density = 2.155674 g / cm^3
# Si number density = 21.605915 Si / 1000 Ang^3
#
#
#
# Elastic Constant Matrix: (Units=GPa)
#
#
# Indices 1 2 3 4 5 6 
#
# 1 96.7871 32.0538 20.6611 7.2047 -6.2781 5.2455
# 2 32.0538 59.9344 19.4660 9.3060 -0.0548 0.7114
# 3 20.6611 19.4660 81.7603 14.3179 -11.2730 8.8841
# 4 7.2047 9.3060 14.3179 27.7700 -3.4579 -5.9425
# 5 -6.2781 -0.0548 -11.2730 -3.4579 36.6131 0.3332
# 6 5.2455 0.7114 8.8841 -5.9425 0.3332 37.8105
#
#
#
# Elastic Compliance Matrix: (Units=1/GPa)
#
#
# Indices 1 2 3 4 5 6 
#
# 1 0.012965 -0.006412 -0.001218 -0.000689 0.001787 -0.001516
# 2 -0.006412 0.021804 -0.003252 -0.004142 -0.002465 0.000614
# 3 -0.001218 -0.003252 0.015607 -0.007130 0.003960 -0.004592
# 4 -0.000689 -0.004142 -0.007130 0.043313 0.001692 0.008641
# 5 0.001787 -0.002465 0.003960 0.001692 0.029005 -0.001122
# 6 -0.001516 0.000614 -0.004592 0.008641 -0.001122 0.029093
#
#
# Mechanical properties :
#
#
# Convention : Reuss Voigt Hill
#
# Bulk Modulus (GPa) = 34.95083 42.53820 38.74451
# Shear Modulus (GPa) = 27.30946 31.52545 29.41745
#
# Velocity S-wave (km/s) = 3.55911 3.82398 3.69392
# Velocity P-wave (km/s) = 5.75337 6.26323 6.01371
#
# Compressibility (1/GPa) = 0.02861163
#
# Stress axis : x y z
#
# Youngs Moduli (GPa) = 77.13271 45.86368 64.07533
#
# Poissons Ratio (x) = 0.29406 0.07804
# Poissons Ratio (y) = 0.49454 0.20839
# Poissons Ratio (z) = 0.09394 0.14916
#
# Static dielectric constant tensor:
#      x y z
#    x 3.928940 -0.058750 -0.102130 
#    y -0.058750 4.026970 0.003350 
#    z -0.102130 0.003350 3.867730 
# 
# 
# High freq. dielectric constant tensor:
#      x y z
#    x 1.856900 -0.002090 -0.009890 
#    y -0.002090 1.849050 -0.000980 
#    z -0.009890 -0.000980 1.844460 
# 
# From -- ./inp_files/205297.got.cif
#   From: 2010.06.25/outbox.cif.g09.slc.cpg/sg2_103_cif.got.tgz:205297.got - 2010.06.27 13:26:56.
