data_PCOD8031407
_publ_section_title
;
Structure prediction by ZEFSAII (Michael W. Deem and Ramdas Pophale) SiO2 
 PCOD8031407
Probable space group: P -1
;
_chemical_formula_sum "Si O2"
_cell_formula_units_Z 16
_cell_length_a 9.234961
_cell_length_b 14.586655
_cell_length_c 14.331865
_cell_angle_alpha 130.419606
_cell_angle_beta 29.322269
_cell_angle_gamma 130.616082
_cell_volume 700.529591
_symmetry_space_group_name_H-M "P -1"
_symmetry_group_IT_number 2
_symmetry_cell_setting 'triclinic'
loop_
_space_group_symop_operation_xyz
x,y,z
-x,-y,-z
loop_
_atom_site_type_symbol
_atom_site_label
_atom_site_fract_x
_atom_site_fract_y
_atom_site_fract_z
Si Si1 0.647102 0.788332 0.784769
Si Si2 0.644747 0.485972 0.188108
Si Si3 0.264346 0.859116 0.207411
Si Si4 0.650675 0.141439 0.521968
Si Si5 0.377856 0.694936 0.519255
Si Si6 0.622923 0.871437 0.641890
Si Si7 0.411413 0.695962 0.174434
Si Si8 0.242153 0.464252 0.223088
O O1 0.536478 0.640544 0.746505
O O2 0.672236 0.839075 0.699377
O O3 0.981957 0.831492 0.669927
O O4 0.402129 0.843626 0.017697
O O5 0.605204 0.604693 0.348109
O O6 0.521890 0.498702 0.160611
O O7 0.000000 0.500000 0.000000
O O8 0.294055 0.739958 0.172221
O O9 0.911936 0.865389 0.408944
O O10 0.444875 0.991955 0.235483
O O11 0.516446 0.209358 0.559685
O O12 0.518591 0.184020 0.720092
O O13 0.500000 0.000000 0.500000
O O14 0.350603 0.770292 0.680133
O O15 0.064537 0.605268 0.600586
O O16 0.175269 0.585866 0.289249
O O17 0.694260 0.634370 0.954570
#
# Coordination Sequence:
#
# PCOD8031407 Si02
#       8
#     2   2   2   2   2   2   2   2
#     4  12  25  48  73 103 146 192 240 295 363 421
#     4  12  25  44  74 105 143 186 239 299 359 426
#     4  11  23  47  72 101 144 191 239 298 348 430
#     4  12  25  43  73 105 143 193 241 294 357 428
#     4  12  25  46  69 104 145 183 243 298 353 432
#     4  11  27  44  70 104 146 189 240 291 362 424
#     4  11  22  43  73  99 140 183 239 294 359 418
#     4  11  24  44  72 102 140 187 234 300 363 419
#
# _framework density 22.839862
#
# number of rings (size 3 to 8) (size 9 to 14) (size 15 to 20)
#    0.000    0.500    5.000    3.000    1.750    3.500 
#    4.500    2.500    0.000    0.000    0.000    0.000 
#    0.000    0.000    0.000    0.000    0.000    0.000 
#
# Total GULP energy -198342.517362 kJ/mol
# GULP energy per Si atom -12396.407335 kJ/mol
# Density = 2.278788 g / cm^3
# Si number density = 22.839862 Si / 1000 Ang^3
#
#
#
# Elastic Constant Matrix: (Units=GPa)
#
#
# Indices 1 2 3 4 5 6 
#
# 1 85.3569 35.9525 32.6586 -5.1025 0.9432 2.9447
# 2 35.9525 154.9879 36.6895 6.9733 -9.7736 -4.5055
# 3 32.6586 36.6895 92.8076 7.8811 8.3745 0.9845
# 4 -5.1025 6.9733 7.8811 36.0146 6.0705 1.8867
# 5 0.9432 -9.7736 8.3745 6.0705 34.3296 2.0843
# 6 2.9447 -4.5055 0.9845 1.8867 2.0843 35.4348
#
#
#
# Elastic Compliance Matrix: (Units=1/GPa)
#
#
# Indices 1 2 3 4 5 6 
#
# 1 0.014805 -0.002649 -0.004407 0.003769 -0.000655 -0.001607
# 2 -0.002649 0.007947 -0.002340 -0.002003 0.003186 0.001215
# 3 -0.004407 -0.002340 0.013783 -0.002608 -0.003448 0.000027
# 4 0.003769 -0.002003 -0.002608 0.030242 -0.005276 -0.001795
# 5 -0.000655 0.003186 -0.003448 -0.005276 0.031892 -0.001040
# 6 -0.001607 0.001215 0.000027 -0.001795 -0.001040 0.028665
#
#
# Mechanical properties :
#
#
# Convention : Reuss Voigt Hill
#
# Bulk Modulus (GPa) = 56.35607 60.41707 58.38657
# Shear Modulus (GPa) = 32.88619 36.34590 34.61604
#
# Velocity S-wave (km/s) = 3.79866 3.99348 3.89729
# Velocity P-wave (km/s) = 6.63082 6.91186 6.77280
#
# Compressibility (1/GPa) = 0.01774432
#
# Stress axis : x y z
#
# Youngs Moduli (GPa) = 67.54359 125.83662 72.55330
#
# Poissons Ratio (x) = 0.33331 0.31972
# Poissons Ratio (y) = 0.17891 0.16976
# Poissons Ratio (z) = 0.29765 0.29444
#
# Static dielectric constant tensor:
#      x y z
#    x 3.922530 0.026380 0.113930 
#    y 0.026380 4.495640 0.184550 
#    z 0.113930 0.184550 4.245950 
# 
# 
# High freq. dielectric constant tensor:
#      x y z
#    x 1.888170 -0.007620 0.013930 
#    y -0.007620 1.922730 0.019550 
#    z 0.013930 0.019550 1.901760 
# 
# From -- ./inp_files/505462.got.cif
#   From: 2010.06.25/outbox.cif.g09.slc.cpg/sg2_253_cif.got.tgz:505462.got - 2010.06.27 13:26:56.
