data_PCOD8031295
_publ_section_title
;
Structure prediction by ZEFSAII (Michael W. Deem and Ramdas Pophale) SiO2 
 PCOD8031295
Probable space group: P -1
;
_chemical_formula_sum "Si O2"
_cell_formula_units_Z 14
_cell_length_a 11.232123
_cell_length_b 11.107199
_cell_length_c 10.834271
_cell_angle_alpha 71.424210
_cell_angle_beta 99.772252
_cell_angle_gamma 37.943939
_cell_volume 544.905112
_symmetry_space_group_name_H-M "P -1"
_symmetry_group_IT_number 2
_symmetry_cell_setting 'triclinic'
loop_
_space_group_symop_operation_xyz
x,y,z
-x,-y,-z
loop_
_atom_site_type_symbol
_atom_site_label
_atom_site_fract_x
_atom_site_fract_y
_atom_site_fract_z
Si Si1 0.869209 0.826152 0.137999
Si Si2 0.175965 0.958947 0.324293
Si Si3 0.291608 0.637753 0.259884
Si Si4 0.924491 0.842409 0.412851
Si Si5 0.504410 0.810643 0.269730
Si Si6 0.255696 0.239079 0.474919
Si Si7 0.649929 0.363920 0.199489
O O1 0.068154 0.745883 0.136835
O O2 0.784164 0.952647 0.218340
O O3 0.018573 0.548801 0.267896
O O4 0.591652 0.069865 0.926113
O O5 0.145037 0.861235 0.266669
O O6 0.451636 0.689437 0.542257
O O7 0.223935 0.037200 0.222063
O O8 0.895754 0.237677 0.269273
O O9 0.407370 0.620478 0.175286
O O10 0.266376 0.522084 0.571909
O O11 0.852471 0.800062 0.510436
O O12 0.808473 0.085451 0.361244
O O13 0.649199 0.795598 0.363482
O O14 0.500000 0.000000 0.500000
O O15 0.500000 0.500000 0.000000
#
# Coordination Sequence:
#
# PCOD8031295 Si02
#       7
#     2   2   2   2   2   2   2
#     4  11  22  44  72 101 137 183 234 280 347 417
#     4  11  22  43  68  99 140 182 229 282 349 408
#     4  11  22  43  68  98 143 184 224 288 344 408
#     4  11  24  46  69  98 140 182 229 290 345 409
#     4  11  24  43  74 102 132 188 230 282 353 409
#     4  11  25  46  70  99 142 178 232 294 341 411
#     4  12  26  42  67 106 138 183 237 281 349 416
#
# _framework density 25.692544000000002
#
# number of rings (size 3 to 8) (size 9 to 14) (size 15 to 20)
#    0.000    0.857    4.286    4.714    2.000    4.000 
#    0.000    1.429    0.000    0.000    0.000    0.000 
#    0.000    0.000    0.000    0.000    0.000    0.000 
#
# Total GULP energy -173584.487462 kJ/mol
# GULP energy per Si atom -12398.891962 kJ/mol
# Density = 2.563407 g / cm^3
# Si number density = 25.692544 Si / 1000 Ang^3
#
#
#
# Elastic Constant Matrix: (Units=GPa)
#
#
# Indices 1 2 3 4 5 6 
#
# 1 105.8089 -1.6051 8.9532 -10.3352 -1.1566 -18.8691
# 2 -1.6051 66.7310 6.9179 -1.2147 -8.3859 -19.3580
# 3 8.9532 6.9179 147.1473 13.4746 12.5377 8.1917
# 4 -10.3352 -1.2147 13.4746 29.4006 -1.8373 -6.0537
# 5 -1.1566 -8.3859 12.5377 -1.8373 24.5311 5.2713
# 6 -18.8691 -19.3580 8.1917 -6.0537 5.2713 43.9208
#
#
#
# Elastic Compliance Matrix: (Units=1/GPa)
#
#
# Indices 1 2 3 4 5 6 
#
# 1 0.011673 0.002962 -0.002012 0.006776 0.001498 0.007450
# 2 0.002962 0.019204 -0.002701 0.005578 0.006300 0.010253
# 3 -0.002012 -0.002701 0.008183 -0.005649 -0.004811 -0.003783
# 4 0.006776 0.005578 -0.005649 0.041945 0.005781 0.011510
# 5 0.001498 0.006300 -0.004811 0.005781 0.045967 -0.000402
# 6 0.007450 0.010253 -0.003783 0.011510 -0.000402 0.032828
#
#
# Mechanical properties :
#
#
# Convention : Reuss Voigt Hill
#
# Bulk Modulus (GPa) = 28.12368 38.69104 33.40736
# Shear Modulus (GPa) = 28.54578 39.93192 34.23885
#
# Velocity S-wave (km/s) = 3.33686 3.94664 3.65449
# Velocity P-wave (km/s) = 5.08096 5.98831 5.55320
#
# Compressibility (1/GPa) = 0.03555723
#
# Stress axis : x y z
#
# Youngs Moduli (GPa) = 85.66799 52.07123 122.20251
#
# Poissons Ratio (x) = -0.15424 0.24591
# Poissons Ratio (y) = -0.25376 0.33012
# Poissons Ratio (z) = 0.17239 0.14067
#
# Static dielectric constant tensor:
#      x y z
#    x 10.205220 -1.785690 0.918350 
#    y -1.785690 5.386860 -0.180110 
#    z 0.918350 -0.180110 4.728880 
# 
# 
# High freq. dielectric constant tensor:
#      x y z
#    x 2.025600 -0.020130 0.000400 
#    y -0.020130 2.018760 0.012160 
#    z 0.000400 0.012160 2.030940 
# 
# From -- ./inp_files/428003.got.cif
#   From: 2010.06.25/outbox.cif.g09.slc.cpg/sg2_215_cif.got.tgz:428003.got - 2010.06.27 13:26:56.
