data_PCOD8031097
_publ_section_title
;
Structure prediction by ZEFSAII (Michael W. Deem and Ramdas Pophale) SiO2 
 PCOD8031097
Probable space group: P -1
;
_chemical_formula_sum "Si O2"
_cell_formula_units_Z 16
_cell_length_a 11.728464
_cell_length_b 9.253563
_cell_length_c 14.457665
_cell_angle_alpha 70.585730
_cell_angle_beta 148.629168
_cell_angle_gamma 99.577096
_cell_volume 748.025012
_symmetry_space_group_name_H-M "P -1"
_symmetry_group_IT_number 2
_symmetry_cell_setting 'triclinic'
loop_
_space_group_symop_operation_xyz
x,y,z
-x,-y,-z
loop_
_atom_site_type_symbol
_atom_site_label
_atom_site_fract_x
_atom_site_fract_y
_atom_site_fract_z
Si Si1 0.020534 0.815155 0.544235
Si Si2 0.371873 0.707074 0.656051
Si Si3 0.594190 0.260451 0.675092
Si Si4 0.668116 0.928463 0.868336
Si Si5 0.317622 0.628466 0.091882
Si Si6 0.115881 0.706590 0.297774
Si Si7 0.459930 0.106059 0.860607
Si Si8 0.933676 0.628456 0.694910
O O1 0.238653 0.731424 0.654866
O O2 0.796642 0.790715 0.342829
O O3 0.039130 0.732626 0.674587
O O4 0.000000 0.000000 0.500000
O O5 0.559539 0.808648 0.760478
O O6 0.492291 0.524629 0.770214
O O7 0.199718 0.762009 0.440710
O O8 0.684135 0.347953 0.804027
O O9 0.678863 0.326462 0.626452
O O10 0.325267 0.291625 0.481204
O O11 0.694019 0.072126 0.790130
O O12 0.503125 0.993816 0.825058
O O13 0.913815 0.844947 0.093099
O O14 0.375044 0.777218 0.048742
O O15 0.071898 0.616529 0.889276
O O16 0.035929 0.545434 0.290184
O O17 0.500000 0.000000 0.000000
#
# Coordination Sequence:
#
# PCOD8031097 Si02
#       8
#     2   2   2   2   2   2   2   2
#     4  12  23  43  69  99 144 180 219 284 340 411
#     4  12  25  43  69 103 140 176 230 279 345 407
#     4  11  25  49  69 100 142 175 236 286 341 407
#     4  11  24  45  66 104 139 174 231 281 339 413
#     4  11  25  43  69 100 134 184 228 281 343 401
#     4  12  26  44  73 102 136 182 229 292 339 400
#     4  11  22  42  67  96 139 182 225 272 341 409
#     4  12  24  44  70 101 136 184 230 278 343 405
#
# _framework density 21.389659999999999
#
# number of rings (size 3 to 8) (size 9 to 14) (size 15 to 20)
#    0.000    0.500    6.250    2.250    0.000    8.500 
#    0.000    0.000    0.000    0.000    0.000    0.000 
#    0.000    0.000    0.000    0.000    0.000    0.000 
#
# Total GULP energy -198508.667735 kJ/mol
# GULP energy per Si atom -12406.791733 kJ/mol
# Density = 2.134098 g / cm^3
# Si number density = 21.389660 Si / 1000 Ang^3
#
#
#
# Elastic Constant Matrix: (Units=GPa)
#
#
# Indices 1 2 3 4 5 6 
#
# 1 95.2111 28.0652 16.0123 3.4909 -1.4636 4.8411
# 2 28.0652 107.4007 25.2053 1.7093 -2.7017 -3.0836
# 3 16.0123 25.2053 135.0094 15.2750 4.2195 -8.3441
# 4 3.4909 1.7093 15.2750 43.3277 -5.9726 -2.0983
# 5 -1.4636 -2.7017 4.2195 -5.9726 23.1798 -5.2702
# 6 4.8411 -3.0836 -8.3441 -2.0983 -5.2702 21.7941
#
#
#
# Elastic Compliance Matrix: (Units=1/GPa)
#
#
# Indices 1 2 3 4 5 6 
#
# 1 0.011734 -0.002940 -0.000969 -0.000719 -0.000421 -0.003564
# 2 -0.002940 0.010564 -0.001646 0.000780 0.002019 0.002081
# 3 -0.000969 -0.001646 0.008377 -0.002967 -0.001992 0.002422
# 4 -0.000719 0.000780 -0.002967 0.025416 0.007930 0.003498
# 5 -0.000421 0.002019 -0.001992 0.007930 0.048509 0.012111
# 6 -0.003564 0.002081 0.002422 0.003498 0.012111 0.051163
#
#
# Mechanical properties :
#
#
# Convention : Reuss Voigt Hill
#
# Bulk Modulus (GPa) = 51.11391 52.90965 52.01178
# Shear Modulus (GPa) = 28.83618 35.54956 32.19287
#
# Velocity S-wave (km/s) = 3.67568 4.08118 3.88373
# Velocity P-wave (km/s) = 6.47785 6.85550 6.66935
#
# Compressibility (1/GPa) = 0.01956415
#
# Stress axis : x y z
#
# Youngs Moduli (GPa) = 85.22479 94.66345 119.37784
#
# Poissons Ratio (x) = 0.27834 0.11562
# Poissons Ratio (y) = 0.25059 0.19651
# Poissons Ratio (z) = 0.08254 0.15583
#
# Static dielectric constant tensor:
#      x y z
#    x 3.776480 0.037460 0.001130 
#    y 0.037460 3.977180 0.052870 
#    z 0.001130 0.052870 3.724520 
# 
# 
# High freq. dielectric constant tensor:
#      x y z
#    x 1.829100 0.006670 0.000060 
#    y 0.006670 1.850990 -0.001460 
#    z 0.000060 -0.001460 1.855020 
# 
# From -- ./inp_files/188154.got.cif
#   From: 2010.06.25/outbox.cif.g09.slc.cpg/sg2_95_cif.got.tgz:188154.got - 2010.06.27 13:26:56.
