data_PCOD8031591
_publ_section_title
;
Structure prediction by ZEFSAII (Michael W. Deem and Ramdas Pophale) SiO2 
 PCOD8031591
Probable space group: P -1
;
_chemical_formula_sum "Si O2"
_cell_formula_units_Z 14
_cell_length_a 20.646451
_cell_length_b 17.268602
_cell_length_c 8.458563
_cell_angle_alpha 131.449673
_cell_angle_beta 141.803725
_cell_angle_gamma 20.753051
_cell_volume 623.092865
_symmetry_space_group_name_H-M "P -1"
_symmetry_group_IT_number 2
_symmetry_cell_setting 'triclinic'
loop_
_space_group_symop_operation_xyz
x,y,z
-x,-y,-z
loop_
_atom_site_type_symbol
_atom_site_label
_atom_site_fract_x
_atom_site_fract_y
_atom_site_fract_z
Si Si1 0.120477 0.044671 0.232045
Si Si2 0.989688 0.319356 0.951484
Si Si3 0.421231 0.323884 0.565738
Si Si4 0.641545 0.177599 0.088999
Si Si5 0.758499 0.221426 0.620436
Si Si6 0.265497 0.269250 0.385255
Si Si7 0.191234 0.502878 0.801221
O O1 0.958645 0.282322 0.302521
O O2 0.346184 0.897496 0.389008
O O3 0.205382 0.894837 0.330644
O O4 0.963288 0.124954 0.904100
O O5 0.781329 0.450225 0.628509
O O6 0.909674 0.410198 0.099319
O O7 0.205556 0.050441 0.994802
O O8 0.065881 0.362384 0.080574
O O9 0.322350 0.300899 0.401073
O O10 0.477459 0.352410 0.858883
O O11 0.790949 0.139317 0.398829
O O12 0.465890 0.294412 0.049167
O O13 0.500000 0.500000 0.500000
O O14 0.174887 0.406272 0.555843
O O15 0.500000 0.000000 0.500000
#
# Coordination Sequence:
#
# PCOD8031591 Si02
#       7
#     2   2   2   2   2   2   2
#     4  11  24  46  70 106 138 178 237 284 351 419
#     4  12  24  45  71 102 143 188 231 282 341 411
#     4  11  25  42  68 102 142 181 231 283 345 407
#     4  11  24  44  70 100 143 179 234 286 342 406
#     4  11  25  44  75 101 137 184 230 288 354 413
#     4  11  22  45  71 100 143 182 233 283 339 407
#     4  11  22  44  73  98 145 180 226 291 340 401
#
# _framework density 22.46856
#
# number of rings (size 3 to 8) (size 9 to 14) (size 15 to 20)
#    0.000    0.857    5.714    1.714    4.000    0.571 
#    0.000    2.857    0.000    0.000    0.000    0.000 
#    0.000    0.000    0.000    0.000    0.000    0.000 
#
# Total GULP energy -173501.192236 kJ/mol
# GULP energy per Si atom -12392.942303 kJ/mol
# Density = 2.241742 g / cm^3
# Si number density = 22.468560 Si / 1000 Ang^3
#
#
#
# Elastic Constant Matrix: (Units=GPa)
#
#
# Indices 1 2 3 4 5 6 
#
# 1 77.0074 48.6348 23.9810 -9.1361 -2.1075 -9.4703
# 2 48.6348 125.1076 56.5958 3.2760 -4.3948 -10.1923
# 3 23.9810 56.5958 144.7878 -0.8255 -15.3563 1.5311
# 4 -9.1361 3.2760 -0.8255 41.0440 -0.4011 1.7755
# 5 -2.1075 -4.3948 -15.3563 -0.4011 22.2097 -8.6252
# 6 -9.4703 -10.1923 1.5311 1.7755 -8.6252 35.4364
#
#
#
# Elastic Compliance Matrix: (Units=1/GPa)
#
#
# Indices 1 2 3 4 5 6 
#
# 1 0.018328 -0.006845 -0.000205 0.004503 0.001521 0.003083
# 2 -0.006845 0.012634 -0.003847 -0.002701 -0.000045 0.002095
# 3 -0.000205 -0.003847 0.009019 0.000507 0.005358 -0.000272
# 4 0.004503 -0.002701 0.000507 0.025630 0.000403 -0.000781
# 5 0.001521 -0.000045 0.005358 0.000403 0.054036 0.013294
# 6 0.003083 0.002095 -0.000272 -0.000781 0.013294 0.032933
#
#
# Mechanical properties :
#
#
# Convention : Reuss Voigt Hill
#
# Bulk Modulus (GPa) = 54.99003 67.25843 61.12423
# Shear Modulus (GPa) = 27.71047 34.25075 30.98061
#
# Velocity S-wave (km/s) = 3.51565 3.90857 3.71731
# Velocity P-wave (km/s) = 6.40367 7.09709 6.75928
#
# Compressibility (1/GPa) = 0.01818511
#
# Stress axis : x y z
#
# Youngs Moduli (GPa) = 54.56138 79.14916 110.88229
#
# Poissons Ratio (x) = 0.54180 0.02279
# Poissons Ratio (y) = 0.37349 0.42658
# Poissons Ratio (z) = 0.01121 0.30450
#
# Static dielectric constant tensor:
#      x y z
#    x 4.080870 0.095800 0.099560 
#    y 0.095800 4.145540 -0.071450 
#    z 0.099560 -0.071450 4.380160 
# 
# 
# High freq. dielectric constant tensor:
#      x y z
#    x 1.875410 -0.006670 0.003320 
#    y -0.006670 1.890990 -0.011560 
#    z 0.003320 -0.011560 1.896530 
# 
# From -- ./inp_files/348618.got.cif
#   From: 2010.06.25/outbox.cif.g09.slc.cpg/sg2_175_cif.got.tgz:348618.got - 2010.06.27 13:26:56.
