data_PCOD8031375
_publ_section_title
;
Structure prediction by ZEFSAII (Michael W. Deem and Ramdas Pophale) SiO2 
 PCOD8031375
Probable space group: P -1
;
_chemical_formula_sum "Si O2"
_cell_formula_units_Z 16
_cell_length_a 9.415234
_cell_length_b 14.203369
_cell_length_c 9.324938
_cell_angle_alpha 75.320789
_cell_angle_beta 61.165356
_cell_angle_gamma 39.674801
_cell_volume 681.772437
_symmetry_space_group_name_H-M "P -1"
_symmetry_group_IT_number 2
_symmetry_cell_setting 'triclinic'
loop_
_space_group_symop_operation_xyz
x,y,z
-x,-y,-z
loop_
_atom_site_type_symbol
_atom_site_label
_atom_site_fract_x
_atom_site_fract_y
_atom_site_fract_z
Si Si1 0.605225 0.818740 0.949100
Si Si2 0.446094 0.065451 0.774089
Si Si3 0.215773 0.612231 0.435562
Si Si4 0.995304 0.650674 0.244305
Si Si5 0.133229 0.493809 0.754756
Si Si6 0.850773 0.104162 0.894248
Si Si7 0.916454 0.944744 0.476275
Si Si8 0.423027 0.437924 0.896404
O O1 0.834198 0.642731 0.867827
O O2 0.587113 0.898711 0.789637
O O3 0.666307 0.848445 0.051866
O O4 0.332207 0.896590 0.072566
O O5 0.199035 0.170614 0.754445
O O6 0.630993 0.056526 0.612831
O O7 0.253416 0.523739 0.586338
O O8 0.480929 0.516426 0.266422
O O9 0.054414 0.625170 0.393366
O O10 0.090061 0.770644 0.489364
O O11 0.844348 0.621325 0.286819
O O12 0.236281 0.560645 0.062397
O O13 0.283487 0.425614 0.859712
O O14 0.660564 0.283600 0.927391
O O15 0.069260 0.030889 0.705586
O O16 0.000000 0.000000 0.000000
O O17 0.000000 0.000000 0.500000
#
# Coordination Sequence:
#
# PCOD8031375 Si02
#       8
#     2   2   2   2   2   2   2   2
#     4  11  22  43  72 104 137 186 242 283 342 424
#     4  11  24  42  70 104 139 186 240 287 343 419
#     4  11  27  45  67 108 145 179 233 294 357 411
#     4  12  25  44  72 104 145 183 230 297 353 407
#     4  12  23  47  76 103 140 190 238 285 342 435
#     4  11  25  44  71 103 138 180 234 291 352 410
#     4  11  24  46  71  98 143 187 234 286 349 421
#     4  11  24  47  73 100 140 191 233 283 354 423
#
# _framework density 23.468240999999999
#
# number of rings (size 3 to 8) (size 9 to 14) (size 15 to 20)
#    0.000    0.750    5.000    2.250    5.250    1.500 
#    2.250    0.000    0.000    0.000    0.000    0.000 
#    0.000    0.000    0.000    0.000    0.000    0.000 
#
# Total GULP energy -198351.254304 kJ/mol
# GULP energy per Si atom -12396.953394 kJ/mol
# Density = 2.341483 g / cm^3
# Si number density = 23.468241 Si / 1000 Ang^3
#
#
#
# Elastic Constant Matrix: (Units=GPa)
#
#
# Indices 1 2 3 4 5 6 
#
# 1 55.1506 26.3170 14.7506 -0.5097 0.2838 0.3761
# 2 26.3170 104.8931 55.2602 -8.6657 -0.7886 -17.9768
# 3 14.7506 55.2602 119.7670 -11.1745 -19.4484 -3.2325
# 4 -0.5097 -8.6657 -11.1745 35.6354 -1.2478 1.5325
# 5 0.2838 -0.7886 -19.4484 -1.2478 42.0316 -1.9017
# 6 0.3761 -17.9768 -3.2325 1.5325 -1.9017 36.9882
#
#
#
# Elastic Compliance Matrix: (Units=1/GPa)
#
#
# Indices 1 2 3 4 5 6 
#
# 1 0.020946 -0.005768 -0.000179 -0.001047 -0.000500 -0.003014
# 2 -0.005768 0.015761 -0.006641 0.001285 -0.002385 0.006962
# 3 -0.000179 -0.006641 0.012547 0.002599 0.005671 -0.001945
# 4 -0.001047 0.001285 0.002599 0.029258 0.002091 -0.000243
# 5 -0.000500 -0.002385 0.005671 0.002091 0.026464 0.000615
# 6 -0.003014 0.006962 -0.001945 -0.000243 0.000615 0.030322
#
#
# Mechanical properties :
#
#
# Convention : Reuss Voigt Hill
#
# Bulk Modulus (GPa) = 41.53176 52.49625 47.01400
# Shear Modulus (GPa) = 29.67383 35.16323 32.41853
#
# Velocity S-wave (km/s) = 3.55973 3.87503 3.72072
# Velocity P-wave (km/s) = 5.88481 6.51450 6.20765
#
# Compressibility (1/GPa) = 0.02407796
#
# Stress axis : x y z
#
# Youngs Moduli (GPa) = 47.74241 63.44857 79.70244
#
# Poissons Ratio (x) = 0.36596 0.01423
# Poissons Ratio (y) = 0.27537 0.52932
# Poissons Ratio (z) = 0.00853 0.42137
#
# Static dielectric constant tensor:
#      x y z
#    x 4.198410 -0.032050 -0.257750 
#    y -0.032050 4.250950 -0.037020 
#    z -0.257750 -0.037020 4.523270 
# 
# 
# High freq. dielectric constant tensor:
#      x y z
#    x 1.929010 -0.002320 -0.016150 
#    y -0.002320 1.924210 -0.007150 
#    z -0.016150 -0.007150 1.938400 
# 
# From -- ./inp_files/206807.got.cif
#   From: 2010.06.25/outbox.cif.g09.slc.cpg/sg2_104_cif.got.tgz:206807.got - 2010.06.27 13:26:56.
