data_PCOD8031819
_publ_section_title
;
Structure prediction by ZEFSAII (Michael W. Deem and Ramdas Pophale) SiO2 
 PCOD8031819
Probable space group: P -1
;
_chemical_formula_sum "Si O2"
_cell_formula_units_Z 16
_cell_length_a 11.199927
_cell_length_b 16.890491
_cell_length_c 8.854133
_cell_angle_alpha 126.002356
_cell_angle_beta 96.236425
_cell_angle_gamma 41.191696
_cell_volume 695.662951
_symmetry_space_group_name_H-M "P -1"
_symmetry_group_IT_number 2
_symmetry_cell_setting 'triclinic'
loop_
_space_group_symop_operation_xyz
x,y,z
-x,-y,-z
loop_
_atom_site_type_symbol
_atom_site_label
_atom_site_fract_x
_atom_site_fract_y
_atom_site_fract_z
Si Si1 0.313587 0.253504 0.412713
Si Si2 0.484464 0.698531 0.389723
Si Si3 0.393216 0.083206 0.742788
Si Si4 0.072419 0.706364 0.119641
Si Si5 0.097519 0.881309 0.731398
Si Si6 0.772075 0.622747 0.789711
Si Si7 0.729036 0.440684 0.694767
Si Si8 0.250135 0.786376 0.160828
O O1 0.460593 0.225922 0.503486
O O2 0.342482 0.256451 0.243673
O O3 0.046051 0.444545 0.632982
O O4 0.421503 0.074320 0.276986
O O5 0.337052 0.766640 0.590213
O O6 0.338776 0.782329 0.313178
O O7 0.729450 0.472054 0.164531
O O8 0.169160 0.170298 0.828650
O O9 0.500000 0.000000 0.500000
O O10 0.329829 0.241385 0.935432
O O11 0.116455 0.647500 0.234202
O O12 0.077255 0.820220 0.226536
O O13 0.154626 0.725400 0.578917
O O14 0.895908 0.033225 0.750430
O O15 0.000000 0.000000 0.000000
O O16 0.707626 0.554191 0.722076
O O17 0.470027 0.589018 0.877299
#
# Coordination Sequence:
#
# PCOD8031819 Si02
#       8
#     2   2   2   2   2   2   2   2
#     4  11  26  48  75 101 142 198 242 292 364 434
#     4  11  22  47  75 100 141 195 240 291 363 433
#     4  12  27  45  78 111 140 185 250 303 357 421
#     4  11  22  46  77 103 144 190 244 297 357 425
#     4  12  27  44  71 112 148 184 238 296 366 431
#     4  11  27  51  70 103 151 191 240 299 362 429
#     4  11  25  45  73 104 147 189 237 298 359 426
#     4  11  24  45  75 103 145 191 243 296 357 432
#
# _framework density 22.999641
#
# number of rings (size 3 to 8) (size 9 to 14) (size 15 to 20)
#    0.000    0.750    3.750    3.000    7.000    3.500 
#    4.500    0.000    0.000    0.000    0.000    0.000 
#    0.000    0.000    0.000    0.000    0.000    0.000 
#
# Total GULP energy -198446.510912 kJ/mol
# GULP energy per Si atom -12402.906932 kJ/mol
# Density = 2.294729 g / cm^3
# Si number density = 22.999641 Si / 1000 Ang^3
#
#
#
# Elastic Constant Matrix: (Units=GPa)
#
#
# Indices 1 2 3 4 5 6 
#
# 1 111.3549 47.9643 59.0955 -2.6685 10.1074 4.8009
# 2 47.9643 115.4178 53.9186 14.6860 -4.6728 14.0936
# 3 59.0955 53.9186 170.9332 -5.4767 -2.7276 1.7602
# 4 -2.6685 14.6860 -5.4767 24.8859 8.2868 -1.0597
# 5 10.1074 -4.6728 -2.7276 8.2868 33.0896 -1.6518
# 6 4.8009 14.0936 1.7602 -1.0597 -1.6518 33.3962
#
#
#
# Elastic Compliance Matrix: (Units=1/GPa)
#
#
# Indices 1 2 3 4 5 6 
#
# 1 0.013591 -0.005399 -0.002906 0.006251 -0.006702 0.000345
# 2 -0.005399 0.014811 -0.003044 -0.012319 0.006306 -0.005393
# 3 -0.002906 -0.003044 0.007908 0.003155 0.000390 0.001405
# 4 0.006251 -0.012319 0.003155 0.054633 -0.016820 0.005036
# 5 -0.006702 0.006306 0.000390 -0.016820 0.037383 -0.000403
# 6 0.000345 -0.005393 0.001405 0.005036 -0.000403 0.032236
#
#
# Mechanical properties :
#
#
# Convention : Reuss Voigt Hill
#
# Bulk Modulus (GPa) = 73.46370 79.96253 76.71312
# Shear Modulus (GPa) = 26.62438 34.05618 30.34028
#
# Velocity S-wave (km/s) = 3.40604 3.85220 3.63597
# Velocity P-wave (km/s) = 6.89048 7.39109 7.14517
#
# Compressibility (1/GPa) = 0.01361216
#
# Stress axis : x y z
#
# Youngs Moduli (GPa) = 73.57601 67.51585 126.45640
#
# Poissons Ratio (x) = 0.36455 0.36747
# Poissons Ratio (y) = 0.39727 0.38492
# Poissons Ratio (z) = 0.21380 0.20551
#
# Static dielectric constant tensor:
#      x y z
#    x 4.164750 -0.033300 -0.117440 
#    y -0.033300 4.075760 0.184490 
#    z -0.117440 0.184490 4.323600 
# 
# 
# High freq. dielectric constant tensor:
#      x y z
#    x 1.906300 -0.002990 -0.000530 
#    y -0.002990 1.906550 0.015530 
#    z -0.000530 0.015530 1.922910 
# 
# From -- ./inp_files/279886.got.cif
#   From: 2010.06.25/outbox.cif.g09.slc.cpg/sg2_140_cif.got.tgz:279886.got - 2010.06.27 13:26:56.
