data_PCOD8031166
_publ_section_title
;
Structure prediction by ZEFSAII (Michael W. Deem and Ramdas Pophale) SiO2 
 PCOD8031166
Probable space group: P -1
;
_chemical_formula_sum "Si O2"
_cell_formula_units_Z 14
_cell_length_a 8.228608
_cell_length_b 9.427086
_cell_length_c 19.661654
_cell_angle_alpha 28.614105
_cell_angle_beta 67.367196
_cell_angle_gamma 59.193684
_cell_volume 619.540125
_symmetry_space_group_name_H-M "P -1"
_symmetry_group_IT_number 2
_symmetry_cell_setting 'triclinic'
loop_
_space_group_symop_operation_xyz
x,y,z
-x,-y,-z
loop_
_atom_site_type_symbol
_atom_site_label
_atom_site_fract_x
_atom_site_fract_y
_atom_site_fract_z
Si Si1 0.832955 0.300991 0.168743
Si Si2 0.201906 0.325095 0.575362
Si Si3 0.802477 0.157149 0.005780
Si Si4 0.522761 0.329348 0.859678
Si Si5 0.466437 0.322242 0.411097
Si Si6 0.645964 0.698487 0.298834
Si Si7 0.234858 0.272866 0.126375
O O1 0.695066 0.400571 0.215275
O O2 0.055462 0.170338 0.210491
O O3 0.785464 0.024317 0.256287
O O4 0.771445 0.612255 0.998832
O O5 0.346028 0.331264 0.492198
O O6 0.248071 0.465454 0.578919
O O7 0.000000 0.500000 0.500000
O O8 0.765388 0.866667 0.169009
O O9 0.637762 0.354128 0.896716
O O10 0.798356 0.422162 0.949149
O O11 0.000000 0.000000 0.000000
O O12 0.628660 0.389004 0.750277
O O13 0.500000 0.000000 0.000000
O O14 0.644796 0.397247 0.380695
O O15 0.500000 0.000000 0.500000
O O16 0.430674 0.964739 0.237641
#
# Coordination Sequence:
#
# PCOD8031166 Si02
#       7
#     2   2   2   2   2   2   2
#     4  11  22  42  70 106 139 184 243 292 355 429
#     4  12  27  47  70  99 146 197 243 286 353 443
#     4  12  25  39  71 108 143 182 236 301 360 420
#     4  12  23  44  71 103 145 179 235 305 365 418
#     4  12  27  46  72 102 145 190 235 296 365 427
#     4  12  25  49  72 103 142 196 245 293 359 434
#     4  11  23  42  75 105 141 186 241 301 358 428
#
# _framework density 22.597407
#
# number of rings (size 3 to 8) (size 9 to 14) (size 15 to 20)
#    0.000    0.286    5.714    3.429    2.000    2.286 
#    0.000    0.714    0.000    0.000    0.000    0.000 
#    0.000    0.000    0.000    0.000    0.000    0.000 
#
# Total GULP energy -173500.314399 kJ/mol
# GULP energy per Si atom -12392.879600 kJ/mol
# Density = 2.254597 g / cm^3
# Si number density = 22.597407 Si / 1000 Ang^3
#
#
#
# Elastic Constant Matrix: (Units=GPa)
#
#
# Indices 1 2 3 4 5 6 
#
# 1 123.8632 62.6936 47.1392 13.6103 -7.2700 9.1437
# 2 62.6936 105.9505 38.1714 9.3613 -11.3577 17.7978
# 3 47.1392 38.1714 106.9586 21.4543 -11.4139 13.6580
# 4 13.6103 9.3613 21.4543 46.6764 6.9407 -2.8508
# 5 -7.2700 -11.3577 -11.4139 6.9407 48.6215 -3.7475
# 6 9.1437 17.7978 13.6580 -2.8508 -3.7475 52.0140
#
#
#
# Elastic Compliance Matrix: (Units=1/GPa)
#
#
# Indices 1 2 3 4 5 6 
#
# 1 0.012522 -0.006324 -0.003209 -0.000835 -0.000182 0.000747
# 2 -0.006324 0.014614 -0.001622 -0.000836 0.001947 -0.003368
# 3 -0.003209 -0.001622 0.012999 -0.005270 0.002761 -0.002384
# 4 -0.000835 -0.000836 -0.005270 0.025164 -0.004931 0.002841
# 5 -0.000182 0.001947 0.002761 -0.004931 0.022345 -0.000020
# 6 0.000747 -0.003368 -0.002384 0.002841 -0.000020 0.021027
#
#
# Mechanical properties :
#
#
# Convention : Reuss Voigt Hill
#
# Bulk Modulus (GPa) = 56.10737 70.30894 63.20815
# Shear Modulus (GPa) = 36.51696 42.04692 39.28194
#
# Velocity S-wave (km/s) = 4.02429 4.31826 4.17386
# Velocity P-wave (km/s) = 6.81735 7.48628 7.15963
#
# Compressibility (1/GPa) = 0.01782297
#
# Stress axis : x y z
#
# Youngs Moduli (GPa) = 79.86111 68.42944 76.93086
#
# Poissons Ratio (x) = 0.43278 0.24685
# Poissons Ratio (y) = 0.50508 0.12481
# Poissons Ratio (z) = 0.25625 0.11102
#
# Static dielectric constant tensor:
#      x y z
#    x 3.340350 -0.012100 -1.413180 
#    y -0.012100 5.042630 -0.077680 
#    z -1.413180 -0.077680 3.041060 
# 
# 
# High freq. dielectric constant tensor:
#      x y z
#    x 1.900220 0.014300 -0.022340 
#    y 0.014300 1.894280 0.015470 
#    z -0.022340 0.015470 1.894100 
# 
# From -- ./inp_files/151698.got.cif
#   From: 2010.06.25/outbox.cif.g09.slc.cpg/sg2_76_cif.got.tgz:151698.got - 2010.06.27 13:26:56.
