data_PCOD8031232
_publ_section_title
;
Structure prediction by ZEFSAII (Michael W. Deem and Ramdas Pophale) SiO2 
 PCOD8031232
Probable space group: P -1
;
_chemical_formula_sum "Si O2"
_cell_formula_units_Z 14
_cell_length_a 16.185286
_cell_length_b 6.275670
_cell_length_c 20.132509
_cell_angle_alpha 123.446711
_cell_angle_beta 153.487878
_cell_angle_gamma 46.102744
_cell_volume 642.327867
_symmetry_space_group_name_H-M "P -1"
_symmetry_group_IT_number 2
_symmetry_cell_setting 'triclinic'
loop_
_space_group_symop_operation_xyz
x,y,z
-x,-y,-z
loop_
_atom_site_type_symbol
_atom_site_label
_atom_site_fract_x
_atom_site_fract_y
_atom_site_fract_z
Si Si1 0.195457 0.456112 0.180023
Si Si2 0.929466 0.349560 0.732707
Si Si3 0.865310 0.224508 0.381400
Si Si4 0.482904 0.722299 0.411727
Si Si5 0.582282 0.802534 0.357910
Si Si6 0.744873 0.794891 0.162375
Si Si7 0.018110 0.738918 0.668028
O O1 0.114763 0.468412 0.199501
O O2 0.271041 0.700900 0.274083
O O3 0.405908 0.128794 0.256400
O O4 0.000000 0.500000 0.000000
O O5 0.704784 0.428849 0.547979
O O6 0.085122 0.414201 0.810102
O O7 0.055595 0.987733 0.770580
O O8 0.663406 0.544287 0.316412
O O9 0.997327 0.277217 0.426829
O O10 0.777310 0.062008 0.247812
O O11 0.000000 0.000000 0.500000
O O12 0.471573 0.728363 0.325210
O O13 0.500000 0.000000 0.500000
O O14 0.787785 0.796082 0.537639
O O15 0.783010 0.583583 0.216731
O O16 0.500000 0.000000 0.000000
#
# Coordination Sequence:
#
# PCOD8031232 Si02
#       7
#     2   2   2   2   2   2   2
#     4  12  29  44  67 109 145 182 229 304 369 410
#     4  11  23  45  69 100 132 186 244 278 350 443
#     4  11  24  41  68 106 134 181 240 287 350 429
#     4  12  23  44  75  99 133 189 247 278 339 433
#     4  12  23  41  71 100 137 184 232 293 352 427
#     4  11  26  43  68 102 136 182 236 299 352 414
#     4  11  22  42  73  95 137 186 238 290 349 421
#
# _framework density 21.795722000000001
#
# number of rings (size 3 to 8) (size 9 to 14) (size 15 to 20)
#    0.000    0.571    5.714    2.571    0.000    6.286 
#    0.000    0.000    0.000    0.000    0.000    0.000 
#    0.000    0.000    0.000    0.000    0.000    0.000 
#
# Total GULP energy -173452.804643 kJ/mol
# GULP energy per Si atom -12389.486046 kJ/mol
# Density = 2.174611 g / cm^3
# Si number density = 21.795722 Si / 1000 Ang^3
#
#
#
# Elastic Constant Matrix: (Units=GPa)
#
#
# Indices 1 2 3 4 5 6 
#
# 1 127.4683 36.4081 41.6984 -3.1984 -3.2833 -4.7581
# 2 36.4081 114.6670 23.0518 -15.1319 0.8476 -12.0592
# 3 41.6984 23.0518 126.2338 -23.1595 9.1853 6.3752
# 4 -3.1984 -15.1319 -23.1595 32.4057 3.2247 -4.8764
# 5 -3.2833 0.8476 9.1853 3.2247 20.8168 -0.3491
# 6 -4.7581 -12.0592 6.3752 -4.8764 -0.3491 36.9980
#
#
#
# Elastic Compliance Matrix: (Units=1/GPa)
#
#
# Indices 1 2 3 4 5 6 
#
# 1 0.009876 -0.002792 -0.003650 -0.003225 0.003792 0.000600
# 2 -0.002792 0.010765 -0.000133 0.005397 -0.001591 0.003869
# 3 -0.003650 -0.000133 0.011192 0.008033 -0.006777 -0.001446
# 4 -0.003225 0.005397 0.008033 0.040629 -0.010479 0.005216
# 5 0.003792 -0.001591 -0.006777 -0.010479 0.053319 0.000259
# 6 0.000600 0.003869 -0.001446 0.005216 0.000259 0.029306
#
#
# Mechanical properties :
#
#
# Convention : Reuss Voigt Hill
#
# Bulk Modulus (GPa) = 53.52850 63.40953 58.46901
# Shear Modulus (GPa) = 28.65908 35.85816 32.25862
#
# Velocity S-wave (km/s) = 3.63008 4.06050 3.85131
# Velocity P-wave (km/s) = 6.49480 7.15118 6.83088
#
# Compressibility (1/GPa) = 0.01868164
#
# Stress axis : x y z
#
# Youngs Moduli (GPa) = 101.25685 92.89304 89.35144
#
# Poissons Ratio (x) = 0.25940 0.32615
# Poissons Ratio (y) = 0.28275 0.01188
# Poissons Ratio (z) = 0.36960 0.01235
#
# Static dielectric constant tensor:
#      x y z
#    x 3.742090 0.172860 -0.035190 
#    y 0.172860 4.001350 -0.106250 
#    z -0.035190 -0.106250 3.569410 
# 
# 
# High freq. dielectric constant tensor:
#      x y z
#    x 1.870540 0.002250 -0.001680 
#    y 0.002250 1.870080 -0.002420 
#    z -0.001680 -0.002420 1.826200 
# 
# From -- ./inp_files/49297.got.cif
#   From: 2010.06.25/outbox.cif.g09.slc.cpg/sg2_25_cif.got.tgz:49297.got - 2010.06.27 13:26:56.
