data_PCOD8031139
_publ_section_title
;
Structure prediction by ZEFSAII (Michael W. Deem and Ramdas Pophale) SiO2 
 PCOD8031139
Probable space group: P -1
;
_chemical_formula_sum "Si O2"
_cell_formula_units_Z 14
_cell_length_a 8.430640
_cell_length_b 12.187250
_cell_length_c 12.476434
_cell_angle_alpha 38.134901
_cell_angle_beta 128.688037
_cell_angle_gamma 116.841086
_cell_volume 615.743216
_symmetry_space_group_name_H-M "P -1"
_symmetry_group_IT_number 2
_symmetry_cell_setting 'triclinic'
loop_
_space_group_symop_operation_xyz
x,y,z
-x,-y,-z
loop_
_atom_site_type_symbol
_atom_site_label
_atom_site_fract_x
_atom_site_fract_y
_atom_site_fract_z
Si Si1 0.048012 0.583315 0.836972
Si Si2 0.305308 0.889129 0.723089
Si Si3 0.503724 0.205011 0.464824
Si Si4 0.077462 0.002577 0.151501
Si Si5 0.637763 0.490092 0.672170
Si Si6 0.302861 0.923071 0.934233
Si Si7 0.653842 0.706960 0.896477
O O1 0.093981 0.792141 0.697377
O O2 0.858444 0.566446 0.689806
O O3 0.253666 0.491650 0.938473
O O4 0.000000 0.500000 0.000000
O O5 0.297790 0.974918 0.769645
O O6 0.498571 0.738747 0.906404
O O7 0.339628 0.060782 0.532326
O O8 0.734995 0.143951 0.640618
O O9 0.464955 0.392850 0.364701
O O10 0.483560 0.223400 0.315559
O O11 0.146622 0.192164 0.071603
O O12 0.888321 0.968828 0.172950
O O13 0.000000 0.000000 0.000000
O O14 0.500000 0.500000 0.500000
O O15 0.682870 0.288395 0.882831
O O16 0.500000 0.000000 0.000000
#
# Coordination Sequence:
#
# PCOD8031139 Si02
#       7
#     2   2   2   2   2   2   2
#     4  12  22  44  71  97 138 184 226 285 346 415
#     4  11  23  41  71 102 131 182 232 279 342 412
#     4  11  25  45  70 102 140 176 229 293 338 406
#     4  11  22  42  69  96 136 182 221 277 346 400
#     4  12  25  46  67 100 140 176 228 289 345 397
#     4  12  24  45  71 100 138 183 234 276 342 421
#     4  11  22  45  68 100 138 179 232 286 339 409
#
# _framework density 22.736749
#
# number of rings (size 3 to 8) (size 9 to 14) (size 15 to 20)
#    0.000    0.571    4.286    5.571    0.000    0.571 
#    7.714    0.714    0.000    0.000    0.000    0.000 
#    0.000    0.000    0.000    0.000    0.000    0.000 
#
# Total GULP energy -173482.983994 kJ/mol
# GULP energy per Si atom -12391.641714 kJ/mol
# Density = 2.268500 g / cm^3
# Si number density = 22.736749 Si / 1000 Ang^3
#
#
#
# Elastic Constant Matrix: (Units=GPa)
#
#
# Indices 1 2 3 4 5 6 
#
# 1 129.3590 35.3992 20.2631 9.9064 10.0227 -4.4750
# 2 35.3992 133.1816 27.3915 23.1650 6.9190 10.8914
# 3 20.2631 27.3915 70.9620 19.4471 13.1637 1.2693
# 4 9.9064 23.1650 19.4471 46.4263 -2.6295 3.2899
# 5 10.0227 6.9190 13.1637 -2.6295 27.6806 5.2411
# 6 -4.4750 10.8914 1.2693 3.2899 5.2411 50.2519
#
#
#
# Elastic Compliance Matrix: (Units=1/GPa)
#
#
# Indices 1 2 3 4 5 6 
#
# 1 0.008743 -0.001975 -0.001117 -0.000662 -0.002495 0.001538
# 2 -0.001975 0.009181 -0.001942 -0.003251 -0.000617 -0.001839
# 3 -0.001117 -0.001942 0.018793 -0.007262 -0.008975 0.001258
# 4 -0.000662 -0.003251 -0.007262 0.026884 0.007382 -0.001701
# 5 -0.002495 -0.000617 -0.008975 0.007382 0.043069 -0.004837
# 6 0.001538 -0.001839 0.001258 -0.001701 -0.004837 0.021019
#
#
# Mechanical properties :
#
#
# Convention : Reuss Voigt Hill
#
# Bulk Modulus (GPa) = 37.52482 55.51224 46.51853
# Shear Modulus (GPa) = 34.09689 41.56834 37.83262
#
# Velocity S-wave (km/s) = 3.87672 4.28044 4.08357
# Velocity P-wave (km/s) = 6.04801 6.99269 6.53744
#
# Compressibility (1/GPa) = 0.02664903
#
# Stress axis : x y z
#
# Youngs Moduli (GPa) = 114.37471 108.92379 53.21032
#
# Poissons Ratio (x) = 0.21513 0.05946
# Poissons Ratio (y) = 0.22590 0.10332
# Poissons Ratio (z) = 0.12780 0.21149
#
# Static dielectric constant tensor:
#      x y z
#    x 4.270530 0.029090 0.146590 
#    y 0.029090 4.032400 0.039490 
#    z 0.146590 0.039490 3.930540 
# 
# 
# High freq. dielectric constant tensor:
#      x y z
#    x 1.910860 -0.005040 0.018470 
#    y -0.005040 1.922710 0.000440 
#    z 0.018470 0.000440 1.876400 
# 
# From -- ./inp_files/189857.got.cif
#   From: 2010.06.25/outbox.cif.g09.slc.cpg/sg2_95_cif.got.tgz:189857.got - 2010.06.27 13:26:56.
