data_PCOD8031423
_publ_section_title
;
Structure prediction by ZEFSAII (Michael W. Deem and Ramdas Pophale) SiO2 
 PCOD8031423
Probable space group: P -1
;
_chemical_formula_sum "Si O2"
_cell_formula_units_Z 16
_cell_length_a 8.921328
_cell_length_b 11.666027
_cell_length_c 9.353429
_cell_angle_alpha 91.451459
_cell_angle_beta 46.625090
_cell_angle_gamma 99.459859
_cell_volume 692.747756
_symmetry_space_group_name_H-M "P -1"
_symmetry_group_IT_number 2
_symmetry_cell_setting 'triclinic'
loop_
_space_group_symop_operation_xyz
x,y,z
-x,-y,-z
loop_
_atom_site_type_symbol
_atom_site_label
_atom_site_fract_x
_atom_site_fract_y
_atom_site_fract_z
Si Si1 0.423028 0.723788 0.081861
Si Si2 0.443464 0.530174 0.697450
Si Si3 0.826302 0.960309 0.425820
Si Si4 0.121308 0.900012 0.865106
Si Si5 0.791741 0.524879 0.705896
Si Si6 0.465620 0.781858 0.741669
Si Si7 0.796281 0.675857 0.979476
Si Si8 0.268799 0.940807 0.207620
O O1 0.318123 0.587118 0.131858
O O2 0.255320 0.802354 0.237227
O O3 0.530930 0.770506 0.863023
O O4 0.597713 0.738597 0.092119
O O5 0.500000 0.500000 0.500000
O O6 0.643164 0.549275 0.674571
O O7 0.363774 0.653076 0.743522
O O8 0.255018 0.429621 0.876273
O O9 0.672436 0.832520 0.511285
O O10 0.071253 0.953156 0.236101
O O11 0.765004 0.050236 0.354514
O O12 0.776288 0.003070 0.614111
O O13 0.302371 0.871413 0.850287
O O14 0.978028 0.773729 0.926787
O O15 0.000000 0.000000 0.000000
O O16 0.845908 0.631111 0.786781
O O17 0.000000 0.500000 0.500000
O O18 0.500000 0.000000 0.000000
#
# Coordination Sequence:
#
# PCOD8031423 Si02
#       8
#     2   2   2   2   2   2   2   2
#     4  11  22  43  75 101 143 189 243 305 372 434
#     4  11  26  46  73 108 145 191 241 307 383 440
#     4  11  27  44  70 104 147 192 248 303 370 442
#     4  12  30  47  69 106 153 199 248 307 381 442
#     4  11  25  44  73 108 144 190 247 306 369 449
#     4  12  25  47  72 102 151 189 249 311 370 449
#     4  11  25  49  73 103 148 192 249 308 365 447
#     4  11  23  42  73 108 135 191 250 305 360 437
#
# _framework density 23.096430000000002
#
# number of rings (size 3 to 8) (size 9 to 14) (size 15 to 20)
#    0.000    0.750    3.750    2.625   10.500    2.500 
#    0.000    0.000    0.000    0.000    0.000    0.000 
#    0.000    0.000    0.000    0.000    0.000    0.000 
#
# Total GULP energy -198336.977519 kJ/mol
# GULP energy per Si atom -12396.061095 kJ/mol
# Density = 2.304386 g / cm^3
# Si number density = 23.096430 Si / 1000 Ang^3
#
#
#
# Elastic Constant Matrix: (Units=GPa)
#
#
# Indices 1 2 3 4 5 6 
#
# 1 81.5891 45.6749 38.5670 -11.3704 -5.8813 -8.2775
# 2 45.6749 142.0944 43.9004 -6.4995 -2.3128 -9.9103
# 3 38.5670 43.9004 110.8000 -13.2128 -8.2706 -6.0429
# 4 -11.3704 -6.4995 -13.2128 46.7181 -3.5843 -3.8607
# 5 -5.8813 -2.3128 -8.2706 -3.5843 30.5394 -0.6592
# 6 -8.2775 -9.9103 -6.0429 -3.8607 -0.6592 38.9244
#
#
#
# Elastic Compliance Matrix: (Units=1/GPa)
#
#
# Indices 1 2 3 4 5 6 
#
# 1 0.017066 -0.004006 -0.003698 0.002928 0.002377 0.002366
# 2 -0.004006 0.009062 -0.002227 -0.000310 -0.000702 0.001067
# 3 -0.003698 -0.002227 0.011710 0.002362 0.002584 0.000742
# 4 0.002928 -0.000310 0.002362 0.023320 0.003988 0.003291
# 5 0.002377 -0.000702 0.002584 0.003988 0.034354 0.001705
# 6 0.002366 0.001067 0.000742 0.003291 0.001705 0.026936
#
#
# Mechanical properties :
#
#
# Convention : Reuss Voigt Hill
#
# Bulk Modulus (GPa) = 55.62714 65.64091 60.63403
# Shear Modulus (GPa) = 33.71485 36.99245 35.35365
#
# Velocity S-wave (km/s) = 3.82480 4.00641 3.91666
# Velocity P-wave (km/s) = 6.60625 7.06285 6.83836
#
# Compressibility (1/GPa) = 0.01797684
#
# Stress axis : x y z
#
# Youngs Moduli (GPa) = 58.59472 110.34884 85.39861
#
# Poissons Ratio (x) = 0.44203 0.31577
# Poissons Ratio (y) = 0.23472 0.19021
# Poissons Ratio (z) = 0.21666 0.24579
#
# Static dielectric constant tensor:
#      x y z
#    x 4.548000 -0.632050 0.131410 
#    y -0.632050 5.458030 -0.499760 
#    z 0.131410 -0.499760 4.547970 
# 
# 
# High freq. dielectric constant tensor:
#      x y z
#    x 1.907780 -0.010700 0.006710 
#    y -0.010700 1.930900 -0.002450 
#    z 0.006710 -0.002450 1.911330 
# 
# From -- ./inp_files/187329.got.cif
#   From: 2010.06.25/outbox.cif.g09.slc.cpg/sg2_94_cif.got.tgz:187329.got - 2010.06.27 13:26:56.
