data_PCOD8031770
_publ_section_title
;
Structure prediction by ZEFSAII (Michael W. Deem and Ramdas Pophale) SiO2 
 PCOD8031770
Probable space group: P -1
;
_chemical_formula_sum "Si O2"
_cell_formula_units_Z 16
_cell_length_a 9.505532
_cell_length_b 8.488067
_cell_length_c 14.096404
_cell_angle_alpha 123.130107
_cell_angle_beta 63.657793
_cell_angle_gamma 77.799011
_cell_volume 679.769675
_symmetry_space_group_name_H-M "P -1"
_symmetry_group_IT_number 2
_symmetry_cell_setting 'triclinic'
loop_
_space_group_symop_operation_xyz
x,y,z
-x,-y,-z
loop_
_atom_site_type_symbol
_atom_site_label
_atom_site_fract_x
_atom_site_fract_y
_atom_site_fract_z
Si Si1 0.692348 0.066516 0.940508
Si Si2 0.747367 0.340611 0.157210
Si Si3 0.895584 0.678626 0.007742
Si Si4 0.914321 0.867010 0.452092
Si Si5 0.568065 0.161628 0.521678
Si Si6 0.575851 0.191364 0.311355
Si Si7 0.794397 0.753739 0.627124
Si Si8 0.263160 0.362942 0.127678
O O1 0.776011 0.928623 0.770733
O O2 0.711405 0.880296 0.945784
O O3 0.788603 0.178888 0.998886
O O4 0.470430 0.304891 0.071199
O O5 0.562716 0.617762 0.294110
O O6 0.699505 0.258898 0.240096
O O7 0.951529 0.307724 0.097035
O O8 0.800340 0.577709 0.942605
O O9 0.000000 0.500000 0.000000
O O10 0.717358 0.913331 0.187100
O O11 0.770105 0.885374 0.580100
O O12 0.091486 0.588021 0.310541
O O13 0.797088 0.990397 0.429880
O O14 0.000000 0.000000 0.500000
O O15 0.536989 0.272435 0.460854
O O16 0.500000 0.000000 0.500000
O O17 0.379939 0.277291 0.336345
O O18 0.000000 0.500000 0.500000
#
# Coordination Sequence:
#
# PCOD8031770 Si02
#       8
#     2   2   2   2   2   2   2   2
#     4  11  23  45  76 105 142 187 254 307 359 432
#     4  12  27  47  77 112 144 196 257 304 360 450
#     4  12  26  46  74 108 152 195 238 301 384 439
#     4  12  27  46  71 110 148 193 252 302 370 448
#     4  12  26  50  74 107 157 198 240 310 384 439
#     4  12  25  49  75 111 146 195 258 304 365 453
#     4  12  26  46  78 108 147 199 246 306 380 433
#     4  11  22  46  71 100 148 190 236 308 367 430
#
# _framework density 23.537383999999999
#
# number of rings (size 3 to 8) (size 9 to 14) (size 15 to 20)
#    0.000    0.250    5.000    4.500    1.750    2.000 
#    0.000    1.875    0.000    0.000    0.000    0.000 
#    0.000    0.000    0.000    0.000    0.000    0.000 
#
# Total GULP energy -198247.974034 kJ/mol
# GULP energy per Si atom -12390.498377 kJ/mol
# Density = 2.348381 g / cm^3
# Si number density = 23.537384 Si / 1000 Ang^3
#
#
#
# Elastic Constant Matrix: (Units=GPa)
#
#
# Indices 1 2 3 4 5 6 
#
# 1 107.8551 34.3512 29.7137 8.6064 -4.3416 -17.9080
# 2 34.3512 84.5162 18.0713 -4.7347 2.9202 -15.5331
# 3 29.7137 18.0713 130.8538 12.2676 4.4805 -17.0435
# 4 8.6064 -4.7347 12.2676 36.1112 -7.9345 -3.0387
# 5 -4.3416 2.9202 4.4805 -7.9345 44.3886 3.9300
# 6 -17.9080 -15.5331 -17.0435 -3.0387 3.9300 37.0573
#
#
#
# Elastic Compliance Matrix: (Units=1/GPa)
#
#
# Indices 1 2 3 4 5 6 
#
# 1 0.011695 -0.004045 -0.001519 -0.002359 0.000879 0.002971
# 2 -0.004045 0.014643 -0.000831 0.003286 -0.001058 0.004183
# 3 -0.001519 -0.000831 0.008812 -0.002881 -0.001757 0.002921
# 4 -0.002359 0.003286 -0.002881 0.030901 0.005289 0.000885
# 5 0.000879 -0.001058 -0.001757 0.005289 0.024067 -0.002946
# 6 0.002971 0.004183 0.002921 0.000885 -0.002946 0.031903
#
#
# Mechanical properties :
#
#
# Convention : Reuss Voigt Hill
#
# Bulk Modulus (GPa) = 44.72060 54.16640 49.44350
# Shear Modulus (GPa) = 35.14559 39.58400 37.36479
#
# Velocity S-wave (km/s) = 3.86836 4.10536 3.98862
# Velocity P-wave (km/s) = 6.24447 6.74795 6.50109
#
# Compressibility (1/GPa) = 0.02236106
#
# Stress axis : x y z
#
# Youngs Moduli (GPa) = 85.50329 68.29115 113.47549
#
# Poissons Ratio (x) = 0.27625 0.17238
# Poissons Ratio (y) = 0.34588 0.09427
# Poissons Ratio (z) = 0.12989 0.05673
#
# Static dielectric constant tensor:
#      x y z
#    x 2.209880 -0.328060 3.231180 
#    y -0.328060 3.955490 0.664450 
#    z 3.231180 0.664450 -0.333680 
# 
# 
# High freq. dielectric constant tensor:
#      x y z
#    x 1.937040 -0.017040 0.002030 
#    y -0.017040 1.927360 0.012010 
#    z 0.002030 0.012010 1.946950 
# 
# From -- ./inp_files/495685.got.cif
#   From: 2010.06.25/outbox.cif.g09.slc.cpg/sg2_248_cif.got.tgz:495685.got - 2010.06.27 13:26:56.
