data_PCOD8031715
_publ_section_title
;
Structure prediction by ZEFSAII (Michael W. Deem and Ramdas Pophale) SiO2 
 PCOD8031715
Probable space group: P -1
;
_chemical_formula_sum "Si O2"
_cell_formula_units_Z 12
_cell_length_a 7.030340
_cell_length_b 14.486414
_cell_length_c 11.515297
_cell_angle_alpha 28.789066
_cell_angle_beta 111.272356
_cell_angle_gamma 118.690004
_cell_volume 490.769893
_symmetry_space_group_name_H-M "P -1"
_symmetry_group_IT_number 2
_symmetry_cell_setting 'triclinic'
loop_
_space_group_symop_operation_xyz
x,y,z
-x,-y,-z
loop_
_atom_site_type_symbol
_atom_site_label
_atom_site_fract_x
_atom_site_fract_y
_atom_site_fract_z
Si Si1 0.014602 0.534788 0.828013
Si Si2 0.282710 0.400100 0.482881
Si Si3 0.939413 0.190062 0.814075
Si Si4 0.516849 0.209402 0.607994
Si Si5 0.776890 0.655106 0.087405
Si Si6 0.373062 0.967719 0.389512
O O1 0.149148 0.394881 0.967408
O O2 0.146886 0.773758 0.561184
O O3 0.777196 0.475606 0.775982
O O4 0.000000 0.500000 0.000000
O O5 0.500000 0.500000 0.500000
O O6 0.304179 0.190799 0.660498
O O7 0.077184 0.365112 0.560443
O O8 0.684310 0.145785 0.793512
O O9 0.471489 0.071496 0.633568
O O10 0.003782 0.260870 0.880541
O O11 0.000000 0.000000 0.000000
O O12 0.604150 0.452377 0.330065
O O13 0.668463 0.825569 0.873049
O O14 0.500000 0.000000 0.500000
#
# Coordination Sequence:
#
# PCOD8031715 Si02
#       6
#     2   2   2   2   2   2
#     4  11  27  47  69 105 143 185 239 291 353 422
#     4  12  24  43  74 107 138 186 238 286 355 424
#     4  12  22  46  69 105 144 179 233 292 353 417
#     4  11  24  43  71 102 143 181 236 286 355 417
#     4  11  22  45  73  94 145 186 224 299 347 414
#     4  11  26  46  68 103 138 192 237 284 357 417
#
# _framework density 24.451378999999999
#
# number of rings (size 3 to 8) (size 9 to 14) (size 15 to 20)
#    0.000    0.667    6.667    1.500    4.667    2.667 
#    3.000    0.000    0.000    0.000    0.000    0.000 
#    0.000    0.000    0.000    0.000    0.000    0.000 
#
# Total GULP energy -148710.415181 kJ/mol
# GULP energy per Si atom -12392.534598 kJ/mol
# Density = 2.439573 g / cm^3
# Si number density = 24.451379 Si / 1000 Ang^3
#
#
#
# Elastic Constant Matrix: (Units=GPa)
#
#
# Indices 1 2 3 4 5 6 
#
# 1 72.7982 18.0804 1.5349 5.9797 24.9639 -20.0292
# 2 18.0804 150.8498 36.6890 23.5530 18.5712 -17.4640
# 3 1.5349 36.6890 98.0126 -1.9430 29.7824 -9.4333
# 4 5.9797 23.5530 -1.9430 54.6152 -3.1447 8.8376
# 5 24.9639 18.5712 29.7824 -3.1447 32.2239 -4.5219
# 6 -20.0292 -17.4640 -9.4333 8.8376 -4.5219 45.6672
#
#
#
# Elastic Compliance Matrix: (Units=1/GPa)
#
#
# Indices 1 2 3 4 5 6 
#
# 1 0.027269 0.000506 0.009211 -0.006554 -0.028820 0.012471
# 2 0.000506 0.008614 -0.001894 -0.004636 -0.003543 0.003671
# 3 0.009211 -0.001894 0.017933 -0.001658 -0.022057 0.005157
# 4 -0.006554 -0.004636 -0.001658 0.022923 0.010339 -0.008402
# 5 -0.028820 -0.003543 -0.022057 0.010339 0.074953 -0.013130
# 6 0.012471 0.003671 0.005157 -0.008402 -0.013130 0.030162
#
#
# Mechanical properties :
#
#
# Convention : Reuss Voigt Hill
#
# Bulk Modulus (GPa) = 14.39627 48.25212 31.32420
# Shear Modulus (GPa) = 26.40436 44.19168 35.29802
#
# Velocity S-wave (km/s) = 3.28971 4.25588 3.80360
# Velocity P-wave (km/s) = 4.50889 6.62773 5.66819
#
# Compressibility (1/GPa) = 0.06946245
#
# Stress axis : x y z
#
# Youngs Moduli (GPa) = 36.67183 116.08718 55.76217
#
# Poissons Ratio (x) = -0.05879 -0.51363
# Poissons Ratio (y) = -0.01857 0.10564
# Poissons Ratio (z) = -0.33778 0.21991
#
# Static dielectric constant tensor:
#      x y z
#    x 8.575080 0.518110 2.617810 
#    y 0.518110 4.940630 0.590870 
#    z 2.617810 0.590870 5.709510 
# 
# 
# High freq. dielectric constant tensor:
#      x y z
#    x 1.970650 -0.025020 0.020470 
#    y -0.025020 1.984930 0.005310 
#    z 0.020470 0.005310 1.969160 
# 
# From -- ./inp_files/396888.got.cif
#   From: 2010.06.25/outbox.cif.g09.slc.cpg/sg2_199_cif.got.tgz:396888.got - 2010.06.27 13:26:56.
