data_PCOD8031678
_publ_section_title
;
Structure prediction by ZEFSAII (Michael W. Deem and Ramdas Pophale) SiO2 
 PCOD8031678
Probable space group: P -1
;
_chemical_formula_sum "Si O2"
_cell_formula_units_Z 14
_cell_length_a 9.071768
_cell_length_b 12.095625
_cell_length_c 20.548555
_cell_angle_alpha 30.193748
_cell_angle_beta 143.424445
_cell_angle_gamma 124.307572
_cell_volume 608.305827
_symmetry_space_group_name_H-M "P -1"
_symmetry_group_IT_number 2
_symmetry_cell_setting 'triclinic'
loop_
_space_group_symop_operation_xyz
x,y,z
-x,-y,-z
loop_
_atom_site_type_symbol
_atom_site_label
_atom_site_fract_x
_atom_site_fract_y
_atom_site_fract_z
Si Si1 0.793738 0.461563 0.492687
Si Si2 0.604151 0.273372 0.049012
Si Si3 0.695268 0.195988 0.778405
Si Si4 0.991076 0.555750 0.288234
Si Si5 0.824762 0.048620 0.629512
Si Si6 0.480991 0.801127 0.688094
Si Si7 0.674512 0.969107 0.347629
O O1 0.524627 0.714248 0.285834
O O2 0.702189 0.269222 0.525195
O O3 0.000000 0.500000 0.500000
O O4 0.985461 0.353282 0.678204
O O5 0.667844 0.198208 0.186222
O O6 0.313172 0.265854 0.935404
O O7 0.598828 0.531126 0.897750
O O8 0.843580 0.071782 0.192906
O O9 0.747372 0.432823 0.660404
O O10 0.578281 0.090947 0.732144
O O11 0.000000 0.000000 0.000000
O O12 0.039880 0.273440 0.442494
O O13 0.725615 0.150711 0.469794
O O14 0.731719 0.845368 0.724799
O O15 0.329925 0.982127 0.602035
#
# Coordination Sequence:
#
# PCOD8031678 Si02
#       7
#     2   2   2   2   2   2   2
#     4  11  23  44  71 101 140 177 219 282 348 400
#     4  12  24  42  66 103 135 175 237 279 334 406
#     4  11  22  45  71 104 132 175 228 279 342 408
#     4  11  24  43  70 101 136 177 224 283 350 402
#     4  11  25  47  66  95 142 182 226 279 339 409
#     4  11  25  46  67  95 134 190 228 278 337 400
#     4  11  23  44  70  98 136 175 224 287 339 399
#
# _framework density 23.014741999999998
#
# number of rings (size 3 to 8) (size 9 to 14) (size 15 to 20)
#    0.000    0.857    1.429    7.714    0.000    4.000 
#   12.857    0.000    0.000    0.000    0.000    0.000 
#    0.000    0.000    0.000    0.000    0.000    0.000 
#
# Total GULP energy -173489.786437 kJ/mol
# GULP energy per Si atom -12392.127603 kJ/mol
# Density = 2.296236 g / cm^3
# Si number density = 23.014742 Si / 1000 Ang^3
#
#
#
# Elastic Constant Matrix: (Units=GPa)
#
#
# Indices 1 2 3 4 5 6 
#
# 1 135.6732 35.0635 46.2627 -1.5411 -0.8633 -11.3127
# 2 35.0635 100.1829 33.7345 -8.1557 3.3584 -33.1313
# 3 46.2627 33.7345 100.4635 3.3789 2.0022 -16.5258
# 4 -1.5411 -8.1557 3.3789 31.7740 10.0844 -4.6888
# 5 -0.8633 3.3584 2.0022 10.0844 46.8637 -1.6520
# 6 -11.3127 -33.1313 -16.5258 -4.6888 -1.6520 46.8613
#
#
#
# Elastic Compliance Matrix: (Units=1/GPa)
#
#
# Indices 1 2 3 4 5 6 
#
# 1 0.009107 -0.002196 -0.003564 0.000026 0.000451 -0.000593
# 2 -0.002196 0.015592 -0.002736 0.006325 -0.002046 0.010089
# 3 -0.003564 -0.002736 0.012832 -0.002038 0.000075 0.001529
# 4 0.000026 0.006325 -0.002038 0.036930 -0.008060 0.007170
# 5 0.000451 -0.002046 0.000075 -0.008060 0.023179 -0.001301
# 6 -0.000593 0.010089 0.001529 0.007170 -0.001301 0.029540
#
#
# Mechanical properties :
#
#
# Convention : Reuss Voigt Hill
#
# Bulk Modulus (GPa) = 48.68914 62.93791 55.81352
# Shear Modulus (GPa) = 33.10825 39.85038 36.47932
#
# Velocity S-wave (km/s) = 3.79696 4.16566 3.98558
# Velocity P-wave (km/s) = 6.35799 7.10937 6.74415
#
# Compressibility (1/GPa) = 0.02053846
#
# Stress axis : x y z
#
# Youngs Moduli (GPa) = 109.80324 64.13556 77.92807
#
# Poissons Ratio (x) = 0.14087 0.27770
# Poissons Ratio (y) = 0.24117 0.21325
# Poissons Ratio (z) = 0.39130 0.17551
#
# Static dielectric constant tensor:
#      x y z
#    x 4.375430 0.489680 -0.262370 
#    y 0.489680 4.388130 -0.251810 
#    z -0.262370 -0.251810 4.269280 
# 
# 
# High freq. dielectric constant tensor:
#      x y z
#    x 1.925720 0.019880 -0.003370 
#    y 0.019880 1.907920 -0.000760 
#    z -0.003370 -0.000760 1.911370 
# 
# From -- ./inp_files/261195.got.cif
#   From: 2010.06.25/outbox.cif.g09.slc.cpg/sg2_131_cif.got.tgz:261195.got - 2010.06.27 13:26:56.
