data_PCOD8031005
_publ_section_title
;
Structure prediction by ZEFSAII (Michael W. Deem and Ramdas Pophale) SiO2 
 PCOD8031005
Probable space group: P -1
;
_chemical_formula_sum "Si O2"
_cell_formula_units_Z 14
_cell_length_a 12.601255
_cell_length_b 16.731432
_cell_length_c 9.174690
_cell_angle_alpha 50.790247
_cell_angle_beta 143.960854
_cell_angle_gamma 145.969448
_cell_volume 632.648795
_symmetry_space_group_name_H-M "P -1"
_symmetry_group_IT_number 2
_symmetry_cell_setting 'triclinic'
loop_
_space_group_symop_operation_xyz
x,y,z
-x,-y,-z
loop_
_atom_site_type_symbol
_atom_site_label
_atom_site_fract_x
_atom_site_fract_y
_atom_site_fract_z
Si Si1 0.028690 0.980426 0.274997
Si Si2 0.109136 0.473417 0.276807
Si Si3 0.123677 0.645405 0.543849
Si Si4 0.668036 0.661266 0.352371
Si Si5 0.366808 0.058735 0.292532
Si Si6 0.370335 0.267015 0.455193
Si Si7 0.694609 0.575889 0.996960
O O1 0.235514 0.024041 0.340240
O O2 0.197920 0.095680 0.461681
O O3 0.877211 0.819678 0.336983
O O4 0.843959 0.998763 0.996114
O O5 0.208461 0.401728 0.414869
O O6 0.348862 0.635958 0.411363
O O7 0.907675 0.373051 0.295366
O O8 0.000000 0.500000 0.000000
O O9 0.415585 0.770019 0.686992
O O10 0.000000 0.500000 0.500000
O O11 0.965631 0.673252 0.261074
O O12 0.588433 0.673495 0.405548
O O13 0.419667 0.554660 0.094394
O O14 0.500000 0.000000 0.500000
O O15 0.246099 0.297127 0.170875
O O16 0.500000 0.500000 0.000000
#
# Coordination Sequence:
#
# PCOD8031005 Si02
#       7
#     2   2   2   2   2   2   2
#     4  11  25  46  70  98 145 183 232 285 343 418
#     4  11  25  43  66 100 141 174 231 294 341 408
#     4  12  24  39  68 102 130 170 233 285 345 404
#     4  11  24  45  70  96 138 189 225 283 355 412
#     4  11  25  43  70 103 140 179 230 291 347 405
#     4  11  24  44  69  99 135 187 226 275 358 417
#     4  11  22  41  71  97 132 174 230 289 339 400
#
# _framework density 22.129182
#
# number of rings (size 3 to 8) (size 9 to 14) (size 15 to 20)
#    0.000    0.857    2.857    5.571   10.000    0.000 
#    2.571    0.714    0.000    0.000    0.000    0.000 
#    0.000    0.000    0.000    0.000    0.000    0.000 
#
# Total GULP energy -173449.071801 kJ/mol
# GULP energy per Si atom -12389.219414 kJ/mol
# Density = 2.207882 g / cm^3
# Si number density = 22.129182 Si / 1000 Ang^3
#
#
#
# Elastic Constant Matrix: (Units=GPa)
#
#
# Indices 1 2 3 4 5 6 
#
# 1 80.6704 30.8767 37.9223 3.7503 -6.7717 8.5704
# 2 30.8767 148.1171 36.3186 10.4464 -3.5270 7.0488
# 3 37.9223 36.3186 109.5208 -8.5118 -7.0382 3.9570
# 4 3.7503 10.4464 -8.5118 23.3831 4.3623 -3.3046
# 5 -6.7717 -3.5270 -7.0382 4.3623 38.8411 0.5579
# 6 8.5704 7.0488 3.9570 -3.3046 0.5579 43.1513
#
#
#
# Elastic Compliance Matrix: (Units=1/GPa)
#
#
# Indices 1 2 3 4 5 6 
#
# 1 0.016142 -0.001582 -0.005171 -0.004595 0.002291 -0.002855
# 2 -0.001582 0.008051 -0.002394 -0.004475 0.000540 -0.001131
# 3 -0.005171 -0.002394 0.012206 0.006385 0.000365 0.000783
# 4 -0.004595 -0.004475 0.006385 0.049584 -0.005690 0.004929
# 5 0.002291 0.000540 0.000365 -0.005690 0.026919 -0.001360
# 6 -0.002855 -0.001131 0.000783 0.004929 -0.001360 0.024249
#
#
# Mechanical properties :
#
#
# Convention : Reuss Voigt Hill
#
# Bulk Modulus (GPa) = 55.23746 60.94929 58.09338
# Shear Modulus (GPa) = 30.96327 36.62113 33.79220
#
# Velocity S-wave (km/s) = 3.74465 4.07243 3.91198
# Velocity P-wave (km/s) = 6.61151 7.05090 6.83474
#
# Compressibility (1/GPa) = 0.01810366
#
# Stress axis : x y z
#
# Youngs Moduli (GPa) = 61.95033 124.21460 81.92360
#
# Poissons Ratio (x) = 0.19657 0.42365
# Poissons Ratio (y) = 0.09804 0.19612
# Poissons Ratio (z) = 0.32036 0.29736
#
# Static dielectric constant tensor:
#      x y z
#    x 2.726750 -0.443470 -1.007360 
#    y -0.443470 4.008410 -0.372240 
#    z -1.007360 -0.372240 3.049650 
# 
# 
# High freq. dielectric constant tensor:
#      x y z
#    x 1.863060 0.010260 -0.003210 
#    y 0.010260 1.891310 0.002720 
#    z -0.003210 0.002720 1.875670 
# 
# From -- ./inp_files/279149.got.cif
#   From: 2010.06.25/outbox.cif.g09.slc.cpg/sg2_140_cif.got.tgz:279149.got - 2010.06.27 13:26:56.
