data_PCOD8031926
_publ_section_title
;
Structure prediction by ZEFSAII (Michael W. Deem and Ramdas Pophale) SiO2 
 PCOD8031926
Probable space group: P -1
;
_chemical_formula_sum "Si O2"
_cell_formula_units_Z 16
_cell_length_a 11.823048
_cell_length_b 8.391933
_cell_length_c 20.201798
_cell_angle_alpha 58.596750
_cell_angle_beta 148.474344
_cell_angle_gamma 135.462032
_cell_volume 714.334566
_symmetry_space_group_name_H-M "P -1"
_symmetry_group_IT_number 2
_symmetry_cell_setting 'triclinic'
loop_
_space_group_symop_operation_xyz
x,y,z
-x,-y,-z
loop_
_atom_site_type_symbol
_atom_site_label
_atom_site_fract_x
_atom_site_fract_y
_atom_site_fract_z
Si Si1 0.553430 0.948559 0.320073
Si Si2 0.945600 0.711441 0.051317
Si Si3 0.580800 0.841625 0.601072
Si Si4 0.278766 0.129582 0.707011
Si Si5 0.080259 0.401112 0.507055
Si Si6 0.718070 0.773080 0.551040
Si Si7 0.980498 0.945820 0.889286
Si Si8 0.694518 0.194307 0.002671
O O1 0.597067 0.811146 0.317305
O O2 0.583010 0.879276 0.423074
O O3 0.270036 0.902234 0.177661
O O4 0.802984 0.215499 0.369494
O O5 0.853010 0.754085 0.926275
O O6 0.867078 0.449673 0.070448
O O7 0.843982 0.791433 0.045404
O O8 0.302724 0.583100 0.526329
O O9 0.769425 0.847665 0.637511
O O10 0.743229 0.922478 0.733833
O O11 0.500000 0.000000 0.500000
O O12 0.183899 0.290918 0.630580
O O13 0.519274 0.210051 0.858403
O O14 0.007898 0.864019 0.644245
O O15 0.000000 0.500000 0.500000
O O16 0.500000 0.500000 0.500000
O O17 0.141225 0.886834 0.933920
O O18 0.500000 0.000000 0.000000
#
# Coordination Sequence:
#
# PCOD8031926 Si02
#       8
#     2   2   2   2   2   2   2   2
#     4  11  23  43  66  99 134 180 236 281 350 423
#     4  11  25  46  75 103 139 190 244 290 349 434
#     4  12  24  43  67 102 140 178 229 295 363 415
#     4  11  23  44  64 101 136 179 241 279 345 432
#     4  11  23  41  67  97 136 182 229 286 348 420
#     4  11  23  38  67  98 134 178 220 292 347 405
#     4  11  25  48  72 103 141 188 243 288 355 430
#     4  12  27  45  72 105 145 189 233 299 361 421
#
# _framework density 22.398468000000001
#
# number of rings (size 3 to 8) (size 9 to 14) (size 15 to 20)
#    0.000    0.750    1.250    7.875    5.250    1.500 
#    2.250    0.000    0.000    0.000    0.000    0.000 
#    0.000    0.000    0.000    0.000    0.000    0.000 
#
# Total GULP energy -198231.628977 kJ/mol
# GULP energy per Si atom -12389.476811 kJ/mol
# Density = 2.234749 g / cm^3
# Si number density = 22.398468 Si / 1000 Ang^3
#
#
#
# Elastic Constant Matrix: (Units=GPa)
#
#
# Indices 1 2 3 4 5 6 
#
# 1 125.1530 50.1755 22.8330 -7.2651 -7.1673 -12.9952
# 2 50.1755 133.4680 43.5519 1.2237 0.2217 -2.5461
# 3 22.8330 43.5519 130.9365 -0.7860 -8.0061 0.0612
# 4 -7.2651 1.2237 -0.7860 23.6305 -0.5568 2.6935
# 5 -7.1673 0.2217 -8.0061 -0.5568 38.0990 -5.7746
# 6 -12.9952 -2.5461 0.0612 2.6935 -5.7746 43.7180
#
#
#
# Elastic Compliance Matrix: (Units=1/GPa)
#
#
# Indices 1 2 3 4 5 6 
#
# 1 0.010142 -0.003661 -0.000391 0.003016 0.002334 0.002924
# 2 -0.003661 0.009757 -0.002704 -0.001686 -0.001429 -0.000601
# 3 -0.000391 -0.002704 0.008715 0.000360 0.001767 -0.000075
# 4 0.003016 -0.001686 0.000360 0.043569 0.001024 -0.001751
# 5 0.002334 -0.001429 0.001767 0.001024 0.027719 0.004206
# 6 0.002924 -0.000601 -0.000075 -0.001751 0.004206 0.024372
#
#
# Mechanical properties :
#
#
# Convention : Reuss Voigt Hill
#
# Bulk Modulus (GPa) = 66.21873 69.18649 67.70261
# Shear Modulus (GPa) = 35.00900 39.28929 37.14915
#
# Velocity S-wave (km/s) = 3.95778 4.19275 4.07696
# Velocity P-wave (km/s) = 7.10728 7.37529 7.24253
#
# Compressibility (1/GPa) = 0.01510147
#
# Stress axis : x y z
#
# Youngs Moduli (GPa) = 98.60316 102.48591 114.73999
#
# Poissons Ratio (x) = 0.37516 0.04492
# Poissons Ratio (y) = 0.36095 0.31030
# Poissons Ratio (z) = 0.03860 0.27716
#
# Static dielectric constant tensor:
#      x y z
#    x 4.858960 0.051950 -0.278380 
#    y 0.051950 4.121540 -0.127670 
#    z -0.278380 -0.127670 3.993090 
# 
# 
# High freq. dielectric constant tensor:
#      x y z
#    x 1.897740 -0.008310 -0.003080 
#    y -0.008310 1.877010 -0.004560 
#    z -0.003080 -0.004560 1.884580 
# 
# From -- ./inp_files/594070.got.cif
#   From: 2010.06.25/outbox.cif.g09.slc.cpg/sg2_298_cif.got.tgz:594070.got - 2010.06.27 13:26:56.
