data_PCOD8031540
_publ_section_title
;
Structure prediction by ZEFSAII (Michael W. Deem and Ramdas Pophale) SiO2 
 PCOD8031540
Probable space group: P -1
;
_chemical_formula_sum "Si O2"
_cell_formula_units_Z 14
_cell_length_a 27.066559
_cell_length_b 13.050637
_cell_length_c 8.752715
_cell_angle_alpha 35.743710
_cell_angle_beta 144.521728
_cell_angle_gamma 160.296491
_cell_volume 588.801414
_symmetry_space_group_name_H-M "P -1"
_symmetry_group_IT_number 2
_symmetry_cell_setting 'triclinic'
loop_
_space_group_symop_operation_xyz
x,y,z
-x,-y,-z
loop_
_atom_site_type_symbol
_atom_site_label
_atom_site_fract_x
_atom_site_fract_y
_atom_site_fract_z
Si Si1 0.662279 0.794419 0.348753
Si Si2 0.911172 0.697021 0.057364
Si Si3 0.124641 0.171450 0.483814
Si Si4 0.340644 0.424460 0.960753
Si Si5 0.862735 0.181251 0.654372
Si Si6 0.358921 0.640066 0.054513
Si Si7 0.947678 0.307267 0.251279
O O1 0.496163 0.581865 0.146894
O O2 0.653358 0.566959 0.631499
O O3 0.722073 0.991217 0.417680
O O4 0.774009 0.044972 0.189263
O O5 0.855277 0.637299 0.815772
O O6 0.765458 0.430839 0.118807
O O7 0.009247 0.685395 0.298122
O O8 0.000000 0.000000 0.000000
O O9 0.048997 0.890300 0.534494
O O10 0.290381 0.417859 0.678234
O O11 0.000000 0.000000 0.500000
O O12 0.350001 0.590035 0.911837
O O13 0.197444 0.059060 0.083171
O O14 0.931543 0.456306 0.594942
O O15 0.500000 0.000000 0.000000
O O16 0.000000 0.500000 0.000000
#
# Coordination Sequence:
#
# PCOD8031540 Si02
#       7
#     2   2   2   2   2   2   2
#     4  11  25  47  69 100 150 183 229 295 354 414
#     4  12  21  44  74  99 137 186 239 296 345 402
#     4  12  23  47  73  98 142 182 234 295 356 407
#     4  11  24  47  68 103 147 186 226 298 358 419
#     4  11  22  44  71 106 135 184 243 287 347 425
#     4  11  24  45  70 105 136 187 240 284 349 418
#     4  12  24  44  72 107 136 186 238 287 351 426
#
# _framework density 23.777118000000002
#
# number of rings (size 3 to 8) (size 9 to 14) (size 15 to 20)
#    0.000    0.571    7.143    2.143    2.000    0.571 
#   10.286    0.714    0.000    0.000    0.000    0.000 
#    0.000    0.000    0.000    0.000    0.000    0.000 
#
# Total GULP energy -173449.490945 kJ/mol
# GULP energy per Si atom -12389.249353 kJ/mol
# Density = 2.372300 g / cm^3
# Si number density = 23.777118 Si / 1000 Ang^3
#
#
#
# Elastic Constant Matrix: (Units=GPa)
#
#
# Indices 1 2 3 4 5 6 
#
# 1 125.6881 63.3606 31.9533 0.3436 7.5585 -4.9542
# 2 63.3606 162.9445 40.3950 8.1947 3.3026 -10.9839
# 3 31.9533 40.3950 112.1610 23.3631 -13.2303 -5.6945
# 4 0.3436 8.1947 23.3631 39.8612 7.9340 1.3708
# 5 7.5585 3.3026 -13.2303 7.9340 43.1848 -3.9372
# 6 -4.9542 -10.9839 -5.6945 1.3708 -3.9372 47.3284
#
#
#
# Elastic Compliance Matrix: (Units=1/GPa)
#
#
# Indices 1 2 3 4 5 6 
#
# 1 0.010589 -0.003557 -0.002690 0.002818 -0.002957 -0.000368
# 2 -0.003557 0.008075 -0.001742 -0.000592 -0.000303 0.001284
# 3 -0.002690 -0.001742 0.012897 -0.008481 0.006262 0.001633
# 4 0.002818 -0.000592 -0.008481 0.032068 -0.009171 -0.002555
# 5 -0.002957 -0.000303 0.006262 -0.009171 0.027568 0.002933
# 6 -0.000368 0.001284 0.001633 -0.002555 0.002933 0.021903
#
#
# Mechanical properties :
#
#
# Convention : Reuss Voigt Hill
#
# Bulk Modulus (GPa) = 64.17214 74.69015 69.43115
# Shear Modulus (GPa) = 37.23788 43.74718 40.49253
#
# Velocity S-wave (km/s) = 3.96172 4.29404 4.13122
# Velocity P-wave (km/s) = 6.92637 7.48772 7.21251
#
# Compressibility (1/GPa) = 0.01558309
#
# Stress axis : x y z
#
# Youngs Moduli (GPa) = 94.43885 123.84585 77.53450
#
# Poissons Ratio (x) = 0.44055 0.20856
# Poissons Ratio (y) = 0.33594 0.13505
# Poissons Ratio (z) = 0.25403 0.21571
#
# Static dielectric constant tensor:
#      x y z
#    x 4.528230 -0.082910 -0.093980 
#    y -0.082910 4.428990 -0.103850 
#    z -0.093980 -0.103850 4.220740 
# 
# 
# High freq. dielectric constant tensor:
#      x y z
#    x 1.960590 -0.001820 -0.010640 
#    y -0.001820 1.948980 -0.001130 
#    z -0.010640 -0.001130 1.938600 
# 
# From -- ./inp_files/183224.got.cif
#   From: 2010.06.25/outbox.cif.g09.slc.cpg/sg2_92_cif.got.tgz:183224.got - 2010.06.27 13:26:56.
