data_PCOD8031805
_publ_section_title
;
Structure prediction by ZEFSAII (Michael W. Deem and Ramdas Pophale) SiO2 
 PCOD8031805
Probable space group: P -1
;
_chemical_formula_sum "Si O2"
_cell_formula_units_Z 16
_cell_length_a 8.910527
_cell_length_b 8.759358
_cell_length_c 10.854220
_cell_angle_alpha 99.242453
_cell_angle_beta 59.435446
_cell_angle_gamma 117.670719
_cell_volume 642.862333
_symmetry_space_group_name_H-M "P -1"
_symmetry_group_IT_number 2
_symmetry_cell_setting 'triclinic'
loop_
_space_group_symop_operation_xyz
x,y,z
-x,-y,-z
loop_
_atom_site_type_symbol
_atom_site_label
_atom_site_fract_x
_atom_site_fract_y
_atom_site_fract_z
Si Si1 0.156728 0.819366 0.318257
Si Si2 0.805005 0.390082 0.146104
Si Si3 0.427304 0.414451 0.252115
Si Si4 0.820481 0.896436 0.829501
Si Si5 0.225297 0.508607 0.550974
Si Si6 0.513815 0.757733 0.131340
Si Si7 0.711834 0.118824 0.477819
Si Si8 0.835654 0.057971 0.172949
O O1 0.305910 0.752694 0.198606
O O2 0.255296 0.946907 0.411244
O O3 0.970887 0.655791 0.426798
O O4 0.104928 0.920265 0.246475
O O5 0.604841 0.362149 0.161526
O O6 0.790230 0.475300 0.293258
O O7 0.808777 0.206948 0.132444
O O8 0.000000 0.500000 0.000000
O O9 0.220431 0.256896 0.272416
O O10 0.396333 0.469729 0.412401
O O11 0.483545 0.567034 0.149508
O O12 0.946475 0.930536 0.912931
O O13 0.608086 0.829602 0.969520
O O14 0.250229 0.683254 0.496948
O O15 0.647484 0.878902 0.202655
O O16 0.857151 0.099149 0.317670
O O17 0.500000 0.000000 0.500000
#
# Coordination Sequence:
#
# PCOD8031805 Si02
#       8
#     2   2   2   2   2   2   2   2
#     4  12  26  46  75 106 150 193 247 305 369 437
#     4  11  27  46  76 107 148 193 244 305 373 438
#     4  12  26  48  74 109 146 193 252 303 369 436
#     4  12  29  45  73 110 150 191 252 305 368 437
#     4  11  26  44  77 109 150 187 249 299 372 435
#     4  12  26  47  75 103 151 198 248 303 368 437
#     4  11  22  46  74 104 141 193 237 302 365 436
#     4  11  25  47  72 102 147 190 244 301 369 433
#
# _framework density 24.888688999999999
#
# number of rings (size 3 to 8) (size 9 to 14) (size 15 to 20)
#    0.000    0.500    2.500    4.125   10.500    2.000 
#    0.000    0.000    0.000    0.000    0.000    0.000 
#    0.000    0.000    0.000    0.000    0.000    0.000 
#
# Total GULP energy -198254.608426 kJ/mol
# GULP energy per Si atom -12390.913027 kJ/mol
# Density = 2.483204 g / cm^3
# Si number density = 24.888689 Si / 1000 Ang^3
#
#
#
# Elastic Constant Matrix: (Units=GPa)
#
#
# Indices 1 2 3 4 5 6 
#
# 1 102.8211 71.2745 -2.5134 -7.2178 -1.6906 -6.8442
# 2 71.2745 123.3697 15.4999 -25.7915 8.3312 -5.1005
# 3 -2.5134 15.4999 73.1344 -19.7309 7.2375 -1.0351
# 4 -7.2178 -25.7915 -19.7309 26.2742 9.5374 3.9044
# 5 -1.6906 8.3312 7.2375 9.5374 37.0048 0.0821
# 6 -6.8442 -5.1005 -1.0351 3.9044 0.0821 37.8099
#
#
#
# Elastic Compliance Matrix: (Units=1/GPa)
#
#
# Indices 1 2 3 4 5 6 
#
# 1 0.018412 -0.013214 -0.000088 -0.010770 0.006603 0.002646
# 2 -0.013214 0.021085 0.002614 0.023651 -0.011954 -0.001892
# 3 -0.000088 0.002614 0.019803 0.021209 -0.009929 -0.001290
# 4 -0.010770 0.023651 0.021209 0.087056 -0.032386 -0.007098
# 5 0.006603 -0.011954 -0.009929 -0.032386 0.040300 0.002568
# 6 0.002646 -0.001892 -0.001290 -0.007098 0.002568 0.027364
#
#
# Mechanical properties :
#
#
# Convention : Reuss Voigt Hill
#
# Bulk Modulus (GPa) = 26.36935 51.98302 39.17618
# Shear Modulus (GPa) = 20.15825 34.55537 27.35681
#
# Velocity S-wave (km/s) = 2.84903 3.73016 3.31896
# Velocity P-wave (km/s) = 4.63039 6.28360 5.51925
#
# Compressibility (1/GPa) = 0.03792282
#
# Stress axis : x y z
#
# Youngs Moduli (GPa) = 54.31197 47.42695 50.49835
#
# Poissons Ratio (x) = 0.62671 0.00446
# Poissons Ratio (y) = 0.71770 -0.13201
# Poissons Ratio (z) = 0.00480 -0.12398
#
# Static dielectric constant tensor:
#      x y z
#    x 4.469100 0.150930 -0.229240 
#    y 0.150930 4.452340 0.170190 
#    z -0.229240 0.170190 5.122030 
# 
# 
# High freq. dielectric constant tensor:
#      x y z
#    x 1.991850 0.014430 -0.003730 
#    y 0.014430 1.990110 0.005010 
#    z -0.003730 0.005010 2.021840 
# 
# From -- ./inp_files/382546.got.cif
#   From: 2010.06.25/outbox.cif.g09.slc.cpg/sg2_192_cif.got.tgz:382546.got - 2010.06.27 13:26:56.
