data_PCOD8031178
_publ_section_title
;
Structure prediction by ZEFSAII (Michael W. Deem and Ramdas Pophale) SiO2 
 PCOD8031178
Probable space group: P -1
;
_chemical_formula_sum "Si O2"
_cell_formula_units_Z 14
_cell_length_a 8.577079
_cell_length_b 12.844812
_cell_length_c 21.034506
_cell_angle_alpha 26.732075
_cell_angle_beta 135.741522
_cell_angle_gamma 118.366782
_cell_volume 619.562429
_symmetry_space_group_name_H-M "P -1"
_symmetry_group_IT_number 2
_symmetry_cell_setting 'triclinic'
loop_
_space_group_symop_operation_xyz
x,y,z
-x,-y,-z
loop_
_atom_site_type_symbol
_atom_site_label
_atom_site_fract_x
_atom_site_fract_y
_atom_site_fract_z
Si Si1 0.997700 0.254423 0.664916
Si Si2 0.513389 0.701276 0.082345
Si Si3 0.215196 0.210161 0.449554
Si Si4 0.727720 0.036530 0.926040
Si Si5 0.315461 0.388527 0.516343
Si Si6 0.489863 0.559594 0.652818
Si Si7 0.376740 0.615483 0.833382
O O1 0.000000 0.500000 0.500000
O O2 0.940637 0.349184 0.670057
O O3 0.764634 0.234059 0.575435
O O4 0.260724 0.969495 0.889419
O O5 0.593067 0.458462 0.289221
O O6 0.453317 0.601507 0.053407
O O7 0.749189 0.761094 0.109103
O O8 0.238045 0.307585 0.472981
O O9 0.317831 0.325009 0.361210
O O10 0.914915 0.326285 0.283450
O O11 0.381887 0.885421 0.673587
O O12 0.490250 0.129495 0.754405
O O13 0.631999 0.255027 0.834269
O O14 0.000000 0.000000 0.000000
O O15 0.500000 0.500000 0.500000
O O16 0.500000 0.500000 0.000000
#
# Coordination Sequence:
#
# PCOD8031178 Si02
#       7
#     2   2   2   2   2   2   2
#     4  11  24  41  65 107 150 181 221 290 365 421
#     4  12  26  43  68 103 141 185 238 291 356 420
#     4  11  25  50  72 104 141 187 246 289 352 422
#     4  11  23  38  66 104 143 183 232 286 349 426
#     4  11  22  42  71 103 141 185 225 285 358 421
#     4  11  25  41  68 104 143 184 225 294 361 423
#     4  11  28  49  77  98 136 193 248 299 341 425
#
# _framework density 22.596592000000001
#
# number of rings (size 3 to 8) (size 9 to 14) (size 15 to 20)
#    0.000    0.857    5.714    2.143    4.000    2.857 
#    0.000    1.429    0.000    0.000    0.000    0.000 
#    0.000    0.000    0.000    0.000    0.000    0.000 
#
# Total GULP energy -173498.874134 kJ/mol
# GULP energy per Si atom -12392.776724 kJ/mol
# Density = 2.254516 g / cm^3
# Si number density = 22.596592 Si / 1000 Ang^3
#
#
#
# Elastic Constant Matrix: (Units=GPa)
#
#
# Indices 1 2 3 4 5 6 
#
# 1 153.4426 73.8269 38.5188 -9.1458 -20.0996 -0.5146
# 2 73.8269 144.0851 56.3471 0.6419 -10.0553 0.1856
# 3 38.5188 56.3471 93.8393 -1.5340 -1.8752 -8.3957
# 4 -9.1458 0.6419 -1.5340 35.9814 -3.0923 -8.3630
# 5 -20.0996 -10.0553 -1.8752 -3.0923 38.9612 -7.6122
# 6 -0.5146 0.1856 -8.3957 -8.3630 -7.6122 32.9438
#
#
#
# Elastic Compliance Matrix: (Units=1/GPa)
#
#
# Indices 1 2 3 4 5 6 
#
# 1 0.009589 -0.004180 -0.001130 0.003244 0.004408 0.001727
# 2 -0.004180 0.011107 -0.005161 -0.001941 -0.000074 -0.001953
# 3 -0.001130 -0.005161 0.014592 0.001326 -0.000328 0.003991
# 4 0.003244 -0.001941 0.001326 0.031441 0.005623 0.009680
# 5 0.004408 -0.000074 -0.000328 0.005623 0.029982 0.008341
# 6 0.001727 -0.001953 0.003991 0.009680 0.008341 0.035795
#
#
# Mechanical properties :
#
#
# Convention : Reuss Voigt Hill
#
# Bulk Modulus (GPa) = 69.71607 80.97250 75.34429
# Shear Modulus (GPa) = 31.59983 36.42223 34.01103
#
# Velocity S-wave (km/s) = 3.74362 4.01914 3.88382
# Velocity P-wave (km/s) = 7.04313 7.57956 7.31626
#
# Compressibility (1/GPa) = 0.01434390
#
# Stress axis : x y z
#
# Youngs Moduli (GPa) = 104.29032 90.03727 68.53179
#
# Poissons Ratio (x) = 0.37636 0.07746
# Poissons Ratio (y) = 0.43594 0.35370
# Poissons Ratio (z) = 0.11787 0.46470
#
# Static dielectric constant tensor:
#      x y z
#    x 4.527840 0.160480 0.147200 
#    y 0.160480 4.049220 0.078140 
#    z 0.147200 0.078140 4.760580 
# 
# 
# High freq. dielectric constant tensor:
#      x y z
#    x 1.906540 0.000630 -0.004820 
#    y 0.000630 1.882450 0.011030 
#    z -0.004820 0.011030 1.898450 
# 
# From -- ./inp_files/416209.got.cif
#   From: 2010.06.25/outbox.cif.g09.slc.cpg/sg2_209_cif.got.tgz:416209.got - 2010.06.27 13:26:56.
