data_PCOD8031672
_publ_section_title
;
Structure prediction by ZEFSAII (Michael W. Deem and Ramdas Pophale) SiO2 
 PCOD8031672
Probable space group: P -1
;
_chemical_formula_sum "Si O2"
_cell_formula_units_Z 16
_cell_length_a 12.345485
_cell_length_b 11.313636
_cell_length_c 8.614399
_cell_angle_alpha 109.142440
_cell_angle_beta 129.605016
_cell_angle_gamma 49.397428
_cell_volume 696.002551
_symmetry_space_group_name_H-M "P -1"
_symmetry_group_IT_number 2
_symmetry_cell_setting 'triclinic'
loop_
_space_group_symop_operation_xyz
x,y,z
-x,-y,-z
loop_
_atom_site_type_symbol
_atom_site_label
_atom_site_fract_x
_atom_site_fract_y
_atom_site_fract_z
Si Si1 0.099398 0.887340 0.897225
Si Si2 0.574894 0.446532 0.871042
Si Si3 0.853323 0.668406 0.791795
Si Si4 0.777094 0.932300 0.059269
Si Si5 0.057296 0.214098 0.530792
Si Si6 0.239833 0.430793 0.051490
Si Si7 0.285317 0.427118 0.608782
Si Si8 0.380339 0.192644 0.839683
O O1 0.975297 0.884829 0.656434
O O2 0.205047 0.936639 0.925733
O O3 0.233954 0.717539 0.020952
O O4 0.000000 0.000000 0.000000
O O5 0.603989 0.553406 0.834940
O O6 0.425944 0.439644 0.651215
O O7 0.500000 0.500000 0.000000
O O8 0.814124 0.566032 0.818338
O O9 0.733901 0.696526 0.547888
O O10 0.810423 0.822715 0.897805
O O11 0.052621 0.570207 0.863897
O O12 0.914175 0.842192 0.287795
O O13 0.572689 0.028547 0.963428
O O14 0.241897 0.173759 0.622488
O O15 0.897627 0.400245 0.458414
O O16 0.304402 0.260384 0.973046
O O17 0.371096 0.335973 0.812030
#
# Coordination Sequence:
#
# PCOD8031672 Si02
#       8
#     2   2   2   2   2   2   2   2
#     4  12  27  46  69 104 145 183 226 290 359 414
#     4  12  23  45  72 103 139 185 238 291 339 414
#     4  11  25  43  70 107 141 181 233 290 354 412
#     4  12  26  48  68 103 149 180 225 293 355 422
#     4  12  25  45  74 102 134 193 235 278 355 421
#     4  11  22  45  70  99 145 182 232 293 344 410
#     4  12  25  43  75 106 134 186 243 286 345 414
#     4  12  24  44  73 103 137 185 237 290 343 419
#
# _framework density 22.988423999999998
#
# number of rings (size 3 to 8) (size 9 to 14) (size 15 to 20)
#    0.000    0.250    6.250    2.625    3.500    2.000 
#    0.000    0.000    0.000    0.000    0.000    0.000 
#    0.000    0.000    0.000    0.000    0.000    0.000 
#
# Total GULP energy -198284.694415 kJ/mol
# GULP energy per Si atom -12392.793401 kJ/mol
# Density = 2.293610 g / cm^3
# Si number density = 22.988424 Si / 1000 Ang^3
#
#
#
# Elastic Constant Matrix: (Units=GPa)
#
#
# Indices 1 2 3 4 5 6 
#
# 1 90.3065 7.1890 11.8542 12.5457 17.3930 -1.5278
# 2 7.1890 109.2353 37.3881 9.1630 0.6833 -26.0451
# 3 11.8542 37.3881 103.8956 20.3812 14.7532 -11.4076
# 4 12.5457 9.1630 20.3812 42.4177 3.3656 2.6685
# 5 17.3930 0.6833 14.7532 3.3656 37.4335 -0.5534
# 6 -1.5278 -26.0451 -11.4076 2.6685 -0.5534 42.5624
#
#
#
# Elastic Compliance Matrix: (Units=1/GPa)
#
#
# Indices 1 2 3 4 5 6 
#
# 1 0.012638 -0.000519 0.000233 -0.003310 -0.005652 0.000332
# 2 -0.000519 0.012050 -0.003542 -0.001286 0.001629 0.006508
# 3 0.000233 -0.003542 0.012694 -0.005136 -0.004563 0.001506
# 4 -0.003310 -0.001286 -0.005136 0.027467 0.001057 -0.003991
# 5 -0.005652 0.001629 -0.004563 0.001057 0.031012 -0.000092
# 6 0.000332 0.006508 0.001506 -0.003991 -0.000092 0.028142
#
#
# Mechanical properties :
#
#
# Convention : Reuss Voigt Hill
#
# Bulk Modulus (GPa) = 33.63930 46.25558 39.94744
# Shear Modulus (GPa) = 35.31888 40.94980 38.13434
#
# Velocity S-wave (km/s) = 3.92392 4.22515 4.07732
# Velocity P-wave (km/s) = 5.93249 6.63080 6.29134
#
# Compressibility (1/GPa) = 0.02972714
#
# Stress axis : x y z
#
# Youngs Moduli (GPa) = 79.12509 82.98531 78.77958
#
# Poissons Ratio (x) = 0.04310 -0.01839
# Poissons Ratio (y) = 0.04109 0.27901
# Poissons Ratio (z) = -0.01847 0.29390
#
# Static dielectric constant tensor:
#      x y z
#    x 4.332300 0.185270 0.216170 
#    y 0.185270 3.958860 0.151510 
#    z 0.216170 0.151510 4.194400 
# 
# 
# High freq. dielectric constant tensor:
#      x y z
#    x 1.928440 0.008680 0.010540 
#    y 0.008680 1.905760 0.008550 
#    z 0.010540 0.008550 1.900720 
# 
# From -- ./inp_files/262831.got.cif
#   From: 2010.06.25/outbox.cif.g09.slc.cpg/sg2_132_cif.got.tgz:262831.got - 2010.06.27 13:26:56.
