data_PCOD8031989
_publ_section_title
;
Structure prediction by ZEFSAII (Michael W. Deem and Ramdas Pophale) SiO2 
 PCOD8031989
Probable space group: P -1
;
_chemical_formula_sum "Si O2"
_cell_formula_units_Z 16
_cell_length_a 9.490934
_cell_length_b 17.460451
_cell_length_c 9.764966
_cell_angle_alpha 121.043468
_cell_angle_beta 136.979496
_cell_angle_gamma 84.852174
_cell_volume 823.781134
_symmetry_space_group_name_H-M "P -1"
_symmetry_group_IT_number 2
_symmetry_cell_setting 'triclinic'
loop_
_space_group_symop_operation_xyz
x,y,z
-x,-y,-z
loop_
_atom_site_type_symbol
_atom_site_label
_atom_site_fract_x
_atom_site_fract_y
_atom_site_fract_z
Si Si1 0.663551 0.073532 0.068604
Si Si2 0.377036 0.608519 0.106289
Si Si3 0.570380 0.217174 0.508080
Si Si4 0.355324 0.961396 0.498272
Si Si5 0.898106 0.295763 0.563573
Si Si6 0.923396 0.965803 0.069169
Si Si7 0.569277 0.578625 0.935041
Si Si8 0.102945 0.530951 0.450360
O O1 0.773884 0.188706 0.300177
O O2 0.885319 0.055430 0.187131
O O3 0.500000 0.000000 0.000000
O O4 0.500202 0.048305 0.794462
O O5 0.482047 0.717276 0.356740
O O6 0.439123 0.529530 0.152926
O O7 0.489416 0.621761 0.047705
O O8 0.091076 0.564829 0.864944
O O9 0.679389 0.149865 0.588525
O O10 0.747190 0.292119 0.586098
O O11 0.317979 0.141603 0.193132
O O12 0.102614 0.952006 0.282211
O O13 0.500000 0.000000 0.500000
O O14 0.906157 0.370465 0.519227
O O15 0.167883 0.332673 0.838562
O O16 0.000000 0.000000 0.000000
O O17 0.373731 0.553960 0.653706
O O18 0.000000 0.500000 0.500000
#
# Coordination Sequence:
#
# PCOD8031989 Si02
#       8
#     2   2   2   2   2   2   2   2
#     4  11  23  44  63  95 135 168 212 271 319 375
#     4   9  20  39  63  87 121 160 202 266 310 376
#     4  11  24  41  60  93 129 163 215 261 324 375
#     4  11  23  41  64  90 126 170 219 260 313 382
#     4  11  23  40  61  92 129 164 204 267 316 374
#     4  11  23  43  64  92 132 171 215 267 318 378
#     4   9  20  38  63  90 119 157 211 254 320 378
#     4   9  20  40  60  91 123 155 211 258 309 383
#
# _framework density 19.422635
#
# number of rings (size 3 to 8) (size 9 to 14) (size 15 to 20)
#    0.000    1.750    5.000    0.750    1.750    7.500 
#    0.000    1.250    0.000    0.000    0.000    0.000 
#    0.000    0.000    0.000    0.000    0.000    0.000 
#
# Total GULP energy -198286.580725 kJ/mol
# GULP energy per Si atom -12392.911295 kJ/mol
# Density = 1.937843 g / cm^3
# Si number density = 19.422635 Si / 1000 Ang^3
#
#
#
# Elastic Constant Matrix: (Units=GPa)
#
#
# Indices 1 2 3 4 5 6 
#
# 1 90.7148 26.8921 29.4634 -7.0204 12.8117 0.3389
# 2 26.8921 80.4821 33.6168 -10.1150 7.6171 0.5096
# 3 29.4634 33.6168 97.8740 -16.7137 23.9978 -15.0483
# 4 -7.0204 -10.1150 -16.7137 37.6715 -9.1814 7.2465
# 5 12.8117 7.6171 23.9978 -9.1814 40.7744 3.6564
# 6 0.3389 0.5096 -15.0483 7.2465 3.6564 36.1351
#
#
#
# Elastic Compliance Matrix: (Units=1/GPa)
#
#
# Indices 1 2 3 4 5 6 
#
# 1 0.013046 -0.003098 -0.002509 0.000208 -0.001910 -0.000972
# 2 -0.003098 0.015669 -0.004906 0.002436 0.001742 -0.002900
# 3 -0.002509 -0.004906 0.016050 0.002024 -0.007929 0.007173
# 4 0.000208 0.002436 0.002024 0.030671 0.005726 -0.005924
# 5 -0.001910 0.001742 -0.007929 0.005726 0.031441 -0.007638
# 6 -0.000972 -0.002900 0.007173 -0.005924 -0.007638 0.032672
#
#
# Mechanical properties :
#
#
# Convention : Reuss Voigt Hill
#
# Bulk Modulus (GPa) = 42.12520 49.89062 46.00791
# Shear Modulus (GPa) = 29.67534 34.85609 32.26571
#
# Velocity S-wave (km/s) = 3.91304 4.24088 4.08026
# Velocity P-wave (km/s) = 6.49243 7.05143 6.77770
#
# Compressibility (1/GPa) = 0.02373876
#
# Stress axis : x y z
#
# Youngs Moduli (GPa) = 76.64977 63.81888 62.30403
#
# Poissons Ratio (x) = 0.19773 0.15631
# Poissons Ratio (y) = 0.23749 0.30569
# Poissons Ratio (z) = 0.19230 0.31312
#
# Static dielectric constant tensor:
#      x y z
#    x 3.663000 0.575360 -0.115110 
#    y 0.575360 1.358500 1.512710 
#    z -0.115110 1.512710 2.352790 
# 
# 
# High freq. dielectric constant tensor:
#      x y z
#    x 1.755030 0.000830 0.013590 
#    y 0.000830 1.751960 -0.001730 
#    z 0.013590 -0.001730 1.765230 
# 
# From -- ./inp_files/202273.got.cif
#   From: 2010.06.25/outbox.cif.g09.slc.cpg/sg2_102_cif.got.tgz:202273.got - 2010.06.27 13:26:56.
