data_PCOD8031726
_publ_section_title
;
Structure prediction by ZEFSAII (Michael W. Deem and Ramdas Pophale) SiO2 
 PCOD8031726
Probable space group: P -1
;
_chemical_formula_sum "Si O2"
_cell_formula_units_Z 16
_cell_length_a 14.212221
_cell_length_b 11.070715
_cell_length_c 14.433770
_cell_angle_alpha 113.154242
_cell_angle_beta 28.253238
_cell_angle_gamma 131.672285
_cell_volume 673.637648
_symmetry_space_group_name_H-M "P -1"
_symmetry_group_IT_number 2
_symmetry_cell_setting 'triclinic'
loop_
_space_group_symop_operation_xyz
x,y,z
-x,-y,-z
loop_
_atom_site_type_symbol
_atom_site_label
_atom_site_fract_x
_atom_site_fract_y
_atom_site_fract_z
Si Si1 0.589339 0.530458 0.326394
Si Si2 0.719949 0.842185 0.815609
Si Si3 0.621096 0.812684 0.686501
Si Si4 0.339186 0.878511 0.236814
Si Si5 0.242269 0.465570 0.440293
Si Si6 0.750176 0.728807 0.936801
Si Si7 0.239482 0.757080 0.492261
Si Si8 0.882033 0.032807 0.030934
O O1 0.500000 0.500000 0.500000
O O2 0.595275 0.380137 0.245893
O O3 0.354037 0.491910 0.454743
O O4 0.910321 0.744115 0.099996
O O5 0.634745 0.753944 0.759559
O O6 0.633757 0.686425 0.918388
O O7 0.553665 0.897513 0.994276
O O8 0.061603 0.034503 0.589209
O O9 0.504387 0.905671 0.816401
O O10 0.256714 0.765429 0.368787
O O11 0.035320 0.760537 0.410560
O O12 0.127304 0.560041 0.562452
O O13 0.497092 0.560863 0.174205
O O14 0.019247 0.759037 0.722829
O O15 0.856764 0.927827 0.930750
O O16 0.565323 0.938443 0.304394
O O17 0.000000 0.000000 0.000000
#
# Coordination Sequence:
#
# PCOD8031726 Si02
#       8
#     2   2   2   2   2   2   2   2
#     4  12  27  50  78 102 150 201 248 305 369 436
#     4  11  22  45  74 103 158 189 237 311 370 445
#     4  11  26  46  70 108 145 203 243 294 379 445
#     4  12  24  45  75 111 152 189 242 306 383 442
#     4  11  25  47  70 112 150 189 242 315 368 440
#     4  11  23  44  76 108 147 192 245 306 372 436
#     4  11  24  42  77 111 143 195 248 296 381 436
#     4  11  23  51  72 103 151 194 247 308 352 429
#
# _framework density 23.751639000000001
#
# number of rings (size 3 to 8) (size 9 to 14) (size 15 to 20)
#    0.000    0.750    6.250    3.000    0.000    3.000 
#    0.000    1.875    0.000    0.000    0.000    0.000 
#    0.000    0.000    0.000    0.000    0.000    0.000 
#
# Total GULP energy -198471.929581 kJ/mol
# GULP energy per Si atom -12404.495599 kJ/mol
# Density = 2.369758 g / cm^3
# Si number density = 23.751639 Si / 1000 Ang^3
#
#
#
# Elastic Constant Matrix: (Units=GPa)
#
#
# Indices 1 2 3 4 5 6 
#
# 1 130.8812 18.3631 28.7352 10.8773 13.0950 -3.6724
# 2 18.3631 112.6326 32.1685 3.6130 1.8169 -0.2665
# 3 28.7352 32.1685 121.3661 24.8022 -7.3106 -1.2959
# 4 10.8773 3.6130 24.8022 34.6404 -6.9493 -2.5553
# 5 13.0950 1.8169 -7.3106 -6.9493 42.9263 1.1342
# 6 -3.6724 -0.2665 -1.2959 -2.5553 1.1342 36.7054
#
#
#
# Elastic Compliance Matrix: (Units=1/GPa)
#
#
# Indices 1 2 3 4 5 6 
#
# 1 0.008621 -0.000833 -0.001581 -0.002078 -0.003220 0.000755
# 2 -0.000833 0.009737 -0.002621 0.001034 -0.000436 -0.000020
# 3 -0.001581 -0.002621 0.010752 -0.006680 0.001351 -0.000304
# 4 -0.002078 0.001034 -0.006680 0.035362 0.005128 0.001867
# 5 -0.003220 -0.000436 0.001351 0.005128 0.025375 -0.000705
# 6 0.000755 -0.000020 -0.000304 0.001867 -0.000705 0.027460
#
#
# Mechanical properties :
#
#
# Convention : Reuss Voigt Hill
#
# Bulk Modulus (GPa) = 52.52854 58.15706 55.34280
# Shear Modulus (GPa) = 37.39017 41.89529 39.64273
#
# Velocity S-wave (km/s) = 3.97194 4.20443 4.08984
# Velocity P-wave (km/s) = 6.57258 6.93601 6.75674
#
# Compressibility (1/GPa) = 0.01903727
#
# Stress axis : x y z
#
# Youngs Moduli (GPa) = 115.99921 102.70348 93.00672
#
# Poissons Ratio (x) = 0.08560 0.14708
# Poissons Ratio (y) = 0.09668 0.24379
# Poissons Ratio (z) = 0.18344 0.26921
#
# Static dielectric constant tensor:
#      x y z
#    x 4.451210 0.005620 -0.047500 
#    y 0.005620 4.646580 -0.235810 
#    z -0.047500 -0.235810 4.428510 
# 
# 
# High freq. dielectric constant tensor:
#      x y z
#    x 1.946020 -0.012340 0.004410 
#    y -0.012340 1.948060 0.002080 
#    z 0.004410 0.002080 1.938440 
# 
# From -- ./inp_files/531865.got.cif
#   From: 2010.06.25/outbox.cif.g09.slc.cpg/sg2_266_cif.got.tgz:531865.got - 2010.06.27 13:26:56.
