data_PCOD8031075
_publ_section_title
;
Structure prediction by ZEFSAII (Michael W. Deem and Ramdas Pophale) SiO2 
 PCOD8031075
Probable space group: P -1
;
_chemical_formula_sum "Si O2"
_cell_formula_units_Z 16
_cell_length_a 17.231036
_cell_length_b 17.695628
_cell_length_c 5.302240
_cell_angle_alpha 59.337442
_cell_angle_beta 134.008207
_cell_angle_gamma 146.938753
_cell_volume 623.497436
_symmetry_space_group_name_H-M "P -1"
_symmetry_group_IT_number 2
_symmetry_cell_setting 'triclinic'
loop_
_space_group_symop_operation_xyz
x,y,z
-x,-y,-z
loop_
_atom_site_type_symbol
_atom_site_label
_atom_site_fract_x
_atom_site_fract_y
_atom_site_fract_z
Si Si1 0.322286 0.436870 0.238668
Si Si2 0.320973 0.927601 0.314996
Si Si3 0.415679 0.789189 0.388558
Si Si4 0.176340 0.005530 0.689755
Si Si5 0.656440 0.812854 0.732116
Si Si6 0.131522 0.673425 0.659719
Si Si7 0.206451 0.279844 0.750554
Si Si8 0.248706 0.583840 0.798365
O O1 0.500000 0.500000 0.500000
O O2 0.228094 0.350565 0.428958
O O3 0.204953 0.340274 0.893025
O O4 0.353542 0.561436 0.123545
O O5 0.182610 0.770671 0.381439
O O6 0.500000 0.000000 0.500000
O O7 0.398903 0.043822 0.502783
O O8 0.222512 0.930140 0.894112
O O9 0.459338 0.730263 0.414153
O O10 0.372317 0.725656 0.675559
O O11 0.268730 0.770176 0.032717
O O12 0.971630 0.886007 0.400556
O O13 0.253681 0.110097 0.458875
O O14 0.240070 0.086317 0.960516
O O15 0.641830 0.697579 0.920943
O O16 0.175695 0.597192 0.839918
O O17 0.935796 0.562203 0.501673
#
# Coordination Sequence:
#
# PCOD8031075 Si02
#       8
#     2   2   2   2   2   2   2   2
#     4  12  28  46  71 103 139 188 246 297 354 421
#     4  11  22  42  66 105 134 180 234 293 355 421
#     4  11  24  41  72  98 141 182 238 292 361 424
#     4  11  24  43  69 106 143 182 236 292 362 432
#     4  11  24  42  73 106 140 187 232 294 358 431
#     4  11  24  44  70  98 144 185 240 290 358 424
#     4  12  25  46  72 100 143 189 236 301 358 422
#     4  11  26  45  67 103 139 191 238 293 354 428
#
# _framework density 25.661693
#
# number of rings (size 3 to 8) (size 9 to 14) (size 15 to 20)
#    0.000    0.750    1.250    5.625    5.250    3.000 
#    0.000    0.000    0.000    0.000    0.000    0.000 
#    0.000    0.000    0.000    0.000    0.000    0.000 
#
# Total GULP energy -198238.142052 kJ/mol
# GULP energy per Si atom -12389.883878 kJ/mol
# Density = 2.560329 g / cm^3
# Si number density = 25.661693 Si / 1000 Ang^3
#
#
#
# Elastic Constant Matrix: (Units=GPa)
#
#
# Indices 1 2 3 4 5 6 
#
# 1 79.8333 14.4376 24.6457 -24.9458 10.0750 -9.7385
# 2 14.4376 86.3009 12.3466 -14.7263 -3.4171 -1.1087
# 3 24.6457 12.3466 79.7144 -24.1488 -2.8399 -1.1609
# 4 -24.9458 -14.7263 -24.1488 34.2798 7.6163 10.2563
# 5 10.0750 -3.4171 -2.8399 7.6163 53.2803 -6.5685
# 6 -9.7385 -1.1087 -1.1609 10.2563 -6.5685 34.6070
#
#
#
# Elastic Compliance Matrix: (Units=1/GPa)
#
#
# Indices 1 2 3 4 5 6 
#
# 1 0.017809 -0.000804 -0.001794 0.012450 -0.005265 0.000237
# 2 -0.000804 0.012600 -0.000180 0.005084 0.000061 -0.001324
# 3 -0.001794 -0.000180 0.016533 0.011516 -0.000873 -0.003535
# 4 0.012450 0.005084 0.011516 0.055318 -0.011103 -0.014449
# 5 -0.005265 0.000061 -0.000873 -0.011103 0.022044 0.005966
# 6 0.000237 -0.001324 -0.003535 -0.014449 0.005966 0.034216
#
#
# Mechanical properties :
#
#
# Convention : Reuss Voigt Hill
#
# Bulk Modulus (GPa) = 24.16238 38.74538 31.45388
# Shear Modulus (GPa) = 28.11006 37.39466 32.75236
#
# Velocity S-wave (km/s) = 3.31329 3.82149 3.57643
# Velocity P-wave (km/s) = 4.90646 5.88244 5.41647
#
# Compressibility (1/GPa) = 0.04138666
#
# Stress axis : x y z
#
# Youngs Moduli (GPa) = 56.15189 79.36200 60.48373
#
# Poissons Ratio (x) = 0.06378 0.10852
# Poissons Ratio (y) = 0.04513 0.01090
# Poissons Ratio (z) = 0.10075 0.01430
#
# Static dielectric constant tensor:
#      x y z
#    x 4.888790 -0.432890 0.331480 
#    y -0.432890 5.098280 0.256950 
#    z 0.331480 0.256950 5.169720 
# 
# 
# High freq. dielectric constant tensor:
#      x y z
#    x 2.028710 -0.013890 0.017990 
#    y -0.013890 2.026620 0.003680 
#    z 0.017990 0.003680 2.042390 
# 
# From -- ./inp_files/111630.got.cif
#   From: 2010.06.25/outbox.cif.g09.slc.cpg/sg2_56_cif.got.tgz:111630.got - 2010.06.27 13:26:56.
