data_PCOD8031545
_publ_section_title
;
Structure prediction by ZEFSAII (Michael W. Deem and Ramdas Pophale) SiO2 
 PCOD8031545
Probable space group: P -1
;
_chemical_formula_sum "Si O2"
_cell_formula_units_Z 16
_cell_length_a 19.621904
_cell_length_b 8.839255
_cell_length_c 11.272214
_cell_angle_alpha 110.242976
_cell_angle_beta 137.123445
_cell_angle_gamma 39.304789
_cell_volume 723.403511
_symmetry_space_group_name_H-M "P -1"
_symmetry_group_IT_number 2
_symmetry_cell_setting 'triclinic'
loop_
_space_group_symop_operation_xyz
x,y,z
-x,-y,-z
loop_
_atom_site_type_symbol
_atom_site_label
_atom_site_fract_x
_atom_site_fract_y
_atom_site_fract_z
Si Si1 0.089633 0.560741 0.960312
Si Si2 0.936833 0.727792 0.566486
Si Si3 0.717949 0.105617 0.742997
Si Si4 0.155016 0.912690 0.650833
Si Si5 0.741630 0.981906 0.993616
Si Si6 0.456804 0.263856 0.880722
Si Si7 0.402187 0.971748 0.751475
Si Si8 0.395204 0.394714 0.302332
O O1 0.075362 0.597355 0.807871
O O2 0.244734 0.474186 0.180791
O O3 0.915091 0.820641 0.879521
O O4 0.135759 0.317120 0.983240
O O5 0.000000 0.500000 0.500000
O O6 0.879876 0.961399 0.486505
O O7 0.772600 0.883518 0.476519
O O8 0.695234 0.153006 0.868626
O O9 0.582643 0.141991 0.539310
O O10 0.670885 0.338665 0.690554
O O11 0.330466 0.580725 0.790960
O O12 0.156623 0.048055 0.788429
O O13 0.000000 0.000000 0.500000
O O14 0.576011 0.112393 0.875775
O O15 0.363076 0.214454 0.759113
O O16 0.572059 0.128640 0.109280
O O17 0.567668 0.703736 0.813212
#
# Coordination Sequence:
#
# PCOD8031545 Si02
#       8
#     2   2   2   2   2   2   2   2
#     4  12  25  48  71  99 136 185 235 281 343 410
#     4  12  24  43  71 101 140 180 225 281 348 416
#     4  11  27  46  71  97 138 179 238 289 336 405
#     4  12  27  41  66 108 142 179 223 285 349 412
#     4  12  25  46  67 100 140 178 226 287 340 411
#     4  11  24  42  69 101 136 180 227 278 351 412
#     4  11  22  44  71  96 138 183 223 285 344 415
#     4  11  25  47  71 100 130 187 234 284 345 398
#
# _framework density 22.117667999999998
#
# number of rings (size 3 to 8) (size 9 to 14) (size 15 to 20)
#    0.000    0.500    5.000    2.625    7.000    0.500 
#    2.250    0.000    0.000    0.000    0.000    0.000 
#    0.000    0.000    0.000    0.000    0.000    0.000 
#
# Total GULP energy -198392.239442 kJ/mol
# GULP energy per Si atom -12399.514965 kJ/mol
# Density = 2.206733 g / cm^3
# Si number density = 22.117668 Si / 1000 Ang^3
#
#
#
# Elastic Constant Matrix: (Units=GPa)
#
#
# Indices 1 2 3 4 5 6 
#
# 1 96.0144 15.9286 39.8313 -4.6202 11.7128 -3.2031
# 2 15.9286 86.8881 13.3350 -12.7693 14.1849 5.8436
# 3 39.8313 13.3350 91.2641 5.7032 26.7335 4.7397
# 4 -4.6202 -12.7693 5.7032 32.4260 -2.5552 2.1147
# 5 11.7128 14.1849 26.7335 -2.5552 42.6018 -1.0302
# 6 -3.2031 5.8436 4.7397 2.1147 -1.0302 40.6745
#
#
#
# Elastic Compliance Matrix: (Units=1/GPa)
#
#
# Indices 1 2 3 4 5 6 
#
# 1 0.013234 -0.001411 -0.006050 0.002337 0.000813 0.001849
# 2 -0.001411 0.013304 -0.000500 0.005002 -0.003484 -0.002312
# 3 -0.006050 -0.000500 0.016709 -0.004553 -0.008985 -0.002342
# 4 0.002337 0.005002 -0.004553 0.034257 0.002562 -0.001720
# 5 0.000813 -0.003484 -0.008985 0.002562 0.030256 0.002245
# 6 0.001849 -0.002312 -0.002342 -0.001720 0.002245 0.025483
#
#
# Mechanical properties :
#
#
# Convention : Reuss Voigt Hill
#
# Bulk Modulus (GPa) = 36.59677 45.81739 41.20708
# Shear Modulus (GPa) = 31.59110 36.81191 34.20150
#
# Velocity S-wave (km/s) = 3.78341 4.08409 3.93662
# Velocity P-wave (km/s) = 5.97226 6.55744 6.27168
#
# Compressibility (1/GPa) = 0.02732482
#
# Stress axis : x y z
#
# Youngs Moduli (GPa) = 75.56310 75.16590 59.84887
#
# Poissons Ratio (x) = 0.10607 0.36207
# Poissons Ratio (y) = 0.10663 0.02993
# Poissons Ratio (z) = 0.45714 0.03758
#
# Static dielectric constant tensor:
#      x y z
#    x 3.664460 -0.583080 0.738470 
#    y -0.583080 2.125640 1.785660 
#    z 0.738470 1.785660 2.264480 
# 
# 
# High freq. dielectric constant tensor:
#      x y z
#    x 1.872580 0.002170 0.010490 
#    y 0.002170 1.874930 -0.004290 
#    z 0.010490 -0.004290 1.873330 
# 
# From -- ./inp_files/274057.got.cif
#   From: 2010.06.25/outbox.cif.g09.slc.cpg/sg2_138_cif.got.tgz:274057.got - 2010.06.27 13:26:56.
