data_PCOD8031799
_publ_section_title
;
Structure prediction by ZEFSAII (Michael W. Deem and Ramdas Pophale) SiO2 
 PCOD8031799
Probable space group: P -1
;
_chemical_formula_sum "Si O2"
_cell_formula_units_Z 16
_cell_length_a 9.014465
_cell_length_b 14.924123
_cell_length_c 14.451652
_cell_angle_alpha 142.224820
_cell_angle_beta 139.908492
_cell_angle_gamma 40.811733
_cell_volume 707.630768
_symmetry_space_group_name_H-M "P -1"
_symmetry_group_IT_number 2
_symmetry_cell_setting 'triclinic'
loop_
_space_group_symop_operation_xyz
x,y,z
-x,-y,-z
loop_
_atom_site_type_symbol
_atom_site_label
_atom_site_fract_x
_atom_site_fract_y
_atom_site_fract_z
Si Si1 0.895781 0.679636 0.628243
Si Si2 0.046884 0.681140 0.356254
Si Si3 0.653476 0.316013 0.039626
Si Si4 0.522216 0.191430 0.321207
Si Si5 0.292892 0.650481 0.120162
Si Si6 0.346201 0.164606 0.850418
Si Si7 0.761784 0.686989 0.895673
Si Si8 0.655719 0.818390 0.445432
O O1 0.668710 0.700338 0.605767
O O2 0.815586 0.796077 0.596798
O O3 0.000000 0.500000 0.500000
O O4 0.107076 0.720961 0.812921
O O5 0.252896 0.749996 0.537132
O O6 0.175633 0.492101 0.253016
O O7 0.924259 0.753120 0.258860
O O8 0.836027 0.726602 0.372693
O O9 0.416565 0.476383 0.082727
O O10 0.723892 0.345648 0.995039
O O11 0.560257 0.170596 0.886103
O O12 0.390527 0.199583 0.166502
O O13 0.621794 0.011725 0.255386
O O14 0.447660 0.748450 0.311476
O O15 0.004149 0.723694 0.070518
O O16 0.390838 0.260743 0.038961
O O17 0.500000 0.000000 0.500000
#
# Coordination Sequence:
#
# PCOD8031799 Si02
#       8
#     2   2   2   2   2   2   2   2
#     4  12  26  44  73 102 137 188 233 284 349 417
#     4  12  26  49  70 102 143 188 232 286 347 427
#     4  11  23  45  73  98 138 181 242 291 337 416
#     4  12  29  47  66 107 151 177 228 299 353 406
#     4  11  22  46  73  98 140 180 239 293 341 409
#     4  12  27  45  73 104 137 186 235 285 355 409
#     4  12  26  46  75 102 137 192 235 283 347 420
#     4  12  27  44  73 106 139 183 232 292 355 407
#
# _framework density 22.610662999999999
#
# number of rings (size 3 to 8) (size 9 to 14) (size 15 to 20)
#    0.000    0.250    5.000    3.750    7.000    1.500 
#    0.000    0.000    0.000    0.000    0.000    0.000 
#    0.000    0.000    0.000    0.000    0.000    0.000 
#
# Total GULP energy -198426.765674 kJ/mol
# GULP energy per Si atom -12401.672855 kJ/mol
# Density = 2.255920 g / cm^3
# Si number density = 22.610663 Si / 1000 Ang^3
#
#
#
# Elastic Constant Matrix: (Units=GPa)
#
#
# Indices 1 2 3 4 5 6 
#
# 1 75.5564 27.1236 29.3420 -0.1355 2.6062 8.4113
# 2 27.1236 103.7778 33.0333 -18.2547 -1.1763 20.1627
# 3 29.3420 33.0333 92.6513 -12.9279 9.0134 5.1809
# 4 -0.1355 -18.2547 -12.9279 41.3858 7.0569 -8.9094
# 5 2.6062 -1.1763 9.0134 7.0569 49.0808 -2.6498
# 6 8.4113 20.1627 5.1809 -8.9094 -2.6498 32.4342
#
#
#
# Elastic Compliance Matrix: (Units=1/GPa)
#
#
# Indices 1 2 3 4 5 6 
#
# 1 0.016275 -0.002901 -0.004443 -0.003202 0.000204 -0.002571
# 2 -0.002901 0.013112 -0.002947 0.003544 0.000179 -0.005940
# 3 -0.004443 -0.002947 0.013984 0.003885 -0.002876 0.001582
# 4 -0.003202 0.003544 0.003885 0.028866 -0.004307 0.005584
# 5 0.000204 0.000179 -0.002876 -0.004307 0.021563 0.000874
# 6 -0.002571 -0.005940 0.001582 0.005584 0.000874 0.036543
#
#
# Mechanical properties :
#
#
# Convention : Reuss Voigt Hill
#
# Bulk Modulus (GPa) = 43.87941 50.10926 46.99433
# Shear Modulus (GPa) = 31.54162 36.74595 34.14378
#
# Velocity S-wave (km/s) = 3.73901 4.03570 3.89018
# Velocity P-wave (km/s) = 6.17162 6.62765 6.40369
#
# Compressibility (1/GPa) = 0.02278973
#
# Stress axis : x y z
#
# Youngs Moduli (GPa) = 61.44256 76.26821 71.50935
#
# Poissons Ratio (x) = 0.22126 0.31771
# Poissons Ratio (y) = 0.17825 0.21072
# Poissons Ratio (z) = 0.27298 0.22474
#
# Static dielectric constant tensor:
#      x y z
#    x 4.533400 0.285520 0.485260 
#    y 0.285520 4.376700 0.068440 
#    z 0.485260 0.068440 5.017740 
# 
# 
# High freq. dielectric constant tensor:
#      x y z
#    x 1.899350 0.010600 0.000100 
#    y 0.010600 1.901470 -0.014940 
#    z 0.000100 -0.014940 1.896990 
# 
# From -- ./inp_files/505645.got.cif
#   From: 2010.06.25/outbox.cif.g09.slc.cpg/sg2_253_cif.got.tgz:505645.got - 2010.06.27 13:26:56.
