data_PCOD8031319
_publ_section_title
;
Structure prediction by ZEFSAII (Michael W. Deem and Ramdas Pophale) SiO2 
 PCOD8031319
Probable space group: P -1
;
_chemical_formula_sum "Si O2"
_cell_formula_units_Z 14
_cell_length_a 30.041086
_cell_length_b 12.315080
_cell_length_c 15.242361
_cell_angle_alpha 147.171870
_cell_angle_beta 20.094223
_cell_angle_gamma 159.108011
_cell_volume 658.473178
_symmetry_space_group_name_H-M "P -1"
_symmetry_group_IT_number 2
_symmetry_cell_setting 'triclinic'
loop_
_space_group_symop_operation_xyz
x,y,z
-x,-y,-z
loop_
_atom_site_type_symbol
_atom_site_label
_atom_site_fract_x
_atom_site_fract_y
_atom_site_fract_z
Si Si1 0.002067 0.153997 0.864387
Si Si2 0.708194 0.147690 0.245043
Si Si3 0.211907 0.774739 0.345591
Si Si4 0.186419 0.191307 0.717950
Si Si5 0.142941 0.112293 0.231393
Si Si6 0.618293 0.912777 0.441296
Si Si7 0.373045 0.768529 0.205960
O O1 0.100737 0.492127 0.898061
O O2 0.128374 0.175506 0.714603
O O3 0.996579 0.043545 0.704237
O O4 0.768082 0.899246 0.161175
O O5 0.500000 0.000000 0.500000
O O6 0.690062 0.123158 0.366497
O O7 0.744776 0.967160 0.017570
O O8 0.225465 0.631038 0.301841
O O9 0.000000 0.500000 0.500000
O O10 0.248087 0.034451 0.498177
O O11 0.387327 0.937256 0.061343
O O12 0.380752 0.557972 0.636940
O O13 0.000000 0.000000 0.000000
O O14 0.325016 0.493580 0.147396
O O15 0.000000 0.000000 0.500000
O O16 0.665267 0.105824 0.567825
#
# Coordination Sequence:
#
# PCOD8031319 Si02
#       7
#     2   2   2   2   2   2   2
#     4  11  23  42  69  93 131 172 214 271 323 391
#     4  11  22  43  69  96 131 169 221 272 324 394
#     4  11  24  43  64  93 132 169 217 269 322 379
#     4  12  25  41  66  97 128 173 225 263 321 391
#     4  11  23  43  68  97 133 173 215 269 340 390
#     4  11  23  43  67  94 132 171 219 267 327 391
#     4  11  24  42  65  94 131 170 212 269 326 384
#
# _framework density 21.261308
#
# number of rings (size 3 to 8) (size 9 to 14) (size 15 to 20)
#    0.000    0.857    1.429    7.714    0.000    4.571 
#    5.143    1.429    0.000    0.000    0.000    0.000 
#    0.000    0.000    0.000    0.000    0.000    0.000 
#
# Total GULP energy -173629.293524 kJ/mol
# GULP energy per Si atom -12402.092395 kJ/mol
# Density = 2.121292 g / cm^3
# Si number density = 21.261308 Si / 1000 Ang^3
#
#
#
# Elastic Constant Matrix: (Units=GPa)
#
#
# Indices 1 2 3 4 5 6 
#
# 1 87.8570 49.5695 63.3925 -8.5932 6.9411 4.6025
# 2 49.5695 87.5687 41.3848 -3.0829 -0.9184 1.0565
# 3 63.3925 41.3848 128.1752 -6.4685 16.2566 0.9781
# 4 -8.5932 -3.0829 -6.4685 32.7895 9.1534 -3.8531
# 5 6.9411 -0.9184 16.2566 9.1534 40.5399 -0.2791
# 6 4.6025 1.0565 0.9781 -3.8531 -0.2791 38.4483
#
#
#
# Elastic Compliance Matrix: (Units=1/GPa)
#
#
# Indices 1 2 3 4 5 6 
#
# 1 0.022819 -0.009029 -0.007932 0.003848 -0.001813 -0.001909
# 2 -0.009029 0.017235 -0.001574 -0.001832 0.002985 0.000485
# 3 -0.007932 -0.001574 0.012835 0.001563 -0.004172 0.000793
# 4 0.003848 -0.001832 0.001563 0.034529 -0.009103 0.002944
# 5 -0.001813 0.002985 -0.004172 -0.009103 0.028770 -0.000462
# 6 -0.001909 0.000485 0.000793 0.002944 -0.000462 0.026496
#
#
# Mechanical properties :
#
#
# Convention : Reuss Voigt Hill
#
# Bulk Modulus (GPa) = 63.21281 68.03271 65.62276
# Shear Modulus (GPa) = 27.02294 32.30584 29.66439
#
# Velocity S-wave (km/s) = 3.56896 3.90226 3.73933
# Velocity P-wave (km/s) = 6.83954 7.23681 7.04097
#
# Compressibility (1/GPa) = 0.01581958
#
# Stress axis : x y z
#
# Youngs Moduli (GPa) = 43.82273 58.01986 77.91233
#
# Poissons Ratio (x) = 0.52386 0.61799
# Poissons Ratio (y) = 0.39568 0.12264
# Poissons Ratio (z) = 0.34760 0.09133
#
# Static dielectric constant tensor:
#      x y z
#    x 3.831890 -0.267940 0.090550 
#    y -0.267940 3.869870 0.028320 
#    z 0.090550 0.028320 3.892600 
# 
# 
# High freq. dielectric constant tensor:
#      x y z
#    x 1.840550 -0.005260 0.001920 
#    y -0.005260 1.842000 -0.003970 
#    z 0.001920 -0.003970 1.843530 
# 
# From -- ./inp_files/255874.got.cif
#   From: 2010.06.25/outbox.cif.g09.slc.cpg/sg2_128_cif.got.tgz:255874.got - 2010.06.27 13:26:56.
