data_PCOD8031957
_publ_section_title
;
Structure prediction by ZEFSAII (Michael W. Deem and Ramdas Pophale) SiO2 
 PCOD8031957
Probable space group: P -1
;
_chemical_formula_sum "Si O2"
_cell_formula_units_Z 16
_cell_length_a 7.927239
_cell_length_b 10.760645
_cell_length_c 13.762367
_cell_angle_alpha 108.608590
_cell_angle_beta 125.354538
_cell_angle_gamma 56.232246
_cell_volume 795.934287
_symmetry_space_group_name_H-M "P -1"
_symmetry_group_IT_number 2
_symmetry_cell_setting 'triclinic'
loop_
_space_group_symop_operation_xyz
x,y,z
-x,-y,-z
loop_
_atom_site_type_symbol
_atom_site_label
_atom_site_fract_x
_atom_site_fract_y
_atom_site_fract_z
Si Si1 0.975089 0.775529 0.561479
Si Si2 0.758940 0.784580 0.686068
Si Si3 0.863959 0.850052 0.083095
Si Si4 0.482610 0.845141 0.061723
Si Si5 0.959544 0.079933 0.647416
Si Si6 0.929046 0.174946 0.039366
Si Si7 0.595650 0.333979 0.454809
Si Si8 0.360770 0.087654 0.672168
O O1 0.924564 0.711736 0.628126
O O2 0.800569 0.773619 0.418270
O O3 0.247116 0.687835 0.595452
O O4 0.892665 0.949342 0.594898
O O5 0.630041 0.688828 0.649854
O O6 0.916025 0.788418 0.827159
O O7 0.562603 0.955387 0.643653
O O8 0.730912 0.764556 0.065530
O O9 0.996202 0.891319 0.220102
O O10 0.057364 0.752168 0.041537
O O11 0.669004 0.992176 0.994961
O O12 0.529708 0.856709 0.193782
O O13 0.337956 0.751811 0.987765
O O14 0.748138 0.226434 0.566323
O O15 0.197346 0.023918 0.649602
O O16 0.000000 0.000000 0.000000
O O17 0.500000 0.500000 0.500000
#
# Coordination Sequence:
#
# PCOD8031957 Si02
#       8
#     2   2   2   2   2   2   2   2
#     4  11  21  34  59  87 109 135 186 237 275 324
#     4  12  21  33  57  84 113 148 181 220 282 327
#     4   9  17  27  47  75 112 139 167 212 270 323
#     4   9  17  27  42  73 118 139 160 209 281 321
#     4  10  19  34  58  86 109 140 185 229 277 323
#     4  10  18  28  46  80 116 138 170 216 278 327
#     4  11  25  42  55  76 115 152 183 226 273 328
#     4  10  17  31  50  84 118 138 169 223 280 322
#
# _framework density 20.102162
#
# number of rings (size 3 to 8) (size 9 to 14) (size 15 to 20)
#    0.000    1.750    5.000    2.625    0.000    1.500 
#    0.000    0.000    0.000    0.750    0.000    8.750 
#    0.000    0.000    0.000    0.000    0.000    0.000 
#
# Total GULP energy -198227.264676 kJ/mol
# GULP energy per Si atom -12389.204042 kJ/mol
# Density = 2.005641 g / cm^3
# Si number density = 20.102162 Si / 1000 Ang^3
#
#
#
# Elastic Constant Matrix: (Units=GPa)
#
#
# Indices 1 2 3 4 5 6 
#
# 1 171.3194 34.1730 59.9639 17.5404 0.0407 -13.5410
# 2 34.1730 47.9193 19.1786 7.6948 7.9281 -3.1908
# 3 59.9639 19.1786 140.4250 17.7188 4.7008 0.1635
# 4 17.5404 7.6948 17.7188 10.8073 1.4188 1.6466
# 5 0.0407 7.9281 4.7008 1.4188 39.5131 6.9081
# 6 -13.5410 -3.1908 0.1635 1.6466 6.9081 9.6372
#
#
#
# Elastic Compliance Matrix: (Units=1/GPa)
#
#
# Indices 1 2 3 4 5 6 
#
# 1 0.009670 -0.002713 -0.002153 -0.012463 -0.001554 0.015969
# 2 -0.002713 0.027539 -0.000409 -0.015589 -0.007213 0.013147
# 3 -0.002153 -0.000409 0.009593 -0.011732 -0.000463 -0.000987
# 4 -0.012463 -0.015589 -0.011732 0.150235 0.008642 -0.054337
# 5 -0.001554 -0.007213 -0.000463 0.008642 0.031506 -0.028624
# 6 0.015969 0.013147 -0.000987 -0.054337 -0.028624 0.160374
#
#
# Mechanical properties :
#
#
# Convention : Reuss Voigt Hill
#
# Bulk Modulus (GPa) = 27.58456 65.14385 46.36421
# Shear Modulus (GPa) = 12.14912 28.41474 20.28193
#
# Velocity S-wave (km/s) = 2.46106 3.76376 3.17983
# Velocity P-wave (km/s) = 4.67201 7.16691 6.04947
#
# Compressibility (1/GPa) = 0.03625217
#
# Stress axis : x y z
#
# Youngs Moduli (GPa) = 103.40970 36.31209 104.23769
#
# Poissons Ratio (x) = 0.09851 0.22441
# Poissons Ratio (y) = 0.28054 0.04268
# Poissons Ratio (z) = 0.22263 0.01487
#
# Static dielectric constant tensor:
#      x y z
#    x 5.006100 -0.168250 0.067570 
#    y -0.168250 2.864420 0.073990 
#    z 0.067570 0.073990 3.895550 
# 
# 
# High freq. dielectric constant tensor:
#      x y z
#    x 1.816420 -0.011440 0.006600 
#    y -0.011440 1.687810 0.009800 
#    z 0.006600 0.009800 1.800030 
# 
# From -- ./inp_files/376381.got.cif
#   From: 2010.06.25/outbox.cif.g09.slc.cpg/sg2_189_cif.got.tgz:376381.got - 2010.06.27 13:26:56.
