data_PCOD8031613
_publ_section_title
;
Structure prediction by ZEFSAII (Michael W. Deem and Ramdas Pophale) SiO2 
 PCOD8031613
Probable space group: P -1
;
_chemical_formula_sum "Si O2"
_cell_formula_units_Z 16
_cell_length_a 8.576179
_cell_length_b 12.107345
_cell_length_c 18.616890
_cell_angle_alpha 129.466499
_cell_angle_beta 150.477410
_cell_angle_gamma 57.535888
_cell_volume 734.693369
_symmetry_space_group_name_H-M "P -1"
_symmetry_group_IT_number 2
_symmetry_cell_setting 'triclinic'
loop_
_space_group_symop_operation_xyz
x,y,z
-x,-y,-z
loop_
_atom_site_type_symbol
_atom_site_label
_atom_site_fract_x
_atom_site_fract_y
_atom_site_fract_z
Si Si1 0.875951 0.883184 0.207505
Si Si2 0.847672 0.647013 0.479684
Si Si3 0.290373 0.910042 0.512040
Si Si4 0.100676 0.584026 0.145766
Si Si5 0.989862 0.878552 0.749904
Si Si6 0.827060 0.770627 0.369718
Si Si7 0.704255 0.387856 0.995346
Si Si8 0.221816 0.885800 0.001935
O O1 0.600651 0.924922 0.172227
O O2 0.199212 0.915226 0.393934
O O3 0.868673 0.716860 0.113216
O O4 0.888544 0.974272 0.177589
O O5 0.466827 0.634847 0.321146
O O6 0.998555 0.752621 0.643610
O O7 0.956741 0.708006 0.470639
O O8 0.000000 0.500000 0.500000
O O9 0.651628 0.878322 0.650526
O O10 0.105198 0.777130 0.424068
O O11 0.264726 0.065963 0.598665
O O12 0.000000 0.500000 0.000000
O O13 0.020812 0.471422 0.130041
O O14 0.203180 0.861803 0.898610
O O15 0.514456 0.677820 0.183417
O O16 0.844943 0.265894 0.050574
O O17 0.500000 0.500000 0.000000
O O18 0.000000 0.000000 0.000000
#
# Coordination Sequence:
#
# PCOD8031613 Si02
#       8
#     2   2   2   2   2   2   2   2
#     4  12  24  49  72 107 139 190 247 289 356 440
#     4  12  28  46  68 108 146 186 232 299 371 417
#     4  11  22  44  76 103 132 182 243 293 348 424
#     4  12  26  44  77 102 140 195 243 288 354 441
#     4  12  27  45  73 106 146 178 237 306 363 419
#     4  11  23  43  75 100 139 184 238 294 349 430
#     4  12  25  47  72 102 145 191 247 290 350 439
#     4  12  29  47  71 109 147 189 238 299 366 418
#
# _framework density 21.777794
#
# number of rings (size 3 to 8) (size 9 to 14) (size 15 to 20)
#    0.000    0.250    6.250    2.250    7.000    2.000 
#    0.000    1.250    0.000    0.000    0.000    0.000 
#    0.000    0.000    0.000    0.000    0.000    0.000 
#
# Total GULP energy -198327.174001 kJ/mol
# GULP energy per Si atom -12395.448375 kJ/mol
# Density = 2.172823 g / cm^3
# Si number density = 21.777794 Si / 1000 Ang^3
#
#
#
# Elastic Constant Matrix: (Units=GPa)
#
#
# Indices 1 2 3 4 5 6 
#
# 1 106.7421 64.2290 23.6773 1.3867 -2.1626 17.4083
# 2 64.2290 151.9844 30.7809 6.6407 -5.9533 12.3379
# 3 23.6773 30.7809 71.9090 17.6891 -16.4318 3.0923
# 4 1.3867 6.6407 17.6891 28.9739 -0.4769 -1.3742
# 5 -2.1626 -5.9533 -16.4318 -0.4769 45.4697 -0.9821
# 6 17.4083 12.3379 3.0923 -1.3742 -0.9821 45.5853
#
#
#
# Elastic Compliance Matrix: (Units=1/GPa)
#
#
# Indices 1 2 3 4 5 6 
#
# 1 0.013552 -0.004973 -0.002955 0.002107 -0.001130 -0.003589
# 2 -0.004973 0.009173 -0.002072 -0.000618 0.000199 -0.000457
# 3 -0.002955 -0.002072 0.020150 -0.011569 0.006751 0.000119
# 4 0.002107 -0.000618 -0.011569 0.041619 -0.003696 0.001322
# 5 -0.001130 0.000199 0.006751 -0.003696 0.024373 0.000333
# 6 -0.003589 -0.000457 0.000119 0.001322 0.000333 0.023470
#
#
# Mechanical properties :
#
#
# Convention : Reuss Voigt Hill
#
# Bulk Modulus (GPa) = 43.71868 63.11221 53.41545
# Shear Modulus (GPa) = 31.25730 38.13565 34.69647
#
# Velocity S-wave (km/s) = 3.79262 4.18918 3.99583
# Velocity P-wave (km/s) = 6.26874 7.24169 6.77271
#
# Compressibility (1/GPa) = 0.02287352
#
# Stress axis : x y z
#
# Youngs Moduli (GPa) = 73.79187 109.01712 49.62831
#
# Poissons Ratio (x) = 0.54218 0.14667
# Poissons Ratio (y) = 0.36699 0.10281
# Poissons Ratio (z) = 0.21808 0.22585
#
# Static dielectric constant tensor:
#      x y z
#    x 2.109590 -2.255080 -3.883550 
#    y -2.255080 1.453130 -4.092950 
#    z -3.883550 -4.092950 -3.401320 
# 
# 
# High freq. dielectric constant tensor:
#      x y z
#    x 1.872570 0.010090 -0.002250 
#    y 0.010090 1.854650 0.008290 
#    z -0.002250 0.008290 1.863280 
# 
# From -- ./inp_files/391956.got.cif
#   From: 2010.06.25/outbox.cif.g09.slc.cpg/sg2_196_cif.got.tgz:391956.got - 2010.06.27 13:26:56.
