data_PCOD8031147
_publ_section_title
;
Structure prediction by ZEFSAII (Michael W. Deem and Ramdas Pophale) SiO2 
 PCOD8031147
Probable space group: P -1
;
_chemical_formula_sum "Si O2"
_cell_formula_units_Z 16
_cell_length_a 6.731490
_cell_length_b 9.209666
_cell_length_c 21.706711
_cell_angle_alpha 124.644690
_cell_angle_beta 45.309162
_cell_angle_gamma 128.945960
_cell_volume 724.336705
_symmetry_space_group_name_H-M "P -1"
_symmetry_group_IT_number 2
_symmetry_cell_setting 'triclinic'
loop_
_space_group_symop_operation_xyz
x,y,z
-x,-y,-z
loop_
_atom_site_type_symbol
_atom_site_label
_atom_site_fract_x
_atom_site_fract_y
_atom_site_fract_z
Si Si1 0.877105 0.596993 0.997482
Si Si2 0.792795 0.505909 0.398463
Si Si3 0.191451 0.890645 0.457881
Si Si4 0.830160 0.033311 0.383482
Si Si5 0.611779 0.270088 0.882308
Si Si6 0.232266 0.386571 0.704813
Si Si7 0.478174 0.915993 0.915424
Si Si8 0.222541 0.298202 0.271093
O O1 0.675371 0.421707 0.958557
O O2 0.147390 0.752539 0.937664
O O3 0.665973 0.711882 0.092739
O O4 0.000000 0.500000 0.000000
O O5 0.500000 0.500000 0.500000
O O6 0.713246 0.494990 0.341379
O O7 0.089132 0.692343 0.395989
O O8 0.914727 0.337282 0.341517
O O9 0.543598 0.027613 0.403461
O O10 0.135012 0.848102 0.532724
O O11 0.000000 0.000000 0.500000
O O12 0.738944 0.810753 0.365402
O O13 0.142207 0.137581 0.303779
O O14 0.894455 0.325992 0.789078
O O15 0.527297 0.067300 0.886189
O O16 0.481143 0.513362 0.730559
O O17 0.709940 0.806836 0.829214
O O18 0.500000 0.000000 0.000000
#
# Coordination Sequence:
#
# PCOD8031147 Si02
#       8
#     2   2   2   2   2   2   2   2
#     4  11  24  45  75 101 140 184 234 294 359 423
#     4  12  27  45  71 107 145 188 240 293 354 422
#     4  11  22  42  69  98 137 180 234 288 351 418
#     4  11  24  43  71  98 135 186 230 288 354 418
#     4  11  25  45  72 102 139 185 235 292 357 423
#     4  12  25  46  70 101 141 187 234 290 357 413
#     4  12  25  47  73 106 144 188 238 294 360 424
#     4  12  27  46  70 103 146 183 241 295 351 422
#
# _framework density 22.089175000000001
#
# number of rings (size 3 to 8) (size 9 to 14) (size 15 to 20)
#    0.000    0.500    6.250    1.875    3.500    1.000 
#    4.500    0.000    0.000    0.000    0.000    0.000 
#    0.000    0.000    0.000    0.000    0.000    0.000 
#
# Total GULP energy -198259.364182 kJ/mol
# GULP energy per Si atom -12391.210261 kJ/mol
# Density = 2.203890 g / cm^3
# Si number density = 22.089175 Si / 1000 Ang^3
#
#
#
# Elastic Constant Matrix: (Units=GPa)
#
#
# Indices 1 2 3 4 5 6 
#
# 1 106.3676 29.0063 47.3794 3.5913 -22.6774 -16.6845
# 2 29.0063 105.5394 36.6104 -7.1363 -13.5017 -7.7079
# 3 47.3794 36.6104 140.9059 -3.6712 -23.2511 -12.4576
# 4 3.5913 -7.1363 -3.6712 43.1181 4.8776 1.1441
# 5 -22.6774 -13.5017 -23.2511 4.8776 37.5415 1.1099
# 6 -16.6845 -7.7079 -12.4576 1.1441 1.1099 26.3986
#
#
#
# Elastic Compliance Matrix: (Units=1/GPa)
#
#
# Indices 1 2 3 4 5 6 
#
# 1 0.013413 -0.001714 -0.002548 -0.002476 0.006034 0.006628
# 2 -0.001714 0.010983 -0.001890 0.001600 0.001503 0.001099
# 3 -0.002548 -0.001890 0.009187 0.000246 0.003380 0.002021
# 4 -0.002476 0.001600 0.000246 0.024170 -0.003853 -0.001867
# 5 0.006034 0.001503 0.003380 -0.003853 0.033280 0.004615
# 6 0.006628 0.001099 0.002021 -0.001867 0.004615 0.043231
#
#
# Mechanical properties :
#
#
# Convention : Reuss Voigt Hill
#
# Bulk Modulus (GPa) = 46.99387 64.31167 55.65277
# Shear Modulus (GPa) = 32.53894 37.39942 34.96918
#
# Velocity S-wave (km/s) = 3.84223 4.11921 3.98312
# Velocity P-wave (km/s) = 6.40347 7.19733 6.81197
#
# Compressibility (1/GPa) = 0.02127937
#
# Stress axis : x y z
#
# Youngs Moduli (GPa) = 74.55252 91.05191 108.84377
#
# Poissons Ratio (x) = 0.15608 0.27730
# Poissons Ratio (y) = 0.12780 0.20574
# Poissons Ratio (z) = 0.18994 0.17211
#
# Static dielectric constant tensor:
#      x y z
#    x -2.513770 -5.397830 0.082290 
#    y -5.397830 -0.904780 0.430370 
#    z 0.082290 0.430370 4.247740 
# 
# 
# High freq. dielectric constant tensor:
#      x y z
#    x 1.863020 0.001840 -0.017190 
#    y 0.001840 1.883340 0.003280 
#    z -0.017190 0.003280 1.875010 
# 
# From -- ./inp_files/55476.got.cif
#   From: 2010.06.25/outbox.cif.g09.slc.cpg/sg2_28_cif.got.tgz:55476.got - 2010.06.27 13:26:56.
