data_PCOD8031454
_publ_section_title
;
Structure prediction by ZEFSAII (Michael W. Deem and Ramdas Pophale) SiO2 
 PCOD8031454
Probable space group: P -1
;
_chemical_formula_sum "Si O2"
_cell_formula_units_Z 16
_cell_length_a 13.218170
_cell_length_b 9.758785
_cell_length_c 10.967865
_cell_angle_alpha 84.874829
_cell_angle_beta 145.850988
_cell_angle_gamma 86.291545
_cell_volume 766.314514
_symmetry_space_group_name_H-M "P -1"
_symmetry_group_IT_number 2
_symmetry_cell_setting 'triclinic'
loop_
_space_group_symop_operation_xyz
x,y,z
-x,-y,-z
loop_
_atom_site_type_symbol
_atom_site_label
_atom_site_fract_x
_atom_site_fract_y
_atom_site_fract_z
Si Si1 0.154990 0.693998 0.357942
Si Si2 0.452813 0.041531 0.312819
Si Si3 0.703131 0.419752 0.748864
Si Si4 0.490041 0.608387 0.874106
Si Si5 0.768934 0.155839 0.004231
Si Si6 0.231447 0.358990 0.032045
Si Si7 0.830004 0.006835 0.565298
Si Si8 0.369490 0.893017 0.866598
O O1 0.183611 0.655247 0.247866
O O2 0.316321 0.605258 0.613084
O O3 0.136301 0.860369 0.337004
O O4 0.961710 0.662652 0.208799
O O5 0.383216 0.211725 0.223172
O O6 0.500000 0.000000 0.500000
O O7 0.289701 0.972872 0.111105
O O8 0.637629 0.976465 0.422877
O O9 0.500000 0.500000 0.500000
O O10 0.686642 0.303798 0.843257
O O11 0.802006 0.537366 0.892283
O O12 0.679971 0.561893 0.990679
O O13 0.482073 0.762385 0.908761
O O14 0.500000 0.500000 0.000000
O O15 0.692469 0.163805 0.064746
O O16 0.993564 0.125296 0.227098
O O17 0.813317 0.033277 0.400642
O O18 0.500000 0.000000 0.000000
#
# Coordination Sequence:
#
# PCOD8031454 Si02
#       8
#     2   2   2   2   2   2   2   2
#     4  11  24  43  70  97 135 177 219 277 328 399
#     4  12  24  42  71  99 132 178 219 269 338 401
#     4  12  25  46  68  99 140 174 223 278 332 394
#     4  11  24  46  69  93 134 179 223 269 334 398
#     4  12  25  43  70  99 136 175 222 278 332 400
#     4  12  23  46  68  97 136 176 219 275 334 389
#     4  11  23  44  68 101 136 175 222 273 337 394
#     4  11  22  44  67 100 130 171 223 278 329 388
#
# _framework density 20.879155000000001
#
# number of rings (size 3 to 8) (size 9 to 14) (size 15 to 20)
#    0.000    0.500    6.250    3.000    1.750    1.500 
#    4.500    0.000    0.000    0.000    0.000    0.000 
#    0.000    0.000    0.000    0.000    0.000    0.000 
#
# Total GULP energy -198449.094830 kJ/mol
# GULP energy per Si atom -12403.068427 kJ/mol
# Density = 2.083163 g / cm^3
# Si number density = 20.879155 Si / 1000 Ang^3
#
#
#
# Elastic Constant Matrix: (Units=GPa)
#
#
# Indices 1 2 3 4 5 6 
#
# 1 126.7004 24.8567 67.4797 -9.3830 -9.4268 3.5794
# 2 24.8567 91.4109 40.7468 5.2769 -6.7265 -1.3135
# 3 67.4797 40.7468 110.2146 -2.4711 1.8157 5.7071
# 4 -9.3830 5.2769 -2.4711 31.7731 4.2508 -9.8320
# 5 -9.4268 -6.7265 1.8157 4.2508 42.8798 3.7953
# 6 3.5794 -1.3135 5.7071 -9.8320 3.7953 34.0082
#
#
#
# Elastic Compliance Matrix: (Units=1/GPa)
#
#
# Indices 1 2 3 4 5 6 
#
# 1 0.012306 0.000071 -0.007568 0.002823 0.002714 0.000491
# 2 0.000071 0.013601 -0.005194 -0.002917 0.002636 0.000252
# 3 -0.007568 -0.005194 0.015762 -0.000311 -0.002955 -0.001809
# 4 0.002823 -0.002917 -0.000311 0.036680 -0.004411 0.010739
# 5 0.002714 0.002636 -0.002955 -0.004411 0.025228 -0.003779
# 6 0.000491 0.000252 -0.001809 0.010739 -0.003779 0.033193
#
#
# Mechanical properties :
#
#
# Convention : Reuss Voigt Hill
#
# Bulk Modulus (GPa) = 61.39233 66.05469 63.72351
# Shear Modulus (GPa) = 29.83625 34.74840 32.29232
#
# Velocity S-wave (km/s) = 3.78431 4.08396 3.93699
# Velocity P-wave (km/s) = 6.96865 7.34464 7.15911
#
# Compressibility (1/GPa) = 0.01628868
#
# Stress axis : x y z
#
# Youngs Moduli (GPa) = 81.25935 73.52158 63.44355
#
# Poissons Ratio (x) = -0.00520 0.48011
# Poissons Ratio (y) = -0.00575 0.32951
# Poissons Ratio (z) = 0.61494 0.38185
#
# Static dielectric constant tensor:
#      x y z
#    x 3.979860 -0.069420 -0.219800 
#    y -0.069420 3.963660 0.199870 
#    z -0.219800 0.199870 3.059750 
# 
# 
# High freq. dielectric constant tensor:
#      x y z
#    x 1.826100 -0.006750 -0.006170 
#    y -0.006750 1.818080 0.009310 
#    z -0.006170 0.009310 1.823920 
# 
# From -- ./inp_files/447560.got.cif
#   From: 2010.06.25/outbox.cif.g09.slc.cpg/sg2_224_cif.got.tgz:447560.got - 2010.06.27 13:26:56.
