data_PCOD8031853
_publ_section_title
;
Structure prediction by ZEFSAII (Michael W. Deem and Ramdas Pophale) SiO2 
 PCOD8031853
Probable space group: P -1
;
_chemical_formula_sum "Si O2"
_cell_formula_units_Z 14
_cell_length_a 15.946882
_cell_length_b 15.164534
_cell_length_c 9.662193
_cell_angle_alpha 143.481980
_cell_angle_beta 151.991173
_cell_angle_gamma 34.795414
_cell_volume 598.577842
_symmetry_space_group_name_H-M "P -1"
_symmetry_group_IT_number 2
_symmetry_cell_setting 'triclinic'
loop_
_space_group_symop_operation_xyz
x,y,z
-x,-y,-z
loop_
_atom_site_type_symbol
_atom_site_label
_atom_site_fract_x
_atom_site_fract_y
_atom_site_fract_z
Si Si1 0.670961 0.490181 0.336465
Si Si2 0.379180 0.031535 0.505786
Si Si3 0.306474 0.259775 0.919166
Si Si4 0.006604 0.798181 0.444404
Si Si5 0.989661 0.116470 0.905699
Si Si6 0.000477 0.390943 0.077962
Si Si7 0.564072 0.209288 0.478279
O O1 0.779245 0.307595 0.317238
O O2 0.571481 0.602872 0.462869
O O3 0.828793 0.547538 0.568228
O O4 0.500000 0.500000 0.000000
O O5 0.365823 0.198057 0.770012
O O6 0.500000 0.000000 0.500000
O O7 0.483307 0.889564 0.590566
O O8 0.163890 0.041563 0.173929
O O9 0.206848 0.454990 0.026562
O O10 0.157521 0.181987 0.655436
O O11 0.500552 0.177602 0.192548
O O12 0.966182 0.704664 0.138409
O O13 0.998751 0.977570 0.632057
O O14 0.788702 0.179407 0.774992
O O15 0.008770 0.268295 0.054426
#
# Coordination Sequence:
#
# PCOD8031853 Si02
#       7
#     2   2   2   2   2   2   2
#     4  11  23  43  77 106 144 195 249 303 366 442
#     4  12  28  47  72 109 148 197 250 307 371 436
#     4  11  24  47  79 104 148 198 251 305 364 446
#     4  11  22  47  74 107 148 197 244 299 371 444
#     4  12  28  43  73 110 156 187 243 313 371 433
#     4  11  24  48  73 113 149 193 248 301 376 443
#     4  12  24  48  75 108 144 196 253 299 376 441
#
# _framework density 23.388771999999999
#
# number of rings (size 3 to 8) (size 9 to 14) (size 15 to 20)
#    0.000    0.571    4.286    3.857    4.000    2.286 
#    5.143    0.000    0.000    0.000    0.000    0.000 
#    0.000    0.000    0.000    0.000    0.000    0.000 
#
# Total GULP energy -173587.653999 kJ/mol
# GULP energy per Si atom -12399.118143 kJ/mol
# Density = 2.333554 g / cm^3
# Si number density = 23.388772 Si / 1000 Ang^3
#
#
#
# Elastic Constant Matrix: (Units=GPa)
#
#
# Indices 1 2 3 4 5 6 
#
# 1 112.3177 42.8455 36.3521 3.1054 -12.4768 -14.5756
# 2 42.8455 112.6650 42.0173 1.6826 8.6601 2.7965
# 3 36.3521 42.0173 112.7330 -15.0549 -6.4584 1.0316
# 4 3.1054 1.6826 -15.0549 46.4259 -3.5378 4.2079
# 5 -12.4768 8.6601 -6.4584 -3.5378 34.2495 -0.3268
# 6 -14.5756 2.7965 1.0316 4.2079 -0.3268 34.2482
#
#
#
# Elastic Compliance Matrix: (Units=1/GPa)
#
#
# Indices 1 2 3 4 5 6 
#
# 1 0.012837 -0.004505 -0.002436 -0.001644 0.005245 0.006157
# 2 -0.004505 0.012501 -0.003714 -0.001546 -0.005688 -0.002690
# 3 -0.002436 -0.003714 0.011810 0.004481 0.002726 -0.001614
# 4 -0.001644 -0.001546 0.004481 0.023717 0.003053 -0.003593
# 5 0.005245 -0.005688 0.002726 0.003053 0.033400 0.002558
# 6 0.006157 -0.002690 -0.001614 -0.003593 0.002558 0.032553
#
#
# Mechanical properties :
#
#
# Convention : Reuss Voigt Hill
#
# Bulk Modulus (GPa) = 63.13914 64.46063 63.79988
# Shear Modulus (GPa) = 32.59271 37.41810 35.00541
#
# Velocity S-wave (km/s) = 3.73704 4.00413 3.87289
# Velocity P-wave (km/s) = 6.75831 6.99984 6.88013
#
# Compressibility (1/GPa) = 0.01583804
#
# Stress axis : x y z
#
# Youngs Moduli (GPa) = 77.89868 79.99098 84.67527
#
# Poissons Ratio (x) = 0.36035 0.20625
# Poissons Ratio (y) = 0.35093 0.31453
# Poissons Ratio (z) = 0.18974 0.29713
#
# Static dielectric constant tensor:
#      x y z
#    x 3.928740 -0.177530 -0.114450 
#    y -0.177530 4.588000 0.052730 
#    z -0.114450 0.052730 4.392280 
# 
# 
# High freq. dielectric constant tensor:
#      x y z
#    x 1.901360 -0.014960 -0.007250 
#    y -0.014960 1.948750 -0.004920 
#    z -0.007250 -0.004920 1.931640 
# 
# From -- ./inp_files/190966.got.cif
#   From: 2010.06.25/outbox.cif.g09.slc.cpg/sg2_96_cif.got.tgz:190966.got - 2010.06.27 13:26:56.
