data_PCOD8031408
_publ_section_title
;
Structure prediction by ZEFSAII (Michael W. Deem and Ramdas Pophale) SiO2 
 PCOD8031408
Probable space group: P -1
;
_chemical_formula_sum "Si O2"
_cell_formula_units_Z 16
_cell_length_a 11.365707
_cell_length_b 12.170469
_cell_length_c 17.102593
_cell_angle_alpha 158.610153
_cell_angle_beta 124.210291
_cell_angle_gamma 55.036965
_cell_volume 703.835152
_symmetry_space_group_name_H-M "P -1"
_symmetry_group_IT_number 2
_symmetry_cell_setting 'triclinic'
loop_
_space_group_symop_operation_xyz
x,y,z
-x,-y,-z
loop_
_atom_site_type_symbol
_atom_site_label
_atom_site_fract_x
_atom_site_fract_y
_atom_site_fract_z
Si Si1 0.612549 0.628317 0.573637
Si Si2 0.230189 0.293862 0.879770
Si Si3 0.135720 0.950710 0.245368
Si Si4 0.943767 0.267641 0.095645
Si Si5 0.901570 0.249437 0.468648
Si Si6 0.429925 0.216497 0.514126
Si Si7 0.536603 0.266897 0.013776
Si Si8 0.657310 0.664368 0.223030
O O1 0.500000 0.500000 0.500000
O O2 0.758177 0.391375 0.463064
O O3 0.544602 0.697119 0.508539
O O4 0.641816 0.941973 0.833799
O O5 0.281910 0.273060 0.796176
O O6 0.121122 0.058318 0.699014
O O7 0.152874 0.638146 0.095264
O O8 0.372882 0.213862 0.933688
O O9 0.288411 0.060197 0.364665
O O10 0.068956 0.895690 0.099885
O O11 0.024443 0.194920 0.412512
O O12 0.792343 0.487318 0.207897
O O13 0.058667 0.503526 0.290537
O O14 0.000000 0.000000 0.000000
O O15 0.411714 0.521866 0.760556
O O16 0.575484 0.984382 0.441581
O O17 0.542073 0.428724 0.036364
#
# Coordination Sequence:
#
# PCOD8031408 Si02
#       8
#     2   2   2   2   2   2   2   2
#     4  12  26  48  68  99 145 180 228 289 342 411
#     4  11  23  45  70 101 142 179 228 290 341 406
#     4  11  26  45  71 103 138 179 235 286 338 414
#     4  11  26  45  70 101 139 186 227 282 346 414
#     4  12  26  47  68  99 146 185 223 282 354 412
#     4  12  25  43  74 107 132 180 239 289 339 405
#     4  12  23  42  72 104 135 175 233 289 340 399
#     4  11  22  43  74 102 137 179 234 289 337 401
#
# _framework density 22.732597999999999
#
# number of rings (size 3 to 8) (size 9 to 14) (size 15 to 20)
#    0.000    0.500    3.750    4.875    1.750    6.500 
#    4.500    0.000    0.000    0.000    0.000    0.000 
#    0.000    0.000    0.000    0.000    0.000    0.000 
#
# Total GULP energy -198308.888098 kJ/mol
# GULP energy per Si atom -12394.305506 kJ/mol
# Density = 2.268086 g / cm^3
# Si number density = 22.732598 Si / 1000 Ang^3
#
#
#
# Elastic Constant Matrix: (Units=GPa)
#
#
# Indices 1 2 3 4 5 6 
#
# 1 121.9762 50.8519 52.6234 6.4976 -3.1483 1.3131
# 2 50.8519 100.3504 59.3736 12.5889 -2.1229 -7.5936
# 3 52.6234 59.3736 145.1818 1.6816 6.1620 15.0620
# 4 6.4976 12.5889 1.6816 38.1627 -5.3526 -2.6599
# 5 -3.1483 -2.1229 6.1620 -5.3526 46.6501 10.4132
# 6 1.3131 -7.5936 15.0620 -2.6599 10.4132 31.0554
#
#
#
# Elastic Compliance Matrix: (Units=1/GPa)
#
#
# Indices 1 2 3 4 5 6 
#
# 1 0.010971 -0.004271 -0.002185 -0.000281 0.000981 -0.000802
# 2 -0.004271 0.016663 -0.005915 -0.004130 -0.000793 0.007036
# 3 -0.002185 -0.005915 0.010754 0.001369 -0.000259 -0.006366
# 4 -0.000281 -0.004130 0.001369 0.027940 0.002870 -0.000231
# 5 0.000981 -0.000793 -0.000259 0.002870 0.023563 -0.007765
# 6 -0.000802 0.007036 -0.006366 -0.000231 -0.007765 0.039626
#
#
# Mechanical properties :
#
#
# Convention : Reuss Voigt Hill
#
# Bulk Modulus (GPa) = 73.28184 77.02289 75.15236
# Shear Modulus (GPa) = 31.48489 36.81761 34.15125
#
# Velocity S-wave (km/s) = 3.72561 4.02879 3.88016
# Velocity P-wave (km/s) = 7.12835 7.45635 7.29419
#
# Compressibility (1/GPa) = 0.01364594
#
# Stress axis : x y z
#
# Youngs Moduli (GPa) = 91.15335 60.01457 92.98634
#
# Poissons Ratio (x) = 0.25633 0.20317
# Poissons Ratio (y) = 0.38933 0.54998
# Poissons Ratio (z) = 0.19916 0.35496
#
# Static dielectric constant tensor:
#      x y z
#    x 4.270850 -0.302550 -0.012670 
#    y -0.302550 4.128870 0.250390 
#    z -0.012670 0.250390 4.325880 
# 
# 
# High freq. dielectric constant tensor:
#      x y z
#    x 1.903180 -0.012060 -0.001120 
#    y -0.012060 1.887770 0.014910 
#    z -0.001120 0.014910 1.909490 
# 
# From -- ./inp_files/569269.got.cif
#   From: 2010.06.25/outbox.cif.g09.slc.cpg/sg2_285_cif.got.tgz:569269.got - 2010.06.27 13:26:56.
