data_PCOD8031649
_publ_section_title
;
Structure prediction by ZEFSAII (Michael W. Deem and Ramdas Pophale) SiO2 
 PCOD8031649
Probable space group: P -1
;
_chemical_formula_sum "Si O2"
_cell_formula_units_Z 16
_cell_length_a 9.215853
_cell_length_b 12.240049
_cell_length_c 16.242966
_cell_angle_alpha 36.714598
_cell_angle_beta 42.806167
_cell_angle_gamma 64.606166
_cell_volume 684.728740
_symmetry_space_group_name_H-M "P -1"
_symmetry_group_IT_number 2
_symmetry_cell_setting 'triclinic'
loop_
_space_group_symop_operation_xyz
x,y,z
-x,-y,-z
loop_
_atom_site_type_symbol
_atom_site_label
_atom_site_fract_x
_atom_site_fract_y
_atom_site_fract_z
Si Si1 0.734084 0.122608 0.002304
Si Si2 0.201473 0.136080 0.734461
Si Si3 0.006248 0.796818 0.586270
Si Si4 0.897596 0.887155 0.879065
Si Si5 0.919019 0.630018 0.892055
Si Si6 0.418294 0.537420 0.323164
Si Si7 0.380147 0.511966 0.169723
Si Si8 0.301821 0.844444 0.277458
O O1 0.676120 0.946213 0.199053
O O2 0.565335 0.012777 0.062660
O O3 0.664094 0.297595 0.961063
O O4 0.001242 0.199747 0.817139
O O5 0.399116 0.329927 0.495724
O O6 0.096446 0.952673 0.825163
O O7 0.041428 0.672746 0.725659
O O8 0.765390 0.676422 0.711290
O O9 0.214971 0.830086 0.416419
O O10 0.000000 0.000000 0.500000
O O11 0.988193 0.841083 0.781889
O O12 0.840276 0.079338 0.772563
O O13 0.686860 0.685282 0.116734
O O14 0.644752 0.534334 0.044103
O O15 0.000000 0.500000 0.000000
O O16 0.295943 0.488891 0.313896
O O17 0.282095 0.632402 0.381142
#
# Coordination Sequence:
#
# PCOD8031649 Si02
#       8
#     2   2   2   2   2   2   2   2
#     4  11  23  44  64 106 142 184 221 296 355 417
#     4  11  25  40  67 104 148 177 233 283 359 423
#     4  12  25  45  70 104 139 189 245 286 352 425
#     4  11  22  45  68  98 144 181 230 300 347 423
#     4  11  26  47  71 100 134 186 240 296 353 413
#     4  11  23  42  74 108 133 188 235 284 361 418
#     4  11  24  47  75  98 143 185 237 293 356 425
#     4  12  22  43  73 100 147 181 238 292 347 430
#
# _framework density 23.366918999999999
#
# number of rings (size 3 to 8) (size 9 to 14) (size 15 to 20)
#    0.000    0.750    5.000    3.000    1.750    4.000 
#    0.000    0.625    0.000    0.000    0.000    0.000 
#    0.000    0.000    0.000    0.000    0.000    0.000 
#
# Total GULP energy -198373.560280 kJ/mol
# GULP energy per Si atom -12398.347517 kJ/mol
# Density = 2.331373 g / cm^3
# Si number density = 23.366919 Si / 1000 Ang^3
#
#
#
# Elastic Constant Matrix: (Units=GPa)
#
#
# Indices 1 2 3 4 5 6 
#
# 1 47.8492 36.8111 6.6686 -6.6224 -6.7954 -3.9141
# 2 36.8111 115.5957 39.8291 -4.7687 4.4588 21.5043
# 3 6.6686 39.8291 106.7685 -3.0631 15.9011 -0.4685
# 4 -6.6224 -4.7687 -3.0631 41.8612 9.8248 -0.8592
# 5 -6.7954 4.4588 15.9011 9.8248 28.5437 -2.7381
# 6 -3.9141 21.5043 -0.4685 -0.8592 -2.7381 41.1034
#
#
#
# Elastic Compliance Matrix: (Units=1/GPa)
#
#
# Indices 1 2 3 4 5 6 
#
# 1 0.033708 -0.013656 0.001652 0.001858 0.009659 0.011055
# 2 -0.013656 0.016763 -0.004808 0.000182 -0.004252 -0.010405
# 3 0.001652 -0.004808 0.012024 0.002058 -0.006027 0.002451
# 4 0.001858 0.000182 0.002058 0.026681 -0.009916 0.000002
# 5 0.009659 -0.004252 -0.006027 -0.009916 0.045333 0.005888
# 6 0.011055 -0.010405 0.002451 0.000002 0.005888 0.031245
#
#
# Mechanical properties :
#
#
# Convention : Reuss Voigt Hill
#
# Bulk Modulus (GPa) = 34.63573 48.53679 41.58626
# Shear Modulus (GPa) = 23.92337 34.76197 29.34267
#
# Velocity S-wave (km/s) = 3.20318 3.86120 3.54748
# Velocity P-wave (km/s) = 5.34184 6.37928 5.88347
#
# Compressibility (1/GPa) = 0.02887192
#
# Stress axis : x y z
#
# Youngs Moduli (GPa) = 29.66694 59.65485 83.16888
#
# Poissons Ratio (x) = 0.81464 -0.13741
# Poissons Ratio (y) = 0.40513 0.39984
# Poissons Ratio (z) = -0.04902 0.28679
#
# Static dielectric constant tensor:
#      x y z
#    x 4.139620 0.204350 0.188090 
#    y 0.204350 4.312750 0.086590 
#    z 0.188090 0.086590 4.202570 
# 
# 
# High freq. dielectric constant tensor:
#      x y z
#    x 1.923860 0.017450 0.009810 
#    y 0.017450 1.922630 -0.001240 
#    z 0.009810 -0.001240 1.924920 
# 
# From -- ./inp_files/499850.got.cif
#   From: 2010.06.25/outbox.cif.g09.slc.cpg/sg2_250_cif.got.tgz:499850.got - 2010.06.27 13:26:56.
