data_PCOD8031487
_publ_section_title
;
Structure prediction by ZEFSAII (Michael W. Deem and Ramdas Pophale) SiO2 
 PCOD8031487
Probable space group: P -1
;
_chemical_formula_sum "Si O2"
_cell_formula_units_Z 16
_cell_length_a 17.261663
_cell_length_b 7.652233
_cell_length_c 10.788347
_cell_angle_alpha 57.535658
_cell_angle_beta 33.169640
_cell_angle_gamma 65.683788
_cell_volume 655.645006
_symmetry_space_group_name_H-M "P -1"
_symmetry_group_IT_number 2
_symmetry_cell_setting 'triclinic'
loop_
_space_group_symop_operation_xyz
x,y,z
-x,-y,-z
loop_
_atom_site_type_symbol
_atom_site_label
_atom_site_fract_x
_atom_site_fract_y
_atom_site_fract_z
Si Si1 0.128419 0.400556 0.298901
Si Si2 0.438018 0.890776 0.929269
Si Si3 0.576647 0.723768 0.331148
Si Si4 0.676937 0.438959 0.614933
Si Si5 0.246232 0.195326 0.450442
Si Si6 0.105086 0.346665 0.077317
Si Si7 0.585623 0.327159 0.201737
Si Si8 0.874212 0.250413 0.234348
O O1 0.181246 0.238007 0.387695
O O2 0.073881 0.291441 0.284874
O O3 0.000000 0.500000 0.500000
O O4 0.260719 0.558485 0.015544
O O5 0.589071 0.818744 0.789529
O O6 0.386017 0.833585 0.882310
O O7 0.437915 0.141668 0.827661
O O8 0.329754 0.773503 0.214354
O O9 0.500000 0.500000 0.500000
O O10 0.487041 0.805275 0.536260
O O11 0.740529 0.713025 0.149242
O O12 0.770455 0.622853 0.495005
O O13 0.521508 0.508345 0.766973
O O14 0.751787 0.375555 0.414106
O O15 0.177785 0.970602 0.673755
O O16 0.995890 0.211351 0.186560
O O17 0.076354 0.591055 0.002727
#
# Coordination Sequence:
#
# PCOD8031487 Si02
#       8
#     2   2   2   2   2   2   2   2
#     4  12  25  44  72 102 145 182 233 295 349 417
#     4  11  24  41  72 104 139 183 234 290 357 411
#     4  12  24  42  70 105 139 182 235 294 347 416
#     4  11  22  46  73 105 141 183 237 294 353 419
#     4  11  24  45  70 106 138 185 239 283 353 429
#     4  11  26  47  67 104 145 185 237 292 353 423
#     4  11  22  44  69 101 142 180 235 291 347 420
#     4  11  26  47  72  99 146 191 232 292 357 421
#
# _framework density 24.403448999999998
#
# number of rings (size 3 to 8) (size 9 to 14) (size 15 to 20)
#    0.000    0.750    5.000    2.625    1.750    2.000 
#    0.000    5.625    0.000    0.000    0.000    0.000 
#    0.000    0.000    0.000    0.000    0.000    0.000 
#
# Total GULP energy -198326.420766 kJ/mol
# GULP energy per Si atom -12395.401298 kJ/mol
# Density = 2.434791 g / cm^3
# Si number density = 24.403449 Si / 1000 Ang^3
#
#
#
# Elastic Constant Matrix: (Units=GPa)
#
#
# Indices 1 2 3 4 5 6 
#
# 1 79.3627 14.2270 3.9087 0.1144 4.5535 -7.6678
# 2 14.2270 78.6298 26.6414 -21.9790 -0.8782 -4.7519
# 3 3.9087 26.6414 77.1001 2.4956 -5.2982 -0.2627
# 4 0.1144 -21.9790 2.4956 45.5784 -9.3058 -4.7901
# 5 4.5535 -0.8782 -5.2982 -9.3058 38.4599 -2.2856
# 6 -7.6678 -4.7519 -0.2627 -4.7901 -2.2856 32.3766
#
#
#
# Elastic Compliance Matrix: (Units=1/GPa)
#
#
# Indices 1 2 3 4 5 6 
#
# 1 0.013434 -0.002805 0.000219 -0.001522 -0.001849 0.002416
# 2 -0.002805 0.018486 -0.006387 0.010180 0.002557 0.003684
# 3 0.000219 -0.006387 0.015351 -0.003864 0.000933 -0.001267
# 4 -0.001522 0.010180 -0.003864 0.029177 0.007293 0.005934
# 5 -0.001849 0.002557 0.000933 0.007293 0.028351 0.003025
# 6 0.002416 0.003684 -0.001267 0.005934 0.003025 0.033081
#
#
# Mechanical properties :
#
#
# Convention : Reuss Voigt Hill
#
# Bulk Modulus (GPa) = 34.10072 36.07187 35.08629
# Shear Modulus (GPa) = 30.19291 35.97067 33.08179
#
# Velocity S-wave (km/s) = 3.52126 3.84344 3.68587
# Velocity P-wave (km/s) = 5.52598 5.87448 5.70289
#
# Compressibility (1/GPa) = 0.02932490
#
# Stress axis : x y z
#
# Youngs Moduli (GPa) = 74.43712 54.09452 65.14287
#
# Poissons Ratio (x) = 0.15173 -0.01424
# Poissons Ratio (y) = 0.20878 0.41606
# Poissons Ratio (z) = -0.01627 0.34549
#
# Static dielectric constant tensor:
#      x y z
#    x 7.864430 -0.085590 4.164940 
#    y -0.085590 4.422500 -0.260440 
#    z 4.164940 -0.260440 9.712530 
# 
# 
# High freq. dielectric constant tensor:
#      x y z
#    x 1.980700 -0.008740 0.001310 
#    y -0.008740 1.954810 -0.005110 
#    z 0.001310 -0.005110 1.969170 
# 
# From -- ./inp_files/461889.got.cif
#   From: 2010.06.25/outbox.cif.g09.slc.cpg/sg2_231_cif.got.tgz:461889.got - 2010.06.27 13:26:56.
