data_PCOD8031098
_publ_section_title
;
Structure prediction by ZEFSAII (Michael W. Deem and Ramdas Pophale) SiO2 
 PCOD8031098
Probable space group: P -1
;
_chemical_formula_sum "Si O2"
_cell_formula_units_Z 16
_cell_length_a 6.572762
_cell_length_b 20.878432
_cell_length_c 9.155021
_cell_angle_alpha 123.263449
_cell_angle_beta 101.230974
_cell_angle_gamma 46.817246
_cell_volume 731.624611
_symmetry_space_group_name_H-M "P -1"
_symmetry_group_IT_number 2
_symmetry_cell_setting 'triclinic'
loop_
_space_group_symop_operation_xyz
x,y,z
-x,-y,-z
loop_
_atom_site_type_symbol
_atom_site_label
_atom_site_fract_x
_atom_site_fract_y
_atom_site_fract_z
Si Si1 0.258767 0.724716 0.167199
Si Si2 0.138637 0.398627 0.793062
Si Si3 0.815024 0.493683 0.561850
Si Si4 0.736422 0.120828 0.805662
Si Si5 0.381947 0.960718 0.751653
Si Si6 0.778987 0.347436 0.206545
Si Si7 0.413360 0.123213 0.012047
Si Si8 0.254233 0.200810 0.636426
O O1 0.519838 0.666259 0.247303
O O2 0.268293 0.788579 0.125218
O O3 0.966485 0.800532 0.318294
O O4 0.265727 0.645910 0.968634
O O5 0.110617 0.322606 0.769760
O O6 0.993936 0.427768 0.651411
O O7 0.000000 0.500000 0.000000
O O8 0.766458 0.436601 0.373350
O O9 0.508699 0.615094 0.711175
O O10 0.000000 0.500000 0.500000
O O11 0.564755 0.116333 0.656201
O O12 0.565261 0.150491 0.971710
O O13 0.071607 0.005937 0.714033
O O14 0.392388 0.939933 0.897806
O O15 0.662181 0.847921 0.575125
O O16 0.397556 0.047233 0.827155
O O17 0.084059 0.229970 0.147311
#
# Coordination Sequence:
#
# PCOD8031098 Si02
#       8
#     2   2   2   2   2   2   2   2
#     4  11  24  43  73  96 134 181 221 276 334 395
#     4  11  25  44  67 100 131 172 224 270 335 396
#     4  11  27  43  71 100 134 174 221 280 329 403
#     4  11  22  42  67  98 127 181 221 268 332 392
#     4  11  24  42  63 102 133 173 225 272 335 391
#     4  11  23  45  65 100 132 176 222 268 341 389
#     4  11  24  41  70  93 138 176 219 277 331 399
#     4  11  25  43  67  96 136 173 222 280 324 395
#
# _framework density 21.869136999999998
#
# number of rings (size 3 to 8) (size 9 to 14) (size 15 to 20)
#    0.000    1.000    3.750    1.500    3.500    7.500 
#    0.000    1.250    0.000    0.000    0.000    0.000 
#    0.000    0.000    0.000    0.000    0.000    0.000 
#
# Total GULP energy -198305.200998 kJ/mol
# GULP energy per Si atom -12394.075062 kJ/mol
# Density = 2.181936 g / cm^3
# Si number density = 21.869137 Si / 1000 Ang^3
#
#
#
# Elastic Constant Matrix: (Units=GPa)
#
#
# Indices 1 2 3 4 5 6 
#
# 1 144.7090 59.3568 48.5861 -0.4195 -28.7068 -12.1577
# 2 59.3568 84.7414 17.5066 7.8263 -18.6497 -6.3663
# 3 48.5861 17.5066 89.3713 11.9088 -19.0856 -0.9767
# 4 -0.4195 7.8263 11.9088 39.1955 -3.1585 -1.4730
# 5 -28.7068 -18.6497 -19.0856 -3.1585 31.7813 0.4207
# 6 -12.1577 -6.3663 -0.9767 -1.4730 0.4207 33.1687
#
#
#
# Elastic Compliance Matrix: (Units=1/GPa)
#
#
# Indices 1 2 3 4 5 6 
#
# 1 0.012588 -0.006844 -0.004930 0.003500 0.004698 0.003251
# 2 -0.006844 0.017700 0.001807 -0.003734 0.004910 0.000714
# 3 -0.004930 0.001807 0.015261 -0.004670 0.005325 -0.001286
# 4 0.003500 -0.003734 -0.004670 0.027851 0.000912 0.001654
# 5 0.004698 0.004910 0.005325 0.000912 0.041847 0.002331
# 6 0.003251 0.000714 -0.001286 0.001654 0.002331 0.031484
#
#
# Mechanical properties :
#
#
# Convention : Reuss Voigt Hill
#
# Bulk Modulus (GPa) = 39.03935 63.30231 51.17083
# Shear Modulus (GPa) = 28.53824 33.72057 31.12941
#
# Velocity S-wave (km/s) = 3.61633 3.93100 3.77694
# Velocity P-wave (km/s) = 5.94367 7.04361 6.51689
#
# Compressibility (1/GPa) = 0.02561518
#
# Stress axis : x y z
#
# Youngs Moduli (GPa) = 79.43817 56.49720 65.52677
#
# Poissons Ratio (x) = 0.38666 0.32308
# Poissons Ratio (y) = 0.54367 -0.11843
# Poissons Ratio (z) = 0.39167 -0.10211
#
# Static dielectric constant tensor:
#      x y z
#    x 4.225620 -0.260240 0.030950 
#    y -0.260240 3.860700 -0.025730 
#    z 0.030950 -0.025730 3.922420 
# 
# 
# High freq. dielectric constant tensor:
#      x y z
#    x 1.867600 -0.021440 0.001600 
#    y -0.021440 1.855420 -0.004100 
#    z 0.001600 -0.004100 1.861680 
# 
# From -- ./inp_files/106840.got.cif
#   From: 2010.06.25/outbox.cif.g09.slc.cpg/sg2_54_cif.got.tgz:106840.got - 2010.06.27 13:26:56.
