data_PCOD8031627
_publ_section_title
;
Structure prediction by ZEFSAII (Michael W. Deem and Ramdas Pophale) SiO2 
 PCOD8031627
Probable space group: P -1
;
_chemical_formula_sum "Si O2"
_cell_formula_units_Z 14
_cell_length_a 17.320459
_cell_length_b 7.497792
_cell_length_c 19.544854
_cell_angle_alpha 43.317758
_cell_angle_beta 157.928703
_cell_angle_gamma 125.586184
_cell_volume 610.922557
_symmetry_space_group_name_H-M "P -1"
_symmetry_group_IT_number 2
_symmetry_cell_setting 'triclinic'
loop_
_space_group_symop_operation_xyz
x,y,z
-x,-y,-z
loop_
_atom_site_type_symbol
_atom_site_label
_atom_site_fract_x
_atom_site_fract_y
_atom_site_fract_z
Si Si1 0.527052 0.588837 0.155678
Si Si2 0.430768 0.108885 0.020219
Si Si3 0.117173 0.606521 0.007228
Si Si4 0.966516 0.153072 0.658114
Si Si5 0.812432 0.662715 0.007001
Si Si6 0.788573 0.837901 0.502674
Si Si7 0.430487 0.737141 0.320870
O O1 0.407314 0.874784 0.016083
O O2 0.769641 0.444120 0.427859
O O3 0.391567 0.387869 0.110262
O O4 0.539143 0.643590 0.068850
O O5 0.637824 0.982151 0.274910
O O6 0.193826 0.213937 0.833736
O O7 0.167807 0.409559 0.037291
O O8 0.348971 0.613986 0.222151
O O9 0.000000 0.500000 0.000000
O O10 0.964210 0.922556 0.775917
O O11 0.923039 0.034468 0.581471
O O12 0.766183 0.990017 0.887388
O O13 0.035763 0.472059 0.282908
O O14 0.641082 0.809756 0.452978
O O15 0.500000 0.500000 0.500000
#
# Coordination Sequence:
#
# PCOD8031627 Si02
#       7
#     2   2   2   2   2   2   2
#     4  11  23  43  68  98 138 183 228 288 346 404
#     4  11  24  43  67 102 134 185 237 277 349 410
#     4  11  25  46  70 102 138 180 231 289 349 412
#     4  11  22  45  65  98 141 174 231 289 337 412
#     4  11  25  47  69 104 143 180 231 289 348 411
#     4  11  23  43  67  97 141 177 233 287 334 424
#     4  12  25  45  71 103 136 184 235 281 351 421
#
# _framework density 22.916162
#
# number of rings (size 3 to 8) (size 9 to 14) (size 15 to 20)
#    0.000    0.857    5.714    2.143    2.000    4.000 
#    0.000    0.000    0.000    0.000    0.000    0.000 
#    0.000    0.000    0.000    0.000    0.000    0.000 
#
# Total GULP energy -173597.286533 kJ/mol
# GULP energy per Si atom -12399.806181 kJ/mol
# Density = 2.286400 g / cm^3
# Si number density = 22.916162 Si / 1000 Ang^3
#
#
#
# Elastic Constant Matrix: (Units=GPa)
#
#
# Indices 1 2 3 4 5 6 
#
# 1 101.1960 33.7115 49.6745 -5.5932 -12.8614 31.3852
# 2 33.7115 58.0966 30.2446 -3.2351 -4.0038 11.5661
# 3 49.6745 30.2446 174.6417 -3.2489 -8.4107 8.7331
# 4 -5.5932 -3.2351 -3.2489 41.9572 -3.9188 -4.3905
# 5 -12.8614 -4.0038 -8.4107 -3.9188 45.1217 -2.6813
# 6 31.3852 11.5661 8.7331 -4.3905 -2.6813 28.4456
#
#
#
# Elastic Compliance Matrix: (Units=1/GPa)
#
#
# Indices 1 2 3 4 5 6 
#
# 1 0.019410 -0.005681 -0.003486 0.000345 0.003359 -0.017666
# 2 -0.005681 0.022013 -0.002094 0.000561 -0.000124 -0.001965
# 3 -0.003486 -0.002094 0.006967 0.000215 0.000294 0.002619
# 4 0.000345 0.000561 0.000215 0.024525 0.002517 0.003348
# 5 0.003359 -0.000124 0.000294 0.002517 0.023313 -0.001160
# 6 -0.017666 -0.001965 0.002619 0.003348 -0.001160 0.055049
#
#
# Mechanical properties :
#
#
# Convention : Reuss Voigt Hill
#
# Bulk Modulus (GPa) = 38.65435 62.35503 50.50469
# Shear Modulus (GPa) = 27.40903 37.79183 32.60043
#
# Velocity S-wave (km/s) = 3.46216 4.06536 3.77582
# Velocity P-wave (km/s) = 5.73467 7.02178 6.41061
#
# Compressibility (1/GPa) = 0.02587031
#
# Stress axis : x y z
#
# Youngs Moduli (GPa) = 51.51890 45.42786 143.52957
#
# Poissons Ratio (x) = 0.25807 0.50029
# Poissons Ratio (y) = 0.29267 0.30051
# Poissons Ratio (z) = 0.17957 0.09511
#
# Static dielectric constant tensor:
#      x y z
#    x 4.042610 0.090940 -0.087740 
#    y 0.090940 4.092480 -0.030770 
#    z -0.087740 -0.030770 4.385380 
# 
# 
# High freq. dielectric constant tensor:
#      x y z
#    x 1.892180 0.006380 -0.006190 
#    y 0.006380 1.900820 -0.002420 
#    z -0.006190 -0.002420 1.924500 
# 
# From -- ./inp_files/539924.got.cif
#   From: 2010.06.25/outbox.cif.g09.slc.cpg/sg2_270_cif.got.tgz:539924.got - 2010.06.27 13:26:56.
