data_PCOD8031379
_publ_section_title
;
Structure prediction by ZEFSAII (Michael W. Deem and Ramdas Pophale) SiO2 
 PCOD8031379
Probable space group: P -1
;
_chemical_formula_sum "Si O2"
_cell_formula_units_Z 16
_cell_length_a 8.459606
_cell_length_b 12.421617
_cell_length_c 8.916878
_cell_angle_alpha 98.613226
_cell_angle_beta 94.665792
_cell_angle_gamma 50.014681
_cell_volume 709.706196
_symmetry_space_group_name_H-M "P -1"
_symmetry_group_IT_number 2
_symmetry_cell_setting 'triclinic'
loop_
_space_group_symop_operation_xyz
x,y,z
-x,-y,-z
loop_
_atom_site_type_symbol
_atom_site_label
_atom_site_fract_x
_atom_site_fract_y
_atom_site_fract_z
Si Si1 0.368300 0.743926 0.314753
Si Si2 0.207629 0.503219 0.840157
Si Si3 0.547893 0.855696 0.930587
Si Si4 0.057862 0.764818 0.691619
Si Si5 0.032971 0.176376 0.629579
Si Si6 0.822711 0.031316 0.890261
Si Si7 0.668521 0.150826 0.357497
Si Si8 0.936508 0.655728 0.105420
O O1 0.551094 0.626391 0.194711
O O2 0.205190 0.894081 0.251543
O O3 0.448068 0.766514 0.478842
O O4 0.215884 0.712802 0.342948
O O5 0.147935 0.611781 0.725445
O O6 0.076684 0.447789 0.816307
O O7 0.158314 0.573185 0.019151
O O8 0.502476 0.837469 0.752606
O O9 0.388703 0.857727 0.017430
O O10 0.775601 0.720539 0.968020
O O11 0.500000 0.000000 0.000000
O O12 0.232825 0.783369 0.696097
O O13 0.939308 0.794734 0.532515
O O14 0.883999 0.879622 0.822582
O O15 0.127434 0.217906 0.765600
O O16 0.141783 0.012895 0.627016
O O17 0.000000 0.000000 0.000000
#
# Coordination Sequence:
#
# PCOD8031379 Si02
#       8
#     2   2   2   2   2   2   2   2
#     4  11  23  46  71  99 135 178 230 277 341 396
#     4  11  27  49  64  99 141 187 228 270 339 418
#     4  12  23  41  69 101 135 176 226 280 343 395
#     4  11  23  43  71 103 137 175 231 279 339 399
#     4  11  22  44  74 101 138 175 223 296 335 394
#     4  12  22  41  71 104 132 173 232 284 327 399
#     4  11  22  43  72 107 136 170 228 295 336 390
#     4  11  26  49  64  97 146 180 225 279 345 405
#
# _framework density 22.544537999999999
#
# number of rings (size 3 to 8) (size 9 to 14) (size 15 to 20)
#    0.000    0.750    6.250    1.500    1.750    3.000 
#   13.500    1.875    0.000    0.000    0.000    0.000 
#    0.000    0.000    0.000    0.000    0.000    0.000 
#
# Total GULP energy -198250.784801 kJ/mol
# GULP energy per Si atom -12390.674050 kJ/mol
# Density = 2.249323 g / cm^3
# Si number density = 22.544538 Si / 1000 Ang^3
#
#
#
# Elastic Constant Matrix: (Units=GPa)
#
#
# Indices 1 2 3 4 5 6 
#
# 1 59.0490 40.9484 48.1371 -5.5660 2.6893 -2.7654
# 2 40.9484 125.0525 48.7076 -7.7278 -4.2323 5.6680
# 3 48.1371 48.7076 132.2858 -4.9098 16.7237 -7.5461
# 4 -5.5660 -7.7278 -4.9098 35.7856 -6.8754 -12.1938
# 5 2.6893 -4.2323 16.7237 -6.8754 42.1814 0.5942
# 6 -2.7654 5.6680 -7.5461 -12.1938 0.5942 33.1627
#
#
#
# Elastic Compliance Matrix: (Units=1/GPa)
#
#
# Indices 1 2 3 4 5 6 
#
# 1 0.027785 -0.005948 -0.007804 0.003109 0.001195 0.002680
# 2 -0.005948 0.011132 -0.002392 0.000722 0.002600 -0.002724
# 3 -0.007804 -0.002392 0.011996 -0.000095 -0.004550 0.002534
# 4 0.003109 0.000722 -0.000095 0.033824 0.005250 0.012457
# 5 0.001195 0.002600 -0.004550 0.005250 0.026550 0.000074
# 6 0.002680 -0.002724 0.002534 0.012457 0.000074 0.035999
#
#
# Mechanical properties :
#
#
# Convention : Reuss Voigt Hill
#
# Bulk Modulus (GPa) = 53.68565 65.77483 59.73024
# Shear Modulus (GPa) = 26.91332 34.13222 30.52277
#
# Velocity S-wave (km/s) = 3.45887 3.89522 3.68351
# Velocity P-wave (km/s) = 6.31003 7.03343 6.68153
#
# Compressibility (1/GPa) = 0.01862695
#
# Stress axis : x y z
#
# Youngs Moduli (GPa) = 35.99032 89.83185 83.36194
#
# Poissons Ratio (x) = 0.53429 0.65052
# Poissons Ratio (y) = 0.21406 0.19939
# Poissons Ratio (z) = 0.28085 0.21486
#
# Static dielectric constant tensor:
#      x y z
#    x 3.774560 0.060080 -0.152480 
#    y 0.060080 3.965010 0.109180 
#    z -0.152480 0.109180 4.395020 
# 
# 
# High freq. dielectric constant tensor:
#      x y z
#    x 1.870320 0.003630 -0.012500 
#    y 0.003630 1.886390 0.004580 
#    z -0.012500 0.004580 1.901530 
# 
# From -- ./inp_files/188540.got.cif
#   From: 2010.06.25/outbox.cif.g09.slc.cpg/sg2_95_cif.got.tgz:188540.got - 2010.06.27 13:26:56.
