data_PCOD8031821
_publ_section_title
;
Structure prediction by ZEFSAII (Michael W. Deem and Ramdas Pophale) SiO2 
 PCOD8031821
Probable space group: P -1
;
_chemical_formula_sum "Si O2"
_cell_formula_units_Z 16
_cell_length_a 9.044878
_cell_length_b 9.419717
_cell_length_c 13.571135
_cell_angle_alpha 73.182284
_cell_angle_beta 146.807347
_cell_angle_gamma 104.628812
_cell_volume 605.809519
_symmetry_space_group_name_H-M "P -1"
_symmetry_group_IT_number 2
_symmetry_cell_setting 'triclinic'
loop_
_space_group_symop_operation_xyz
x,y,z
-x,-y,-z
loop_
_atom_site_type_symbol
_atom_site_label
_atom_site_fract_x
_atom_site_fract_y
_atom_site_fract_z
Si Si1 0.138429 0.361088 0.947515
Si Si2 0.334244 0.746865 0.714558
Si Si3 0.310989 0.084143 0.588132
Si Si4 0.756343 0.654764 0.364215
Si Si5 0.414444 0.649509 0.993923
Si Si6 0.120352 0.931580 0.178881
Si Si7 0.619396 0.525860 0.669294
Si Si8 0.929117 0.809943 0.752743
O O1 0.284254 0.483905 0.932091
O O2 0.023965 0.225301 0.845270
O O3 0.893201 0.430885 0.857940
O O4 0.380095 0.301777 0.168670
O O5 0.082529 0.639639 0.564043
O O6 0.434502 0.738121 0.885827
O O7 0.242875 0.914284 0.611190
O O8 0.339861 0.185534 0.680537
O O9 0.567061 0.094552 0.657623
O O10 0.080964 0.155356 0.377433
O O11 0.601955 0.522715 0.363705
O O12 0.689414 0.642522 0.212999
O O13 0.211827 0.729373 0.940946
O O14 0.072410 0.035262 0.223549
O O15 0.000000 0.000000 0.000000
O O16 0.500000 0.500000 0.500000
O O17 0.689314 0.701002 0.680055
#
# Coordination Sequence:
#
# PCOD8031821 Si02
#       8
#     2   2   2   2   2   2   2   2
#     4  11  25  47  73 105 147 188 241 307 363 428
#     4  12  27  48  72 104 157 190 248 299 360 439
#     4  12  24  47  72 105 150 194 241 306 362 433
#     4  12  25  45  76 108 146 195 242 301 370 430
#     4  11  27  46  74 108 144 196 247 295 368 438
#     4  12  24  44  71 107 145 184 239 305 366 425
#     4  11  22  46  79 109 145 187 245 307 363 435
#     4  11  25  44  74 112 142 188 250 301 367 436
#
# _framework density 26.410941999999999
#
# number of rings (size 3 to 8) (size 9 to 14) (size 15 to 20)
#    0.000    0.500    5.000    2.625    1.750    3.000 
#    0.000    1.250    0.000    0.000    0.000    0.000 
#    0.000    0.000    0.000    0.000    0.000    0.000 
#
# Total GULP energy -198377.007151 kJ/mol
# GULP energy per Si atom -12398.562947 kJ/mol
# Density = 2.635083 g / cm^3
# Si number density = 26.410942 Si / 1000 Ang^3
#
#
#
# Elastic Constant Matrix: (Units=GPa)
#
#
# Indices 1 2 3 4 5 6 
#
# 1 78.9803 37.6119 47.1163 6.9626 2.5491 22.7460
# 2 37.6119 158.6055 47.1768 9.3638 3.9042 18.3478
# 3 47.1163 47.1768 142.7436 10.5825 -8.4321 4.4043
# 4 6.9626 9.3638 10.5825 47.7995 -5.9234 3.3780
# 5 2.5491 3.9042 -8.4321 -5.9234 42.7874 -4.0206
# 6 22.7460 18.3478 4.4043 3.3780 -4.0206 41.3223
#
#
#
# Elastic Compliance Matrix: (Units=1/GPa)
#
#
# Indices 1 2 3 4 5 6 
#
# 1 0.020001 -0.001726 -0.005846 -0.000987 -0.003249 -0.009856
# 2 -0.001726 0.007623 -0.001895 -0.000821 -0.001295 -0.002292
# 3 -0.005846 -0.001895 0.009675 -0.000830 0.002628 0.003352
# 4 -0.000987 -0.000821 -0.000830 0.021809 0.002942 -0.000500
# 5 -0.003249 -0.001295 0.002628 0.002942 0.025010 0.004276
# 6 -0.009856 -0.002292 0.003352 -0.000500 0.004276 0.030742
#
#
# Mechanical properties :
#
#
# Convention : Reuss Voigt Hill
#
# Bulk Modulus (GPa) = 54.44906 71.57105 63.01006
# Shear Modulus (GPa) = 35.73562 42.94347 39.33955
#
# Velocity S-wave (km/s) = 3.68239 4.03671 3.86361
# Velocity P-wave (km/s) = 6.22421 6.99175 6.61912
#
# Compressibility (1/GPa) = 0.01836579
#
# Stress axis : x y z
#
# Youngs Moduli (GPa) = 49.99724 131.17702 103.36075
#
# Poissons Ratio (x) = 0.22638 0.60426
# Poissons Ratio (y) = 0.08628 0.19585
# Poissons Ratio (z) = 0.29229 0.24855
#
# Static dielectric constant tensor:
#      x y z
#    x 5.122640 -0.370230 0.649690 
#    y -0.370230 5.497460 -0.265030 
#    z 0.649690 -0.265030 5.105850 
# 
# 
# High freq. dielectric constant tensor:
#      x y z
#    x 2.063850 -0.003840 0.021510 
#    y -0.003840 2.075510 -0.007830 
#    z 0.021510 -0.007830 2.061770 
# 
# From -- ./inp_files/286109.got.cif
#   From: 2010.06.25/outbox.cif.g09.slc.cpg/sg2_144_cif.got.tgz:286109.got - 2010.06.27 13:26:56.
