data_PCOD8031051
_publ_section_title
;
Structure prediction by ZEFSAII (Michael W. Deem and Ramdas Pophale) SiO2 
 PCOD8031051
Probable space group: P -1
;
_chemical_formula_sum "Si O2"
_cell_formula_units_Z 16
_cell_length_a 6.644270
_cell_length_b 8.762801
_cell_length_c 14.038992
_cell_angle_alpha 78.772412
_cell_angle_beta 71.760539
_cell_angle_gamma 98.394346
_cell_volume 742.435984
_symmetry_space_group_name_H-M "P -1"
_symmetry_group_IT_number 2
_symmetry_cell_setting 'triclinic'
loop_
_space_group_symop_operation_xyz
x,y,z
-x,-y,-z
loop_
_atom_site_type_symbol
_atom_site_label
_atom_site_fract_x
_atom_site_fract_y
_atom_site_fract_z
Si Si1 0.969484 0.550103 0.191977
Si Si2 0.128776 0.682278 0.353925
Si Si3 0.697778 0.582460 0.527795
Si Si4 0.333020 0.382940 0.102325
Si Si5 0.931538 0.879599 0.115273
Si Si6 0.527802 0.300834 0.285378
Si Si7 0.527364 0.975958 0.255677
Si Si8 0.350670 0.057158 0.091279
O O1 0.103199 0.624843 0.255907
O O2 0.116179 0.450190 0.127192
O O3 0.915447 0.693053 0.116118
O O4 0.745611 0.428980 0.263869
O O5 0.214255 0.555644 0.418668
O O6 0.890473 0.695907 0.424571
O O7 0.307376 0.846178 0.324492
O O8 0.500000 0.500000 0.500000
O O9 0.632994 0.696803 0.603180
O O10 0.420194 0.351828 0.198324
O O11 0.283949 0.224576 0.061957
O O12 0.500000 0.500000 0.000000
O O13 0.722555 0.893810 0.206575
O O14 0.130811 0.923694 0.154221
O O15 0.000000 0.000000 0.000000
O O16 0.577431 0.121182 0.306673
O O17 0.493569 0.084661 0.159657
O O18 0.500000 0.000000 0.000000
#
# Coordination Sequence:
#
# PCOD8031051 Si02
#       8
#     2   2   2   2   2   2   2   2
#     4  12  24  43  70  98 137 181 231 281 340 406
#     4  11  24  43  72 102 130 178 229 279 346 417
#     4  11  23  45  76 102 130 175 229 284 350 410
#     4  11  26  40  66  99 137 181 228 279 338 402
#     4  12  25  38  67  96 137 189 233 277 330 406
#     4  11  25  45  68 100 139 174 227 292 340 405
#     4  11  25  43  64  98 137 178 227 279 341 405
#     4  11  22  42  63  91 135 182 229 277 333 397
#
# _framework density 21.55068
#
# number of rings (size 3 to 8) (size 9 to 14) (size 15 to 20)
#    0.000    0.750    5.000    2.250    3.500    1.000 
#    0.000    0.625    0.000    0.000    0.000    0.000 
#    0.000    0.000    0.000    0.000    0.000    0.000 
#
# Total GULP energy -198209.585720 kJ/mol
# GULP energy per Si atom -12388.099108 kJ/mol
# Density = 2.150163 g / cm^3
# Si number density = 21.550680 Si / 1000 Ang^3
#
#
#
# Elastic Constant Matrix: (Units=GPa)
#
#
# Indices 1 2 3 4 5 6 
#
# 1 103.5830 48.9821 34.6797 0.2339 -28.2633 -8.3157
# 2 48.9821 168.7569 50.6852 -0.2287 -28.3936 -13.2848
# 3 34.6797 50.6852 98.8441 8.0340 -28.7507 -10.3061
# 4 0.2339 -0.2287 8.0340 29.2663 0.7589 -11.6047
# 5 -28.2633 -28.3936 -28.7507 0.7589 44.7622 1.3957
# 6 -8.3157 -13.2848 -10.3061 -11.6047 1.3957 43.0355
#
#
#
# Elastic Compliance Matrix: (Units=1/GPa)
#
#
# Indices 1 2 3 4 5 6 
#
# 1 0.012895 -0.002176 -0.001686 0.000768 0.005621 0.001441
# 2 -0.002176 0.007788 -0.002651 0.001424 0.001787 0.001675
# 3 -0.001686 -0.002651 0.014377 -0.003690 0.006517 0.001093
# 4 0.000768 0.001424 -0.003690 0.039354 -0.001972 0.010380
# 5 0.005621 0.001787 0.006517 -0.001972 0.031190 0.001655
# 6 0.001441 0.001675 0.001093 0.010380 0.001655 0.027039
#
#
# Mechanical properties :
#
#
# Convention : Reuss Voigt Hill
#
# Bulk Modulus (GPa) = 45.38440 71.09756 58.24098
# Shear Modulus (GPa) = 32.67640 39.20192 35.93916
#
# Velocity S-wave (km/s) = 3.89814 4.26967 4.08813
# Velocity P-wave (km/s) = 6.43162 7.57425 7.02620
#
# Compressibility (1/GPa) = 0.02203400
#
# Stress axis : x y z
#
# Youngs Moduli (GPa) = 77.54757 128.40120 69.55408
#
# Poissons Ratio (x) = 0.27945 0.11723
# Poissons Ratio (y) = 0.16878 0.18442
# Poissons Ratio (z) = 0.13071 0.34045
#
# Static dielectric constant tensor:
#      x y z
#    x 4.163120 -0.019370 -0.026110 
#    y -0.019370 3.552780 -0.204860 
#    z -0.026110 -0.204860 3.815310 
# 
# 
# High freq. dielectric constant tensor:
#      x y z
#    x 1.858680 -0.002980 -0.009930 
#    y -0.002980 1.859590 -0.000480 
#    z -0.009930 -0.000480 1.838680 
# 
# From -- ./inp_files/288672.got.cif
#   From: 2010.06.25/outbox.cif.g09.slc.cpg/sg2_145_cif.got.tgz:288672.got - 2010.06.27 13:26:56.
