data_PCOD8031298
_publ_section_title
;
Structure prediction by ZEFSAII (Michael W. Deem and Ramdas Pophale) SiO2 
 PCOD8031298
Probable space group: P -1
;
_chemical_formula_sum "Si O2"
_cell_formula_units_Z 16
_cell_length_a 8.548652
_cell_length_b 24.467005
_cell_length_c 13.498582
_cell_angle_alpha 24.284918
_cell_angle_beta 124.567998
_cell_angle_gamma 136.967894
_cell_volume 741.562132
_symmetry_space_group_name_H-M "P -1"
_symmetry_group_IT_number 2
_symmetry_cell_setting 'triclinic'
loop_
_space_group_symop_operation_xyz
x,y,z
-x,-y,-z
loop_
_atom_site_type_symbol
_atom_site_label
_atom_site_fract_x
_atom_site_fract_y
_atom_site_fract_z
Si Si1 0.118422 0.095689 0.184849
Si Si2 0.262169 0.975527 0.983907
Si Si3 0.876097 0.587133 0.813350
Si Si4 0.678582 0.598269 0.106183
Si Si5 0.383625 0.721410 0.049200
Si Si6 0.505051 0.705380 0.326205
Si Si7 0.873268 0.654830 0.490560
Si Si8 0.033955 0.780303 0.754546
O O1 0.862164 0.005660 0.184669
O O2 0.086916 0.960499 0.473686
O O3 0.169048 0.248056 0.015566
O O4 0.333356 0.163380 0.071292
O O5 0.318620 0.109352 0.866403
O O6 0.084253 0.783288 0.278164
O O7 0.500000 0.000000 0.000000
O O8 0.581773 0.446180 0.933386
O O9 0.972940 0.707498 0.552090
O O10 0.951857 0.703902 0.742032
O O11 0.000000 0.500000 0.000000
O O12 0.652456 0.438592 0.407630
O O13 0.817720 0.646626 0.972813
O O14 0.347565 0.705144 0.182869
O O15 0.222373 0.534880 0.250651
O O16 0.282028 0.816226 0.816165
O O17 0.654187 0.662363 0.387524
#
# Coordination Sequence:
#
# PCOD8031298 Si02
#       8
#     2   2   2   2   2   2   2   2
#     4  12  24  49  69 101 144 178 234 281 348 414
#     4  12  29  44  71 107 138 178 229 295 351 404
#     4  11  22  43  69 100 134 186 237 272 336 418
#     4  11  25  45  71  99 141 185 225 287 353 401
#     4  12  24  44  75 103 134 186 234 280 338 420
#     4  11  24  45  72 100 135 184 231 281 345 410
#     4  11  22  46  71 101 135 182 232 285 341 408
#     4  12  27  42  69 106 143 184 225 289 344 407
#
# _framework density 21.576074999999999
#
# number of rings (size 3 to 8) (size 9 to 14) (size 15 to 20)
#    0.000    0.500    5.000    4.125    5.250    1.500 
#    0.000    0.000    0.000    0.000    0.000    0.000 
#    0.000    0.000    0.000    0.000    0.000    0.000 
#
# Total GULP energy -198472.200962 kJ/mol
# GULP energy per Si atom -12404.512560 kJ/mol
# Density = 2.152697 g / cm^3
# Si number density = 21.576075 Si / 1000 Ang^3
#
#
#
# Elastic Constant Matrix: (Units=GPa)
#
#
# Indices 1 2 3 4 5 6 
#
# 1 50.3843 20.3233 23.4233 11.1992 -2.2196 11.7920
# 2 20.3233 130.7239 35.7564 20.3885 9.5913 -6.8216
# 3 23.4233 35.7564 110.8537 14.3891 -10.8059 11.1546
# 4 11.1992 20.3885 14.3891 35.1681 -4.1350 0.7006
# 5 -2.2196 9.5913 -10.8059 -4.1350 36.2181 3.0743
# 6 11.7920 -6.8216 11.1546 0.7006 3.0743 27.1381
#
#
#
# Elastic Compliance Matrix: (Units=1/GPa)
#
#
# Indices 1 2 3 4 5 6 
#
# 1 0.026194 -0.003390 -0.002452 -0.004890 0.002176 -0.011346
# 2 -0.003390 0.010397 -0.003160 -0.004353 -0.004915 0.006055
# 3 -0.002452 -0.003160 0.011694 -0.001552 0.004423 -0.004996
# 4 -0.004890 -0.004353 -0.001552 0.033639 0.004203 0.000324
# 5 0.002176 -0.004915 0.004423 0.004203 0.031496 -0.007675
# 6 -0.011346 0.006055 -0.004996 0.000324 -0.007675 0.046215
#
#
# Mechanical properties :
#
#
# Convention : Reuss Voigt Hill
#
# Bulk Modulus (GPa) = 33.02791 50.10753 41.56772
# Shear Modulus (GPa) = 26.63348 33.86878 30.25113
#
# Velocity S-wave (km/s) = 3.51721 3.96629 3.74848
# Velocity P-wave (km/s) = 5.64227 6.65202 6.16784
#
# Compressibility (1/GPa) = 0.03027742
#
# Stress axis : x y z
#
# Youngs Moduli (GPa) = 38.17737 96.18333 85.51540
#
# Poissons Ratio (x) = 0.32610 0.20972
# Poissons Ratio (y) = 0.12944 0.27027
# Poissons Ratio (z) = 0.09363 0.30398
#
# Static dielectric constant tensor:
#      x y z
#    x 3.823910 -0.027390 -0.019240 
#    y -0.027390 4.095610 0.122130 
#    z -0.019240 0.122130 4.171700 
# 
# 
# High freq. dielectric constant tensor:
#      x y z
#    x 1.843450 -0.007610 0.000790 
#    y -0.007610 1.858330 0.011900 
#    z 0.000790 0.011900 1.855800 
# 
# From -- ./inp_files/262575.got.cif
#   From: 2010.06.25/outbox.cif.g09.slc.cpg/sg2_132_cif.got.tgz:262575.got - 2010.06.27 13:26:56.
