data_PCOD8031219
_publ_section_title
;
Structure prediction by ZEFSAII (Michael W. Deem and Ramdas Pophale) SiO2 
 PCOD8031219
Probable space group: P -1
;
_chemical_formula_sum "Si O2"
_cell_formula_units_Z 14
_cell_length_a 23.837977
_cell_length_b 9.544871
_cell_length_c 9.893405
_cell_angle_alpha 131.617689
_cell_angle_beta 139.911201
_cell_angle_gamma 26.087135
_cell_volume 635.354251
_symmetry_space_group_name_H-M "P -1"
_symmetry_group_IT_number 2
_symmetry_cell_setting 'triclinic'
loop_
_space_group_symop_operation_xyz
x,y,z
-x,-y,-z
loop_
_atom_site_type_symbol
_atom_site_label
_atom_site_fract_x
_atom_site_fract_y
_atom_site_fract_z
Si Si1 0.156462 0.791556 0.201818
Si Si2 0.460616 0.022477 0.728796
Si Si3 0.826376 0.263001 0.318881
Si Si4 0.549693 0.265943 0.691533
Si Si5 0.243256 0.877184 0.655359
Si Si6 0.305965 0.137391 0.050328
Si Si7 0.323984 0.604352 0.134505
O O1 0.137175 0.957884 0.404031
O O2 0.233727 0.459955 0.160498
O O3 0.241812 0.764145 0.228871
O O4 0.000000 0.000000 0.000000
O O5 0.282395 0.364251 0.632477
O O6 0.495048 0.838019 0.542214
O O7 0.539439 0.086436 0.887256
O O8 0.540133 0.784084 0.852753
O O9 0.769739 0.204299 0.278521
O O10 0.801077 0.236313 0.102629
O O11 0.000000 0.000000 0.500000
O O12 0.410015 0.579969 0.719023
O O13 0.607665 0.315064 0.722396
O O14 0.675047 0.999817 0.860392
O O15 0.208160 0.161081 0.794516
#
# Coordination Sequence:
#
# PCOD8031219 Si02
#       7
#     2   2   2   2   2   2   2
#     4  11  26  48  67  98 146 184 223 280 347 415
#     4  11  23  42  71 102 135 183 229 287 348 397
#     4  12  25  44  66 101 143 182 226 283 345 417
#     4  12  21  43  72 104 132 173 237 295 331 400
#     4  12  23  43  74  98 136 180 231 281 338 414
#     4  11  22  42  73 101 129 180 235 276 341 405
#     4  11  24  44  67 104 138 171 234 294 336 398
#
# _framework density 22.034951
#
# number of rings (size 3 to 8) (size 9 to 14) (size 15 to 20)
#    0.000    0.571    5.714    4.286    0.000    1.714 
#    2.571    1.429    0.000    0.000    0.000    0.000 
#    0.000    0.000    0.000    0.000    0.000    0.000 
#
# Total GULP energy -173509.996586 kJ/mol
# GULP energy per Si atom -12393.571185 kJ/mol
# Density = 2.198480 g / cm^3
# Si number density = 22.034951 Si / 1000 Ang^3
#
#
#
# Elastic Constant Matrix: (Units=GPa)
#
#
# Indices 1 2 3 4 5 6 
#
# 1 100.5694 39.7623 21.6624 -6.5313 8.0574 26.7818
# 2 39.7623 67.7247 44.8848 -20.5482 15.5341 7.5471
# 3 21.6624 44.8848 155.1446 0.0718 8.7439 18.4487
# 4 -6.5313 -20.5482 0.0718 41.2689 1.8871 6.2045
# 5 8.0574 15.5341 8.7439 1.8871 36.4511 -3.3373
# 6 26.7818 7.5471 18.4487 6.2045 -3.3373 26.6082
#
#
#
# Elastic Compliance Matrix: (Units=1/GPa)
#
#
# Indices 1 2 3 4 5 6 
#
# 1 0.018140 -0.009522 0.002457 0.000895 -0.002213 -0.017748
# 2 -0.009522 0.032128 -0.007487 0.014849 -0.010479 0.000885
# 3 0.002457 -0.007487 0.008978 -0.002457 0.000073 -0.005992
# 4 0.000895 0.014849 -0.002457 0.034048 -0.008840 -0.012457
# 5 -0.002213 -0.010479 0.000073 -0.008840 0.033878 0.011459
# 6 -0.017748 0.000885 -0.005992 -0.012457 0.011459 0.063691
#
#
# Mechanical properties :
#
#
# Convention : Reuss Voigt Hill
#
# Bulk Modulus (GPa) = 33.17597 59.56195 46.36896
# Shear Modulus (GPa) = 21.73757 35.34091 28.53924
#
# Velocity S-wave (km/s) = 3.14427 4.00916 3.60277
# Velocity P-wave (km/s) = 5.31702 6.96567 6.19642
#
# Compressibility (1/GPa) = 0.03014230
#
# Stress axis : x y z
#
# Youngs Moduli (GPa) = 55.12527 31.12506 111.38030
#
# Poissons Ratio (x) = 0.29637 -0.27361
# Poissons Ratio (y) = 0.52490 0.83392
# Poissons Ratio (z) = -0.13542 0.23304
#
# Static dielectric constant tensor:
#      x y z
#    x 4.149700 0.076050 -0.030310 
#    y 0.076050 3.914720 -0.008840 
#    z -0.030310 -0.008840 4.206250 
# 
# 
# High freq. dielectric constant tensor:
#      x y z
#    x 1.870590 0.013390 -0.005140 
#    y 0.013390 1.847430 0.001610 
#    z -0.005140 0.001610 1.884030 
# 
# From -- ./inp_files/224035.got.cif
#   From: 2010.06.25/outbox.cif.g09.slc.cpg/sg2_113_cif.got.tgz:224035.got - 2010.06.27 13:26:56.
