data_PCOD8031610
_publ_section_title
;
Structure prediction by ZEFSAII (Michael W. Deem and Ramdas Pophale) SiO2 
 PCOD8031610
Probable space group: P -1
;
_chemical_formula_sum "Si O2"
_cell_formula_units_Z 12
_cell_length_a 28.582410
_cell_length_b 14.565957
_cell_length_c 10.995604
_cell_angle_alpha 32.331971
_cell_angle_beta 22.148017
_cell_angle_gamma 19.581141
_cell_volume 564.343214
_symmetry_space_group_name_H-M "P -1"
_symmetry_group_IT_number 2
_symmetry_cell_setting 'triclinic'
loop_
_space_group_symop_operation_xyz
x,y,z
-x,-y,-z
loop_
_atom_site_type_symbol
_atom_site_label
_atom_site_fract_x
_atom_site_fract_y
_atom_site_fract_z
Si Si1 0.869581 0.236927 0.648895
Si Si2 0.648034 0.226468 0.368746
Si Si3 0.982072 0.664507 0.638247
Si Si4 0.403685 0.051335 0.333733
Si Si5 0.694594 0.766588 0.374305
Si Si6 0.188755 0.175683 0.382607
O O1 0.724721 0.536315 0.599495
O O2 0.013610 0.167563 0.480280
O O3 0.735122 0.244016 0.031670
O O4 0.000000 0.000000 0.500000
O O5 0.500000 0.500000 0.500000
O O6 0.539080 0.184011 0.612925
O O7 0.819386 0.970774 0.336759
O O8 0.838493 0.861407 0.648334
O O9 0.209199 0.356864 0.395810
O O10 0.890904 0.613309 0.999182
O O11 0.341083 0.078933 0.592495
O O12 0.595589 0.966886 0.961686
O O13 0.500000 0.000000 0.500000
O O14 0.000000 0.500000 0.500000
#
# Coordination Sequence:
#
# PCOD8031610 Si02
#       6
#     2   2   2   2   2   2
#     4  11  25  45  68 101 143 176 219 291 353 389
#     4  12  26  44  67 104 145 176 218 291 355 392
#     4  11  23  45  76  99 133 185 231 276 336 417
#     4  11  23  46  72  98 137 184 228 281 334 411
#     4  11  22  44  75  98 128 180 240 271 327 419
#     4  12  26  44  73 100 131 186 242 264 331 426
#
# _framework density 21.263656000000001
#
# number of rings (size 3 to 8) (size 9 to 14) (size 15 to 20)
#    0.000    0.667    3.333    6.500    2.333    0.667 
#    3.000    1.667    0.000    0.000    0.000    0.000 
#    0.000    0.000    0.000    0.000    0.000    0.000 
#
# Total GULP energy -148794.928043 kJ/mol
# GULP energy per Si atom -12399.577337 kJ/mol
# Density = 2.121526 g / cm^3
# Si number density = 21.263656 Si / 1000 Ang^3
#
#
#
# Elastic Constant Matrix: (Units=GPa)
#
#
# Indices 1 2 3 4 5 6 
#
# 1 159.1296 78.6526 48.8502 -9.7665 -3.8878 4.8149
# 2 78.6526 130.0143 40.6093 2.8988 -2.7006 10.4877
# 3 48.8502 40.6093 100.1759 12.8892 -3.8460 -3.7939
# 4 -9.7665 2.8988 12.8892 32.9972 1.9922 4.4697
# 5 -3.8878 -2.7006 -3.8460 1.9922 41.0992 -0.6876
# 6 4.8149 10.4877 -3.7939 4.4697 -0.6876 51.8999
#
#
#
# Elastic Compliance Matrix: (Units=1/GPa)
#
#
# Indices 1 2 3 4 5 6 
#
# 1 0.010247 -0.005145 -0.003570 0.004957 0.000047 -0.000598
# 2 -0.005145 0.011645 -0.002089 -0.001480 0.000123 -0.001899
# 3 -0.003570 -0.002089 0.013544 -0.006548 0.001149 0.002322
# 4 0.004957 -0.001480 -0.006548 0.035081 -0.002003 -0.003687
# 5 0.000047 0.000123 0.001149 -0.002003 0.024558 0.000553
# 6 -0.000598 -0.001899 0.002322 -0.003687 0.000553 0.020202
#
#
# Mechanical properties :
#
#
# Convention : Reuss Voigt Hill
#
# Bulk Modulus (GPa) = 72.30897 80.61601 76.46249
# Shear Modulus (GPa) = 35.33755 39.94643 37.64199
#
# Velocity S-wave (km/s) = 4.08103 4.33901 4.21200
# Velocity P-wave (km/s) = 7.50241 7.94340 7.72605
#
# Compressibility (1/GPa) = 0.01382954
#
# Stress axis : x y z
#
# Youngs Moduli (GPa) = 97.59415 85.87334 73.83171
#
# Poissons Ratio (x) = 0.44182 0.26355
# Poissons Ratio (y) = 0.50212 0.15420
# Poissons Ratio (z) = 0.34838 0.17935
#
# Static dielectric constant tensor:
#      x y z
#    x 4.286570 0.027000 0.011000 
#    y 0.027000 3.836850 0.037860 
#    z 0.011000 0.037860 3.957880 
# 
# 
# High freq. dielectric constant tensor:
#      x y z
#    x 1.862400 0.002460 0.014510 
#    y 0.002460 1.823750 0.005490 
#    z 0.014510 0.005490 1.835740 
# 
# From -- ./inp_files/433406.got.cif
#   From: 2010.06.25/outbox.cif.g09.slc.cpg/sg2_217_cif.got.tgz:433406.got - 2010.06.27 13:26:56.
