data_PCOD8031843
_publ_section_title
;
Structure prediction by ZEFSAII (Michael W. Deem and Ramdas Pophale) SiO2 
 PCOD8031843
Probable space group: P -1
;
_chemical_formula_sum "Si O2"
_cell_formula_units_Z 16
_cell_length_a 9.238791
_cell_length_b 15.306553
_cell_length_c 8.970167
_cell_angle_alpha 67.582889
_cell_angle_beta 54.194589
_cell_angle_gamma 102.626763
_cell_volume 768.452839
_symmetry_space_group_name_H-M "P -1"
_symmetry_group_IT_number 2
_symmetry_cell_setting 'triclinic'
loop_
_space_group_symop_operation_xyz
x,y,z
-x,-y,-z
loop_
_atom_site_type_symbol
_atom_site_label
_atom_site_fract_x
_atom_site_fract_y
_atom_site_fract_z
Si Si1 0.177852 0.643505 0.523074
Si Si2 0.335848 0.523383 0.012831
Si Si3 0.092030 0.754731 0.959530
Si Si4 0.844663 0.019461 0.170433
Si Si5 0.777073 0.966634 0.583256
Si Si6 0.370080 0.872319 0.438231
Si Si7 0.310617 0.494619 0.705866
Si Si8 0.648985 0.282414 0.951673
O O1 0.313197 0.775415 0.414973
O O2 0.237961 0.568874 0.625855
O O3 0.252982 0.648663 0.306224
O O4 0.917370 0.582709 0.730610
O O5 0.387487 0.542445 0.794172
O O6 0.396688 0.644313 0.960764
O O7 0.500000 0.500000 0.000000
O O8 0.024250 0.841193 0.979300
O O9 0.296794 0.817120 0.682534
O O10 0.162502 0.725426 0.087535
O O11 0.892980 0.640280 0.073087
O O12 0.782887 0.955416 0.408751
O O13 0.630779 0.970754 0.228823
O O14 0.000000 0.000000 0.000000
O O15 0.578150 0.844375 0.852638
O O16 0.746844 0.066940 0.579674
O O17 0.000000 0.000000 0.500000
O O18 0.500000 0.500000 0.500000
#
# Coordination Sequence:
#
# PCOD8031843 Si02
#       8
#     2   2   2   2   2   2   2   2
#     4  12  27  43  71 101 138 179 226 278 337 405
#     4  12  27  46  69 102 138 176 228 281 340 397
#     4  11  22  47  71  92 138 180 222 277 336 400
#     4  11  25  43  71 102 130 176 231 274 335 404
#     4  11  26  44  68  99 136 178 222 280 339 397
#     4  11  23  47  68  97 133 181 225 274 338 400
#     4  12  27  45  72 102 134 181 227 277 339 404
#     4  12  25  45  70  97 141 180 223 281 336 400
#
# _framework density 20.821057
#
# number of rings (size 3 to 8) (size 9 to 14) (size 15 to 20)
#    0.000    0.500    5.000    3.000    7.000    2.500 
#    0.000    0.000    0.000    0.000    0.000    0.000 
#    0.000    0.000    0.000    0.000    0.000    0.000 
#
# Total GULP energy -198505.760067 kJ/mol
# GULP energy per Si atom -12406.610004 kJ/mol
# Density = 2.077367 g / cm^3
# Si number density = 20.821057 Si / 1000 Ang^3
#
#
#
# Elastic Constant Matrix: (Units=GPa)
#
#
# Indices 1 2 3 4 5 6 
#
# 1 151.1633 48.9318 52.1138 6.4044 -2.4828 -9.4054
# 2 48.9318 148.7500 51.0270 6.6431 1.5150 -5.2662
# 3 52.1138 51.0270 100.4052 11.8908 6.3767 -8.0773
# 4 6.4044 6.6431 11.8908 38.5907 -0.1507 -2.0942
# 5 -2.4828 1.5150 6.3767 -0.1507 35.2613 3.2164
# 6 -9.4054 -5.2662 -8.0773 -2.0942 3.2164 29.9115
#
#
#
# Elastic Compliance Matrix: (Units=1/GPa)
#
#
# Indices 1 2 3 4 5 6 
#
# 1 0.008441 -0.001514 -0.003588 0.000040 0.001190 0.001293
# 2 -0.001514 0.008422 -0.003487 -0.000121 0.000158 0.000040
# 3 -0.003588 -0.003487 0.014326 -0.003109 -0.002909 0.002222
# 4 0.000040 -0.000121 -0.003109 0.026940 0.000597 0.000974
# 5 0.001190 0.000158 -0.002909 0.000597 0.029284 -0.003491
# 6 0.001293 0.000040 0.002222 0.000974 -0.003491 0.034889
#
#
# Mechanical properties :
#
#
# Convention : Reuss Voigt Hill
#
# Bulk Modulus (GPa) = 71.37248 78.27373 74.82310
# Shear Modulus (GPa) = 34.68619 37.30242 35.99430
#
# Velocity S-wave (km/s) = 4.08599 4.23729 4.16233
# Velocity P-wave (km/s) = 7.52422 7.84950 7.68858
#
# Compressibility (1/GPa) = 0.01401100
#
# Stress axis : x y z
#
# Youngs Moduli (GPa) = 118.47366 118.73607 69.80464
#
# Poissons Ratio (x) = 0.17976 0.25045
# Poissons Ratio (y) = 0.17936 0.24340
# Poissons Ratio (z) = 0.42508 0.41402
#
# Static dielectric constant tensor:
#      x y z
#    x 3.867660 -0.009730 0.010120 
#    y -0.009730 4.151180 -0.274600 
#    z 0.010120 -0.274600 4.173070 
# 
# 
# High freq. dielectric constant tensor:
#      x y z
#    x 1.822370 -0.000860 0.000220 
#    y -0.000860 1.833070 -0.003420 
#    z 0.000220 -0.003420 1.816930 
# 
# From -- ./inp_files/178761.got.cif
#   From: 2010.06.25/outbox.cif.g09.slc.cpg/sg2_90_cif.got.tgz:178761.got - 2010.06.27 13:26:56.
