data_PCOD8031042
_publ_section_title
;
Structure prediction by ZEFSAII (Michael W. Deem and Ramdas Pophale) SiO2 
 PCOD8031042
Probable space group: P -1
;
_chemical_formula_sum "Si O2"
_cell_formula_units_Z 16
_cell_length_a 32.257496
_cell_length_b 11.463694
_cell_length_c 18.763620
_cell_angle_alpha 157.603326
_cell_angle_beta 18.249559
_cell_angle_gamma 148.984617
_cell_volume 814.932259
_symmetry_space_group_name_H-M "P -1"
_symmetry_group_IT_number 2
_symmetry_cell_setting 'triclinic'
loop_
_space_group_symop_operation_xyz
x,y,z
-x,-y,-z
loop_
_atom_site_type_symbol
_atom_site_label
_atom_site_fract_x
_atom_site_fract_y
_atom_site_fract_z
Si Si1 0.618352 0.238790 0.129085
Si Si2 0.624395 0.156158 0.905792
Si Si3 0.846504 0.517348 0.571516
Si Si4 0.581397 0.549756 0.825560
Si Si5 0.415730 0.317118 0.841135
Si Si6 0.144285 0.446749 0.039915
Si Si7 0.834947 0.176317 0.257887
Si Si8 0.866741 0.898298 0.277346
O O1 0.500000 0.500000 0.500000
O O2 0.619398 0.239416 0.043090
O O3 0.760691 0.306533 0.961715
O O4 0.605075 0.901654 0.988636
O O5 0.761634 0.918899 0.525946
O O6 0.620570 0.479352 0.054630
O O7 0.500000 0.000000 0.000000
O O8 0.825929 0.453648 0.486312
O O9 0.991389 0.614453 0.403007
O O10 0.837891 0.204024 0.450029
O O11 0.720094 0.764724 0.946402
O O12 0.497206 0.502514 0.866372
O O13 0.719788 0.294943 0.454725
O O14 0.500000 0.500000 0.000000
O O15 0.500000 0.000000 0.500000
O O16 0.152526 0.371152 0.899328
O O17 0.186763 0.143334 0.849311
O O18 0.981608 0.140844 0.961202
#
# Coordination Sequence:
#
# PCOD8031042 Si02
#       8
#     2   2   2   2   2   2   2   2
#     4  12  26  39  61  93 121 160 203 250 302 360
#     4  11  22  42  60  84 127 159 203 248 297 359
#     4   8  16  36  62  87 120 156 202 245 288 361
#     4  12  24  41  63  89 125 157 204 252 300 362
#     4  11  24  40  62  93 121 163 202 246 305 352
#     4   9  18  37  65  92 113 154 210 247 292 357
#     4   9  17  35  65  88 118 158 201 246 297 352
#     4   8  17  36  62  88 115 163 198 243 300 355
#
# _framework density 19.633534000000001
#
# number of rings (size 3 to 8) (size 9 to 14) (size 15 to 20)
#    0.000    2.000    2.500    3.000    5.250    0.000 
#    2.250    6.250    0.000    0.000    0.000    0.000 
#    0.000    0.000    0.000    0.000    0.000    0.000 
#
# Total GULP energy -198338.364313 kJ/mol
# GULP energy per Si atom -12396.147770 kJ/mol
# Density = 1.958885 g / cm^3
# Si number density = 19.633534 Si / 1000 Ang^3
#
#
#
# Elastic Constant Matrix: (Units=GPa)
#
#
# Indices 1 2 3 4 5 6 
#
# 1 86.1843 38.1076 40.2228 -10.9935 6.3387 1.7235
# 2 38.1076 124.3522 60.2503 -13.3819 5.5187 12.7970
# 3 40.2228 60.2503 152.9207 -27.8710 5.4607 1.4395
# 4 -10.9935 -13.3819 -27.8710 35.8800 -1.2896 -2.5894
# 5 6.3387 5.5187 5.4607 -1.2896 34.0879 -2.0883
# 6 1.7235 12.7970 1.4395 -2.5894 -2.0883 28.6068
#
#
#
# Elastic Compliance Matrix: (Units=1/GPa)
#
#
# Indices 1 2 3 4 5 6 
#
# 1 0.014328 -0.003159 -0.002198 0.001492 -0.001703 0.000671
# 2 -0.003159 0.011247 -0.003497 0.000135 -0.000957 -0.004723
# 3 -0.002198 -0.003497 0.009492 0.005510 -0.000233 0.001701
# 4 0.001492 0.000135 0.005510 0.032851 0.000218 0.002562
# 5 -0.001703 -0.000957 -0.000233 0.000218 0.030022 0.002754
# 6 0.000671 -0.004723 0.001701 0.002562 0.002754 0.037376
#
#
# Mechanical properties :
#
#
# Convention : Reuss Voigt Hill
#
# Bulk Modulus (GPa) = 57.60623 71.17985 64.39304
# Shear Modulus (GPa) = 31.48431 34.70670 33.09551
#
# Velocity S-wave (km/s) = 4.00884 4.20899 4.11014
# Velocity P-wave (km/s) = 7.12967 7.74298 7.44264
#
# Compressibility (1/GPa) = 0.01735923
#
# Stress axis : x y z
#
# Youngs Moduli (GPa) = 69.79560 88.91115 105.35439
#
# Poissons Ratio (x) = 0.28086 0.23153
# Poissons Ratio (y) = 0.22047 0.36845
# Poissons Ratio (z) = 0.15338 0.31094
#
# Static dielectric constant tensor:
#      x y z
#    x 3.713230 0.134520 0.036410 
#    y 0.134520 3.570260 -0.418310 
#    z 0.036410 -0.418310 4.064700 
# 
# 
# High freq. dielectric constant tensor:
#      x y z
#    x 1.751280 0.008470 -0.002820 
#    y 0.008470 1.755480 -0.024790 
#    z -0.002820 -0.024790 1.770620 
# 
# From -- ./inp_files/186799.got.cif
#   From: 2010.06.25/outbox.cif.g09.slc.cpg/sg2_94_cif.got.tgz:186799.got - 2010.06.27 13:26:56.
