data_PCOD8031795
_publ_section_title
;
Structure prediction by ZEFSAII (Michael W. Deem and Ramdas Pophale) SiO2 
 PCOD8031795
Probable space group: P -1
;
_chemical_formula_sum "Si O2"
_cell_formula_units_Z 14
_cell_length_a 9.731620
_cell_length_b 11.075813
_cell_length_c 11.310017
_cell_angle_alpha 131.767981
_cell_angle_beta 121.844221
_cell_angle_gamma 39.859096
_cell_volume 582.389903
_symmetry_space_group_name_H-M "P -1"
_symmetry_group_IT_number 2
_symmetry_cell_setting 'triclinic'
loop_
_space_group_symop_operation_xyz
x,y,z
-x,-y,-z
loop_
_atom_site_type_symbol
_atom_site_label
_atom_site_fract_x
_atom_site_fract_y
_atom_site_fract_z
Si Si1 0.107414 0.377043 0.848447
Si Si2 0.371524 0.564914 0.863816
Si Si3 0.319658 0.807669 0.781899
Si Si4 0.556939 0.132402 0.556086
Si Si5 0.524249 0.903504 0.758256
Si Si6 0.959394 0.782824 0.932828
Si Si7 0.983565 0.154588 0.500906
O O1 0.972159 0.331101 0.683077
O O2 0.118610 0.534612 0.883032
O O3 0.344598 0.160007 0.842009
O O4 0.000000 0.500000 0.000000
O O5 0.436831 0.648901 0.844454
O O6 0.419669 0.353537 0.706104
O O7 0.116191 0.768313 0.900451
O O8 0.500000 0.500000 0.000000
O O9 0.494305 0.808095 0.797025
O O10 0.229390 0.730122 0.600350
O O11 0.114957 0.051980 0.886593
O O12 0.492081 0.192151 0.428697
O O13 0.500000 0.000000 0.500000
O O14 0.812835 0.986497 0.586777
O O15 0.749158 0.846671 0.819713
O O16 0.000000 0.000000 0.500000
#
# Coordination Sequence:
#
# PCOD8031795 Si02
#       7
#     2   2   2   2   2   2   2
#     4  11  23  44  77 107 151 197 242 303 380 450
#     4  12  30  49  74 110 149 207 251 313 388 440
#     4  12  26  48  74 110 153 193 254 319 369 449
#     4  11  26  48  75 103 156 194 251 303 377 461
#     4  11  26  48  75 116 146 199 254 312 372 455
#     4  12  27  47  76 107 151 200 253 307 376 455
#     4  11  22  46  73 112 149 190 248 310 378 438
#
# _framework density 24.038878
#
# number of rings (size 3 to 8) (size 9 to 14) (size 15 to 20)
#    0.000    0.571    4.286    3.429    8.000    2.286 
#    0.000    0.000    0.000    0.000    0.000    0.000 
#    0.000    0.000    0.000    0.000    0.000    0.000 
#
# Total GULP energy -173602.232161 kJ/mol
# GULP energy per Si atom -12400.159440 kJ/mol
# Density = 2.398416 g / cm^3
# Si number density = 24.038878 Si / 1000 Ang^3
#
#
#
# Elastic Constant Matrix: (Units=GPa)
#
#
# Indices 1 2 3 4 5 6 
#
# 1 97.6768 43.8418 32.4787 -5.9623 -4.4759 4.6283
# 2 43.8418 113.3921 45.3477 -10.9533 -3.4987 6.7739
# 3 32.4787 45.3477 131.5992 10.7540 -13.5262 -2.0015
# 4 -5.9623 -10.9533 10.7540 48.6183 -0.4858 -0.4710
# 5 -4.4759 -3.4987 -13.5262 -0.4858 34.3970 -0.0573
# 6 4.6283 6.7739 -2.0015 -0.4710 -0.0573 57.3277
#
#
#
# Elastic Compliance Matrix: (Units=1/GPa)
#
#
# Indices 1 2 3 4 5 6 
#
# 1 0.012778 -0.004071 -0.001788 0.001045 0.000559 -0.000604
# 2 -0.004071 0.012136 -0.003505 0.002992 -0.000633 -0.001204
# 3 -0.001788 -0.003505 0.009852 -0.003147 0.003242 0.000880
# 4 0.001045 0.002992 -0.003147 0.022058 -0.000486 -0.000367
# 5 0.000559 -0.000633 0.003242 -0.000486 0.030349 0.000169
# 6 -0.000604 -0.001204 0.000880 -0.000367 0.000169 0.017662
#
#
# Mechanical properties :
#
#
# Convention : Reuss Voigt Hill
#
# Bulk Modulus (GPa) = 62.35419 65.11162 63.73290
# Shear Modulus (GPa) = 38.78703 42.80193 40.79448
#
# Velocity S-wave (km/s) = 4.02121 4.22421 4.12396
# Velocity P-wave (km/s) = 6.89604 7.13699 7.01755
#
# Compressibility (1/GPa) = 0.01603741
#
# Stress axis : x y z
#
# Youngs Moduli (GPa) = 78.26189 82.39810 101.50569
#
# Poissons Ratio (x) = 0.33545 0.18147
# Poissons Ratio (y) = 0.31861 0.35580
# Poissons Ratio (z) = 0.13991 0.28882
#
# Static dielectric constant tensor:
#      x y z
#    x 3.833730 0.563120 0.329850 
#    y 0.563120 4.131380 -0.233200 
#    z 0.329850 -0.233200 4.400610 
# 
# 
# High freq. dielectric constant tensor:
#      x y z
#    x 1.968380 0.003640 -0.002310 
#    y 0.003640 1.946540 0.006000 
#    z -0.002310 0.006000 1.966960 
# 
# From -- ./inp_files/393161.got.cif
#   From: 2010.06.25/outbox.cif.g09.slc.cpg/sg2_197_cif.got.tgz:393161.got - 2010.06.27 13:26:56.
