data_PCOD8031782
_publ_section_title
;
Structure prediction by ZEFSAII (Michael W. Deem and Ramdas Pophale) SiO2 
 PCOD8031782
Probable space group: P -1
;
_chemical_formula_sum "Si O2"
_cell_formula_units_Z 16
_cell_length_a 9.428324
_cell_length_b 10.824646
_cell_length_c 14.542899
_cell_angle_alpha 77.427460
_cell_angle_beta 120.324845
_cell_angle_gamma 52.688380
_cell_volume 658.828563
_symmetry_space_group_name_H-M "P -1"
_symmetry_group_IT_number 2
_symmetry_cell_setting 'triclinic'
loop_
_space_group_symop_operation_xyz
x,y,z
-x,-y,-z
loop_
_atom_site_type_symbol
_atom_site_label
_atom_site_fract_x
_atom_site_fract_y
_atom_site_fract_z
Si Si1 0.360520 0.362403 0.804457
Si Si2 0.267516 0.252412 0.181375
Si Si3 0.922816 0.970491 0.180533
Si Si4 0.806421 0.064680 0.339404
Si Si5 0.803510 0.986284 0.854679
Si Si6 0.389749 0.474164 0.393526
Si Si7 0.456854 0.503113 0.214319
Si Si8 0.710957 0.736060 0.609789
O O1 0.510746 0.195937 0.792188
O O2 0.307855 0.542539 0.732724
O O3 0.013839 0.541954 0.677070
O O4 0.568314 0.215823 0.989538
O O5 0.628653 0.048214 0.304725
O O6 0.191044 0.355817 0.239852
O O7 0.240989 0.117421 0.195163
O O8 0.000000 0.500000 0.000000
O O9 0.970159 0.954885 0.310182
O O10 0.147318 0.931072 0.214496
O O11 0.028248 0.758669 0.218969
O O12 0.506790 0.355246 0.183780
O O13 0.000000 0.000000 0.500000
O O14 0.105584 0.785180 0.052238
O O15 0.500000 0.500000 0.500000
O O16 0.567305 0.386107 0.370580
O O17 0.449293 0.289697 0.472943
O O18 0.500000 0.000000 0.500000
#
# Coordination Sequence:
#
# PCOD8031782 Si02
#       8
#     2   2   2   2   2   2   2   2
#     4  11  25  46  79 107 147 190 247 318 376 443
#     4  12  26  48  73 107 153 202 250 312 373 448
#     4  11  25  45  79 114 140 196 254 305 378 450
#     4  12  27  44  70 108 151 200 248 302 377 453
#     4  11  23  46  76 109 146 183 252 319 367 440
#     4  12  25  48  74 102 154 198 245 309 372 446
#     4  11  22  46  72 106 147 189 245 309 371 443
#     4  12  31  50  72 111 153 198 249 316 379 450
#
# _framework density 24.285529
#
# number of rings (size 3 to 8) (size 9 to 14) (size 15 to 20)
#    0.000    0.500    5.000    2.250    7.000    1.500 
#    0.000    1.250    0.000    0.000    0.000    0.000 
#    0.000    0.000    0.000    0.000    0.000    0.000 
#
# Total GULP energy -198210.747536 kJ/mol
# GULP energy per Si atom -12388.171721 kJ/mol
# Density = 2.423025 g / cm^3
# Si number density = 24.285529 Si / 1000 Ang^3
#
#
#
# Elastic Constant Matrix: (Units=GPa)
#
#
# Indices 1 2 3 4 5 6 
#
# 1 136.5770 50.7248 34.2529 0.2612 -2.6599 12.7260
# 2 50.7248 140.7662 24.6449 -1.6377 -13.2100 -0.4417
# 3 34.2529 24.6449 74.9686 4.6887 -3.5009 0.0757
# 4 0.2612 -1.6377 4.6887 32.6937 11.8305 -6.8195
# 5 -2.6599 -13.2100 -3.5009 11.8305 24.8054 -3.9826
# 6 12.7260 -0.4417 0.0757 -6.8195 -3.9826 60.5020
#
#
#
# Elastic Compliance Matrix: (Units=1/GPa)
#
#
# Indices 1 2 3 4 5 6 
#
# 1 0.009440 -0.002948 -0.003441 0.000408 -0.001569 -0.002060
# 2 -0.002948 0.008831 -0.001278 -0.000891 0.004776 0.000900
# 3 -0.003441 -0.001278 0.015658 -0.003171 0.002756 0.000519
# 4 0.000408 -0.000891 -0.003171 0.038390 -0.018705 0.003007
# 5 -0.001569 0.004776 0.002756 -0.018705 0.052271 0.001694
# 6 -0.002060 0.000900 0.000519 0.003007 0.001694 0.017418
#
#
# Mechanical properties :
#
#
# Convention : Reuss Voigt Hill
#
# Bulk Modulus (GPa) = 53.77946 63.50632 58.64289
# Shear Modulus (GPa) = 30.57353 39.77949 35.17651
#
# Velocity S-wave (km/s) = 3.55198 4.05160 3.80999
# Velocity P-wave (km/s) = 6.24618 6.93498 6.59957
#
# Compressibility (1/GPa) = 0.01859446
#
# Stress axis : x y z
#
# Youngs Moduli (GPa) = 105.92680 113.23968 63.86654
#
# Poissons Ratio (x) = 0.33388 0.21975
# Poissons Ratio (y) = 0.31232 0.08162
# Poissons Ratio (z) = 0.36447 0.14473
#
# Static dielectric constant tensor:
#      x y z
#    x 4.965370 0.661640 -0.589420 
#    y 0.661640 5.509930 -0.945770 
#    z -0.589420 -0.945770 5.180470 
# 
# 
# High freq. dielectric constant tensor:
#      x y z
#    x 1.964810 0.001430 -0.010390 
#    y 0.001430 1.982030 -0.008920 
#    z -0.010390 -0.008920 1.971160 
# 
# From -- ./inp_files/500297.got.cif
#   From: 2010.06.25/outbox.cif.g09.slc.cpg/sg2_251_cif.got.tgz:500297.got - 2010.06.27 13:26:56.
