data_PCOD8031486
_publ_section_title
;
Structure prediction by ZEFSAII (Michael W. Deem and Ramdas Pophale) SiO2 
 PCOD8031486
Probable space group: P -1
;
_chemical_formula_sum "Si O2"
_cell_formula_units_Z 16
_cell_length_a 11.597452
_cell_length_b 11.204582
_cell_length_c 11.305864
_cell_angle_alpha 57.989643
_cell_angle_beta 60.886697
_cell_angle_gamma 36.668058
_cell_volume 738.456572
_symmetry_space_group_name_H-M "P -1"
_symmetry_group_IT_number 2
_symmetry_cell_setting 'triclinic'
loop_
_space_group_symop_operation_xyz
x,y,z
-x,-y,-z
loop_
_atom_site_type_symbol
_atom_site_label
_atom_site_fract_x
_atom_site_fract_y
_atom_site_fract_z
Si Si1 0.846151 0.040136 0.201237
Si Si2 0.946876 0.185881 0.558917
Si Si3 0.800549 0.591477 0.501988
Si Si4 0.124750 0.279760 0.995754
Si Si5 0.433824 0.125093 0.748458
Si Si6 0.440177 0.240702 0.237106
Si Si7 0.867130 0.310211 0.938936
Si Si8 0.205533 0.993775 0.309260
O O1 0.665817 0.098691 0.208317
O O2 0.814464 0.231463 0.101071
O O3 0.871416 0.991423 0.353096
O O4 0.040151 0.834057 0.147216
O O5 0.822425 0.411591 0.552695
O O6 0.036837 0.157633 0.402782
O O7 0.803239 0.164125 0.636714
O O8 0.725282 0.732240 0.350644
O O9 0.640742 0.735258 0.607080
O O10 0.000000 0.500000 0.500000
O O11 0.167007 0.121566 0.148597
O O12 0.326023 0.186547 0.895062
O O13 0.000000 0.500000 0.000000
O O14 0.012281 0.308352 0.923791
O O15 0.573983 0.882411 0.777757
O O16 0.577669 0.146232 0.676082
O O17 0.329821 0.458282 0.121001
#
# Coordination Sequence:
#
# PCOD8031486 Si02
#       8
#     2   2   2   2   2   2   2   2
#     4  11  22  44  69 101 141 173 229 292 344 412
#     4  11  23  46  71  97 142 182 229 283 354 407
#     4  12  24  43  70 104 139 182 224 291 358 408
#     4  12  24  46  67  98 142 188 232 279 345 413
#     4  12  25  44  67 102 140 177 242 283 332 424
#     4  12  23  41  70 105 134 176 230 282 354 410
#     4  11  23  42  69 102 138 182 224 286 357 397
#     4  11  25  44  69  97 137 193 226 284 341 409
#
# _framework density 21.666813000000001
#
# number of rings (size 3 to 8) (size 9 to 14) (size 15 to 20)
#    0.000    0.500    3.750    5.625    0.000    0.500 
#    4.500    0.000    0.000    0.000    0.000    0.000 
#    0.000    0.000    0.000    0.000    0.000    0.000 
#
# Total GULP energy -198504.245364 kJ/mol
# GULP energy per Si atom -12406.515335 kJ/mol
# Density = 2.161750 g / cm^3
# Si number density = 21.666813 Si / 1000 Ang^3
#
#
#
# Elastic Constant Matrix: (Units=GPa)
#
#
# Indices 1 2 3 4 5 6 
#
# 1 118.8057 49.2204 20.3011 -0.2886 -13.0424 7.8666
# 2 49.2204 115.9771 58.5432 -0.9046 -7.6609 11.3923
# 3 20.3011 58.5432 120.4208 0.5130 -4.1356 8.8400
# 4 -0.2886 -0.9046 0.5130 37.4051 -4.8043 5.7478
# 5 -13.0424 -7.6609 -4.1356 -4.8043 35.6210 -3.8219
# 6 7.8666 11.3923 8.8400 5.7478 -3.8219 37.9954
#
#
#
# Elastic Compliance Matrix: (Units=1/GPa)
#
#
# Indices 1 2 3 4 5 6 
#
# 1 0.010556 -0.004490 0.000557 0.000458 0.002946 -0.000742
# 2 -0.004490 0.013642 -0.005722 0.000731 0.000522 -0.001888
# 3 0.000557 -0.005722 0.011066 -0.000123 0.000141 -0.000942
# 4 0.000458 0.000731 -0.000123 0.027858 0.003624 -0.004135
# 5 0.002946 0.000522 0.000141 0.003624 0.029948 0.001665
# 6 -0.000742 -0.001888 -0.000942 -0.004135 0.001665 0.028051
#
#
# Mechanical properties :
#
#
# Convention : Reuss Voigt Hill
#
# Bulk Modulus (GPa) = 62.67828 67.92591 65.30210
# Shear Modulus (GPa) = 34.30580 37.34689 35.82634
#
# Velocity S-wave (km/s) = 3.98343 4.15624 4.07075
# Velocity P-wave (km/s) = 7.08152 7.37907 7.23183
#
# Compressibility (1/GPa) = 0.01595449
#
# Stress axis : x y z
#
# Youngs Moduli (GPa) = 94.73533 73.30466 90.36337
#
# Poissons Ratio (x) = 0.32913 -0.05033
# Poissons Ratio (y) = 0.42536 0.51703
# Poissons Ratio (z) = -0.05276 0.41943
#
# Static dielectric constant tensor:
#      x y z
#    x 4.076950 0.085400 -0.101920 
#    y 0.085400 3.844210 0.023880 
#    z -0.101920 0.023880 4.262660 
# 
# 
# High freq. dielectric constant tensor:
#      x y z
#    x 1.861790 0.005410 -0.001390 
#    y 0.005410 1.846530 -0.003750 
#    z -0.001390 -0.003750 1.865480 
# 
# From -- ./inp_files/84237.got.cif
#   From: 2010.06.25/outbox.cif.g09.slc.cpg/sg2_43_cif.got.tgz:84237.got - 2010.06.27 13:26:56.
