data_PCOD8031387
_publ_section_title
;
Structure prediction by ZEFSAII (Michael W. Deem and Ramdas Pophale) SiO2 
 PCOD8031387
Probable space group: P -1
;
_chemical_formula_sum "Si O2"
_cell_formula_units_Z 16
_cell_length_a 9.136845
_cell_length_b 14.732988
_cell_length_c 14.398100
_cell_angle_alpha 53.865775
_cell_angle_beta 96.148384
_cell_angle_gamma 140.248929
_cell_volume 742.655954
_symmetry_space_group_name_H-M "P -1"
_symmetry_group_IT_number 2
_symmetry_cell_setting 'triclinic'
loop_
_space_group_symop_operation_xyz
x,y,z
-x,-y,-z
loop_
_atom_site_type_symbol
_atom_site_label
_atom_site_fract_x
_atom_site_fract_y
_atom_site_fract_z
Si Si1 0.752823 0.599969 0.556392
Si Si2 0.121168 0.948574 0.216533
Si Si3 0.730425 0.566823 0.281689
Si Si4 0.852759 0.218243 0.372288
Si Si5 0.194195 0.052936 0.553981
Si Si6 0.246609 0.885737 0.982953
Si Si7 0.260794 0.117390 0.734496
Si Si8 0.820302 0.379265 0.968378
O O1 0.536201 0.519671 0.664712
O O2 0.557555 0.401296 0.584598
O O3 0.992334 0.845649 0.374859
O O4 0.965001 0.658911 0.592904
O O5 0.987894 0.754062 0.266168
O O6 0.996458 0.989545 0.155797
O O7 0.481600 0.196015 0.078486
O O8 0.558590 0.330754 0.405143
O O9 0.929393 0.714259 0.112702
O O10 0.004141 0.423966 0.208445
O O11 0.500000 0.000000 0.500000
O O12 0.880265 0.123443 0.372414
O O13 0.123054 0.010567 0.685538
O O14 0.000000 0.000000 0.500000
O O15 0.167060 0.739306 0.991722
O O16 0.500000 0.000000 0.000000
O O17 0.366529 0.074153 0.819381
O O18 0.000000 0.500000 0.000000
#
# Coordination Sequence:
#
# PCOD8031387 Si02
#       8
#     2   2   2   2   2   2   2   2
#     4  11  22  44  72 105 137 183 235 290 360 419
#     4  11  22  44  74 102 141 177 236 292 362 416
#     4  11  22  43  73 100 142 179 231 295 346 418
#     4  12  26  45  69 101 142 189 232 286 362 424
#     4  12  23  45  72 106 140 178 243 294 345 422
#     4  12  26  46  67 105 143 185 240 293 351 417
#     4  11  24  41  73 106 136 186 238 288 352 427
#     4  12  27  48  67 100 147 188 230 294 361 420
#
# _framework density 21.544295999999999
#
# number of rings (size 3 to 8) (size 9 to 14) (size 15 to 20)
#    0.000    0.500    5.000    3.750    1.750    2.000 
#    0.000    3.750    0.000    0.000    0.000    0.000 
#    0.000    0.000    0.000    0.000    0.000    0.000 
#
# Total GULP energy -198222.778486 kJ/mol
# GULP energy per Si atom -12388.923655 kJ/mol
# Density = 2.149526 g / cm^3
# Si number density = 21.544296 Si / 1000 Ang^3
#
#
#
# Elastic Constant Matrix: (Units=GPa)
#
#
# Indices 1 2 3 4 5 6 
#
# 1 103.1286 31.1073 52.9041 0.1544 -0.3409 -1.0000
# 2 31.1073 115.1271 16.3876 -1.7301 -5.6974 4.1803
# 3 52.9041 16.3876 111.2877 -11.4215 -7.4039 11.5602
# 4 0.1544 -1.7301 -11.4215 35.5787 3.2245 1.9743
# 5 -0.3409 -5.6974 -7.4039 3.2245 44.1234 -6.6618
# 6 -1.0000 4.1803 11.5602 1.9743 -6.6618 40.9400
#
#
#
# Elastic Compliance Matrix: (Units=1/GPa)
#
#
# Indices 1 2 3 4 5 6 
#
# 1 0.014154 -0.003021 -0.006862 -0.002476 -0.000863 0.002571
# 2 -0.003021 0.009562 0.000253 0.000516 0.001069 -0.000973
# 3 -0.006862 0.000253 0.013150 0.004365 0.001277 -0.003909
# 4 -0.002476 0.000516 0.004365 0.029885 -0.001871 -0.003091
# 5 -0.000863 0.001069 0.001277 -0.001871 0.023667 0.003450
# 6 0.002571 -0.000973 -0.003909 -0.003091 0.003450 0.026402
#
#
# Mechanical properties :
#
#
# Convention : Reuss Voigt Hill
#
# Bulk Modulus (GPa) = 56.79924 58.92681 57.86302
# Shear Modulus (GPa) = 35.22407 39.40471 37.31439
#
# Velocity S-wave (km/s) = 4.04785 4.28133 4.16623
# Velocity P-wave (km/s) = 6.94751 7.20073 7.07526
#
# Compressibility (1/GPa) = 0.01760587
#
# Stress axis : x y z
#
# Youngs Moduli (GPa) = 70.65207 104.57798 76.04806
#
# Poissons Ratio (x) = 0.31591 0.52186
# Poissons Ratio (y) = 0.21343 -0.01925
# Poissons Ratio (z) = 0.48483 -0.02647
#
# Static dielectric constant tensor:
#      x y z
#    x 4.207390 -0.177190 0.074070 
#    y -0.177190 4.167140 -0.156900 
#    z 0.074070 -0.156900 3.959170 
# 
# 
# High freq. dielectric constant tensor:
#      x y z
#    x 1.845110 -0.008440 -0.000410 
#    y -0.008440 1.859960 -0.005570 
#    z -0.000410 -0.005570 1.845510 
# 
# From -- ./inp_files/382122.got.cif
#   From: 2010.06.25/outbox.cif.g09.slc.cpg/sg2_192_cif.got.tgz:382122.got - 2010.06.27 13:26:56.
