data_PCOD8031522
_publ_section_title
;
Structure prediction by ZEFSAII (Michael W. Deem and Ramdas Pophale) SiO2 
 PCOD8031522
Probable space group: P -1
;
_chemical_formula_sum "Si O2"
_cell_formula_units_Z 16
_cell_length_a 14.706955
_cell_length_b 19.485742
_cell_length_c 9.298686
_cell_angle_alpha 52.295818
_cell_angle_beta 129.001179
_cell_angle_gamma 159.176860
_cell_volume 733.533109
_symmetry_space_group_name_H-M "P -1"
_symmetry_group_IT_number 2
_symmetry_cell_setting 'triclinic'
loop_
_space_group_symop_operation_xyz
x,y,z
-x,-y,-z
loop_
_atom_site_type_symbol
_atom_site_label
_atom_site_fract_x
_atom_site_fract_y
_atom_site_fract_z
Si Si1 0.903039 0.669172 0.351954
Si Si2 0.408202 0.115047 0.359159
Si Si3 0.641232 0.195940 0.752138
Si Si4 0.908833 0.767838 0.961119
Si Si5 0.501943 0.495649 0.680004
Si Si6 0.553820 0.942248 0.950082
Si Si7 0.280642 0.217163 0.033558
Si Si8 0.133831 0.638910 0.691637
O O1 0.662242 0.531043 0.393578
O O2 0.976799 0.621473 0.524104
O O3 0.825444 0.629289 0.156187
O O4 0.132821 0.892787 0.318625
O O5 0.450509 0.128229 0.552907
O O6 0.448480 0.243384 0.204244
O O7 0.645187 0.220789 0.387461
O O8 0.936267 0.427194 0.762079
O O9 0.654691 0.107390 0.815029
O O10 0.491092 0.102260 0.871517
O O11 0.797766 0.691533 0.785695
O O12 0.757397 0.746704 0.912577
O O13 0.225441 0.978358 0.992766
O O14 0.500000 0.500000 0.500000
O O15 0.382040 0.329162 0.844301
O O16 0.277221 0.740436 0.857522
O O17 0.000000 0.000000 0.000000
#
# Coordination Sequence:
#
# PCOD8031522 Si02
#       8
#     2   2   2   2   2   2   2   2
#     4  11  22  45  70  98 142 178 231 287 343 411
#     4  12  23  43  69 101 134 179 236 285 341 412
#     4  11  27  40  69 103 140 181 228 288 348 415
#     4  11  24  44  72  95 135 185 227 283 339 416
#     4  11  27  45  69 101 136 185 228 288 351 408
#     4  11  24  48  66 102 144 181 225 289 355 402
#     4  11  22  44  70  99 132 179 236 277 339 416
#     4  12  24  45  70 102 135 186 231 284 346 415
#
# _framework density 21.812238000000001
#
# number of rings (size 3 to 8) (size 9 to 14) (size 15 to 20)
#    0.000    0.750    5.000    3.375    7.000    0.000 
#    4.500    1.250    0.000    0.000    0.000    0.000 
#    0.000    0.000    0.000    0.000    0.000    0.000 
#
# Total GULP energy -198318.015789 kJ/mol
# GULP energy per Si atom -12394.875987 kJ/mol
# Density = 2.176259 g / cm^3
# Si number density = 21.812238 Si / 1000 Ang^3
#
#
#
# Elastic Constant Matrix: (Units=GPa)
#
#
# Indices 1 2 3 4 5 6 
#
# 1 73.8092 19.8633 55.1367 8.4667 -0.0507 7.6829
# 2 19.8633 78.8849 31.6269 6.0424 4.1906 -9.6035
# 3 55.1367 31.6269 159.5844 16.4781 -9.6614 -2.5670
# 4 8.4667 6.0424 16.4781 31.8048 -2.2259 1.8428
# 5 -0.0507 4.1906 -9.6614 -2.2259 41.3720 0.9024
# 6 7.6829 -9.6035 -2.5670 1.8428 0.9024 40.4719
#
#
#
# Elastic Compliance Matrix: (Units=1/GPa)
#
#
# Indices 1 2 3 4 5 6 
#
# 1 0.019596 -0.002861 -0.006216 -0.001257 -0.001103 -0.004711
# 2 -0.002861 0.014866 -0.001868 -0.001479 -0.002114 0.004067
# 3 -0.006216 -0.001868 0.009216 -0.002695 0.002158 0.001396
# 4 -0.001257 -0.001479 -0.002695 0.033656 0.001370 -0.001846
# 5 -0.001103 -0.002114 0.002158 0.001370 0.024978 -0.000775
# 6 -0.004711 0.004067 0.001396 -0.001846 -0.000775 0.026758
#
#
# Mechanical properties :
#
#
# Convention : Reuss Voigt Hill
#
# Bulk Modulus (GPa) = 45.89605 58.39248 52.14427
# Shear Modulus (GPa) = 31.60115 36.43984 34.02050
#
# Velocity S-wave (km/s) = 3.81041 4.09175 3.95359
# Velocity P-wave (km/s) = 6.35973 7.01084 6.69320
#
# Compressibility (1/GPa) = 0.02178837
#
# Stress axis : x y z
#
# Youngs Moduli (GPa) = 51.03162 67.26535 108.51272
#
# Poissons Ratio (x) = 0.19243 0.67454
# Poissons Ratio (y) = 0.14599 0.20268
# Poissons Ratio (z) = 0.31722 0.12564
#
# Static dielectric constant tensor:
#      x y z
#    x 3.656620 -0.013120 -0.148510 
#    y -0.013120 4.081800 0.264240 
#    z -0.148510 0.264240 3.877470 
# 
# 
# High freq. dielectric constant tensor:
#      x y z
#    x 1.854190 0.003670 0.002250 
#    y 0.003670 1.863810 0.016580 
#    z 0.002250 0.016580 1.866590 
# 
# From -- ./inp_files/246094.got.cif
#   From: 2010.06.25/outbox.cif.g09.slc.cpg/sg2_124_cif.got.tgz:246094.got - 2010.06.27 13:26:56.
