data_PCOD8031580
_publ_section_title
;
Structure prediction by ZEFSAII (Michael W. Deem and Ramdas Pophale) SiO2 
 PCOD8031580
Probable space group: P -1
;
_chemical_formula_sum "Si O2"
_cell_formula_units_Z 16
_cell_length_a 10.858552
_cell_length_b 19.004240
_cell_length_c 9.038408
_cell_angle_alpha 38.831296
_cell_angle_beta 73.016576
_cell_angle_gamma 45.490863
_cell_volume 686.405815
_symmetry_space_group_name_H-M "P -1"
_symmetry_group_IT_number 2
_symmetry_cell_setting 'triclinic'
loop_
_space_group_symop_operation_xyz
x,y,z
-x,-y,-z
loop_
_atom_site_type_symbol
_atom_site_label
_atom_site_fract_x
_atom_site_fract_y
_atom_site_fract_z
Si Si1 0.272398 0.771222 0.537058
Si Si2 0.740461 0.610377 0.997346
Si Si3 0.267981 0.595851 0.077981
Si Si4 0.671920 0.827821 0.119481
Si Si5 0.010713 0.784066 0.435783
Si Si6 0.434313 0.943559 0.720583
Si Si7 0.120297 0.470722 0.230687
Si Si8 0.937451 0.853250 0.003760
O O1 0.280517 0.697179 0.807148
O O2 0.104685 0.836090 0.374746
O O3 0.206351 0.942096 0.323659
O O4 0.500247 0.615322 0.633822
O O5 0.739342 0.658869 0.750285
O O6 0.507165 0.781857 0.867993
O O7 0.811821 0.432852 0.258539
O O8 0.886987 0.587171 0.088764
O O9 0.167669 0.702319 0.095627
O O10 0.122506 0.603414 0.035133
O O11 0.835331 0.811193 0.041468
O O12 0.561806 0.851491 0.978298
O O13 0.792520 0.646713 0.460300
O O14 0.500000 0.000000 0.000000
O O15 0.812406 0.886585 0.438340
O O16 0.945392 0.841582 0.196013
O O17 0.500000 0.000000 0.500000
#
# Coordination Sequence:
#
# PCOD8031580 Si02
#       8
#     2   2   2   2   2   2   2   2
#     4  11  27  50  69  97 140 184 245 287 338 412
#     4  11  23  43  71 101 146 184 219 282 358 416
#     4  11  26  47  74 101 134 187 234 294 349 407
#     4  12  23  42  70 111 143 175 227 292 355 414
#     4  12  26  48  66 105 143 184 234 290 340 421
#     4  12  27  43  71 108 143 189 228 279 363 423
#     4  11  22  44  73 104 144 175 230 296 348 422
#     4  12  26  45  74 101 141 183 235 289 347 412
#
# _framework density 23.309826000000001
#
# number of rings (size 3 to 8) (size 9 to 14) (size 15 to 20)
#    0.000    0.500    3.750    4.500    3.500    2.500 
#    0.000    0.000    0.000    0.000    0.000    0.000 
#    0.000    0.000    0.000    0.000    0.000    0.000 
#
# Total GULP energy -198446.920943 kJ/mol
# GULP energy per Si atom -12402.932559 kJ/mol
# Density = 2.325677 g / cm^3
# Si number density = 23.309826 Si / 1000 Ang^3
#
#
#
# Elastic Constant Matrix: (Units=GPa)
#
#
# Indices 1 2 3 4 5 6 
#
# 1 58.8595 3.4659 18.4883 4.5240 -2.5460 -7.7188
# 2 3.4659 145.8290 42.4706 -31.4064 0.5407 -19.0945
# 3 18.4883 42.4706 104.7126 -8.8558 -18.6216 -3.5119
# 4 4.5240 -31.4064 -8.8558 34.4200 5.6310 4.6079
# 5 -2.5460 0.5407 -18.6216 5.6310 34.2932 4.2789
# 6 -7.7188 -19.0945 -3.5119 4.6079 4.2789 26.0376
#
#
#
# Elastic Compliance Matrix: (Units=1/GPa)
#
#
# Indices 1 2 3 4 5 6 
#
# 1 0.019284 0.000800 -0.003983 -0.003547 -0.000979 0.006554
# 2 0.000800 0.010902 -0.004462 0.008556 -0.004802 0.006906
# 3 -0.003983 -0.004462 0.013207 -0.000884 0.007560 -0.003758
# 4 -0.003547 0.008556 -0.000884 0.038330 -0.007108 -0.000511
# 5 -0.000979 -0.004802 0.007560 -0.007108 0.035352 -0.007344
# 6 0.006554 0.006906 -0.003758 -0.000511 -0.007344 0.046204
#
#
# Mechanical properties :
#
#
# Convention : Reuss Voigt Hill
#
# Bulk Modulus (GPa) = 35.58528 48.69454 42.13991
# Shear Modulus (GPa) = 26.60474 35.28190 30.94332
#
# Velocity S-wave (km/s) = 3.38206 3.89473 3.64741
# Velocity P-wave (km/s) = 5.52724 6.41566 5.98795
#
# Compressibility (1/GPa) = 0.02810151
#
# Stress axis : x y z
#
# Youngs Moduli (GPa) = 51.85761 91.72265 75.71928
#
# Poissons Ratio (x) = -0.07336 0.30163
# Poissons Ratio (y) = -0.04148 0.33785
# Poissons Ratio (z) = 0.20657 0.40926
#
# Static dielectric constant tensor:
#      x y z
#    x 3.976200 -0.336000 -0.094970 
#    y -0.336000 4.394540 0.007980 
#    z -0.094970 0.007980 4.327340 
# 
# 
# High freq. dielectric constant tensor:
#      x y z
#    x 1.909390 0.001680 -0.005100 
#    y 0.001680 1.941210 -0.003000 
#    z -0.005100 -0.003000 1.925630 
# 
# From -- ./inp_files/279027.got.cif
#   From: 2010.06.25/outbox.cif.g09.slc.cpg/sg2_140_cif.got.tgz:279027.got - 2010.06.27 13:26:56.
