data_PCOD8031431
_publ_section_title
;
Structure prediction by ZEFSAII (Michael W. Deem and Ramdas Pophale) SiO2 
 PCOD8031431
Probable space group: P -1
;
_chemical_formula_sum "Si O2"
_cell_formula_units_Z 12
_cell_length_a 11.774647
_cell_length_b 9.073175
_cell_length_c 13.598840
_cell_angle_alpha 122.028336
_cell_angle_beta 138.364593
_cell_angle_gamma 37.920473
_cell_volume 586.920340
_symmetry_space_group_name_H-M "P -1"
_symmetry_group_IT_number 2
_symmetry_cell_setting 'triclinic'
loop_
_space_group_symop_operation_xyz
x,y,z
-x,-y,-z
loop_
_atom_site_type_symbol
_atom_site_label
_atom_site_fract_x
_atom_site_fract_y
_atom_site_fract_z
Si Si1 0.337089 0.350376 0.065937
Si Si2 0.983152 0.361102 0.727664
Si Si3 0.591526 0.856357 0.751699
Si Si4 0.054178 0.291863 0.522098
Si Si5 0.940315 0.912438 0.017503
Si Si6 0.837165 0.105218 0.230505
O O1 0.425955 0.185503 0.160804
O O2 0.556881 0.274658 0.123239
O O3 0.157759 0.628942 0.080843
O O4 0.209700 0.303308 0.896026
O O5 0.737550 0.610492 0.698379
O O6 0.975737 0.383254 0.614470
O O7 0.004233 0.145916 0.696443
O O8 0.330675 0.047278 0.604521
O O9 0.709983 0.962344 0.857071
O O10 0.000000 0.500000 0.500000
O O11 0.895963 0.251854 0.360956
O O12 0.891819 0.061022 0.134705
O O13 0.000000 0.000000 0.000000
#
# Coordination Sequence:
#
# PCOD8031431 Si02
#       6
#     2   2   2   2   2   2
#     4  11  22  43  76 101 126 169 228 282 323 390
#     4  11  22  45  70  99 129 172 228 272 327 392
#     4  11  23  46  72  95 134 174 221 280 325 393
#     4  12  30  43  61  99 143 181 216 267 337 396
#     4  11  25  42  69 105 131 169 224 278 336 384
#     4  12  24  43  69  99 133 176 224 265 330 401
#
# _framework density 20.445703999999999
#
# number of rings (size 3 to 8) (size 9 to 14) (size 15 to 20)
#    0.000    0.667    5.000    3.000    7.000    3.333 
#    0.000    0.000    0.000    0.000    0.000    0.000 
#    0.000    0.000    0.000    0.000    0.000    0.000 
#
# Total GULP energy -148901.751810 kJ/mol
# GULP energy per Si atom -12408.479318 kJ/mol
# Density = 2.039917 g / cm^3
# Si number density = 20.445704 Si / 1000 Ang^3
#
#
#
# Elastic Constant Matrix: (Units=GPa)
#
#
# Indices 1 2 3 4 5 6 
#
# 1 145.4532 45.9166 58.3813 8.0235 -8.8242 5.2541
# 2 45.9166 84.4824 50.6089 16.9490 10.2491 -0.2405
# 3 58.3813 50.6089 74.5479 17.8796 -1.5256 -4.9235
# 4 8.0235 16.9490 17.8796 27.6840 -6.7122 2.3418
# 5 -8.8242 10.2491 -1.5256 -6.7122 28.9149 6.0857
# 6 5.2541 -0.2405 -4.9235 2.3418 6.0857 40.7457
#
#
#
# Elastic Compliance Matrix: (Units=1/GPa)
#
#
# Indices 1 2 3 4 5 6 
#
# 1 0.011406 -0.003182 -0.008296 0.005853 0.006324 -0.003773
# 2 -0.003182 0.023992 -0.011696 -0.009400 -0.012603 0.001561
# 3 -0.008296 -0.011696 0.030814 -0.010898 -0.000430 0.005415
# 4 0.005853 -0.009400 -0.010898 0.052335 0.018349 -0.007876
# 5 0.006324 -0.012603 -0.000430 0.018349 0.047120 -0.009034
# 6 -0.003773 0.001561 0.005415 -0.007876 -0.009034 0.027494
#
#
# Mechanical properties :
#
#
# Convention : Reuss Voigt Hill
#
# Bulk Modulus (GPa) = 50.34130 68.25524 59.29827
# Shear Modulus (GPa) = 20.31441 29.44072 24.87756
#
# Velocity S-wave (km/s) = 3.15553 3.79878 3.49200
# Velocity P-wave (km/s) = 6.16051 7.25928 6.73235
#
# Compressibility (1/GPa) = 0.01986440
#
# Stress axis : x y z
#
# Youngs Moduli (GPa) = 87.66956 41.68084 32.45251
#
# Poissons Ratio (x) = 0.13261 0.26924
# Poissons Ratio (y) = 0.27893 0.37957
# Poissons Ratio (z) = 0.72734 0.48750
#
# Static dielectric constant tensor:
#      x y z
#    x 3.830150 -0.081890 0.023300 
#    y -0.081890 3.938850 0.001590 
#    z 0.023300 0.001590 3.684860 
# 
# 
# High freq. dielectric constant tensor:
#      x y z
#    x 1.812800 -0.008300 -0.001390 
#    y -0.008300 1.812030 0.005890 
#    z -0.001390 0.005890 1.796910 
# 
# From -- ./inp_files/154927.got.cif
#   From: 2010.06.25/outbox.cif.g09.slc.cpg/sg2_78_cif.got.tgz:154927.got - 2010.06.27 13:26:56.
