data_PCOD8031686
_publ_section_title
;
Structure prediction by ZEFSAII (Michael W. Deem and Ramdas Pophale) SiO2 
 PCOD8031686
Probable space group: P -1
;
_chemical_formula_sum "Si O2"
_cell_formula_units_Z 16
_cell_length_a 10.638628
_cell_length_b 11.644483
_cell_length_c 9.197917
_cell_angle_alpha 128.529504
_cell_angle_beta 103.639308
_cell_angle_gamma 56.096781
_cell_volume 728.806194
_symmetry_space_group_name_H-M "P -1"
_symmetry_group_IT_number 2
_symmetry_cell_setting 'triclinic'
loop_
_space_group_symop_operation_xyz
x,y,z
-x,-y,-z
loop_
_atom_site_type_symbol
_atom_site_label
_atom_site_fract_x
_atom_site_fract_y
_atom_site_fract_z
Si Si1 0.797140 0.595939 0.360975
Si Si2 0.617799 0.278781 0.208199
Si Si3 0.707340 0.430347 0.589059
Si Si4 0.337797 0.069973 0.588182
Si Si5 0.347889 0.047666 0.914698
Si Si6 0.146419 0.382309 0.294399
Si Si7 0.825115 0.135762 0.612002
Si Si8 0.329369 0.617300 0.981065
O O1 0.781208 0.736214 0.350556
O O2 0.749453 0.680829 0.577792
O O3 0.701653 0.518386 0.212386
O O4 0.972086 0.440265 0.313005
O O5 0.669800 0.398798 0.391904
O O6 0.432646 0.386642 0.241948
O O7 0.675086 0.249782 0.034821
O O8 0.689787 0.097590 0.170599
O O9 0.850408 0.454406 0.642484
O O10 0.738189 0.266796 0.560536
O O11 0.363889 0.066102 0.763313
O O12 0.500000 0.000000 0.500000
O O13 0.264639 0.956953 0.442927
O O14 0.207605 0.228890 0.075440
O O15 0.500000 0.000000 0.000000
O O16 0.803887 0.259274 0.841177
O O17 0.000000 0.000000 0.500000
O O18 0.500000 0.500000 0.000000
#
# Coordination Sequence:
#
# PCOD8031686 Si02
#       8
#     2   2   2   2   2   2   2   2
#     4  11  27  47  69 106 141 188 237 294 368 426
#     4  11  24  43  72 102 135 184 244 297 338 431
#     4  11  22  45  71  97 139 189 237 287 358 415
#     4  12  28  46  72 105 148 187 243 301 357 433
#     4  12  26  43  71 106 142 188 241 294 362 424
#     4  11  25  47  72  99 147 186 234 299 360 436
#     4  12  28  47  70 106 149 187 232 300 365 424
#     4  12  26  46  76 106 139 188 250 292 356 438
#
# _framework density 21.953709
#
# number of rings (size 3 to 8) (size 9 to 14) (size 15 to 20)
#    0.000    0.500    5.000    2.250    8.750    0.500 
#    0.000    1.250    0.000    0.000    0.000    0.000 
#    0.000    0.000    0.000    0.000    0.000    0.000 
#
# Total GULP energy -198374.020201 kJ/mol
# GULP energy per Si atom -12398.376263 kJ/mol
# Density = 2.190374 g / cm^3
# Si number density = 21.953709 Si / 1000 Ang^3
#
#
#
# Elastic Constant Matrix: (Units=GPa)
#
#
# Indices 1 2 3 4 5 6 
#
# 1 108.2106 40.1827 45.8581 2.4179 1.2998 6.9050
# 2 40.1827 127.7883 55.6176 -9.7284 -3.9531 23.1607
# 3 45.8581 55.6176 124.1611 -9.8490 -15.8318 1.7171
# 4 2.4179 -9.7284 -9.8490 36.2840 3.9265 -1.8141
# 5 1.2998 -3.9531 -15.8318 3.9265 43.0174 -0.8513
# 6 6.9050 23.1607 1.7171 -1.8141 -0.8513 40.0845
#
#
#
# Elastic Compliance Matrix: (Units=1/GPa)
#
#
# Indices 1 2 3 4 5 6 
#
# 1 0.011754 -0.002139 -0.003773 -0.002230 -0.001752 -0.000765
# 2 -0.002139 0.011568 -0.004252 0.001865 -0.000728 -0.006064
# 3 -0.003773 -0.004252 0.011988 0.002071 0.004001 0.002772
# 4 -0.002230 0.001865 0.002071 0.028973 -0.001634 0.000494
# 5 -0.001752 -0.000728 0.004001 -0.001634 0.024874 0.001005
# 6 -0.000765 -0.006064 0.002772 0.000494 0.001005 0.028508
#
#
# Mechanical properties :
#
#
# Convention : Reuss Voigt Hill
#
# Bulk Modulus (GPa) = 66.75014 71.49744 69.12379
# Shear Modulus (GPa) = 34.96814 38.44396 36.70605
#
# Velocity S-wave (km/s) = 3.99534 4.18920 4.09341
# Velocity P-wave (km/s) = 7.19406 7.48580 7.34138
#
# Compressibility (1/GPa) = 0.01498124
#
# Stress axis : x y z
#
# Youngs Moduli (GPa) = 85.07635 86.44909 83.41354
#
# Poissons Ratio (x) = 0.18494 0.31469
# Poissons Ratio (y) = 0.18201 0.35471
# Poissons Ratio (z) = 0.32097 0.36762
#
# Static dielectric constant tensor:
#      x y z
#    x 3.798770 0.100490 0.016720 
#    y 0.100490 3.925630 0.082190 
#    z 0.016720 0.082190 4.108490 
# 
# 
# High freq. dielectric constant tensor:
#      x y z
#    x 1.864540 0.014450 0.000510 
#    y 0.014450 1.865850 -0.006260 
#    z 0.000510 -0.006260 1.874300 
# 
# From -- ./inp_files/223867.got.cif
#   From: 2010.06.25/outbox.cif.g09.slc.cpg/sg2_112_cif.got.tgz:223867.got - 2010.06.27 13:26:56.
