data_PCOD8031436
_publ_section_title
;
Structure prediction by ZEFSAII (Michael W. Deem and Ramdas Pophale) SiO2 
 PCOD8031436
Probable space group: P -1
;
_chemical_formula_sum "Si O2"
_cell_formula_units_Z 12
_cell_length_a 9.888747
_cell_length_b 8.950752
_cell_length_c 7.565520
_cell_angle_alpha 76.817740
_cell_angle_beta 77.229022
_cell_angle_gamma 44.363845
_cell_volume 454.222297
_symmetry_space_group_name_H-M "P -1"
_symmetry_group_IT_number 2
_symmetry_cell_setting 'triclinic'
loop_
_space_group_symop_operation_xyz
x,y,z
-x,-y,-z
loop_
_atom_site_type_symbol
_atom_site_label
_atom_site_fract_x
_atom_site_fract_y
_atom_site_fract_z
Si Si1 0.897229 0.241072 0.740813
Si Si2 0.879014 0.492023 0.391759
Si Si3 0.290145 0.053654 0.757271
Si Si4 0.754320 0.499783 0.064750
Si Si5 0.329517 0.879017 0.164310
Si Si6 0.704060 0.791173 0.737125
O O1 0.799398 0.442109 0.583432
O O2 0.833149 0.120445 0.740327
O O3 0.131965 0.071875 0.695249
O O4 0.833298 0.322572 0.940217
O O5 0.743353 0.740205 0.319076
O O6 0.889019 0.387292 0.231872
O O7 0.105545 0.371306 0.401747
O O8 0.515280 0.853414 0.687169
O O9 0.268413 0.026436 0.974388
O O10 0.532424 0.631103 0.146186
O O11 0.756947 0.670766 0.940122
O O12 0.343647 0.991663 0.287485
#
# Coordination Sequence:
#
# PCOD8031436 Si02
#       6
#     2   2   2   2   2   2
#     4  12  27  42  72 109 141 175 235 291 351 400
#     4  12  24  45  75 102 138 184 234 284 342 416
#     4  11  22  45  70 101 136 186 231 279 337 422
#     4  11  22  46  74  98 139 191 228 279 346 421
#     4  11  23  45  70 107 139 182 231 290 347 407
#     4  11  22  43  77  97 134 191 236 270 347 420
#
# _framework density 26.418785
#
# number of rings (size 3 to 8) (size 9 to 14) (size 15 to 20)
#    0.000    0.667    5.000    4.000    0.000    2.000 
#    3.000    0.000    0.000    0.000    0.000    0.000 
#    0.000    0.000    0.000    0.000    0.000    0.000 
#
# Total GULP energy -148764.508783 kJ/mol
# GULP energy per Si atom -12397.042399 kJ/mol
# Density = 2.635865 g / cm^3
# Si number density = 26.418785 Si / 1000 Ang^3
#
#
#
# Elastic Constant Matrix: (Units=GPa)
#
#
# Indices 1 2 3 4 5 6 
#
# 1 148.2818 50.2503 34.7515 5.6772 -20.1148 -8.5240
# 2 50.2503 85.3821 20.1567 7.6563 -13.9229 -22.5424
# 3 34.7515 20.1567 115.6967 -2.6276 -4.8843 -9.9149
# 4 5.6772 7.6563 -2.6276 33.4236 -1.6996 -4.8969
# 5 -20.1148 -13.9229 -4.8843 -1.6996 29.5641 -0.0149
# 6 -8.5240 -22.5424 -9.9149 -4.8969 -0.0149 40.2759
#
#
#
# Elastic Compliance Matrix: (Units=1/GPa)
#
#
# Indices 1 2 3 4 5 6 
#
# 1 0.009225 -0.004619 -0.001924 -0.000643 0.003746 -0.001183
# 2 -0.004619 0.017885 -0.000820 -0.001860 0.005042 0.008607
# 3 -0.001924 -0.000820 0.009540 0.001507 -0.000032 0.001665
# 4 -0.000643 -0.001860 0.001507 0.031044 0.000722 0.002969
# 5 0.003746 0.005042 -0.000032 0.000722 0.038786 0.003709
# 6 -0.001183 0.008607 0.001665 0.002969 0.003709 0.030168
#
#
# Mechanical properties :
#
#
# Convention : Reuss Voigt Hill
#
# Bulk Modulus (GPa) = 45.61354 62.18643 53.89998
# Shear Modulus (GPa) = 31.50950 36.93286 34.22118
#
# Velocity S-wave (km/s) = 3.45729 3.74301 3.60298
# Velocity P-wave (km/s) = 5.76543 6.50154 6.14451
#
# Compressibility (1/GPa) = 0.02192331
#
# Stress axis : x y z
#
# Youngs Moduli (GPa) = 108.40346 55.91161 104.82481
#
# Poissons Ratio (x) = 0.25825 0.20168
# Poissons Ratio (y) = 0.50070 0.08600
# Poissons Ratio (z) = 0.20857 0.04587
#
# Static dielectric constant tensor:
#      x y z
#    x 4.870940 -0.319550 0.079370 
#    y -0.319550 4.517900 -0.014400 
#    z 0.079370 -0.014400 4.982340 
# 
# 
# High freq. dielectric constant tensor:
#      x y z
#    x 2.057150 -0.021840 0.003710 
#    y -0.021840 2.047920 -0.000290 
#    z 0.003710 -0.000290 2.066620 
# 
# From -- ./inp_files/157074.got.cif
#   From: 2010.06.25/outbox.cif.g09.slc.cpg/sg2_79_cif.got.tgz:157074.got - 2010.06.27 13:26:56.
