data_PCOD8031577
_publ_section_title
;
Structure prediction by ZEFSAII (Michael W. Deem and Ramdas Pophale) SiO2 
 PCOD8031577
Probable space group: P -1
;
_chemical_formula_sum "Si O2"
_cell_formula_units_Z 16
_cell_length_a 9.205278
_cell_length_b 8.850429
_cell_length_c 11.411477
_cell_angle_alpha 78.047394
_cell_angle_beta 64.530010
_cell_angle_gamma 113.113234
_cell_volume 688.328815
_symmetry_space_group_name_H-M "P -1"
_symmetry_group_IT_number 2
_symmetry_cell_setting 'triclinic'
loop_
_space_group_symop_operation_xyz
x,y,z
-x,-y,-z
loop_
_atom_site_type_symbol
_atom_site_label
_atom_site_fract_x
_atom_site_fract_y
_atom_site_fract_z
Si Si1 0.576277 0.660730 0.856670
Si Si2 0.187878 0.694481 0.418789
Si Si3 0.258495 0.597720 0.803203
Si Si4 0.104883 0.021502 0.762994
Si Si5 0.231529 0.940541 0.156099
Si Si6 0.470702 0.667065 0.481186
Si Si7 0.875531 0.208056 0.021972
Si Si8 0.027938 0.169426 0.390024
O O1 0.398022 0.587489 0.845738
O O2 0.743743 0.674763 0.713111
O O3 0.641478 0.850534 0.873470
O O4 0.500000 0.500000 0.000000
O O5 0.252284 0.808095 0.257706
O O6 0.355063 0.668455 0.408325
O O7 0.000000 0.500000 0.500000
O O8 0.126708 0.791602 0.516821
O O9 0.361762 0.673368 0.631484
O O10 0.219634 0.745472 0.847142
O O11 0.067036 0.396286 0.882280
O O12 0.321889 0.151350 0.627660
O O13 0.991874 0.125284 0.775017
O O14 0.078155 0.935321 0.915402
O O15 0.009017 0.856989 0.730546
O O16 0.277653 0.897988 0.015847
O O17 0.500000 0.500000 0.500000
O O18 0.000000 0.000000 0.500000
#
# Coordination Sequence:
#
# PCOD8031577 Si02
#       8
#     2   2   2   2   2   2   2   2
#     4  11  25  43  74 107 148 190 246 301 370 438
#     4  12  26  45  73 108 147 192 238 308 370 431
#     4  11  25  46  71 103 146 192 245 296 367 437
#     4  11  23  43  75 100 139 189 240 291 363 424
#     4  11  25  47  72 107 149 197 242 300 371 438
#     4  12  28  45  74 110 143 182 249 309 362 434
#     4  11  25  46  71 102 150 196 241 296 360 448
#     4  11  22  44  73 102 146 190 241 299 367 436
#
# _framework density 23.244705
#
# number of rings (size 3 to 8) (size 9 to 14) (size 15 to 20)
#    0.000    0.750    2.500    5.625    3.500    5.500 
#    0.000    0.000    0.000    0.000    0.000    0.000 
#    0.000    0.000    0.000    0.000    0.000    0.000 
#
# Total GULP energy -198321.241684 kJ/mol
# GULP energy per Si atom -12395.077605 kJ/mol
# Density = 2.319180 g / cm^3
# Si number density = 23.244705 Si / 1000 Ang^3
#
#
#
# Elastic Constant Matrix: (Units=GPa)
#
#
# Indices 1 2 3 4 5 6 
#
# 1 110.3497 13.6124 23.0684 -2.5616 27.9852 -25.9559
# 2 13.6124 81.9980 28.7893 7.3020 16.3793 -5.1060
# 3 23.0684 28.7893 111.0430 -7.8286 22.3567 -18.3352
# 4 -2.5616 7.3020 -7.8286 41.8618 -0.0587 1.2679
# 5 27.9852 16.3793 22.3567 -0.0587 52.2564 4.0152
# 6 -25.9559 -5.1060 -18.3352 1.2679 4.0152 28.1852
#
#
#
# Elastic Compliance Matrix: (Units=1/GPa)
#
#
# Indices 1 2 3 4 5 6 
#
# 1 0.015159 -0.000142 0.001676 0.000754 -0.010052 0.016422
# 2 -0.000142 0.014275 -0.003082 -0.003111 -0.003163 0.001041
# 3 0.001676 -0.003082 0.012483 0.002668 -0.006026 0.009844
# 4 0.000754 -0.003111 0.002668 0.024950 -0.000606 0.000831
# 5 -0.010052 -0.003163 -0.006026 -0.000606 0.029465 -0.017920
# 6 0.016422 0.001041 0.009844 0.000831 -0.017920 0.059711
#
#
# Mechanical properties :
#
#
# Convention : Reuss Voigt Hill
#
# Bulk Modulus (GPa) = 25.75890 48.25898 37.00894
# Shear Modulus (GPa) = 29.05661 40.32205 34.68933
#
# Velocity S-wave (km/s) = 3.53941 4.16946 3.86729
# Velocity P-wave (km/s) = 5.27342 6.63216 5.99143
#
# Compressibility (1/GPa) = 0.03882154
#
# Stress axis : x y z
#
# Youngs Moduli (GPa) = 65.96902 70.05368 80.10853
#
# Poissons Ratio (x) = 0.00992 -0.13428
# Poissons Ratio (y) = 0.00935 0.24689
# Poissons Ratio (z) = -0.11058 0.21590
#
# Static dielectric constant tensor:
#      x y z
#    x 4.304380 0.308810 -0.012930 
#    y 0.308810 4.217840 0.122050 
#    z -0.012930 0.122050 4.310200 
# 
# 
# High freq. dielectric constant tensor:
#      x y z
#    x 1.936390 0.001980 0.004330 
#    y 0.001980 1.918510 0.005460 
#    z 0.004330 0.005460 1.927770 
# 
# From -- ./inp_files/381663.got.cif
#   From: 2010.06.25/outbox.cif.g09.slc.cpg/sg2_191_cif.got.tgz:381663.got - 2010.06.27 13:26:56.
