data_PCOD8031755
_publ_section_title
;
Structure prediction by ZEFSAII (Michael W. Deem and Ramdas Pophale) SiO2 
 PCOD8031755
Probable space group: P -1
;
_chemical_formula_sum "Si O2"
_cell_formula_units_Z 16
_cell_length_a 12.652698
_cell_length_b 21.446939
_cell_length_c 9.777884
_cell_angle_alpha 47.393279
_cell_angle_beta 36.055670
_cell_angle_gamma 27.854953
_cell_volume 722.741515
_symmetry_space_group_name_H-M "P -1"
_symmetry_group_IT_number 2
_symmetry_cell_setting 'triclinic'
loop_
_space_group_symop_operation_xyz
x,y,z
-x,-y,-z
loop_
_atom_site_type_symbol
_atom_site_label
_atom_site_fract_x
_atom_site_fract_y
_atom_site_fract_z
Si Si1 0.613358 0.921174 0.355389
Si Si2 0.765837 0.379554 0.804163
Si Si3 0.383671 0.281434 0.722407
Si Si4 0.846599 0.169488 0.602647
Si Si5 0.974003 0.541269 0.621594
Si Si6 0.340886 0.749211 0.017211
Si Si7 0.725349 0.113080 0.355684
Si Si8 0.653983 0.893544 0.878887
O O1 0.429248 0.907016 0.530141
O O2 0.947868 0.772260 0.211347
O O3 0.500000 0.000000 0.500000
O O4 0.542730 0.022684 0.173016
O O5 0.857555 0.433993 0.561229
O O6 0.639609 0.359627 0.856756
O O7 0.500000 0.500000 0.000000
O O8 0.564822 0.271720 0.653247
O O9 0.079973 0.436232 0.781165
O O10 0.522501 0.233195 0.498362
O O11 0.322786 0.212739 0.950648
O O12 0.795365 0.182083 0.798521
O O13 0.025659 0.188066 0.353563
O O14 0.022925 0.017961 0.618186
O O15 0.000000 0.500000 0.500000
O O16 0.648181 0.679802 0.789514
O O17 0.164746 0.858448 0.914053
O O18 0.500000 0.000000 0.000000
#
# Coordination Sequence:
#
# PCOD8031755 Si02
#       8
#     2   2   2   2   2   2   2   2
#     4  11  24  43  73 109 145 185 238 300 364 415
#     4  12  24  42  74 105 138 191 244 287 350 432
#     4  12  25  46  75 100 144 192 234 293 356 432
#     4  11  27  44  67 111 140 182 235 293 367 419
#     4  12  25  49  70 103 141 190 244 287 354 431
#     4  12  26  44  73 103 144 182 240 301 346 425
#     4  11  22  46  69 104 146 183 234 297 352 430
#     4  11  25  44  70 104 148 185 234 296 357 426
#
# _framework density 22.137929
#
# number of rings (size 3 to 8) (size 9 to 14) (size 15 to 20)
#    0.000    0.500    6.250    2.250    3.500    3.500 
#    0.000    1.250    0.000    0.000    0.000    0.000 
#    0.000    0.000    0.000    0.000    0.000    0.000 
#
# Total GULP energy -198325.402731 kJ/mol
# GULP energy per Si atom -12395.337671 kJ/mol
# Density = 2.208754 g / cm^3
# Si number density = 22.137929 Si / 1000 Ang^3
#
#
#
# Elastic Constant Matrix: (Units=GPa)
#
#
# Indices 1 2 3 4 5 6 
#
# 1 83.2204 23.9919 36.9473 -14.7342 7.4830 -7.8970
# 2 23.9919 105.9068 31.1206 -19.0459 -3.9296 -20.1710
# 3 36.9473 31.1206 128.7517 -16.5514 -1.5066 -3.8834
# 4 -14.7342 -19.0459 -16.5514 41.7506 -1.6801 0.2045
# 5 7.4830 -3.9296 -1.5066 -1.6801 37.0475 -4.6962
# 6 -7.8970 -20.1710 -3.8834 0.2045 -4.6962 34.5625
#
#
#
# Elastic Compliance Matrix: (Units=1/GPa)
#
#
# Indices 1 2 3 4 5 6 
#
# 1 0.015006 -0.001615 -0.003510 0.003039 -0.002996 0.001666
# 2 -0.001615 0.012600 -0.001749 0.004558 0.002702 0.007128
# 3 -0.003510 -0.001749 0.009411 0.001733 0.000902 -0.000653
# 4 0.003039 0.004558 0.001733 0.027840 0.001660 0.003610
# 5 -0.002996 0.002702 0.000902 0.001660 0.028614 0.004872
# 6 0.001666 0.007128 -0.000653 0.003610 0.004872 0.034041
#
#
# Mechanical properties :
#
#
# Convention : Reuss Voigt Hill
#
# Bulk Modulus (GPa) = 42.97928 55.77762 49.37845
# Shear Modulus (GPa) = 33.55359 37.72672 35.64015
#
# Velocity S-wave (km/s) = 3.89737 4.13263 4.01673
# Velocity P-wave (km/s) = 6.30152 6.92977 6.62310
#
# Compressibility (1/GPa) = 0.02326702
#
# Stress axis : x y z
#
# Youngs Moduli (GPa) = 66.64104 79.36646 106.26271
#
# Poissons Ratio (x) = 0.12820 0.37297
# Poissons Ratio (y) = 0.10765 0.18590
# Poissons Ratio (z) = 0.23390 0.13884
#
# Static dielectric constant tensor:
#      x y z
#    x 3.994430 -0.153050 0.135460 
#    y -0.153050 4.226020 0.100260 
#    z 0.135460 0.100260 3.403320 
# 
# 
# High freq. dielectric constant tensor:
#      x y z
#    x 1.870120 -0.001040 -0.009430 
#    y -0.001040 1.876570 -0.003020 
#    z -0.009430 -0.003020 1.876990 
# 
# From -- ./inp_files/282865.got.cif
#   From: 2010.06.25/outbox.cif.g09.slc.cpg/sg2_142_cif.got.tgz:282865.got - 2010.06.27 13:26:56.
