data_PCOD8031449
_publ_section_title
;
Structure prediction by ZEFSAII (Michael W. Deem and Ramdas Pophale) SiO2 
 PCOD8031449
Probable space group: P -1
;
_chemical_formula_sum "Si O2"
_cell_formula_units_Z 10
_cell_length_a 12.094004
_cell_length_b 15.254732
_cell_length_c 12.679846
_cell_angle_alpha 152.336033
_cell_angle_beta 44.285998
_cell_angle_gamma 152.626425
_cell_volume 471.240665
_symmetry_space_group_name_H-M "P -1"
_symmetry_group_IT_number 2
_symmetry_cell_setting 'triclinic'
loop_
_space_group_symop_operation_xyz
x,y,z
-x,-y,-z
loop_
_atom_site_type_symbol
_atom_site_label
_atom_site_fract_x
_atom_site_fract_y
_atom_site_fract_z
Si Si1 0.661898 0.659033 0.953873
Si Si2 0.569966 0.235584 0.422215
Si Si3 0.002072 0.816743 0.372100
Si Si4 0.478347 0.230219 0.029536
Si Si5 0.846291 0.761868 0.652345
O O1 0.671351 0.456089 0.685013
O O2 0.500000 0.500000 0.000000
O O3 0.528227 0.673730 0.977032
O O4 0.944660 0.996862 0.143791
O O5 0.693447 0.430478 0.437583
O O6 0.656367 0.100002 0.236176
O O7 0.264605 0.953061 0.321866
O O8 0.977879 0.854278 0.550051
O O9 0.769072 0.468953 0.122433
O O10 0.000000 0.000000 0.500000
O O11 0.344667 0.236961 0.216690
#
# Coordination Sequence:
#
# PCOD8031449 Si02
#       5
#     2   2   2   2   2
#     4  11  22  44  66  92 129 169 208 260 317 373
#     4  11  24  42  66  96 128 163 216 259 310 377
#     4  12  22  45  67  91 132 169 205 262 318 372
#     4  11  24  41  67  95 128 166 212 261 312 371
#     4  11  24  43  66  92 128 169 210 258 318 371
#
# _framework density 21.220580999999999
#
# number of rings (size 3 to 8) (size 9 to 14) (size 15 to 20)
#    0.000    0.800    6.000    3.600    0.000    4.800 
#    7.200    0.000    0.000    0.000    0.000    0.000 
#    0.000    0.000    0.000    0.000    0.000    0.000 
#
# Total GULP energy -124025.119522 kJ/mol
# GULP energy per Si atom -12402.511952 kJ/mol
# Density = 2.117228 g / cm^3
# Si number density = 21.220581 Si / 1000 Ang^3
#
#
#
# Elastic Constant Matrix: (Units=GPa)
#
#
# Indices 1 2 3 4 5 6 
#
# 1 71.7732 21.9405 50.5232 -0.3553 -7.7639 -10.0010
# 2 21.9405 80.8188 17.7644 12.2413 -1.6164 -9.5773
# 3 50.5232 17.7644 116.5469 18.5665 -18.2811 -12.3231
# 4 -0.3553 12.2413 18.5665 26.9943 6.6607 17.7334
# 5 -7.7639 -1.6164 -18.2811 6.6607 51.7575 9.2915
# 6 -10.0010 -9.5773 -12.3231 17.7334 9.2915 34.8213
#
#
#
# Elastic Compliance Matrix: (Units=1/GPa)
#
#
# Indices 1 2 3 4 5 6 
#
# 1 0.025045 -0.008166 -0.014560 0.021584 -0.002530 -0.010522
# 2 -0.008166 0.019175 0.006970 -0.025967 0.001927 0.018105
# 3 -0.014560 0.006970 0.022755 -0.034986 0.006654 0.021830
# 4 0.021584 -0.025967 -0.034986 0.124480 -0.012790 -0.073305
# 5 -0.002530 0.001927 0.006654 -0.012790 0.022520 0.002663
# 6 -0.010522 0.018105 0.021830 -0.073305 0.002663 0.075023
#
#
# Mechanical properties :
#
#
# Convention : Reuss Voigt Hill
#
# Bulk Modulus (GPa) = 28.19712 49.95500 39.07606
# Shear Modulus (GPa) = 15.04523 34.64202 24.84362
#
# Velocity S-wave (km/s) = 2.66558 4.04477 3.42531
# Velocity P-wave (km/s) = 4.77391 6.73836 5.83934
#
# Compressibility (1/GPa) = 0.03546461
#
# Stress axis : x y z
#
# Youngs Moduli (GPa) = 39.92753 52.15080 43.94606
#
# Poissons Ratio (x) = 0.42584 0.63987
# Poissons Ratio (y) = 0.32603 -0.30632
# Poissons Ratio (z) = 0.58136 -0.36351
#
# Static dielectric constant tensor:
#      x y z
#    x 3.812220 0.129960 0.177750 
#    y 0.129960 4.067420 0.301650 
#    z 0.177750 0.301650 3.949900 
# 
# 
# High freq. dielectric constant tensor:
#      x y z
#    x 1.823670 -0.002520 0.008690 
#    y -0.002520 1.845410 0.014870 
#    z 0.008690 0.014870 1.837360 
# 
# From -- ./inp_files/129564.got.cif
#   From: 2010.06.25/outbox.cif.g09.slc.cpg/sg2_65_cif.got.tgz:129564.got - 2010.06.27 13:26:56.
