data_PCOD8031213
_publ_section_title
;
Structure prediction by ZEFSAII (Michael W. Deem and Ramdas Pophale) SiO2 
 PCOD8031213
Probable space group: P -1
;
_chemical_formula_sum "Si O2"
_cell_formula_units_Z 14
_cell_length_a 6.376733
_cell_length_b 12.962521
_cell_length_c 12.460678
_cell_angle_alpha 60.972201
_cell_angle_beta 67.976950
_cell_angle_gamma 46.060833
_cell_volume 647.301450
_symmetry_space_group_name_H-M "P -1"
_symmetry_group_IT_number 2
_symmetry_cell_setting 'triclinic'
loop_
_space_group_symop_operation_xyz
x,y,z
-x,-y,-z
loop_
_atom_site_type_symbol
_atom_site_label
_atom_site_fract_x
_atom_site_fract_y
_atom_site_fract_z
Si Si1 0.324202 0.860474 0.048669
Si Si2 0.721030 0.294765 0.333707
Si Si3 0.637961 0.069393 0.384508
Si Si4 0.673748 0.855473 0.798579
Si Si5 0.571346 0.828289 0.238920
Si Si6 0.221923 0.636407 0.251250
Si Si7 0.206476 0.749823 0.417737
O O1 0.397812 0.904770 0.121991
O O2 0.357209 0.711399 0.140265
O O3 0.577103 0.811773 0.941453
O O4 0.000000 0.000000 0.000000
O O5 0.658606 0.174824 0.406428
O O6 0.434740 0.459353 0.270109
O O7 0.814204 0.300013 0.434728
O O8 0.977099 0.245118 0.226414
O O9 0.444668 0.173794 0.268306
O O10 0.500000 0.000000 0.500000
O O11 0.958578 0.929326 0.353528
O O12 0.520854 0.033912 0.736405
O O13 0.505611 0.724389 0.359620
O O14 0.917078 0.714773 0.211139
O O15 0.183822 0.655960 0.378676
#
# Coordination Sequence:
#
# PCOD8031213 Si02
#       7
#     2   2   2   2   2   2   2
#     4  11  24  43  74 100 126 175 236 270 320 407
#     4  12  27  41  66 103 141 172 217 283 341 379
#     4  12  23  41  68 101 132 173 227 270 328 403
#     4  12  23  41  71  98 133 177 224 276 328 392
#     4  11  22  42  72  95 130 176 228 271 328 396
#     4  11  26  44  66 101 136 176 225 277 330 390
#     4  11  22  43  68  97 132 182 227 263 326 414
#
# _framework density 21.628253999999998
#
# number of rings (size 3 to 8) (size 9 to 14) (size 15 to 20)
#    0.000    0.571    5.714    3.000    0.000    3.429 
#    0.000    1.429    0.000    0.000    0.000    0.000 
#    0.000    0.000    0.000    0.000    0.000    0.000 
#
# Total GULP energy -173640.971077 kJ/mol
# GULP energy per Si atom -12402.926505 kJ/mol
# Density = 2.157903 g / cm^3
# Si number density = 21.628254 Si / 1000 Ang^3
#
#
#
# Elastic Constant Matrix: (Units=GPa)
#
#
# Indices 1 2 3 4 5 6 
#
# 1 109.9466 45.8003 38.4027 6.5996 -3.0160 -13.4522
# 2 45.8003 132.1339 24.2956 -1.0808 -5.4414 -19.8229
# 3 38.4027 24.2956 108.9425 18.3008 -12.6309 -3.9589
# 4 6.5996 -1.0808 18.3008 21.8042 -1.6822 -2.7484
# 5 -3.0160 -5.4414 -12.6309 -1.6822 37.5947 -0.4203
# 6 -13.4522 -19.8229 -3.9589 -2.7484 -0.4203 29.0122
#
#
#
# Elastic Compliance Matrix: (Units=1/GPa)
#
#
# Indices 1 2 3 4 5 6 
#
# 1 0.011947 -0.003118 -0.003380 -0.000619 -0.000624 0.002880
# 2 -0.003118 0.009764 -0.001329 0.003291 0.000924 0.005369
# 3 -0.003380 -0.001329 0.012600 -0.009566 0.003324 -0.001614
# 4 -0.000619 0.003291 -0.009566 0.054960 -0.000262 0.005859
# 5 -0.000624 0.000924 0.003324 -0.000262 0.027801 0.001173
# 6 0.002880 0.005369 -0.001614 0.005859 0.001173 0.039824
#
#
# Mechanical properties :
#
#
# Convention : Reuss Voigt Hill
#
# Bulk Modulus (GPa) = 53.59734 63.11336 58.35535
# Shear Modulus (GPa) = 27.96889 33.85052 30.90971
#
# Velocity S-wave (km/s) = 3.59996 3.96043 3.78449
# Velocity P-wave (km/s) = 6.48958 7.08221 6.79236
#
# Compressibility (1/GPa) = 0.01865764
#
# Stress axis : x y z
#
# Youngs Moduli (GPa) = 83.70107 102.41945 79.36198
#
# Poissons Ratio (x) = 0.31939 0.26822
# Poissons Ratio (y) = 0.26102 0.10546
# Poissons Ratio (z) = 0.28288 0.13610
#
# Static dielectric constant tensor:
#      x y z
#    x 4.107660 -0.067400 -0.012250 
#    y -0.067400 3.686330 0.172500 
#    z -0.012250 0.172500 3.879880 
# 
# 
# High freq. dielectric constant tensor:
#      x y z
#    x 1.863750 -0.004180 -0.002650 
#    y -0.004180 1.829520 0.010470 
#    z -0.002650 0.010470 1.846170 
# 
# From -- ./inp_files/27196.got.cif
#   From: 2010.06.25/outbox.cif.g09.slc.cpg/sg2_14_cif.got.tgz:27196.got - 2010.06.27 13:26:56.
