data_PCOD8031730
_publ_section_title
;
Structure prediction by ZEFSAII (Michael W. Deem and Ramdas Pophale) SiO2 
 PCOD8031730
Probable space group: P -1
;
_chemical_formula_sum "Si O2"
_cell_formula_units_Z 16
_cell_length_a 11.628900
_cell_length_b 16.593340
_cell_length_c 8.485663
_cell_angle_alpha 133.314056
_cell_angle_beta 140.678748
_cell_angle_gamma 43.646594
_cell_volume 685.678862
_symmetry_space_group_name_H-M "P -1"
_symmetry_group_IT_number 2
_symmetry_cell_setting 'triclinic'
loop_
_space_group_symop_operation_xyz
x,y,z
-x,-y,-z
loop_
_atom_site_type_symbol
_atom_site_label
_atom_site_fract_x
_atom_site_fract_y
_atom_site_fract_z
Si Si1 0.390573 0.448991 0.688585
Si Si2 0.099952 0.585266 0.287992
Si Si3 0.030857 0.130094 0.886673
Si Si4 0.649382 0.121141 0.060457
Si Si5 0.254765 0.917710 0.250126
Si Si6 0.225304 0.173858 0.615189
Si Si7 0.305099 0.243695 0.460247
Si Si8 0.703827 0.305547 0.569917
O O1 0.215739 0.546874 0.526691
O O2 0.284129 0.377829 0.575512
O O3 0.559509 0.356734 0.632180
O O4 0.500000 0.500000 0.000000
O O5 0.254150 0.585565 0.317085
O O6 0.938334 0.725161 0.314629
O O7 0.000000 0.500000 0.000000
O O8 0.892890 0.131602 0.891015
O O9 0.901429 0.189376 0.676385
O O10 0.186498 0.993120 0.824938
O O11 0.145425 0.214424 0.155619
O O12 0.607039 0.252232 0.263701
O O13 0.724867 0.118630 0.959323
O O14 0.440682 0.109511 0.840218
O O15 0.472728 0.856994 0.479528
O O16 0.160585 0.065045 0.359761
O O17 0.254807 0.244324 0.590486
#
# Coordination Sequence:
#
# PCOD8031730 Si02
#       8
#     2   2   2   2   2   2   2   2
#     4  12  30  51  78 106 145 204 265 315 358 447
#     4  12  29  51  73 106 153 203 254 313 383 436
#     4  12  23  43  75 110 153 194 239 299 379 464
#     4  11  23  42  72 110 151 190 234 305 383 453
#     4  11  22  45  75 113 148 189 244 306 376 449
#     4  11  24  44  78 109 147 194 243 309 370 450
#     4  11  24  45  75 110 143 184 256 304 367 436
#     4  12  28  46  71 106 150 197 246 308 385 442
#
# _framework density 23.334538999999999
#
# number of rings (size 3 to 8) (size 9 to 14) (size 15 to 20)
#    0.000    0.500    3.750    4.125    8.750    0.500 
#    0.000    1.875    0.000    0.000    0.000    0.000 
#    0.000    0.000    0.000    0.000    0.000    0.000 
#
# Total GULP energy -198418.474738 kJ/mol
# GULP energy per Si atom -12401.154671 kJ/mol
# Density = 2.328143 g / cm^3
# Si number density = 23.334539 Si / 1000 Ang^3
#
#
#
# Elastic Constant Matrix: (Units=GPa)
#
#
# Indices 1 2 3 4 5 6 
#
# 1 85.1024 25.9565 42.3235 15.1162 14.0336 15.6383
# 2 25.9565 83.6133 23.0976 -2.8312 -6.5792 6.3304
# 3 42.3235 23.0976 143.5929 20.7954 -1.4271 4.2062
# 4 15.1162 -2.8312 20.7954 46.8663 -1.3182 1.8338
# 5 14.0336 -6.5792 -1.4271 -1.3182 34.3982 9.3521
# 6 15.6383 6.3304 4.2062 1.8338 9.3521 40.5285
#
#
#
# Elastic Compliance Matrix: (Units=1/GPa)
#
#
# Indices 1 2 3 4 5 6 
#
# 1 0.017879 -0.004960 -0.003792 -0.004448 -0.007540 -0.003789
# 2 -0.004960 0.014488 -0.001238 0.003236 0.005300 -0.001590
# 3 -0.003792 -0.001238 0.008667 -0.002679 0.001417 0.000551
# 4 -0.004448 0.003236 -0.002679 0.024265 0.003356 -0.000384
# 5 -0.007540 0.005300 0.001417 0.003356 0.035064 -0.006308
# 6 -0.003789 -0.001590 0.000551 -0.000384 -0.006308 0.027800
#
#
# Mechanical properties :
#
#
# Convention : Reuss Voigt Hill
#
# Bulk Modulus (GPa) = 47.49471 55.00711 51.25091
# Shear Modulus (GPa) = 32.22466 39.08734 35.65600
#
# Velocity S-wave (km/s) = 3.72019 4.09722 3.91325
# Velocity P-wave (km/s) = 6.23307 6.78287 6.51377
#
# Compressibility (1/GPa) = 0.02105498
#
# Stress axis : x y z
#
# Youngs Moduli (GPa) = 55.93241 69.02054 115.38276
#
# Poissons Ratio (x) = 0.34233 0.43750
# Poissons Ratio (y) = 0.27741 0.14284
# Poissons Ratio (z) = 0.21208 0.08545
#
# Static dielectric constant tensor:
#      x y z
#    x 4.183160 -0.011160 0.233790 
#    y -0.011160 4.343210 -0.245050 
#    z 0.233790 -0.245050 4.249720 
# 
# 
# High freq. dielectric constant tensor:
#      x y z
#    x 1.925440 0.001400 0.014080 
#    y 0.001400 1.928700 -0.009700 
#    z 0.014080 -0.009700 1.930510 
# 
# From -- ./inp_files/254132.got.cif
#   From: 2010.06.25/outbox.cif.g09.slc.cpg/sg2_128_cif.got.tgz:254132.got - 2010.06.27 13:26:56.
