data_PCOD8031434
_publ_section_title
;
Structure prediction by ZEFSAII (Michael W. Deem and Ramdas Pophale) SiO2 
 PCOD8031434
Probable space group: P -1
;
_chemical_formula_sum "Si O2"
_cell_formula_units_Z 14
_cell_length_a 21.150395
_cell_length_b 5.208652
_cell_length_c 8.880580
_cell_angle_alpha 108.007723
_cell_angle_beta 145.571917
_cell_angle_gamma 79.239257
_cell_volume 521.765342
_symmetry_space_group_name_H-M "P -1"
_symmetry_group_IT_number 2
_symmetry_cell_setting 'triclinic'
loop_
_space_group_symop_operation_xyz
x,y,z
-x,-y,-z
loop_
_atom_site_type_symbol
_atom_site_label
_atom_site_fract_x
_atom_site_fract_y
_atom_site_fract_z
Si Si1 0.316491 0.951966 0.610132
Si Si2 0.029794 0.333072 0.386040
Si Si3 0.840071 0.858599 0.885897
Si Si4 0.504347 0.385071 0.150526
Si Si5 0.662704 0.355085 0.978708
Si Si6 0.230243 0.197411 0.927067
Si Si7 0.161643 0.575431 0.426151
O O1 0.369983 0.694570 0.593519
O O2 0.205982 0.860164 0.481443
O O3 0.279944 0.111906 0.421958
O O4 0.411615 0.114787 0.933094
O O5 0.067719 0.560557 0.371965
O O6 0.000000 0.500000 0.500000
O O7 0.127096 0.149419 0.595299
O O8 0.923012 0.136661 0.082716
O O9 0.821509 0.766079 0.003812
O O10 0.890082 0.631764 0.842414
O O11 0.469492 0.612864 0.242885
O O12 0.500000 0.500000 0.000000
O O13 0.697438 0.515495 0.921759
O O14 0.693258 0.048638 0.971104
O O15 0.727957 0.504501 0.280089
#
# Coordination Sequence:
#
# PCOD8031434 Si02
#       7
#     2   2   2   2   2   2   2
#     4  11  24  42  75 111 151 184 251 313 372 427
#     4  11  27  51  74 108 149 205 249 300 375 450
#     4  12  25  46  71 109 148 199 247 314 359 442
#     4  11  22  43  76 113 141 195 247 307 375 451
#     4  11  23  47  74 108 145 201 244 305 372 451
#     4  11  27  47  73 103 156 200 245 299 381 444
#     4  11  24  43  73 107 144 190 252 304 366 429
#
# _framework density 26.831986000000001
#
# number of rings (size 3 to 8) (size 9 to 14) (size 15 to 20)
#    0.000    0.857    2.857    3.429    8.000    0.571 
#    0.000    1.429    0.000    0.000    0.000    0.000 
#    0.000    0.000    0.000    0.000    0.000    0.000 
#
# Total GULP energy -173485.571417 kJ/mol
# GULP energy per Si atom -12391.826530 kJ/mol
# Density = 2.677091 g / cm^3
# Si number density = 26.831986 Si / 1000 Ang^3
#
#
#
# Elastic Constant Matrix: (Units=GPa)
#
#
# Indices 1 2 3 4 5 6 
#
# 1 145.7628 29.2862 14.1011 5.8416 -12.6509 8.5432
# 2 29.2862 106.2397 4.6100 -1.1228 -4.6296 9.6114
# 3 14.1011 4.6100 43.3087 -0.2932 -19.3165 6.9419
# 4 5.8416 -1.1228 -0.2932 36.4077 -4.6664 1.7583
# 5 -12.6509 -4.6296 -19.3165 -4.6664 28.7400 -2.3977
# 6 8.5432 9.6114 6.9419 1.7583 -2.3977 54.3257
#
#
#
# Elastic Compliance Matrix: (Units=1/GPa)
#
#
# Indices 1 2 3 4 5 6 
#
# 1 0.007616 -0.001917 -0.001326 -0.001016 0.001940 -0.000571
# 2 -0.001917 0.010117 0.000210 0.000813 0.000934 -0.001500
# 3 -0.001326 0.000210 0.034195 0.003569 0.022736 -0.003310
# 4 -0.001016 0.000813 0.003569 0.028586 0.006634 -0.001073
# 5 0.001940 0.000934 0.022736 0.006634 0.052050 -0.001293
# 6 -0.000571 -0.001500 -0.003310 -0.001073 -0.001293 0.019163
#
#
# Mechanical properties :
#
#
# Convention : Reuss Voigt Hill
#
# Bulk Modulus (GPa) = 21.80423 43.47842 32.64132
# Shear Modulus (GPa) = 28.88837 40.38226 34.63532
#
# Velocity S-wave (km/s) = 3.28478 3.88365 3.59670
# Velocity P-wave (km/s) = 4.74660 6.02905 5.42585
#
# Compressibility (1/GPa) = 0.04586266
#
# Stress axis : x y z
#
# Youngs Moduli (GPa) = 131.29673 98.84418 29.24412
#
# Poissons Ratio (x) = 0.18944 0.03877
# Poissons Ratio (y) = 0.25164 -0.00613
# Poissons Ratio (z) = 0.17408 -0.02072
#
# Static dielectric constant tensor:
#      x y z
#    x 4.037720 2.468100 1.627800 
#    y 2.468100 -0.154620 -2.936380 
#    z 1.627800 -2.936380 3.368620 
# 
# 
# High freq. dielectric constant tensor:
#      x y z
#    x 2.094640 0.006540 0.006880 
#    y 0.006540 2.082450 -0.011260 
#    z 0.006880 -0.011260 2.048030 
# 
# From -- ./inp_files/339908.got.cif
#   From: 2010.06.25/outbox.cif.g09.slc.cpg/sg2_170_cif.got.tgz:339908.got - 2010.06.27 13:26:56.
