data_PCOD8031499
_publ_section_title
;
Structure prediction by ZEFSAII (Michael W. Deem and Ramdas Pophale) SiO2 
 PCOD8031499
Probable space group: P -1
;
_chemical_formula_sum "Si O2"
_cell_formula_units_Z 14
_cell_length_a 14.862383
_cell_length_b 10.314640
_cell_length_c 11.174715
_cell_angle_alpha 44.327772
_cell_angle_beta 32.722695
_cell_angle_gamma 34.460951
_cell_volume 522.679842
_symmetry_space_group_name_H-M "P -1"
_symmetry_group_IT_number 2
_symmetry_cell_setting 'triclinic'
loop_
_space_group_symop_operation_xyz
x,y,z
-x,-y,-z
loop_
_atom_site_type_symbol
_atom_site_label
_atom_site_fract_x
_atom_site_fract_y
_atom_site_fract_z
Si Si1 0.957853 0.211290 0.330150
Si Si2 0.415160 0.059472 0.189618
Si Si3 0.222681 0.787598 0.925014
Si Si4 0.442552 0.329302 0.549562
Si Si5 0.370019 0.405456 0.173668
Si Si6 0.015269 0.526277 0.667336
Si Si7 0.199653 0.133619 0.873579
O O1 0.722433 0.397070 0.425565
O O2 0.018802 0.338537 0.262049
O O3 0.000000 0.000000 0.500000
O O4 0.099892 0.130397 0.109689
O O5 0.510964 0.147886 0.121332
O O6 0.177411 0.279387 0.325382
O O7 0.459276 0.821274 0.340035
O O8 0.500000 0.000000 0.000000
O O9 0.372904 0.690068 0.709780
O O10 0.318100 0.876644 0.856177
O O11 0.216019 0.586288 0.122507
O O12 0.000000 0.000000 0.000000
O O13 0.342325 0.222250 0.661789
O O14 0.229372 0.428836 0.424575
O O15 0.500000 0.500000 0.000000
O O16 0.024798 0.308348 0.852498
#
# Coordination Sequence:
#
# PCOD8031499 Si02
#       7
#     2   2   2   2   2   2   2
#     4  11  24  44  70 103 137 179 233 294 348 407
#     4  12  25  44  69 102 137 178 228 285 343 412
#     4  12  25  42  65 101 141 180 227 288 344 403
#     4  11  24  43  69  98 133 185 233 278 345 421
#     4  12  25  44  69 100 137 183 231 283 340 405
#     4  11  23  43  69  98 136 183 229 278 341 413
#     4  11  22  44  69  96 135 184 233 282 339 417
#
# _framework density 26.785038
#
# number of rings (size 3 to 8) (size 9 to 14) (size 15 to 20)
#    0.000    0.571    0.000   10.286    0.000    3.429 
#    0.000    2.143    0.000    0.000    0.000    0.000 
#    0.000    0.000    0.000    0.000    0.000    0.000 
#
# Total GULP energy -173500.039620 kJ/mol
# GULP energy per Si atom -12392.859973 kJ/mol
# Density = 2.672407 g / cm^3
# Si number density = 26.785038 Si / 1000 Ang^3
#
#
#
# Elastic Constant Matrix: (Units=GPa)
#
#
# Indices 1 2 3 4 5 6 
#
# 1 42.0982 14.7575 23.9265 3.8706 20.8336 6.9770
# 2 14.7575 193.3585 81.2309 -19.3740 12.8655 -21.3330
# 3 23.9265 81.2309 176.4143 -2.4108 32.9037 -22.1865
# 4 3.8706 -19.3740 -2.4108 54.7145 -13.4510 9.7492
# 5 20.8336 12.8655 32.9037 -13.4510 40.3761 -2.4298
# 6 6.9770 -21.3330 -22.1865 9.7492 -2.4298 45.1500
#
#
#
# Elastic Compliance Matrix: (Units=1/GPa)
#
#
# Indices 1 2 3 4 5 6 
#
# 1 0.037152 -0.002546 -0.001043 -0.007343 -0.020374 -0.006968
# 2 -0.002546 0.006969 -0.003114 0.002872 0.002689 0.001680
# 3 -0.001043 -0.003114 0.008808 -0.002794 -0.006381 0.003278
# 4 -0.007343 0.002872 -0.002794 0.023404 0.012752 -0.003248
# 5 -0.020374 0.002689 -0.006381 0.012752 0.043925 0.000894
# 6 -0.006968 0.001680 0.003278 -0.003248 0.000894 0.026379
#
#
# Mechanical properties :
#
#
# Convention : Reuss Voigt Hill
#
# Bulk Modulus (GPa) = 25.30258 72.41122 48.85690
# Shear Modulus (GPa) = 28.86536 47.51185 38.18860
#
# Velocity S-wave (km/s) = 3.28635 4.21624 3.78000
# Velocity P-wave (km/s) = 4.88540 7.12707 6.10992
#
# Compressibility (1/GPa) = 0.03952166
#
# Stress axis : x y z
#
# Youngs Moduli (GPa) = 26.91645 143.49866 113.53080
#
# Poissons Ratio (x) = 0.36538 0.11840
# Poissons Ratio (y) = 0.06854 0.35359
# Poissons Ratio (z) = 0.02807 0.44692
#
# Static dielectric constant tensor:
#      x y z
#    x 5.643130 -0.768570 0.341170 
#    y -0.768570 7.352740 -1.117980 
#    z 0.341170 -1.117980 4.578880 
# 
# 
# High freq. dielectric constant tensor:
#      x y z
#    x 2.102220 -0.020750 0.012520 
#    y -0.020750 2.116950 -0.015190 
#    z 0.012520 -0.015190 2.062080 
# 
# From -- ./inp_files/463441.got.cif
#   From: 2010.06.25/outbox.cif.g09.slc.cpg/sg2_232_cif.got.tgz:463441.got - 2010.06.27 13:26:56.
