data_PCOD8031135
_publ_section_title
;
Structure prediction by ZEFSAII (Michael W. Deem and Ramdas Pophale) SiO2 
 PCOD8031135
Probable space group: P -1
;
_chemical_formula_sum "Si O2"
_cell_formula_units_Z 14
_cell_length_a 9.868617
_cell_length_b 9.579965
_cell_length_c 22.197347
_cell_angle_alpha 43.884388
_cell_angle_beta 39.072064
_cell_angle_gamma 29.089822
_cell_volume 636.917463
_symmetry_space_group_name_H-M "P -1"
_symmetry_group_IT_number 2
_symmetry_cell_setting 'triclinic'
loop_
_space_group_symop_operation_xyz
x,y,z
-x,-y,-z
loop_
_atom_site_type_symbol
_atom_site_label
_atom_site_fract_x
_atom_site_fract_y
_atom_site_fract_z
Si Si1 0.299339 0.227891 0.447426
Si Si2 0.244551 0.854461 0.758584
Si Si3 0.839491 0.892494 0.589116
Si Si4 0.690432 0.940209 0.044360
Si Si5 0.175043 0.299579 0.721145
Si Si6 0.766833 0.486603 0.920249
Si Si7 0.581804 0.245485 0.868355
O O1 0.489754 0.290722 0.337247
O O2 0.235887 0.110057 0.453285
O O3 0.000000 0.500000 0.500000
O O4 0.500000 0.000000 0.500000
O O5 0.385403 0.582915 0.836163
O O6 0.169175 0.104595 0.743930
O O7 0.914601 0.025995 0.787433
O O8 0.045338 0.576004 0.643369
O O9 0.532958 0.112798 0.668198
O O10 0.000000 0.000000 0.500000
O O11 0.644571 0.754658 0.087604
O O12 0.019083 0.722517 0.032257
O O13 0.406616 0.184380 0.110925
O O14 0.679577 0.119703 0.941363
O O15 0.986200 0.375773 0.822321
O O16 0.500000 0.500000 0.000000
#
# Coordination Sequence:
#
# PCOD8031135 Si02
#       7
#     2   2   2   2   2   2   2
#     4  11  23  43  65 100 131 165 229 285 330 409
#     4  11  22  42  69  94 131 179 225 269 341 405
#     4  11  24  47  71  97 139 186 222 281 358 407
#     4  11  25  43  64  97 142 172 226 282 325 402
#     4  11  24  44  69 100 134 176 232 269 325 428
#     4  12  25  44  67 100 137 179 226 280 337 390
#     4  11  23  43  66  96 133 183 221 270 345 393
#
# _framework density 21.980869999999999
#
# number of rings (size 3 to 8) (size 9 to 14) (size 15 to 20)
#    0.000    0.857    0.000    8.571    0.000    5.714 
#   15.429    0.000    0.000    0.000    0.000    0.000 
#    0.000    0.000    0.000    0.000    0.000    0.000 
#
# Total GULP energy -173551.416501 kJ/mol
# GULP energy per Si atom -12396.529750 kJ/mol
# Density = 2.193084 g / cm^3
# Si number density = 21.980870 Si / 1000 Ang^3
#
#
#
# Elastic Constant Matrix: (Units=GPa)
#
#
# Indices 1 2 3 4 5 6 
#
# 1 110.6012 53.2966 65.6835 -6.4541 -6.1557 -20.2387
# 2 53.2966 169.5922 64.4517 -7.4473 -11.9202 -18.2853
# 3 65.6835 64.4517 123.0274 -3.0870 -15.6599 7.4397
# 4 -6.4541 -7.4473 -3.0870 58.6388 -1.1034 3.3351
# 5 -6.1557 -11.9202 -15.6599 -1.1034 31.1072 1.2356
# 6 -20.2387 -18.2853 7.4397 3.3351 1.2356 32.7118
#
#
#
# Elastic Compliance Matrix: (Units=1/GPa)
#
#
# Indices 1 2 3 4 5 6 
#
# 1 0.017624 -0.000354 -0.010297 0.000565 -0.002331 0.013078
# 2 -0.000354 0.008327 -0.004394 0.000496 0.000714 0.005358
# 3 -0.010297 -0.004394 0.017425 0.000071 0.005570 -0.013008
# 4 0.000565 0.000496 0.000071 0.017269 0.000997 -0.001187
# 5 -0.002331 0.000714 0.005570 0.000997 0.034947 -0.003732
# 6 0.013078 0.005358 -0.013008 -0.001187 -0.003732 0.044877
#
#
# Mechanical properties :
#
#
# Convention : Reuss Voigt Hill
#
# Bulk Modulus (GPa) = 75.27048 85.56494 80.41771
# Shear Modulus (GPa) = 28.57351 39.14415 33.85883
#
# Velocity S-wave (km/s) = 3.60936 4.22456 3.92902
# Velocity P-wave (km/s) = 7.18943 7.92511 7.56622
#
# Compressibility (1/GPa) = 0.01328542
#
# Stress axis : x y z
#
# Youngs Moduli (GPa) = 56.74178 120.08647 57.38836
#
# Poissons Ratio (x) = 0.04253 0.59093
# Poissons Ratio (y) = 0.02010 0.25217
# Poissons Ratio (z) = 0.58427 0.52768
#
# Static dielectric constant tensor:
#      x y z
#    x 3.930660 -0.174020 -0.094430 
#    y -0.174020 4.387540 0.296900 
#    z -0.094430 0.296900 4.321240 
# 
# 
# High freq. dielectric constant tensor:
#      x y z
#    x 1.854590 -0.012330 -0.006870 
#    y -0.012330 1.896610 0.006240 
#    z -0.006870 0.006240 1.870630 
# 
# From -- ./inp_files/587821.got.cif
#   From: 2010.06.25/outbox.cif.g09.slc.cpg/sg2_294_cif.got.tgz:587821.got - 2010.06.27 13:26:56.
