data_PCOD8031907
_publ_section_title
;
Structure prediction by ZEFSAII (Michael W. Deem and Ramdas Pophale) SiO2 
 PCOD8031907
Probable space group: P -1
;
_chemical_formula_sum "Si O2"
_cell_formula_units_Z 16
_cell_length_a 26.645945
_cell_length_b 25.475055
_cell_length_c 8.289460
_cell_angle_alpha 136.076943
_cell_angle_beta 46.002492
_cell_angle_gamma 168.987398
_cell_volume 742.377775
_symmetry_space_group_name_H-M "P -1"
_symmetry_group_IT_number 2
_symmetry_cell_setting 'triclinic'
loop_
_space_group_symop_operation_xyz
x,y,z
-x,-y,-z
loop_
_atom_site_type_symbol
_atom_site_label
_atom_site_fract_x
_atom_site_fract_y
_atom_site_fract_z
Si Si1 0.283782 0.229783 0.538155
Si Si2 0.227424 0.682459 0.842862
Si Si3 0.747576 0.234909 0.365446
Si Si4 0.634338 0.947533 0.896889
Si Si5 0.181702 0.168510 0.276831
Si Si6 0.622011 0.830720 0.959975
Si Si7 0.079176 0.264208 0.114259
Si Si8 0.130266 0.421571 0.645367
O O1 0.247998 0.243371 0.486432
O O2 0.522141 0.508635 0.739421
O O3 0.321519 0.181437 0.308578
O O4 0.005460 0.957913 0.646429
O O5 0.223829 0.673529 0.637241
O O6 0.181735 0.551841 0.722498
O O7 0.000000 0.500000 0.000000
O O8 0.500000 0.000000 0.000000
O O9 0.000000 0.500000 0.500000
O O10 0.500000 0.000000 0.500000
O O11 0.712227 0.116618 0.100711
O O12 0.621002 0.903784 0.012885
O O13 0.348657 0.637297 0.771174
O O14 0.847403 0.125795 0.708771
O O15 0.055766 0.957485 0.040782
O O16 0.343812 0.531058 0.009008
O O17 0.864015 0.091886 0.122992
O O18 0.147946 0.371380 0.369832
#
# Coordination Sequence:
#
# PCOD8031907 Si02
#       8
#     2   2   2   2   2   2   2   2
#     4   9  16  30  55  85 118 155 189 250 306 344
#     4  12  23  45  67  90 119 161 209 241 292 371
#     4  12  26  42  67  95 121 154 200 259 302 346
#     4  12  26  45  61  89 129 166 196 241 315 369
#     4   9  16  30  55  86 119 147 199 251 296 345
#     4  11  23  38  61  93 124 156 206 253 302 356
#     4  11  23  38  62  95 119 158 208 256 294 349
#     4  12  25  44  64  87 125 169 199 243 303 366
#
# _framework density 21.552371000000001
#
# number of rings (size 3 to 8) (size 9 to 14) (size 15 to 20)
#    0.000    1.000    2.500    6.750    3.500    0.000 
#    0.000    0.000    0.000    4.500    0.000    0.000 
#    0.000    0.000    0.000    0.000    0.000    0.000 
#
# Total GULP energy -198390.706575 kJ/mol
# GULP energy per Si atom -12399.419161 kJ/mol
# Density = 2.150332 g / cm^3
# Si number density = 21.552371 Si / 1000 Ang^3
#
#
#
# Elastic Constant Matrix: (Units=GPa)
#
#
# Indices 1 2 3 4 5 6 
#
# 1 45.4705 19.3931 11.0855 -3.6190 12.3832 14.0707
# 2 19.3931 153.3734 36.4068 -7.1462 0.0963 27.3673
# 3 11.0855 36.4068 98.4519 1.7283 -0.8632 6.5427
# 4 -3.6190 -7.1462 1.7283 37.5524 2.3798 1.8125
# 5 12.3832 0.0963 -0.8632 2.3798 25.7137 1.0650
# 6 14.0707 27.3673 6.5427 1.8125 1.0650 33.1808
#
#
#
# Elastic Compliance Matrix: (Units=1/GPa)
#
#
# Indices 1 2 3 4 5 6 
#
# 1 0.031071 -0.001042 -0.002553 0.004421 -0.014975 -0.011574
# 2 -0.001042 0.008459 -0.002632 0.001897 0.000460 -0.006135
# 3 -0.002553 -0.002632 0.011390 -0.001429 0.001711 0.001031
# 4 0.004421 0.001897 -0.001429 0.027992 -0.004587 -0.004540
# 5 -0.014975 0.000460 0.001711 -0.004587 0.046399 0.004394
# 6 -0.011574 -0.006135 0.001031 -0.004540 0.004394 0.040010
#
#
# Mechanical properties :
#
#
# Convention : Reuss Voigt Hill
#
# Bulk Modulus (GPa) = 25.99780 47.89629 36.94704
# Shear Modulus (GPa) = 26.23329 34.65007 30.44168
#
# Velocity S-wave (km/s) = 3.49261 4.01398 3.76234
# Velocity P-wave (km/s) = 5.32477 6.61470 6.00447
#
# Compressibility (1/GPa) = 0.03846480
#
# Stress axis : x y z
#
# Youngs Moduli (GPa) = 32.18480 118.21080 87.79826
#
# Poissons Ratio (x) = 0.12319 0.22414
# Poissons Ratio (y) = 0.03354 0.23113
# Poissons Ratio (z) = 0.08216 0.31119
#
# Static dielectric constant tensor:
#      x y z
#    x 3.823910 0.166310 -0.094570 
#    y 0.166310 4.478510 -0.021670 
#    z -0.094570 -0.021670 3.746880 
# 
# 
# High freq. dielectric constant tensor:
#      x y z
#    x 1.828150 0.015170 -0.011850 
#    y 0.015170 1.877970 0.000040 
#    z -0.011850 0.000040 1.834320 
# 
# From -- ./inp_files/358007.got.cif
#   From: 2010.06.25/outbox.cif.g09.slc.cpg/sg2_180_cif.got.tgz:358007.got - 2010.06.27 13:26:56.
