data_PCOD8031177
_publ_section_title
;
Structure prediction by ZEFSAII (Michael W. Deem and Ramdas Pophale) SiO2 
 PCOD8031177
Probable space group: P -1
;
_chemical_formula_sum "Si O2"
_cell_formula_units_Z 14
_cell_length_a 26.164605
_cell_length_b 9.708279
_cell_length_c 10.330635
_cell_angle_alpha 45.735322
_cell_angle_beta 154.068220
_cell_angle_gamma 145.189088
_cell_volume 646.454370
_symmetry_space_group_name_H-M "P -1"
_symmetry_group_IT_number 2
_symmetry_cell_setting 'triclinic'
loop_
_space_group_symop_operation_xyz
x,y,z
-x,-y,-z
loop_
_atom_site_type_symbol
_atom_site_label
_atom_site_fract_x
_atom_site_fract_y
_atom_site_fract_z
Si Si1 0.691458 0.362408 0.237515
Si Si2 0.926363 0.985470 0.976378
Si Si3 0.810564 0.542023 0.676626
Si Si4 0.795801 0.264070 0.060543
Si Si5 0.345850 0.228491 0.818916
Si Si6 0.889480 0.580867 0.306225
Si Si7 0.370946 0.122795 0.673105
O O1 0.755896 0.437414 0.478861
O O2 0.804999 0.548389 0.266615
O O3 0.656442 0.104961 0.308576
O O4 0.545050 0.350583 0.897177
O O5 0.747915 0.839263 0.669506
O O6 0.008968 0.265767 0.029822
O O7 0.958764 0.847929 0.238962
O O8 0.000000 0.000000 0.000000
O O9 0.773224 0.726064 0.504238
O O10 0.741382 0.327847 0.767758
O O11 0.780420 0.374243 0.085281
O O12 0.972167 0.413744 0.346700
O O13 0.699723 0.966378 0.041060
O O14 0.346869 0.081074 0.799001
O O15 0.500000 0.500000 0.000000
#
# Coordination Sequence:
#
# PCOD8031177 Si02
#       7
#     2   2   2   2   2   2   2
#     4  11  26  44  66 102 148 183 221 295 363 410
#     4  12  22  41  74 104 134 183 244 289 333 414
#     4  12  25  44  71 108 138 181 237 295 343 407
#     4  11  23  42  74 103 135 187 238 284 346 418
#     4  12  23  45  72 100 139 184 240 286 333 424
#     4  11  22  42  71 103 138 185 235 285 352 421
#     4  11  23  45  68  95 145 190 221 286 360 417
#
# _framework density 21.656593999999998
#
# number of rings (size 3 to 8) (size 9 to 14) (size 15 to 20)
#    0.000    0.571    7.143    0.857    0.000    4.000 
#    2.571    1.429    0.000    0.000    0.000    0.000 
#    0.000    0.000    0.000    0.000    0.000    0.000 
#
# Total GULP energy -173455.366694 kJ/mol
# GULP energy per Si atom -12389.669050 kJ/mol
# Density = 2.160730 g / cm^3
# Si number density = 21.656594 Si / 1000 Ang^3
#
#
#
# Elastic Constant Matrix: (Units=GPa)
#
#
# Indices 1 2 3 4 5 6 
#
# 1 138.9315 49.3376 64.1099 4.9635 -7.7938 2.2701
# 2 49.3376 126.0814 51.2698 -6.7262 -23.0243 15.6097
# 3 64.1099 51.2698 103.6682 1.3893 -9.8318 2.9550
# 4 4.9635 -6.7262 1.3893 38.4548 -3.7120 -9.9909
# 5 -7.7938 -23.0243 -9.8318 -3.7120 30.5672 -2.6226
# 6 2.2701 15.6097 2.9550 -9.9909 -2.6226 35.8817
#
#
#
# Elastic Compliance Matrix: (Units=1/GPa)
#
#
# Indices 1 2 3 4 5 6 
#
# 1 0.010501 -0.002142 -0.005503 -0.001558 -0.000876 0.000223
# 2 -0.002142 0.012334 -0.003997 0.002331 0.007424 -0.003709
# 3 -0.005503 -0.003997 0.015051 -0.000279 0.000462 0.000803
# 4 -0.001558 0.002331 -0.000279 0.029130 0.005460 0.007617
# 5 -0.000876 0.007424 0.000462 0.005460 0.038994 0.001158
# 6 0.000223 -0.003709 0.000803 0.007617 0.001158 0.031608
#
#
# Mechanical properties :
#
#
# Convention : Reuss Voigt Hill
#
# Bulk Modulus (GPa) = 68.48424 77.56840 73.02632
# Shear Modulus (GPa) = 30.16258 34.57832 32.37045
#
# Velocity S-wave (km/s) = 3.73603 4.00016 3.87035
# Velocity P-wave (km/s) = 7.09239 7.56507 7.33254
#
# Compressibility (1/GPa) = 0.01460190
#
# Stress axis : x y z
#
# Youngs Moduli (GPa) = 95.23179 81.07617 66.44276
#
# Poissons Ratio (x) = 0.17367 0.36563
# Poissons Ratio (y) = 0.20399 0.26555
# Poissons Ratio (z) = 0.52406 0.32404
#
# Static dielectric constant tensor:
#      x y z
#    x 3.706180 -0.338590 0.147030 
#    y -0.338590 3.391300 0.018070 
#    z 0.147030 0.018070 4.064550 
# 
# 
# High freq. dielectric constant tensor:
#      x y z
#    x 1.845280 0.001290 0.006600 
#    y 0.001290 1.849710 0.006750 
#    z 0.006600 0.006750 1.850690 
# 
# From -- ./inp_files/186305.got.cif
#   From: 2010.06.25/outbox.cif.g09.slc.cpg/sg2_94_cif.got.tgz:186305.got - 2010.06.27 13:26:56.
