data_PCOD8031931
_publ_section_title
;
Structure prediction by ZEFSAII (Michael W. Deem and Ramdas Pophale) SiO2 
 PCOD8031931
Probable space group: P -1
;
_chemical_formula_sum "Si O2"
_cell_formula_units_Z 14
_cell_length_a 10.835441
_cell_length_b 16.352834
_cell_length_c 9.354438
_cell_angle_alpha 78.199343
_cell_angle_beta 76.180307
_cell_angle_gamma 21.853995
_cell_volume 598.458705
_symmetry_space_group_name_H-M "P -1"
_symmetry_group_IT_number 2
_symmetry_cell_setting 'triclinic'
loop_
_space_group_symop_operation_xyz
x,y,z
-x,-y,-z
loop_
_atom_site_type_symbol
_atom_site_label
_atom_site_fract_x
_atom_site_fract_y
_atom_site_fract_z
Si Si1 0.219224 0.381741 0.742498
Si Si2 0.886811 0.059115 0.346601
Si Si3 0.319302 0.426234 0.181855
Si Si4 0.800191 0.778264 0.635175
Si Si5 0.359461 0.953693 0.489982
Si Si6 0.733618 0.903743 0.086514
Si Si7 0.667898 0.126027 0.945504
O O1 0.532379 0.165444 0.635486
O O2 0.313306 0.312614 0.907783
O O3 0.893118 0.526935 0.742466
O O4 0.130758 0.533131 0.691098
O O5 0.530766 0.320447 0.305635
O O6 0.823846 0.997256 0.365870
O O7 0.000000 0.000000 0.500000
O O8 0.163008 0.924204 0.210026
O O9 0.082908 0.643224 0.110819
O O10 0.608109 0.225173 0.058458
O O11 0.691997 0.797396 0.512642
O O12 0.894501 0.817972 0.569112
O O13 0.477131 0.966743 0.757743
O O14 0.500000 0.000000 0.000000
O O15 0.846193 0.929930 0.005983
#
# Coordination Sequence:
#
# PCOD8031931 Si02
#       7
#     2   2   2   2   2   2   2
#     4  12  21  41  73 106 132 182 233 294 351 406
#     4  12  27  48  69 100 153 196 225 282 360 432
#     4  12  25  44  76 103 137 189 237 292 351 410
#     4  11  23  38  71 106 135 176 237 298 347 403
#     4  11  23  42  66 101 143 179 232 288 350 413
#     4  12  23  42  72 109 137 172 244 298 345 409
#     4  12  25  46  72 103 146 182 232 295 353 420
#
# _framework density 23.393426000000002
#
# number of rings (size 3 to 8) (size 9 to 14) (size 15 to 20)
#    0.000    0.286    7.143    2.143    0.000    0.571 
#    0.000    2.143    0.000    0.000    0.000    0.000 
#    0.000    0.000    0.000    0.000    0.000    0.000 
#
# Total GULP energy -173509.859052 kJ/mol
# GULP energy per Si atom -12393.561361 kJ/mol
# Density = 2.334018 g / cm^3
# Si number density = 23.393426 Si / 1000 Ang^3
#
#
#
# Elastic Constant Matrix: (Units=GPa)
#
#
# Indices 1 2 3 4 5 6 
#
# 1 88.2454 55.0096 48.3018 -14.0131 -20.3572 21.6768
# 2 55.0096 121.9728 46.0418 -46.1390 -0.0053 30.6652
# 3 48.3018 46.0418 107.5205 -24.3955 -10.1185 10.7253
# 4 -14.0131 -46.1390 -24.3955 42.6226 -3.1593 -5.2969
# 5 -20.3572 -0.0053 -10.1185 -3.1593 53.5376 -15.6789
# 6 21.6768 30.6652 10.7253 -5.2969 -15.6789 47.6649
#
#
#
# Elastic Compliance Matrix: (Units=1/GPa)
#
#
# Indices 1 2 3 4 5 6 
#
# 1 0.021325 -0.009487 -0.006321 -0.006513 0.006286 -0.000829
# 2 -0.009487 0.022325 -0.000498 0.019175 -0.005371 -0.009572
# 3 -0.006321 -0.000498 0.013530 0.005306 0.000756 0.000989
# 4 -0.006513 0.019175 0.005306 0.044348 -0.000561 -0.005824
# 5 0.006286 -0.005371 0.000756 -0.000561 0.023554 0.008112
# 6 -0.000829 -0.009572 0.000989 -0.005824 0.008112 0.029313
#
#
# Mechanical properties :
#
#
# Convention : Reuss Voigt Hill
#
# Bulk Modulus (GPa) = 40.70401 68.49391 54.59896
# Shear Modulus (GPa) = 25.61528 39.99072 32.80300
#
# Velocity S-wave (km/s) = 3.31263 4.13908 3.74870
# Velocity P-wave (km/s) = 5.66294 7.22394 6.49054
#
# Compressibility (1/GPa) = 0.02456760
#
# Stress axis : x y z
#
# Youngs Moduli (GPa) = 46.89307 44.79362 73.91107
#
# Poissons Ratio (x) = 0.42495 0.46721
# Poissons Ratio (y) = 0.44486 0.03681
# Poissons Ratio (z) = 0.29642 0.02231
#
# Static dielectric constant tensor:
#      x y z
#    x 4.404350 0.117300 -0.021660 
#    y 0.117300 4.175130 -0.281560 
#    z -0.021660 -0.281560 4.500410 
# 
# 
# High freq. dielectric constant tensor:
#      x y z
#    x 1.920270 0.006380 -0.001600 
#    y 0.006380 1.909770 -0.021040 
#    z -0.001600 -0.021040 1.944190 
# 
# From -- ./inp_files/151543.got.cif
#   From: 2010.06.25/outbox.cif.g09.slc.cpg/sg2_76_cif.got.tgz:151543.got - 2010.06.27 13:26:56.
