data_PCOD8031498
_publ_section_title
;
Structure prediction by ZEFSAII (Michael W. Deem and Ramdas Pophale) SiO2 
 PCOD8031498
Probable space group: P -1
;
_chemical_formula_sum "Si O2"
_cell_formula_units_Z 14
_cell_length_a 17.870843
_cell_length_b 8.159068
_cell_length_c 11.535460
_cell_angle_alpha 79.914003
_cell_angle_beta 140.617194
_cell_angle_gamma 128.948825
_cell_volume 644.725178
_symmetry_space_group_name_H-M "P -1"
_symmetry_group_IT_number 2
_symmetry_cell_setting 'triclinic'
loop_
_space_group_symop_operation_xyz
x,y,z
-x,-y,-z
loop_
_atom_site_type_symbol
_atom_site_label
_atom_site_fract_x
_atom_site_fract_y
_atom_site_fract_z
Si Si1 0.292671 0.206912 0.093316
Si Si2 0.354941 0.219315 0.631671
Si Si3 0.188612 0.599173 0.728199
Si Si4 0.225006 0.250019 0.255076
Si Si5 0.574109 0.088434 0.239548
Si Si6 0.461292 0.812870 0.567777
Si Si7 0.001934 0.943759 0.378731
O O1 0.445311 0.458954 0.156438
O O2 0.324947 0.327902 0.242061
O O3 0.339132 0.062554 0.181386
O O4 0.082255 0.005262 0.812950
O O5 0.269177 0.150165 0.409095
O O6 0.383561 0.058426 0.708235
O O7 0.217339 0.143364 0.573899
O O8 0.281021 0.656000 0.706435
O O9 0.130596 0.367159 0.754911
O O10 0.000000 0.500000 0.500000
O O11 0.351087 0.874960 0.965040
O O12 0.300142 0.508938 0.362998
O O13 0.000000 0.000000 0.000000
O O14 0.619336 0.198528 0.409119
O O15 0.500000 0.000000 0.500000
O O16 0.000000 0.000000 0.500000
#
# Coordination Sequence:
#
# PCOD8031498 Si02
#       7
#     2   2   2   2   2   2   2
#     4  11  24  45  69  96 142 175 224 283 342 407
#     4  11  22  44  69  96 135 183 214 284 345 406
#     4  11  25  44  66  98 139 181 222 283 337 400
#     4  11  23  44  73  99 135 177 228 280 350 407
#     4  11  24  44  69  98 138 178 225 277 350 400
#     4  11  25  44  73 102 136 178 228 285 345 414
#     4  12  27  41  69 101 133 178 237 273 334 407
#
# _framework density 21.714679
#
# number of rings (size 3 to 8) (size 9 to 14) (size 15 to 20)
#    0.000    0.857    4.286    3.429    6.000    0.571 
#    0.000    1.429    0.000    0.000    0.000    0.000 
#    0.000    0.000    0.000    0.000    0.000    0.000 
#
# Total GULP energy -173633.244649 kJ/mol
# GULP energy per Si atom -12402.374618 kJ/mol
# Density = 2.166526 g / cm^3
# Si number density = 21.714679 Si / 1000 Ang^3
#
#
#
# Elastic Constant Matrix: (Units=GPa)
#
#
# Indices 1 2 3 4 5 6 
#
# 1 147.5980 30.2713 38.2174 -0.5465 -1.2058 15.7571
# 2 30.2713 91.0305 20.7206 -11.4383 11.0540 4.5754
# 3 38.2174 20.7206 106.4904 -14.4055 13.1657 -6.2334
# 4 -0.5465 -11.4383 -14.4055 37.1615 3.2811 7.9087
# 5 -1.2058 11.0540 13.1657 3.2811 40.6722 -6.2050
# 6 15.7571 4.5754 -6.2334 7.9087 -6.2050 35.8311
#
#
#
# Elastic Compliance Matrix: (Units=1/GPa)
#
#
# Indices 1 2 3 4 5 6 
#
# 1 0.008419 -0.002236 -0.003124 -0.001167 0.001436 -0.003454
# 2 -0.002236 0.013115 -0.000762 0.004620 -0.004148 -0.002562
# 3 -0.003124 -0.000762 0.011807 0.004214 -0.003751 0.001945
# 4 -0.001167 0.004620 0.004214 0.032117 -0.006396 -0.007540
# 5 0.001436 -0.004148 -0.003751 -0.006396 0.028336 0.005564
# 6 -0.003454 -0.002562 0.001945 -0.007540 0.005564 0.032721
#
#
# Mechanical properties :
#
#
# Convention : Reuss Voigt Hill
#
# Bulk Modulus (GPa) = 47.39641 58.17084 52.78362
# Shear Modulus (GPa) = 34.29563 39.79360 37.04461
#
# Velocity S-wave (km/s) = 3.97845 4.28549 4.13482
# Velocity P-wave (km/s) = 6.55579 7.16478 6.86704
#
# Compressibility (1/GPa) = 0.02109865
#
# Stress axis : x y z
#
# Youngs Moduli (GPa) = 118.78317 76.24722 84.69249
#
# Poissons Ratio (x) = 0.17048 0.26456
# Poissons Ratio (y) = 0.26559 0.06451
# Poissons Ratio (z) = 0.37105 0.05808
#
# Static dielectric constant tensor:
#      x y z
#    x 4.017140 0.186790 0.135310 
#    y 0.186790 4.105440 -0.190540 
#    z 0.135310 -0.190540 4.007510 
# 
# 
# High freq. dielectric constant tensor:
#      x y z
#    x 1.855130 0.015670 0.010970 
#    y 0.015670 1.855170 -0.012590 
#    z 0.010970 -0.012590 1.859920 
# 
# From -- ./inp_files/256132.got.cif
#   From: 2010.06.25/outbox.cif.g09.slc.cpg/sg2_129_cif.got.tgz:256132.got - 2010.06.27 13:26:56.
