data_PCOD8031513
_publ_section_title
;
Structure prediction by ZEFSAII (Michael W. Deem and Ramdas Pophale) SiO2 
 PCOD8031513
Probable space group: P -1
;
_chemical_formula_sum "Si O2"
_cell_formula_units_Z 14
_cell_length_a 18.285543
_cell_length_b 11.826607
_cell_length_c 9.545703
_cell_angle_alpha 129.877486
_cell_angle_beta 145.354220
_cell_angle_gamma 31.679456
_cell_volume 604.182316
_symmetry_space_group_name_H-M "P -1"
_symmetry_group_IT_number 2
_symmetry_cell_setting 'triclinic'
loop_
_space_group_symop_operation_xyz
x,y,z
-x,-y,-z
loop_
_atom_site_type_symbol
_atom_site_label
_atom_site_fract_x
_atom_site_fract_y
_atom_site_fract_z
Si Si1 0.841527 0.972383 0.847909
Si Si2 0.109346 0.508466 0.985293
Si Si3 0.031406 0.100709 0.305500
Si Si4 0.636335 0.756594 0.082750
Si Si5 0.577067 0.658875 0.446014
Si Si6 0.187412 0.461717 0.533425
Si Si7 0.581592 0.361643 0.375305
O O1 0.871545 0.901175 0.676400
O O2 0.003897 0.755576 0.024294
O O3 0.634452 0.093867 0.670512
O O4 0.862248 0.132130 0.017996
O O5 0.186173 0.413273 0.875213
O O6 0.950814 0.516864 0.768900
O O7 0.282595 0.363924 0.252746
O O8 0.941098 0.296458 0.420339
O O9 0.195405 0.867622 0.453502
O O10 0.721464 0.716695 0.340521
O O11 0.532041 0.688905 0.881042
O O12 0.500000 0.000000 0.000000
O O13 0.640802 0.620217 0.355261
O O14 0.564959 0.497015 0.335729
O O15 0.500000 0.500000 0.500000
#
# Coordination Sequence:
#
# PCOD8031513 Si02
#       7
#     2   2   2   2   2   2   2
#     4  11  23  43  78 100 142 189 247 289 359 435
#     4  12  25  49  73 103 146 199 244 288 364 449
#     4  11  22  44  70 109 138 189 241 300 352 432
#     4  12  26  46  76 111 142 192 246 302 360 433
#     4  12  27  48  74 110 148 191 242 302 367 425
#     4  12  29  46  71 109 154 185 241 310 366 418
#     4  12  22  44  77 105 143 189 247 292 353 441
#
# _framework density 23.171814000000001
#
# number of rings (size 3 to 8) (size 9 to 14) (size 15 to 20)
#    0.000    0.286    5.714    2.571    4.000    3.429 
#    5.143    0.000    0.000    0.000    0.000    0.000 
#    0.000    0.000    0.000    0.000    0.000    0.000 
#
# Total GULP energy -173629.255145 kJ/mol
# GULP energy per Si atom -12402.089653 kJ/mol
# Density = 2.311907 g / cm^3
# Si number density = 23.171814 Si / 1000 Ang^3
#
#
#
# Elastic Constant Matrix: (Units=GPa)
#
#
# Indices 1 2 3 4 5 6 
#
# 1 125.1029 46.5239 12.0760 0.8777 10.4534 -19.2105
# 2 46.5239 136.7407 24.5907 -11.8113 1.5881 -11.1694
# 3 12.0760 24.5907 62.7908 -4.6306 14.3924 -7.5134
# 4 0.8777 -11.8113 -4.6306 40.0567 3.0608 5.9169
# 5 10.4534 1.5881 14.3924 3.0608 33.2949 -1.5842
# 6 -19.2105 -11.1694 -7.5134 5.9169 -1.5842 37.2507
#
#
#
# Elastic Compliance Matrix: (Units=1/GPa)
#
#
# Indices 1 2 3 4 5 6 
#
# 1 0.010091 -0.003244 0.000393 -0.001572 -0.002828 0.004440
# 2 -0.003244 0.009177 -0.003189 0.002251 0.001760 0.000153
# 3 0.000393 -0.003189 0.019446 0.001562 -0.008399 0.002564
# 4 -0.001572 0.002251 0.001562 0.026686 -0.002941 -0.004185
# 5 -0.002828 0.001760 -0.008399 -0.002941 0.034707 -0.000681
# 6 0.004440 0.000153 0.002564 -0.004185 -0.000681 0.030333
#
#
# Mechanical properties :
#
#
# Convention : Reuss Voigt Hill
#
# Bulk Modulus (GPa) = 37.54568 54.55730 46.05149
# Shear Modulus (GPa) = 33.02518 38.21670 35.62094
#
# Velocity S-wave (km/s) = 3.77932 4.06553 3.92504
# Velocity P-wave (km/s) = 5.93992 6.75528 6.36068
#
# Compressibility (1/GPa) = 0.02663422
#
# Stress axis : x y z
#
# Youngs Moduli (GPa) = 99.09731 108.96871 51.42363
#
# Poissons Ratio (x) = 0.35353 -0.02023
# Poissons Ratio (y) = 0.32151 0.16399
# Poissons Ratio (z) = -0.03898 0.34751
#
# Static dielectric constant tensor:
#      x y z
#    x 4.250570 -0.014310 0.354680 
#    y -0.014310 4.217940 -0.101250 
#    z 0.354680 -0.101250 4.264120 
# 
# 
# High freq. dielectric constant tensor:
#      x y z
#    x 1.908450 -0.000260 0.021490 
#    y -0.000260 1.925850 -0.008510 
#    z 0.021490 -0.008510 1.917580 
# 
# From -- ./inp_files/298354.got.cif
#   From: 2010.06.25/outbox.cif.g09.slc.cpg/sg2_150_cif.got.tgz:298354.got - 2010.06.27 13:26:56.
