data_PCOD8031885
_publ_section_title
;
Structure prediction by ZEFSAII (Michael W. Deem and Ramdas Pophale) SiO2 
 PCOD8031885
Probable space group: P -1
;
_chemical_formula_sum "Si O2"
_cell_formula_units_Z 8
_cell_length_a 8.899210
_cell_length_b 7.503704
_cell_length_c 9.450850
_cell_angle_alpha 102.204223
_cell_angle_beta 82.100431
_cell_angle_gamma 48.033666
_cell_volume 423.549683
_symmetry_space_group_name_H-M "P -1"
_symmetry_group_IT_number 2
_symmetry_cell_setting 'triclinic'
loop_
_space_group_symop_operation_xyz
x,y,z
-x,-y,-z
loop_
_atom_site_type_symbol
_atom_site_label
_atom_site_fract_x
_atom_site_fract_y
_atom_site_fract_z
Si Si1 0.037636 0.219174 0.325205
Si Si2 0.714119 0.223834 0.984013
Si Si3 0.243892 0.183442 0.574221
Si Si4 0.858372 0.021890 0.221225
O O1 0.157769 0.145288 0.445308
O O2 0.891998 0.513989 0.343732
O O3 0.875932 0.182758 0.350643
O O4 0.225605 0.014589 0.149275
O O5 0.678352 0.212186 0.153164
O O6 0.500000 0.500000 0.000000
O O7 0.910164 0.201568 0.930194
O O8 0.203242 0.104258 0.707531
O O9 0.500000 0.000000 0.500000
#
# Coordination Sequence:
#
# PCOD8031885 Si02
#       4
#     2   2   2   2
#     4   9  22  39  57  88 115 146 196 230 278 349
#     4   9  20  39  63  82 111 154 191 233 286 328
#     4  11  23  37  59  88 117 150 187 234 288 333
#     4   9  21  40  59  85 114 149 194 232 279 344
#
# _framework density 18.887985
#
# number of rings (size 3 to 8) (size 9 to 14) (size 15 to 20)
#    1.500    1.000    0.000    0.750    3.500    6.000 
#    0.000    2.500    0.000    0.000    0.000    0.000 
#    0.000    0.000    0.000    0.000    0.000    0.000 
#
# Total GULP energy -99125.398613 kJ/mol
# GULP energy per Si atom -12390.674827 kJ/mol
# Density = 1.884499 g / cm^3
# Si number density = 18.887985 Si / 1000 Ang^3
#
#
#
# Elastic Constant Matrix: (Units=GPa)
#
#
# Indices 1 2 3 4 5 6 
#
# 1 59.0828 70.2602 36.7521 -10.4773 -9.6853 -11.7762
# 2 70.2602 158.0679 66.7568 -15.7400 -8.7711 -19.9194
# 3 36.7521 66.7568 84.4061 -3.0234 0.2352 -9.2370
# 4 -10.4773 -15.7400 -3.0234 41.7699 7.2961 -2.3528
# 5 -9.6853 -8.7711 0.2352 7.2961 21.0624 -9.4291
# 6 -11.7762 -19.9194 -9.2370 -2.3528 -9.4291 37.1560
#
#
#
# Elastic Compliance Matrix: (Units=1/GPa)
#
#
# Indices 1 2 3 4 5 6 
#
# 1 0.042326 -0.013742 -0.006548 0.002510 0.016916 0.008872
# 2 -0.013742 0.015536 -0.005925 0.002000 0.000790 0.002828
# 3 -0.006548 -0.005925 0.019111 -0.001544 -0.006120 -0.002152
# 4 0.002510 0.002000 -0.001544 0.026428 -0.006473 0.001515
# 5 0.016916 0.000790 -0.006120 -0.006473 0.067263 0.020923
# 6 0.008872 0.002828 -0.002152 0.001515 0.020923 0.036112
#
#
# Mechanical properties :
#
#
# Convention : Reuss Voigt Hill
#
# Bulk Modulus (GPa) = 40.74302 72.12167 56.43234
# Shear Modulus (GPa) = 18.69944 28.51684 23.60814
#
# Velocity S-wave (km/s) = 3.14987 3.88981 3.53923
# Velocity P-wave (km/s) = 5.90310 7.64467 6.82963
#
# Compressibility (1/GPa) = 0.02454408
#
# Stress axis : x y z
#
# Youngs Moduli (GPa) = 23.62593 64.36480 52.32587
#
# Poissons Ratio (x) = 0.88450 0.34260
# Poissons Ratio (y) = 0.32467 0.31005
# Poissons Ratio (z) = 0.15469 0.38138
#
# Static dielectric constant tensor:
#      x y z
#    x 3.462220 -0.101240 0.349710 
#    y -0.101240 3.326130 -0.029520 
#    z 0.349710 -0.029520 3.568740 
# 
# 
# High freq. dielectric constant tensor:
#      x y z
#    x 1.720030 -0.013150 0.017460 
#    y -0.013150 1.738160 -0.007230 
#    z 0.017460 -0.007230 1.729320 
# 
# From -- ./inp_files/1333.got.cif
#   From: 2010.06.25/outbox.cif.g09.slc.cpg/sg2_1_cif.got.tgz:1333.got - 2010.06.27 13:26:56.
