data_PCOD8031515
_publ_section_title
;
Structure prediction by ZEFSAII (Michael W. Deem and Ramdas Pophale) SiO2 
 PCOD8031515
Probable space group: P -1
;
_chemical_formula_sum "Si O2"
_cell_formula_units_Z 14
_cell_length_a 18.970687
_cell_length_b 11.733398
_cell_length_c 8.515804
_cell_angle_alpha 77.153707
_cell_angle_beta 131.706736
_cell_angle_gamma 142.093328
_cell_volume 653.358561
_symmetry_space_group_name_H-M "P -1"
_symmetry_group_IT_number 2
_symmetry_cell_setting 'triclinic'
loop_
_space_group_symop_operation_xyz
x,y,z
-x,-y,-z
loop_
_atom_site_type_symbol
_atom_site_label
_atom_site_fract_x
_atom_site_fract_y
_atom_site_fract_z
Si Si1 0.371748 0.823300 0.014803
Si Si2 0.841829 0.639074 0.264852
Si Si3 0.204981 0.009808 0.924928
Si Si4 0.720904 0.287650 0.571110
Si Si5 0.878064 0.329934 0.080553
Si Si6 0.635213 0.462971 0.312462
Si Si7 0.006679 0.988370 0.830548
O O1 0.197573 0.724763 0.837498
O O2 0.525429 0.995899 0.337481
O O3 0.264169 0.582987 0.912244
O O4 0.500000 0.000000 0.000000
O O5 0.674015 0.511394 0.168500
O O6 0.912154 0.805196 0.187630
O O7 0.033673 0.814686 0.598791
O O8 0.152582 0.042956 0.975197
O O9 0.414565 0.270015 0.076580
O O10 0.220145 0.897727 0.058073
O O11 0.811930 0.361258 0.854690
O O12 0.673115 0.372958 0.459661
O O13 0.882928 0.426035 0.636509
O O14 0.781994 0.715619 0.532048
O O15 0.000000 0.000000 0.000000
#
# Coordination Sequence:
#
# PCOD8031515 Si02
#       7
#     2   2   2   2   2   2   2
#     4  12  23  41  65 100 137 166 216 266 324 392
#     4  11  25  43  66  97 136 173 211 274 320 385
#     4  11  22  44  70  94 129 177 220 263 327 386
#     4  11  23  40  65  99 129 178 213 268 326 384
#     4  11  23  39  68  97 131 174 217 265 330 382
#     4  11  22  45  69  91 133 172 223 261 325 391
#     4  11  27  45  67  96 130 170 222 275 324 378
#
# _framework density 21.427745000000002
#
# number of rings (size 3 to 8) (size 9 to 14) (size 15 to 20)
#    0.000    0.857    5.714    2.143    2.000    6.286 
#    0.000    0.000    0.000    0.000    0.000    0.000 
#    0.000    0.000    0.000    0.000    0.000    0.000 
#
# Total GULP energy -173545.527697 kJ/mol
# GULP energy per Si atom -12396.109121 kJ/mol
# Density = 2.137897 g / cm^3
# Si number density = 21.427745 Si / 1000 Ang^3
#
#
#
# Elastic Constant Matrix: (Units=GPa)
#
#
# Indices 1 2 3 4 5 6 
#
# 1 149.3944 73.3819 47.0084 22.9495 -0.4432 5.7321
# 2 73.3819 152.7053 44.2219 17.0588 -5.2954 -6.4187
# 3 47.0084 44.2219 45.0826 26.0304 8.8028 -3.9170
# 4 22.9495 17.0588 26.0304 45.5916 8.8334 -0.0854
# 5 -0.4432 -5.2954 8.8028 8.8334 28.6705 20.4322
# 6 5.7321 -6.4187 -3.9170 -0.0854 20.4322 41.0117
#
#
#
# Elastic Compliance Matrix: (Units=1/GPa)
#
#
# Indices 1 2 3 4 5 6 
#
# 1 0.012249 -0.001971 -0.013746 0.000525 0.009705 -0.008167
# 2 -0.001971 0.010532 -0.010854 0.002048 0.006173 -0.002184
# 3 -0.013746 -0.010854 0.067947 -0.021390 -0.032934 0.023076
# 4 0.000525 0.002048 -0.021390 0.033784 -0.003451 -0.000006
# 5 0.009705 0.006173 -0.032934 -0.003451 0.077323 -0.042066
# 6 -0.008167 -0.002184 0.023076 -0.000006 -0.042066 0.048344
#
#
# Mechanical properties :
#
#
# Convention : Reuss Voigt Hill
#
# Bulk Modulus (GPa) = 26.60511 75.15629 50.88070
# Shear Modulus (GPa) = 15.83031 35.22610 25.52821
#
# Velocity S-wave (km/s) = 2.72099 4.05896 3.45536
# Velocity P-wave (km/s) = 4.72386 7.55760 6.30207
#
# Compressibility (1/GPa) = 0.03758677
#
# Stress axis : x y z
#
# Youngs Moduli (GPa) = 81.64199 94.94744 14.71727
#
# Poissons Ratio (x) = 0.18710 0.20231
# Poissons Ratio (y) = 0.16088 0.15974
# Poissons Ratio (z) = 1.12227 1.03054
#
# Static dielectric constant tensor:
#      x y z
#    x 2.892690 0.850650 -0.015660 
#    y 0.850650 3.636280 0.433720 
#    z -0.015660 0.433720 3.798500 
# 
# 
# High freq. dielectric constant tensor:
#      x y z
#    x 1.846350 0.009100 0.011530 
#    y 0.009100 1.855940 0.023290 
#    z 0.011530 0.023290 1.828010 
# 
# From -- ./inp_files/332003.got.cif
#   From: 2010.06.25/outbox.cif.g09.slc.cpg/sg2_167_cif.got.tgz:332003.got - 2010.06.27 13:26:56.
