data_PCOD8031067
_publ_section_title
;
Structure prediction by ZEFSAII (Michael W. Deem and Ramdas Pophale) SiO2 
 PCOD8031067
Probable space group: P -1
;
_chemical_formula_sum "Si O2"
_cell_formula_units_Z 14
_cell_length_a 9.969539
_cell_length_b 8.941900
_cell_length_c 17.513738
_cell_angle_alpha 51.489578
_cell_angle_beta 63.232267
_cell_angle_gamma 104.809743
_cell_volume 699.561432
_symmetry_space_group_name_H-M "P -1"
_symmetry_group_IT_number 2
_symmetry_cell_setting 'triclinic'
loop_
_space_group_symop_operation_xyz
x,y,z
-x,-y,-z
loop_
_atom_site_type_symbol
_atom_site_label
_atom_site_fract_x
_atom_site_fract_y
_atom_site_fract_z
Si Si1 0.399887 0.134255 0.687158
Si Si2 0.264395 0.245398 0.381386
Si Si3 0.935726 0.147635 0.996614
Si Si4 0.720898 0.730422 0.924080
Si Si5 0.367598 0.669581 0.808914
Si Si6 0.400838 0.104721 0.967259
Si Si7 0.216340 0.207529 0.581174
O O1 0.298905 0.108243 0.641221
O O2 0.654470 0.472790 0.527919
O O3 0.229001 0.032236 0.830719
O O4 0.430069 0.937149 0.739675
O O5 0.393524 0.196770 0.321845
O O6 0.393579 0.569986 0.226748
O O7 0.275174 0.213027 0.478027
O O8 0.000000 0.000000 0.500000
O O9 0.805037 0.130428 0.967101
O O10 0.174773 0.492756 0.846777
O O11 0.000000 0.000000 0.000000
O O12 0.500000 0.500000 0.000000
O O13 0.748885 0.564121 0.018313
O O14 0.703534 0.894014 0.932412
O O15 0.941401 0.975384 0.734936
O O16 0.500000 0.000000 0.000000
#
# Coordination Sequence:
#
# PCOD8031067 Si02
#       7
#     2   2   2   2   2   2   2
#     4  11  24  39  68  99 129 167 223 280 328 387
#     4  11  24  45  63  93 135 175 214 276 339 390
#     4  12  20  44  70  95 133 170 223 274 325 395
#     4  11  24  41  65  94 130 175 222 270 329 391
#     4  11  24  42  68  96 127 179 228 271 325 396
#     4  11  25  43  67  97 129 176 221 266 333 397
#     4  11  22  42  65  94 133 170 215 274 340 386
#
# _framework density 20.012536999999998
#
# number of rings (size 3 to 8) (size 9 to 14) (size 15 to 20)
#    0.000    0.857    5.714    2.143    2.000    4.000 
#    0.000    2.143    0.000    0.000    0.000    0.000 
#    0.000    0.000    0.000    0.000    0.000    0.000 
#
# Total GULP energy -173673.984456 kJ/mol
# GULP energy per Si atom -12405.284604 kJ/mol
# Density = 1.996699 g / cm^3
# Si number density = 20.012537 Si / 1000 Ang^3
#
#
#
# Elastic Constant Matrix: (Units=GPa)
#
#
# Indices 1 2 3 4 5 6 
#
# 1 128.7816 59.3170 42.3151 -2.2642 -2.7891 -5.2253
# 2 59.3170 99.8359 47.0724 3.4396 6.0840 -8.2947
# 3 42.3151 47.0724 117.7456 11.7846 -19.2050 -12.9233
# 4 -2.2642 3.4396 11.7846 34.9742 12.9520 1.1703
# 5 -2.7891 6.0840 -19.2050 12.9520 35.5455 -10.8819
# 6 -5.2253 -8.2947 -12.9233 1.1703 -10.8819 45.5091
#
#
#
# Elastic Compliance Matrix: (Units=1/GPa)
#
#
# Indices 1 2 3 4 5 6 
#
# 1 0.011071 -0.005781 -0.001899 0.001931 0.000016 -0.000367
# 2 -0.005781 0.016827 -0.006581 0.003442 -0.008640 -0.001620
# 3 -0.001899 -0.006581 0.016383 -0.011238 0.016188 0.007395
# 4 0.001931 0.003442 -0.011238 0.041543 -0.024483 -0.009265
# 5 0.000016 -0.008640 0.016188 -0.024483 0.052222 0.016141
# 6 -0.000367 -0.001620 0.007395 -0.009265 0.016141 0.027834
#
#
# Mechanical properties :
#
#
# Convention : Reuss Voigt Hill
#
# Bulk Modulus (GPa) = 63.45168 71.53023 67.49096
# Shear Modulus (GPa) = 25.04335 36.38299 30.71317
#
# Velocity S-wave (km/s) = 3.54133 4.26844 3.92177
# Velocity P-wave (km/s) = 6.96392 7.75326 7.36917
#
# Compressibility (1/GPa) = 0.01576002
#
# Stress axis : x y z
#
# Youngs Moduli (GPa) = 90.32714 59.42707 61.03854
#
# Poissons Ratio (x) = 0.34352 0.11589
# Poissons Ratio (y) = 0.52214 0.40172
# Poissons Ratio (z) = 0.17151 0.39111
#
# Static dielectric constant tensor:
#      x y z
#    x 3.740470 0.338570 -0.166370 
#    y 0.338570 3.828120 -0.071720 
#    z -0.166370 -0.071720 3.973450 
# 
# 
# High freq. dielectric constant tensor:
#      x y z
#    x 1.783280 0.014480 -0.008430 
#    y 0.014480 1.789540 0.004330 
#    z -0.008430 0.004330 1.787980 
# 
# From -- ./inp_files/151453.got.cif
#   From: 2010.06.25/outbox.cif.g09.slc.cpg/sg2_76_cif.got.tgz:151453.got - 2010.06.27 13:26:56.
