data_PCOD8031543
_publ_section_title
;
Structure prediction by ZEFSAII (Michael W. Deem and Ramdas Pophale) SiO2 
 PCOD8031543
Probable space group: P -1
;
_chemical_formula_sum "Si O2"
_cell_formula_units_Z 16
_cell_length_a 10.697463
_cell_length_b 11.142614
_cell_length_c 13.761668
_cell_angle_alpha 65.867319
_cell_angle_beta 76.398548
_cell_angle_gamma 132.096501
_cell_volume 732.148804
_symmetry_space_group_name_H-M "P -1"
_symmetry_group_IT_number 2
_symmetry_cell_setting 'triclinic'
loop_
_space_group_symop_operation_xyz
x,y,z
-x,-y,-z
loop_
_atom_site_type_symbol
_atom_site_label
_atom_site_fract_x
_atom_site_fract_y
_atom_site_fract_z
Si Si1 0.987568 0.293430 0.470692
Si Si2 0.575202 0.866935 0.195524
Si Si3 0.159982 0.974954 0.230323
Si Si4 0.078954 0.694694 0.723323
Si Si5 0.528129 0.044649 0.294039
Si Si6 0.705475 0.465830 0.033150
Si Si7 0.775034 0.178224 0.884123
Si Si8 0.970457 0.021844 0.107796
O O1 0.276155 0.599530 0.315939
O O2 0.918222 0.197241 0.402356
O O3 0.962757 0.150007 0.597808
O O4 0.780573 0.223900 0.559300
O O5 0.629521 0.043503 0.189830
O O6 0.686235 0.833577 0.237110
O O7 0.757173 0.042756 0.009400
O O8 0.446774 0.284327 0.086298
O O9 0.988206 0.920120 0.216035
O O10 0.167926 0.836542 0.226039
O O11 0.985698 0.472477 0.771889
O O12 0.363902 0.921303 0.636810
O O13 0.903930 0.596859 0.872168
O O14 0.643119 0.291222 0.175037
O O15 0.812702 0.678841 0.007716
O O16 0.500000 0.000000 0.000000
O O17 0.000000 0.000000 0.000000
#
# Coordination Sequence:
#
# PCOD8031543 Si02
#       8
#     2   2   2   2   2   2   2   2
#     4  11  26  41  64  96 140 178 204 265 334 398
#     4  12  22  42  68  99 133 167 218 268 333 386
#     4  11  25  44  64  96 132 179 223 256 323 393
#     4  12  22  38  68 100 134 167 212 274 333 379
#     4  11  23  41  67 106 129 164 214 275 335 387
#     4  11  22  44  71  96 129 168 222 280 319 379
#     4  12  20  37  69 101 125 164 219 272 322 382
#     4  12  26  44  71  97 125 173 229 277 315 378
#
# _framework density 21.853480999999999
#
# number of rings (size 3 to 8) (size 9 to 14) (size 15 to 20)
#    0.000    0.500    6.250    3.000    1.750    0.500 
#    0.000    0.625    2.750    0.000    0.000    0.000 
#    0.000    0.000    0.000    0.000    0.000    0.000 
#
# Total GULP energy -198334.831720 kJ/mol
# GULP energy per Si atom -12395.926983 kJ/mol
# Density = 2.180374 g / cm^3
# Si number density = 21.853481 Si / 1000 Ang^3
#
#
#
# Elastic Constant Matrix: (Units=GPa)
#
#
# Indices 1 2 3 4 5 6 
#
# 1 112.9002 44.4841 36.3291 5.5828 11.0563 25.8151
# 2 44.4841 122.8852 33.5924 7.1221 4.4390 9.3731
# 3 36.3291 33.5924 92.9846 9.5126 10.7209 11.8688
# 4 5.5828 7.1221 9.5126 21.4552 9.5716 1.1746
# 5 11.0563 4.4390 10.7209 9.5716 27.8112 6.5219
# 6 25.8151 9.3731 11.8688 1.1746 6.5219 45.0101
#
#
#
# Elastic Compliance Matrix: (Units=1/GPa)
#
#
# Indices 1 2 3 4 5 6 
#
# 1 0.012489 -0.003288 -0.002779 0.000361 -0.002219 -0.005433
# 2 -0.003288 0.010008 -0.002303 -0.002006 0.001221 0.000284
# 3 -0.002779 -0.002303 0.013416 -0.003381 -0.002291 -0.001044
# 4 0.000361 -0.002006 -0.003381 0.056866 -0.018635 0.002318
# 5 -0.002219 0.001221 -0.002291 -0.018635 0.044974 -0.004408
# 6 -0.005433 0.000284 -0.001044 0.002318 -0.004408 0.026128
#
#
# Mechanical properties :
#
#
# Convention : Reuss Voigt Hill
#
# Bulk Modulus (GPa) = 52.15750 61.95348 57.05549
# Shear Modulus (GPa) = 26.73645 33.14627 29.94136
#
# Velocity S-wave (km/s) = 3.50157 3.89877 3.70550
# Velocity P-wave (km/s) = 6.34560 6.97698 6.66877
#
# Compressibility (1/GPa) = 0.01917270
#
# Stress axis : x y z
#
# Youngs Moduli (GPa) = 80.07167 99.92251 74.54028
#
# Poissons Ratio (x) = 0.32850 0.20717
# Poissons Ratio (y) = 0.26324 0.17166
# Poissons Ratio (z) = 0.22254 0.23011
#
# Static dielectric constant tensor:
#      x y z
#    x 4.175820 0.472700 0.127070 
#    y 0.472700 4.199780 0.205070 
#    z 0.127070 0.205070 4.010670 
# 
# 
# High freq. dielectric constant tensor:
#      x y z
#    x 1.855280 0.030980 -0.001820 
#    y 0.030980 1.863890 0.011010 
#    z -0.001820 0.011010 1.850690 
# 
# From -- ./inp_files/428154.got.cif
#   From: 2010.06.25/outbox.cif.g09.slc.cpg/sg2_215_cif.got.tgz:428154.got - 2010.06.27 13:26:56.
