data_PCOD8031521
_publ_section_title
;
Structure prediction by ZEFSAII (Michael W. Deem and Ramdas Pophale) SiO2 
 PCOD8031521
Probable space group: P -1
;
_chemical_formula_sum "Si O2"
_cell_formula_units_Z 16
_cell_length_a 8.033503
_cell_length_b 15.758381
_cell_length_c 13.639354
_cell_angle_alpha 25.976830
_cell_angle_beta 82.141438
_cell_angle_gamma 92.092323
_cell_volume 696.789381
_symmetry_space_group_name_H-M "P -1"
_symmetry_group_IT_number 2
_symmetry_cell_setting 'triclinic'
loop_
_space_group_symop_operation_xyz
x,y,z
-x,-y,-z
loop_
_atom_site_type_symbol
_atom_site_label
_atom_site_fract_x
_atom_site_fract_y
_atom_site_fract_z
Si Si1 0.705752 0.222563 0.969579
Si Si2 0.081325 0.641545 0.755196
Si Si3 0.676396 0.532407 0.157796
Si Si4 0.150198 0.323121 0.423525
Si Si5 0.589347 0.853407 0.500747
Si Si6 0.980044 0.937219 0.955975
Si Si7 0.211330 0.058838 0.400787
Si Si8 0.572032 0.645928 0.248807
O O1 0.793017 0.454282 0.762611
O O2 0.558726 0.223308 0.896764
O O3 0.869116 0.160668 0.979725
O O4 0.596944 0.068510 0.225997
O O5 0.134863 0.504826 0.808171
O O6 0.917229 0.686371 0.672547
O O7 0.233877 0.862391 0.548363
O O8 0.000000 0.500000 0.000000
O O9 0.599445 0.342650 0.280761
O O10 0.571572 0.511475 0.290510
O O11 0.705157 0.749353 0.878622
O O12 0.316170 0.249143 0.478514
O O13 0.997914 0.147540 0.679651
O O14 0.670836 0.900644 0.552859
O O15 0.779281 0.783290 0.108177
O O16 0.000000 0.000000 0.000000
O O17 0.000000 0.000000 0.500000
O O18 0.500000 0.500000 0.500000
#
# Coordination Sequence:
#
# PCOD8031521 Si02
#       8
#     2   2   2   2   2   2   2   2
#     4  11  26  48  76 106 147 195 250 304 376 445
#     4  12  24  40  72 105 143 197 242 295 374 436
#     4  12  27  45  70 108 148 191 249 305 371 438
#     4  11  22  44  70  98 145 187 241 304 361 434
#     4  11  25  44  70 105 146 191 242 302 367 443
#     4  11  27  47  74 108 143 188 244 314 378 435
#     4  12  24  44  71 105 149 193 248 302 363 451
#     4  12  28  51  79 110 149 195 256 311 369 450
#
# _framework density 22.962463
#
# number of rings (size 3 to 8) (size 9 to 14) (size 15 to 20)
#    0.000    0.500    3.750    3.375    7.000    4.000 
#    0.000    0.000    0.000    0.000    0.000    0.000 
#    0.000    0.000    0.000    0.000    0.000    0.000 
#
# Total GULP energy -198244.530194 kJ/mol
# GULP energy per Si atom -12390.283137 kJ/mol
# Density = 2.291020 g / cm^3
# Si number density = 22.962463 Si / 1000 Ang^3
#
#
#
# Elastic Constant Matrix: (Units=GPa)
#
#
# Indices 1 2 3 4 5 6 
#
# 1 84.5554 49.5882 49.7796 -7.4684 12.1697 6.2886
# 2 49.5882 115.2095 59.2840 -3.7917 10.0373 1.6071
# 3 49.7796 59.2840 182.7283 -0.5133 11.3065 -8.7046
# 4 -7.4684 -3.7917 -0.5133 46.0403 3.1523 3.7122
# 5 12.1697 10.0373 11.3065 3.1523 30.0634 3.0903
# 6 6.2886 1.6071 -8.7046 3.7122 3.0903 40.9251
#
#
#
# Elastic Compliance Matrix: (Units=1/GPa)
#
#
# Indices 1 2 3 4 5 6 
#
# 1 0.018021 -0.005740 -0.002923 0.002961 -0.004270 -0.003112
# 2 -0.005740 0.012490 -0.002433 0.000140 -0.000939 -0.000068
# 3 -0.002923 -0.002433 0.007215 -0.000713 -0.000870 0.002210
# 4 0.002961 0.000140 -0.000713 0.022612 -0.003099 -0.002429
# 5 -0.004270 -0.000939 -0.000870 -0.003099 0.036157 -0.001941
# 6 -0.003112 -0.000068 0.002210 -0.002429 -0.001941 0.025753
#
#
# Mechanical properties :
#
#
# Convention : Reuss Voigt Hill
#
# Bulk Modulus (GPa) = 64.37255 77.75523 71.06389
# Shear Modulus (GPa) = 33.41859 38.32853 35.87356
#
# Velocity S-wave (km/s) = 3.81905 4.08999 3.95684
# Velocity P-wave (km/s) = 6.89504 7.49930 7.20351
#
# Compressibility (1/GPa) = 0.01553457
#
# Stress axis : x y z
#
# Youngs Moduli (GPa) = 55.49116 80.06565 138.59166
#
# Poissons Ratio (x) = 0.45954 0.40509
# Poissons Ratio (y) = 0.31850 0.33723
# Poissons Ratio (z) = 0.16219 0.19482
#
# Static dielectric constant tensor:
#      x y z
#    x 4.661220 -0.199350 -0.153940 
#    y -0.199350 4.141480 -0.424320 
#    z -0.153940 -0.424320 3.575340 
# 
# 
# High freq. dielectric constant tensor:
#      x y z
#    x 1.931480 -0.003150 0.002720 
#    y -0.003150 1.912350 -0.012100 
#    z 0.002720 -0.012100 1.917930 
# 
# From -- ./inp_files/398185.got.cif
#   From: 2010.06.25/outbox.cif.g09.slc.cpg/sg2_200_cif.got.tgz:398185.got - 2010.06.27 13:26:56.
