data_PCOD8031551
_publ_section_title
;
Structure prediction by ZEFSAII (Michael W. Deem and Ramdas Pophale) SiO2 
 PCOD8031551
Probable space group: P -1
;
_chemical_formula_sum "Si O2"
_cell_formula_units_Z 16
_cell_length_a 18.152274
_cell_length_b 12.687369
_cell_length_c 8.926727
_cell_angle_alpha 56.577486
_cell_angle_beta 151.505858
_cell_angle_gamma 130.157494
_cell_volume 748.874037
_symmetry_space_group_name_H-M "P -1"
_symmetry_group_IT_number 2
_symmetry_cell_setting 'triclinic'
loop_
_space_group_symop_operation_xyz
x,y,z
-x,-y,-z
loop_
_atom_site_type_symbol
_atom_site_label
_atom_site_fract_x
_atom_site_fract_y
_atom_site_fract_z
Si Si1 0.011305 0.063031 0.132646
Si Si2 0.303788 0.147585 0.095899
Si Si3 0.639651 0.304719 0.068257
Si Si4 0.949048 0.430574 0.123855
Si Si5 0.378181 0.809913 0.186534
Si Si6 0.336918 0.084995 0.863510
Si Si7 0.999908 0.321434 0.779963
Si Si8 0.778297 0.608416 0.162272
O O1 0.197354 0.102151 0.496519
O O2 0.978272 0.201689 0.953479
O O3 0.000000 0.000000 0.000000
O O4 0.875377 0.957326 0.081648
O O5 0.456541 0.125854 0.466109
O O6 0.304889 0.114014 0.951955
O O7 0.326092 0.305083 0.035951
O O8 0.823083 0.304103 0.408546
O O9 0.645701 0.454768 0.003360
O O10 0.578527 0.264127 0.820500
O O11 0.518491 0.195752 0.053074
O O12 0.915032 0.532809 0.098608
O O13 0.099193 0.392583 0.483091
O O14 0.776088 0.295122 0.908311
O O15 0.000000 0.500000 0.000000
O O16 0.329605 0.932676 0.946789
O O17 0.116221 0.316977 0.853936
#
# Coordination Sequence:
#
# PCOD8031551 Si02
#       8
#     2   2   2   2   2   2   2   2
#     4  12  24  44  70  98 130 177 226 271 333 400
#     4  12  28  43  67 102 140 175 217 283 339 394
#     4  11  23  45  70  98 129 181 227 274 324 398
#     4  11  25  41  72 101 131 180 221 277 337 394
#     4  12  24  46  68  97 136 178 229 268 331 403
#     4  12  28  44  69  98 139 176 221 281 337 393
#     4  11  22  44  71  99 134 176 228 273 328 401
#     4  11  23  47  68  98 141 174 225 275 332 397
#
# _framework density 21.365410000000001
#
# number of rings (size 3 to 8) (size 9 to 14) (size 15 to 20)
#    0.000    0.500    3.750    4.875    7.000    2.000 
#    0.000    0.000    0.000    0.000    0.000    0.000 
#    0.000    0.000    0.000    0.000    0.000    0.000 
#
# Total GULP energy -198539.817041 kJ/mol
# GULP energy per Si atom -12408.738565 kJ/mol
# Density = 2.131678 g / cm^3
# Si number density = 21.365410 Si / 1000 Ang^3
#
#
#
# Elastic Constant Matrix: (Units=GPa)
#
#
# Indices 1 2 3 4 5 6 
#
# 1 106.8526 19.0487 10.2319 14.1115 -11.4132 14.7142
# 2 19.0487 116.5693 14.7733 0.2453 5.9898 9.0774
# 3 10.2319 14.7733 56.7378 3.5233 -19.7663 -11.9042
# 4 14.1115 0.2453 3.5233 36.4015 6.9680 4.1350
# 5 -11.4132 5.9898 -19.7663 6.9680 28.3180 3.4505
# 6 14.7142 9.0774 -11.9042 4.1350 3.4505 35.9828
#
#
#
# Elastic Compliance Matrix: (Units=1/GPa)
#
#
# Indices 1 2 3 4 5 6 
#
# 1 0.011772 -0.002009 0.000404 -0.005509 0.007324 -0.004243
# 2 -0.002009 0.010266 -0.005755 0.003049 -0.007344 -0.003318
# 3 0.000404 -0.005755 0.029651 -0.008505 0.022967 0.009871
# 4 -0.005509 0.003049 -0.008505 0.034026 -0.016732 -0.003636
# 5 0.007324 -0.007344 0.022967 -0.016732 0.059642 0.002659
# 6 -0.004243 -0.003318 0.009871 -0.003636 0.002659 0.033792
#
#
# Mechanical properties :
#
#
# Convention : Reuss Voigt Hill
#
# Bulk Modulus (GPa) = 27.05020 40.91862 33.98441
# Shear Modulus (GPa) = 24.24930 35.88084 30.06507
#
# Velocity S-wave (km/s) = 3.37260 4.10248 3.75532
# Velocity P-wave (km/s) = 5.27770 6.45243 5.89440
#
# Compressibility (1/GPa) = 0.03696830
#
# Stress axis : x y z
#
# Youngs Moduli (GPa) = 84.94481 97.41310 33.72586
#
# Poissons Ratio (x) = 0.19573 -0.01361
# Poissons Ratio (y) = 0.17067 0.19408
# Poissons Ratio (z) = -0.03429 0.56058
#
# Static dielectric constant tensor:
#      x y z
#    x 3.903670 0.038560 -0.033400 
#    y 0.038560 4.198320 -0.064350 
#    z -0.033400 -0.064350 4.115290 
# 
# 
# High freq. dielectric constant tensor:
#      x y z
#    x 1.842830 0.002290 -0.006140 
#    y 0.002290 1.856260 0.001610 
#    z -0.006140 0.001610 1.838970 
# 
# From -- ./inp_files/209462.got.cif
#   From: 2010.06.25/outbox.cif.g09.slc.cpg/sg2_105_cif.got.tgz:209462.got - 2010.06.27 13:26:56.
