data_PCOD8031892
_publ_section_title
;
Structure prediction by ZEFSAII (Michael W. Deem and Ramdas Pophale) SiO2 
 PCOD8031892
Probable space group: P -1
;
_chemical_formula_sum "Si O2"
_cell_formula_units_Z 14
_cell_length_a 6.521166
_cell_length_b 14.951965
_cell_length_c 9.204080
_cell_angle_alpha 62.111932
_cell_angle_beta 129.388382
_cell_angle_gamma 114.147383
_cell_volume 604.707305
_symmetry_space_group_name_H-M "P -1"
_symmetry_group_IT_number 2
_symmetry_cell_setting 'triclinic'
loop_
_space_group_symop_operation_xyz
x,y,z
-x,-y,-z
loop_
_atom_site_type_symbol
_atom_site_label
_atom_site_fract_x
_atom_site_fract_y
_atom_site_fract_z
Si Si1 0.176835 0.208566 0.151173
Si Si2 0.298517 0.798235 0.239776
Si Si3 0.592918 0.389797 0.764885
Si Si4 0.775474 0.233610 0.437751
Si Si5 0.669418 0.590741 0.092265
Si Si6 0.056154 0.453718 0.363761
Si Si7 0.124802 0.115179 0.502949
O O1 0.476708 0.181482 0.288374
O O2 0.090419 0.188164 0.294640
O O3 0.187164 0.327184 0.022670
O O4 0.940671 0.149921 0.983278
O O5 0.376772 0.708322 0.242831
O O6 0.199974 0.753738 0.386549
O O7 0.563963 0.883164 0.315260
O O8 0.530483 0.359139 0.928680
O O9 0.317328 0.430375 0.576814
O O10 0.838663 0.484257 0.785119
O O11 0.854185 0.347446 0.319192
O O12 0.973286 0.156735 0.537583
O O13 0.902355 0.536376 0.316952
O O14 0.500000 0.500000 0.000000
O O15 0.000000 0.000000 0.500000
#
# Coordination Sequence:
#
# PCOD8031892 Si02
#       7
#     2   2   2   2   2   2   2
#     4  11  26  43  71 108 141 182 237 283 352 420
#     4  11  25  46  72 105 141 185 240 288 351 420
#     4  11  25  37  65  98 142 196 238 274 332 415
#     4  11  25  44  73  99 146 185 233 293 350 416
#     4  12  25  38  62 101 149 187 229 277 337 409
#     4  11  23  37  64  94 141 188 234 270 334 406
#     4  11  28  52  77 102 134 180 238 304 368 417
#
# _framework density 23.151696000000001
#
# number of rings (size 3 to 8) (size 9 to 14) (size 15 to 20)
#    0.000    0.857    4.286    1.286    8.000    3.429 
#    0.000    1.429    0.000    0.000    0.000    0.000 
#    0.000    0.000    0.000    0.000    0.000    0.000 
#
# Total GULP energy -173439.079766 kJ/mol
# GULP energy per Si atom -12388.505698 kJ/mol
# Density = 2.309900 g / cm^3
# Si number density = 23.151696 Si / 1000 Ang^3
#
#
#
# Elastic Constant Matrix: (Units=GPa)
#
#
# Indices 1 2 3 4 5 6 
#
# 1 140.3823 66.5220 43.8434 11.2381 -9.0002 5.4359
# 2 66.5220 105.3687 10.6681 15.5415 -18.5160 3.2546
# 3 43.8434 10.6681 97.2759 23.2492 3.3853 8.7596
# 4 11.2381 15.5415 23.2492 26.6608 7.1057 11.2651
# 5 -9.0002 -18.5160 3.3853 7.1057 35.7926 11.4355
# 6 5.4359 3.2546 8.7596 11.2651 11.4355 31.0313
#
#
#
# Elastic Compliance Matrix: (Units=1/GPa)
#
#
# Indices 1 2 3 4 5 6 
#
# 1 0.012362 -0.008222 -0.005838 0.005519 -0.001313 -0.001175
# 2 -0.008222 0.017868 0.004646 -0.013370 0.009518 -0.000399
# 3 -0.005838 0.004646 0.015831 -0.014922 0.002184 0.000679
# 4 0.005519 -0.013370 -0.014922 0.065445 -0.012472 -0.014514
# 5 -0.001313 0.009518 0.002184 -0.012472 0.038308 -0.010974
# 6 -0.001175 -0.000399 0.000679 -0.014514 -0.010974 0.041595
#
#
# Mechanical properties :
#
#
# Convention : Reuss Voigt Hill
#
# Bulk Modulus (GPa) = 36.71862 65.01043 50.86452
# Shear Modulus (GPa) = 22.79846 33.49650 28.14748
#
# Velocity S-wave (km/s) = 3.14147 3.80784 3.49059
# Velocity P-wave (km/s) = 5.39007 6.89014 6.18575
#
# Compressibility (1/GPa) = 0.02723414
#
# Stress axis : x y z
#
# Youngs Moduli (GPa) = 80.89182 55.96690 63.16803
#
# Poissons Ratio (x) = 0.46016 0.36875
# Poissons Ratio (y) = 0.66509 -0.29350
# Poissons Ratio (z) = 0.47222 -0.26004
#
# Static dielectric constant tensor:
#      x y z
#    x 5.201690 0.372010 0.376790 
#    y 0.372010 3.817610 0.123290 
#    z 0.376790 0.123290 4.401260 
# 
# 
# High freq. dielectric constant tensor:
#      x y z
#    x 1.942280 0.021230 0.011540 
#    y 0.021230 1.874350 0.011040 
#    z 0.011540 0.011040 1.918710 
# 
# From -- ./inp_files/128144.got.cif
#   From: 2010.06.25/outbox.cif.g09.slc.cpg/sg2_65_cif.got.tgz:128144.got - 2010.06.27 13:26:56.
