data_PCOD8031385
_publ_section_title
;
Structure prediction by ZEFSAII (Michael W. Deem and Ramdas Pophale) SiO2 
 PCOD8031385
Probable space group: P -1
;
_chemical_formula_sum "Si O2"
_cell_formula_units_Z 14
_cell_length_a 9.098544
_cell_length_b 9.399605
_cell_length_c 12.141096
_cell_angle_alpha 58.452992
_cell_angle_beta 113.252080
_cell_angle_gamma 134.051204
_cell_volume 635.168172
_symmetry_space_group_name_H-M "P -1"
_symmetry_group_IT_number 2
_symmetry_cell_setting 'triclinic'
loop_
_space_group_symop_operation_xyz
x,y,z
-x,-y,-z
loop_
_atom_site_type_symbol
_atom_site_label
_atom_site_fract_x
_atom_site_fract_y
_atom_site_fract_z
Si Si1 0.605502 0.420811 0.771206
Si Si2 0.831799 0.924534 0.165169
Si Si3 0.821866 0.560399 0.219388
Si Si4 0.498652 0.716274 0.586243
Si Si5 0.823355 0.438204 0.622883
Si Si6 0.953552 0.079134 0.560413
Si Si7 0.897023 0.594311 0.982984
O O1 0.402411 0.180565 0.832434
O O2 0.541849 0.550114 0.638089
O O3 0.754228 0.414268 0.738482
O O4 0.718901 0.539996 0.870524
O O5 0.831156 0.766922 0.146100
O O6 0.955205 0.964749 0.294979
O O7 0.934422 0.152392 0.048052
O O8 0.624946 0.355936 0.306338
O O9 0.027613 0.623624 0.311656
O O10 0.799267 0.488267 0.115497
O O11 0.371636 0.718757 0.448989
O O12 0.712292 0.953484 0.559997
O O13 0.943839 0.675214 0.516605
O O14 0.000000 0.000000 0.500000
O O15 0.000000 0.500000 0.000000
#
# Coordination Sequence:
#
# PCOD8031385 Si02
#       7
#     2   2   2   2   2   2   2
#     4  11  22  43  72  99 132 180 231 276 334 400
#     4  11  25  45  69 101 133 181 228 274 348 391
#     4  11  26  46  66 101 146 176 217 291 337 399
#     4  11  23  40  67 104 133 180 222 273 345 396
#     4  12  22  44  66 102 144 170 221 282 336 404
#     4  12  22  39  71 100 134 178 225 272 330 406
#     4  12  25  49  71  97 136 177 238 280 328 407
#
# _framework density 22.041404
#
# number of rings (size 3 to 8) (size 9 to 14) (size 15 to 20)
#    0.000    0.571    7.143    2.143    0.000    3.429 
#    2.571    0.000    0.000    0.000    0.000    0.000 
#    0.000    0.000    0.000    0.000    0.000    0.000 
#
# Total GULP energy -173683.089945 kJ/mol
# GULP energy per Si atom -12405.934996 kJ/mol
# Density = 2.199124 g / cm^3
# Si number density = 22.041404 Si / 1000 Ang^3
#
#
#
# Elastic Constant Matrix: (Units=GPa)
#
#
# Indices 1 2 3 4 5 6 
#
# 1 125.9863 32.6828 33.6656 -0.4629 -13.8114 14.3786
# 2 32.6828 77.5015 22.9934 5.8288 -6.9520 27.5651
# 3 33.6656 22.9934 79.2998 13.3400 -13.9894 3.9705
# 4 -0.4629 5.8288 13.3400 31.0629 -6.6100 -1.9638
# 5 -13.8114 -6.9520 -13.9894 -6.6100 37.5188 2.3228
# 6 14.3786 27.5651 3.9705 -1.9638 2.3228 45.7113
#
#
#
# Elastic Compliance Matrix: (Units=1/GPa)
#
#
# Indices 1 2 3 4 5 6 
#
# 1 0.009964 -0.002750 -0.003375 0.002554 0.002424 -0.001196
# 2 -0.002750 0.019082 -0.003122 -0.002618 0.001552 -0.010562
# 3 -0.003375 -0.003122 0.016431 -0.005765 0.003221 0.001106
# 4 0.002554 -0.002618 -0.005765 0.036330 0.004545 0.002606
# 5 0.002424 0.001552 0.003221 0.004545 0.030040 -0.003309
# 6 -0.001196 -0.010562 0.001106 0.002606 -0.003309 0.028806
#
#
# Mechanical properties :
#
#
# Convention : Reuss Voigt Hill
#
# Bulk Modulus (GPa) = 37.06057 51.27458 44.16757
# Shear Modulus (GPa) = 29.73687 35.75499 32.74593
#
# Velocity S-wave (km/s) = 3.67704 4.03199 3.85860
# Velocity P-wave (km/s) = 5.90577 6.70741 6.31931
#
# Compressibility (1/GPa) = 0.02698286
#
# Stress axis : x y z
#
# Youngs Moduli (GPa) = 100.35901 52.40651 60.85940
#
# Poissons Ratio (x) = 0.14411 0.20540
# Poissons Ratio (y) = 0.27597 0.19003
# Poissons Ratio (z) = 0.33871 0.16363
#
# Static dielectric constant tensor:
#      x y z
#    x 4.209500 0.255180 -0.046700 
#    y 0.255180 3.916670 0.050190 
#    z -0.046700 0.050190 3.974770 
# 
# 
# High freq. dielectric constant tensor:
#      x y z
#    x 1.879740 0.012420 -0.005570 
#    y 0.012420 1.857530 0.006420 
#    z -0.005570 0.006420 1.867310 
# 
# From -- ./inp_files/175779.got.cif
#   From: 2010.06.25/outbox.cif.g09.slc.cpg/sg2_88_cif.got.tgz:175779.got - 2010.06.27 13:26:56.
