data_PCOD8031154
_publ_section_title
;
Structure prediction by ZEFSAII (Michael W. Deem and Ramdas Pophale) SiO2 
 PCOD8031154
Probable space group: P -1
;
_chemical_formula_sum "Si O2"
_cell_formula_units_Z 16
_cell_length_a 11.464705
_cell_length_b 20.859822
_cell_length_c 8.998245
_cell_angle_alpha 72.878712
_cell_angle_beta 107.994395
_cell_angle_gamma 158.670701
_cell_volume 744.299793
_symmetry_space_group_name_H-M "P -1"
_symmetry_group_IT_number 2
_symmetry_cell_setting 'triclinic'
loop_
_space_group_symop_operation_xyz
x,y,z
-x,-y,-z
loop_
_atom_site_type_symbol
_atom_site_label
_atom_site_fract_x
_atom_site_fract_y
_atom_site_fract_z
Si Si1 0.142741 0.256324 0.257331
Si Si2 0.199923 0.649217 0.374294
Si Si3 0.195634 0.910882 0.062560
Si Si4 0.910099 0.890452 0.134343
Si Si5 0.111633 0.987912 0.482614
Si Si6 0.051906 0.701198 0.842903
Si Si7 0.843327 0.597153 0.158336
Si Si8 0.200634 0.558690 0.154783
O O1 0.483068 0.425789 0.192223
O O2 0.109865 0.183404 0.420469
O O3 0.083401 0.298669 0.284387
O O4 0.867222 0.108883 0.123744
O O5 0.287206 0.649550 0.264395
O O6 0.000000 0.500000 0.500000
O O7 0.983808 0.603819 0.289473
O O8 0.517546 0.836957 0.451758
O O9 0.024852 0.882164 0.105608
O O10 0.055580 0.769706 0.161986
O O11 0.575586 0.103983 0.102533
O O12 0.528149 0.696709 0.122065
O O13 0.077737 0.976107 0.301712
O O14 0.000000 0.000000 0.000000
O O15 0.000000 0.000000 0.500000
O O16 0.001092 0.611837 0.773288
O O17 0.845054 0.584787 0.991256
O O18 0.000000 0.500000 0.000000
#
# Coordination Sequence:
#
# PCOD8031154 Si02
#       8
#     2   2   2   2   2   2   2   2
#     4  11  23  43  71 100 136 178 223 282 339 400
#     4  12  27  44  68 101 139 181 222 278 344 398
#     4  11  23  42  71 101 134 180 229 277 330 405
#     4  12  27  45  70 101 133 179 230 278 336 406
#     4  12  25  47  68 100 138 177 226 279 343 397
#     4  11  22  42  70 101 137 177 228 277 332 401
#     4  11  22  43  70 100 136 179 228 273 339 404
#     4  12  25  44  70 101 138 176 229 276 332 403
#
# _framework density 21.496715999999999
#
# number of rings (size 3 to 8) (size 9 to 14) (size 15 to 20)
#    0.000    0.500    2.500    8.250    3.500    0.000 
#    2.250    2.500    0.000    0.000    0.000    0.000 
#    0.000    0.000    0.000    0.000    0.000    0.000 
#
# Total GULP energy -198428.455404 kJ/mol
# GULP energy per Si atom -12401.778463 kJ/mol
# Density = 2.144779 g / cm^3
# Si number density = 21.496716 Si / 1000 Ang^3
#
#
#
# Elastic Constant Matrix: (Units=GPa)
#
#
# Indices 1 2 3 4 5 6 
#
# 1 154.7925 36.0004 41.5392 1.2879 19.7658 -10.2753
# 2 36.0004 121.7040 34.5925 -1.5129 6.7406 0.8174
# 3 41.5392 34.5925 105.3125 -11.8246 17.1210 -14.0957
# 4 1.2879 -1.5129 -11.8246 33.6770 -4.0774 2.9766
# 5 19.7658 6.7406 17.1210 -4.0774 34.3889 -2.9224
# 6 -10.2753 0.8174 -14.0957 2.9766 -2.9224 46.8748
#
#
#
# Elastic Compliance Matrix: (Units=1/GPa)
#
#
# Indices 1 2 3 4 5 6 
#
# 1 0.007893 -0.001582 -0.002103 -0.001599 -0.003282 0.001022
# 2 -0.001582 0.009452 -0.002735 -0.000328 0.000269 -0.001296
# 3 -0.002103 -0.002735 0.012656 0.003674 -0.003873 0.002918
# 4 -0.001599 -0.000328 0.003674 0.031463 0.002794 -0.001064
# 5 -0.003282 0.000269 -0.003873 0.002794 0.033172 0.000002
# 6 0.001022 -0.001296 0.002918 -0.001064 0.000002 0.022525
#
#
# Mechanical properties :
#
#
# Convention : Reuss Voigt Hill
#
# Bulk Modulus (GPa) = 58.26965 67.34147 62.80556
# Shear Modulus (GPa) = 36.84060 40.96661 38.90360
#
# Velocity S-wave (km/s) = 4.14427 4.37019 4.25873
# Velocity P-wave (km/s) = 7.07567 7.54050 7.31178
#
# Compressibility (1/GPa) = 0.01716159
#
# Stress axis : x y z
#
# Youngs Moduli (GPa) = 126.69883 105.80168 79.01463
#
# Poissons Ratio (x) = 0.16738 0.16614
# Poissons Ratio (y) = 0.20044 0.21608
# Poissons Ratio (z) = 0.26640 0.28934
#
# Static dielectric constant tensor:
#      x y z
#    x 4.105160 0.125640 0.358060 
#    y 0.125640 3.857790 -0.255200 
#    z 0.358060 -0.255200 3.521880 
# 
# 
# High freq. dielectric constant tensor:
#      x y z
#    x 1.872440 0.001550 0.014560 
#    y 0.001550 1.860630 -0.001640 
#    z 0.014560 -0.001640 1.826020 
# 
# From -- ./inp_files/243108.got.cif
#   From: 2010.06.25/outbox.cif.g09.slc.cpg/sg2_122_cif.got.tgz:243108.got - 2010.06.27 13:26:56.
