data_PCOD8031650
_publ_section_title
;
Structure prediction by ZEFSAII (Michael W. Deem and Ramdas Pophale) SiO2 
 PCOD8031650
Probable space group: P -1
;
_chemical_formula_sum "Si O2"
_cell_formula_units_Z 16
_cell_length_a 10.755647
_cell_length_b 8.667734
_cell_length_c 11.407210
_cell_angle_alpha 128.757480
_cell_angle_beta 56.528039
_cell_angle_gamma 108.003932
_cell_volume 690.685535
_symmetry_space_group_name_H-M "P -1"
_symmetry_group_IT_number 2
_symmetry_cell_setting 'triclinic'
loop_
_space_group_symop_operation_xyz
x,y,z
-x,-y,-z
loop_
_atom_site_type_symbol
_atom_site_label
_atom_site_fract_x
_atom_site_fract_y
_atom_site_fract_z
Si Si1 0.622454 0.567491 0.377561
Si Si2 0.823146 0.779310 0.948377
Si Si3 0.123102 0.780490 0.929251
Si Si4 0.173803 0.476829 0.398989
Si Si5 0.826229 0.783354 0.514162
Si Si6 0.721226 0.103252 0.499418
Si Si7 0.029188 0.882693 0.285840
Si Si8 0.594380 0.783324 0.259757
O O1 0.500000 0.500000 0.500000
O O2 0.752333 0.395262 0.221032
O O3 0.691359 0.775060 0.484522
O O4 0.567254 0.620602 0.299532
O O5 0.780451 0.664873 0.799704
O O6 0.991285 0.731379 0.884847
O O7 0.701065 0.695944 0.060776
O O8 0.804217 0.014737 0.044678
O O9 0.053267 0.793276 0.103203
O O10 0.223545 0.382740 0.451265
O O11 0.244663 0.684153 0.465679
O O12 0.000000 0.500000 0.500000
O O13 0.986806 0.725418 0.334741
O O14 0.835271 0.986432 0.682107
O O15 0.567347 0.140566 0.672442
O O16 0.870672 0.018538 0.447437
O O17 0.683570 0.970504 0.344905
#
# Coordination Sequence:
#
# PCOD8031650 Si02
#       8
#     2   2   2   2   2   2   2   2
#     4  12  27  45  68 100 135 177 222 273 339 404
#     4  11  24  42  68 103 134 173 227 277 332 397
#     4  11  24  42  69 100 136 173 224 283 330 391
#     4  12  23  39  67 102 132 175 220 276 331 391
#     4  11  23  40  68  98 135 168 222 272 332 402
#     4  11  23  45  71  97 136 177 228 270 332 400
#     4  11  22  45  69 101 131 174 223 277 338 389
#     4  11  26  45  70  98 135 181 225 272 334 401
#
# _framework density 23.165391
#
# number of rings (size 3 to 8) (size 9 to 14) (size 15 to 20)
#    0.000    0.750    5.000    1.500    7.000    3.500 
#    0.000    0.625    0.000    0.000    0.000    0.000 
#    0.000    0.000    0.000    0.000    0.000    0.000 
#
# Total GULP energy -198218.430606 kJ/mol
# GULP energy per Si atom -12388.651913 kJ/mol
# Density = 2.311267 g / cm^3
# Si number density = 23.165391 Si / 1000 Ang^3
#
#
#
# Elastic Constant Matrix: (Units=GPa)
#
#
# Indices 1 2 3 4 5 6 
#
# 1 72.4096 18.9784 40.7045 2.1363 -9.5366 -2.5980
# 2 18.9784 113.6018 55.2837 -14.5532 6.1474 4.6306
# 3 40.7045 55.2837 92.4960 -21.6303 -16.5335 -12.4397
# 4 2.1363 -14.5532 -21.6303 41.7910 -5.2655 1.6881
# 5 -9.5366 6.1474 -16.5335 -5.2655 34.1841 -1.3845
# 6 -2.5980 4.6306 -12.4397 1.6881 -1.3845 32.9230
#
#
#
# Elastic Compliance Matrix: (Units=1/GPa)
#
#
# Indices 1 2 3 4 5 6 
#
# 1 0.020108 0.002061 -0.012468 -0.006886 -0.001979 -0.003144
# 2 0.002061 0.015465 -0.013411 -0.002546 -0.009382 -0.007344
# 3 -0.012468 -0.013411 0.032608 0.014513 0.017475 0.013214
# 4 -0.006886 -0.002546 0.014513 0.032083 0.010664 0.004102
# 5 -0.001979 -0.009382 0.017475 0.010664 0.040845 0.008937
# 6 -0.003144 -0.007344 0.013214 0.004102 0.008937 0.036317
#
#
# Mechanical properties :
#
#
# Convention : Reuss Voigt Hill
#
# Bulk Modulus (GPa) = 48.66851 56.49341 52.58096
# Shear Modulus (GPa) = 21.56004 32.68235 27.12119
#
# Velocity S-wave (km/s) = 3.05405 3.76017 3.42535
# Velocity P-wave (km/s) = 5.78714 6.57965 6.19608
#
# Compressibility (1/GPa) = 0.02054717
#
# Stress axis : x y z
#
# Youngs Moduli (GPa) = 49.73029 64.66060 30.66744
#
# Poissons Ratio (x) = -0.13328 0.38236
# Poissons Ratio (y) = -0.10251 0.41127
# Poissons Ratio (z) = 0.62003 0.86714
#
# Static dielectric constant tensor:
#      x y z
#    x 3.871030 0.093970 -0.190620 
#    y 0.093970 4.386380 0.055470 
#    z -0.190620 0.055470 3.927420 
# 
# 
# High freq. dielectric constant tensor:
#      x y z
#    x 1.913410 0.004620 0.012220 
#    y 0.004620 1.940310 -0.013400 
#    z 0.012220 -0.013400 1.899640 
# 
# From -- ./inp_files/419898.got.cif
#   From: 2010.06.25/outbox.cif.g09.slc.cpg/sg2_210_cif.got.tgz:419898.got - 2010.06.27 13:26:56.
