data_PCOD8031362
_publ_section_title
;
Structure prediction by ZEFSAII (Michael W. Deem and Ramdas Pophale) SiO2 
 PCOD8031362
Probable space group: P -1
;
_chemical_formula_sum "Si O2"
_cell_formula_units_Z 16
_cell_length_a 17.597665
_cell_length_b 9.630966
_cell_length_c 20.858592
_cell_angle_alpha 142.185984
_cell_angle_beta 160.690322
_cell_angle_gamma 41.146307
_cell_volume 716.219843
_symmetry_space_group_name_H-M "P -1"
_symmetry_group_IT_number 2
_symmetry_cell_setting 'triclinic'
loop_
_space_group_symop_operation_xyz
x,y,z
-x,-y,-z
loop_
_atom_site_type_symbol
_atom_site_label
_atom_site_fract_x
_atom_site_fract_y
_atom_site_fract_z
Si Si1 0.111956 0.917953 0.379019
Si Si2 0.330317 0.336488 0.870598
Si Si3 0.942512 0.230345 0.000662
Si Si4 0.733264 0.498112 0.723863
Si Si5 0.082843 0.576871 0.337245
Si Si6 0.246568 0.396641 0.680392
Si Si7 0.590750 0.939050 0.979570
Si Si8 0.566285 0.470434 0.722547
O O1 0.142169 0.747524 0.280501
O O2 0.178815 0.787344 0.450603
O O3 0.270983 0.135743 0.580694
O O4 0.851288 0.015802 0.209868
O O5 0.264292 0.429307 0.782587
O O6 0.432868 0.079351 0.854267
O O7 0.086857 0.333865 0.710919
O O8 0.524103 0.478859 0.115616
O O9 0.126752 0.289075 0.113517
O O10 0.935625 0.426969 0.118922
O O11 0.689979 0.246831 0.771936
O O12 0.000000 0.000000 0.000000
O O13 0.500000 0.500000 0.500000
O O14 0.698917 0.528127 0.783243
O O15 0.298771 0.425331 0.481181
O O16 0.000000 0.500000 0.500000
O O17 0.579686 0.675947 0.858181
O O18 0.500000 0.000000 0.000000
#
# Coordination Sequence:
#
# PCOD8031362 Si02
#       8
#     2   2   2   2   2   2   2   2
#     4  11  22  43  71  97 137 179 231 289 337 407
#     4  11  25  43  67 103 139 182 230 283 356 419
#     4  11  25  46  69 101 146 179 236 296 353 412
#     4  11  23  47  72 102 136 183 244 286 341 426
#     4  11  24  46  69 102 135 183 239 284 346 422
#     4  11  25  44  64  99 145 180 227 288 354 411
#     4  12  23  41  77 104 134 181 238 286 347 418
#     4  12  24  45  78 103 139 192 238 290 354 417
#
# _framework density 22.339510000000001
#
# number of rings (size 3 to 8) (size 9 to 14) (size 15 to 20)
#    0.000    0.750    7.500    1.125    1.750    3.500 
#    4.500    0.000    0.000    0.000    0.000    0.000 
#    0.000    0.000    0.000    0.000    0.000    0.000 
#
# Total GULP energy -198315.573663 kJ/mol
# GULP energy per Si atom -12394.723354 kJ/mol
# Density = 2.228866 g / cm^3
# Si number density = 22.339510 Si / 1000 Ang^3
#
#
#
# Elastic Constant Matrix: (Units=GPa)
#
#
# Indices 1 2 3 4 5 6 
#
# 1 95.8227 47.9527 29.7149 -7.9489 -5.8978 -16.8451
# 2 47.9527 129.3200 47.1058 -25.3228 5.0661 12.6645
# 3 29.7149 47.1058 104.2780 -36.5231 0.4244 4.9498
# 4 -7.9489 -25.3228 -36.5231 51.5995 -0.6199 -5.5939
# 5 -5.8978 5.0661 0.4244 -0.6199 29.6345 -8.4384
# 6 -16.8451 12.6645 4.9498 -5.5939 -8.4384 31.0483
#
#
#
# Elastic Compliance Matrix: (Units=1/GPa)
#
#
# Indices 1 2 3 4 5 6 
#
# 1 0.018822 -0.008152 -0.002954 -0.001290 0.009839 0.016449
# 2 -0.008152 0.013431 -0.002356 0.002393 -0.006964 -0.010987
# 3 -0.002954 -0.002356 0.014555 0.008508 -0.000674 -0.001612
# 4 -0.001290 0.002393 0.008508 0.026580 0.000291 0.001835
# 5 0.009839 -0.006964 -0.000674 0.000291 0.042578 0.019911
# 6 0.016449 -0.010987 -0.001612 0.001835 0.019911 0.051613
#
#
# Mechanical properties :
#
#
# Convention : Reuss Voigt Hill
#
# Bulk Modulus (GPa) = 50.29232 64.32973 57.31103
# Shear Modulus (GPa) = 24.85921 36.09959 30.47940
#
# Velocity S-wave (km/s) = 3.33947 4.02425 3.69775
# Velocity P-wave (km/s) = 6.11809 7.10294 6.62883
#
# Compressibility (1/GPa) = 0.01988375
#
# Stress axis : x y z
#
# Youngs Moduli (GPa) = 53.12977 74.45212 68.70491
#
# Poissons Ratio (x) = 0.60697 0.20292
# Poissons Ratio (y) = 0.43314 0.16189
# Poissons Ratio (z) = 0.15692 0.17543
#
# Static dielectric constant tensor:
#      x y z
#    x 4.337950 0.325570 -0.051010 
#    y 0.325570 5.175300 -0.498670 
#    z -0.051010 -0.498670 4.319720 
# 
# 
# High freq. dielectric constant tensor:
#      x y z
#    x 1.870770 -0.003960 -0.003870 
#    y -0.003960 1.876290 -0.022160 
#    z -0.003870 -0.022160 1.891310 
# 
# From -- ./inp_files/599782.got.cif
#   From: 2010.06.25/outbox.cif.g09.slc.cpg/sg2_300_cif.got.tgz:599782.got - 2010.06.27 13:26:56.
