data_PCOD8031913
_publ_section_title
;
Structure prediction by ZEFSAII (Michael W. Deem and Ramdas Pophale) SiO2 
 PCOD8031913
Probable space group: P -1
;
_chemical_formula_sum "Si O2"
_cell_formula_units_Z 14
_cell_length_a 8.976699
_cell_length_b 14.039622
_cell_length_c 13.037031
_cell_angle_alpha 21.611710
_cell_angle_beta 96.612139
_cell_angle_gamma 96.539107
_cell_volume 601.029260
_symmetry_space_group_name_H-M "P -1"
_symmetry_group_IT_number 2
_symmetry_cell_setting 'triclinic'
loop_
_space_group_symop_operation_xyz
x,y,z
-x,-y,-z
loop_
_atom_site_type_symbol
_atom_site_label
_atom_site_fract_x
_atom_site_fract_y
_atom_site_fract_z
Si Si1 0.927993 0.246000 0.795827
Si Si2 0.725987 0.565570 0.122503
Si Si3 0.754507 0.873372 0.407414
Si Si4 0.936915 0.352810 0.928665
Si Si5 0.547060 0.071537 0.545597
Si Si6 0.328899 0.562792 0.525034
Si Si7 0.383431 0.177023 0.761106
O O1 0.943986 0.272125 0.891982
O O2 0.754823 0.215087 0.771082
O O3 0.000000 0.500000 0.500000
O O4 0.000000 0.000000 0.000000
O O5 0.649888 0.331359 0.287011
O O6 0.740662 0.470592 0.335362
O O7 0.895277 0.610579 0.049418
O O8 0.634306 0.831292 0.842936
O O9 0.840614 0.605207 0.691609
O O10 0.598403 0.860120 0.468414
O O11 0.724487 0.940111 0.217772
O O12 0.856782 0.108991 0.224187
O O13 0.500000 0.000000 0.500000
O O14 0.286404 0.306267 0.713032
O O15 0.508195 0.606568 0.504176
O O16 0.500000 0.000000 0.000000
#
# Coordination Sequence:
#
# PCOD8031913 Si02
#       7
#     2   2   2   2   2   2   2
#     4  12  25  38  61  96 149 196 231 269 326 415
#     4  12  26  47  75 108 142 186 237 296 357 435
#     4  12  25  46  70 105 143 189 235 297 354 420
#     4  12  26  44  69 109 152 187 230 287 358 418
#     4  12  28  53  80 104 133 182 245 307 369 431
#     4  11  24  39  62 104 141 190 242 282 334 414
#     4  11  23  38  64  97 142 193 240 286 335 406
#
# _framework density 23.293375000000001
#
# number of rings (size 3 to 8) (size 9 to 14) (size 15 to 20)
#    0.000    0.286    4.286    4.714    6.000    0.000 
#    0.000    4.286    0.000    0.000    0.000    0.000 
#    0.000    0.000    0.000    0.000    0.000    0.000 
#
# Total GULP energy -173569.632947 kJ/mol
# GULP energy per Si atom -12397.830925 kJ/mol
# Density = 2.324036 g / cm^3
# Si number density = 23.293375 Si / 1000 Ang^3
#
#
#
# Elastic Constant Matrix: (Units=GPa)
#
#
# Indices 1 2 3 4 5 6 
#
# 1 145.9568 37.9469 57.6434 -35.5358 6.7385 18.1317
# 2 37.9469 98.4202 25.5202 -20.6833 11.5979 6.7568
# 3 57.6434 25.5202 132.4168 -45.1375 14.9533 0.3509
# 4 -35.5358 -20.6833 -45.1375 34.2556 1.4841 2.6953
# 5 6.7385 11.5979 14.9533 1.4841 56.7438 -19.1964
# 6 18.1317 6.7568 0.3509 2.6953 -19.1964 18.6579
#
#
#
# Elastic Compliance Matrix: (Units=1/GPa)
#
#
# Indices 1 2 3 4 5 6 
#
# 1 0.018003 0.003713 0.004272 0.030813 -0.019534 -0.043469
# 2 0.003713 0.016016 0.004884 0.022858 -0.015232 -0.028474
# 3 0.004272 0.004884 0.018724 0.035080 -0.017170 -0.029006
# 4 0.030813 0.022858 0.035080 0.133526 -0.062501 -0.122476
# 5 -0.019534 -0.015232 -0.017170 -0.062501 0.062379 0.098031
# 6 -0.043469 -0.028474 -0.029006 -0.122476 0.098031 0.225250
#
#
# Mechanical properties :
#
#
# Convention : Reuss Voigt Hill
#
# Bulk Modulus (GPa) = 12.74191 68.77943 40.76067
# Shear Modulus (GPa) = 10.54140 38.97700 24.75920
#
# Velocity S-wave (km/s) = 2.12963 4.09505 3.26380
# Velocity P-wave (km/s) = 3.39546 7.20769 5.63382
#
# Compressibility (1/GPa) = 0.07848118
#
# Stress axis : x y z
#
# Youngs Moduli (GPa) = 55.54744 62.43751 53.40605
#
# Poissons Ratio (x) = -0.23181 -0.22815
# Poissons Ratio (y) = -0.20623 -0.26086
# Poissons Ratio (z) = -0.23729 -0.30497
#
# Static dielectric constant tensor:
#      x y z
#    x 5.994930 0.590100 -0.884690 
#    y 0.590100 4.271870 -0.468300 
#    z -0.884690 -0.468300 4.708760 
# 
# 
# High freq. dielectric constant tensor:
#      x y z
#    x 1.952290 0.002620 -0.009530 
#    y 0.002620 1.894540 -0.021090 
#    z -0.009530 -0.021090 1.937790 
# 
# From -- ./inp_files/503492.got.cif
#   From: 2010.06.25/outbox.cif.g09.slc.cpg/sg2_252_cif.got.tgz:503492.got - 2010.06.27 13:26:56.
