data_PCOD8031825
_publ_section_title
;
Structure prediction by ZEFSAII (Michael W. Deem and Ramdas Pophale) SiO2 
 PCOD8031825
Probable space group: P -1
;
_chemical_formula_sum "Si O2"
_cell_formula_units_Z 14
_cell_length_a 13.449839
_cell_length_b 9.668895
_cell_length_c 8.637853
_cell_angle_alpha 82.898178
_cell_angle_beta 141.002660
_cell_angle_gamma 113.555185
_cell_volume 613.007096
_symmetry_space_group_name_H-M "P -1"
_symmetry_group_IT_number 2
_symmetry_cell_setting 'triclinic'
loop_
_space_group_symop_operation_xyz
x,y,z
-x,-y,-z
loop_
_atom_site_type_symbol
_atom_site_label
_atom_site_fract_x
_atom_site_fract_y
_atom_site_fract_z
Si Si1 0.492236 0.722650 0.661976
Si Si2 0.500106 0.200417 0.694747
Si Si3 0.134087 0.657076 0.420361
Si Si4 0.756920 0.064918 0.988036
Si Si5 0.001645 0.666856 0.569915
Si Si6 0.131467 0.929098 0.210971
Si Si7 0.607376 0.505825 0.977687
O O1 0.460004 0.732962 0.440898
O O2 0.322298 0.699422 0.561474
O O3 0.541729 0.582848 0.755071
O O4 0.669672 0.875744 0.924979
O O5 0.618787 0.116724 0.882279
O O6 0.552796 0.332825 0.870771
O O7 0.291830 0.066714 0.485839
O O8 0.008405 0.462677 0.294224
O O9 0.044893 0.758868 0.221243
O O10 0.156499 0.696634 0.626013
O O11 0.790360 0.108324 0.842465
O O12 0.943088 0.166943 0.296287
O O13 0.817955 0.607130 0.259716
O O14 0.000000 0.000000 0.000000
O O15 0.500000 0.500000 0.000000
#
# Coordination Sequence:
#
# PCOD8031825 Si02
#       7
#     2   2   2   2   2   2   2
#     4  11  23  46  72 102 136 188 232 289 352 410
#     4  11  23  47  72 101 138 185 236 290 348 417
#     4  11  22  47  67 101 143 184 233 279 355 416
#     4  11  24  47  72 102 142 180 240 285 353 424
#     4  11  27  44  66 105 143 186 231 283 347 422
#     4  11  25  43  73 107 137 180 241 294 348 407
#     4  12  27  45  68 102 147 184 236 284 348 419
#
# _framework density 22.838235999999998
#
# number of rings (size 3 to 8) (size 9 to 14) (size 15 to 20)
#    0.000    0.857    4.286    3.000    6.000    2.857 
#    5.143    0.000    0.000    0.000    0.000    0.000 
#    0.000    0.000    0.000    0.000    0.000    0.000 
#
# Total GULP energy -173466.949678 kJ/mol
# GULP energy per Si atom -12390.496406 kJ/mol
# Density = 2.278625 g / cm^3
# Si number density = 22.838236 Si / 1000 Ang^3
#
#
#
# Elastic Constant Matrix: (Units=GPa)
#
#
# Indices 1 2 3 4 5 6 
#
# 1 94.4266 29.5321 25.5309 11.5828 -2.7509 2.9707
# 2 29.5321 77.9237 9.7693 -17.3629 7.3816 -3.7874
# 3 25.5309 9.7693 95.9137 18.0994 -0.9536 -16.3520
# 4 11.5828 -17.3629 18.0994 44.0563 -14.6378 -2.7976
# 5 -2.7509 7.3816 -0.9536 -14.6378 23.7011 -1.3672
# 6 2.9707 -3.7874 -16.3520 -2.7976 -1.3672 41.4498
#
#
#
# Elastic Compliance Matrix: (Units=1/GPa)
#
#
# Indices 1 2 3 4 5 6 
#
# 1 0.014005 -0.006306 -0.002595 -0.005269 0.000060 -0.002957
# 2 -0.006306 0.017603 -0.001498 0.009182 -0.000484 0.002073
# 3 -0.002595 -0.001498 0.013168 -0.005906 -0.002678 0.004757
# 4 -0.005269 0.009182 -0.005906 0.036562 0.018986 0.001981
# 5 0.000060 -0.000484 -0.002678 0.018986 0.054081 0.001960
# 6 -0.002957 0.002073 0.004757 0.001981 0.001960 0.026602
#
#
# Mechanical properties :
#
#
# Convention : Reuss Voigt Hill
#
# Bulk Modulus (GPa) = 41.70503 44.21430 42.95966
# Shear Modulus (GPa) = 26.20355 35.40354 30.80355
#
# Velocity S-wave (km/s) = 3.39094 3.94151 3.67655
# Velocity P-wave (km/s) = 5.79931 6.33371 6.07239
#
# Compressibility (1/GPa) = 0.02397793
#
# Stress axis : x y z
#
# Youngs Moduli (GPa) = 71.40221 56.80744 75.94026
#
# Poissons Ratio (x) = 0.35822 0.19706
# Poissons Ratio (y) = 0.45026 0.11379
# Poissons Ratio (z) = 0.18529 0.08512
#
# Static dielectric constant tensor:
#      x y z
#    x 4.548250 -0.197550 -0.034070 
#    y -0.197550 4.650870 0.188610 
#    z -0.034070 0.188610 4.173340 
# 
# 
# High freq. dielectric constant tensor:
#      x y z
#    x 1.909550 -0.003040 -0.001720 
#    y -0.003040 1.910430 0.002090 
#    z -0.001720 0.002090 1.890130 
# 
# From -- ./inp_files/156798.got.cif
#   From: 2010.06.25/outbox.cif.g09.slc.cpg/sg2_79_cif.got.tgz:156798.got - 2010.06.27 13:26:56.
