data_PCOD8031017
_publ_section_title
;
Structure prediction by ZEFSAII (Michael W. Deem and Ramdas Pophale) SiO2 
 PCOD8031017
Probable space group: P -1
;
_chemical_formula_sum "Si O2"
_cell_formula_units_Z 16
_cell_length_a 8.494281
_cell_length_b 18.233682
_cell_length_c 20.475940
_cell_angle_alpha 19.643741
_cell_angle_beta 135.477258
_cell_angle_gamma 136.725777
_cell_volume 725.680050
_symmetry_space_group_name_H-M "P -1"
_symmetry_group_IT_number 2
_symmetry_cell_setting 'triclinic'
loop_
_space_group_symop_operation_xyz
x,y,z
-x,-y,-z
loop_
_atom_site_type_symbol
_atom_site_label
_atom_site_fract_x
_atom_site_fract_y
_atom_site_fract_z
Si Si1 0.111324 0.810730 0.866952
Si Si2 0.536527 0.074631 0.236895
Si Si3 0.760723 0.043321 0.869791
Si Si4 0.405623 0.440447 0.094204
Si Si5 0.148193 0.231426 0.610789
Si Si6 0.528721 0.402908 0.810570
Si Si7 0.635962 0.288262 0.404699
Si Si8 0.414789 0.529575 0.534114
O O1 0.256458 0.944343 0.736298
O O2 0.847465 0.722206 0.844151
O O3 0.133533 0.980274 0.793000
O O4 0.201878 0.589131 0.101165
O O5 0.292269 0.999237 0.188201
O O6 0.523962 0.918300 0.428219
O O7 0.591481 0.330540 0.060311
O O8 0.736031 0.289097 0.676796
O O9 0.569076 0.864368 0.003490
O O10 0.000000 0.000000 0.000000
O O11 0.555724 0.294595 0.300337
O O12 0.500000 0.500000 0.000000
O O13 0.249350 0.285342 0.669608
O O14 0.336549 0.419601 0.469600
O O15 0.900653 0.283497 0.486646
O O16 0.399514 0.482417 0.766538
O O17 0.479463 0.543798 0.617028
#
# Coordination Sequence:
#
# PCOD8031017 Si02
#       8
#     2   2   2   2   2   2   2   2
#     4  11  24  50  71 100 141 188 237 291 343 419
#     4  11  24  47  72 105 135 184 241 283 343 428
#     4  11  22  41  72 105 138 177 235 285 333 415
#     4  12  28  48  71 105 141 181 236 299 361 406
#     4  11  25  44  67 105 149 177 231 285 349 419
#     4  11  23  44  72 101 134 189 236 276 348 418
#     4  12  25  45  73 104 139 183 233 298 348 413
#     4  11  24  45  68 105 144 190 227 276 353 423
#
# _framework density 22.048283999999999
#
# number of rings (size 3 to 8) (size 9 to 14) (size 15 to 20)
#    0.000    0.750    6.250    1.875    3.500    4.000 
#    0.000    0.000    0.000    0.000    0.000    0.000 
#    0.000    0.000    0.000    0.000    0.000    0.000 
#
# Total GULP energy -198280.294556 kJ/mol
# GULP energy per Si atom -12392.518410 kJ/mol
# Density = 2.199810 g / cm^3
# Si number density = 22.048284 Si / 1000 Ang^3
#
#
#
# Elastic Constant Matrix: (Units=GPa)
#
#
# Indices 1 2 3 4 5 6 
#
# 1 100.3556 59.1978 52.5012 21.7977 9.2247 7.0555
# 2 59.1978 115.3839 43.1379 7.6010 4.3686 8.2048
# 3 52.5012 43.1379 105.9774 12.9628 0.6589 3.0855
# 4 21.7977 7.6010 12.9628 47.8072 -8.6789 6.0331
# 5 9.2247 4.3686 0.6589 -8.6789 45.2829 3.5592
# 6 7.0555 8.2048 3.0855 6.0331 3.5592 32.4022
#
#
#
# Elastic Compliance Matrix: (Units=1/GPa)
#
#
# Indices 1 2 3 4 5 6 
#
# 1 0.018927 -0.006969 -0.005683 -0.006769 -0.004392 -0.000073
# 2 -0.006969 0.012982 -0.002029 0.002058 0.000752 -0.002042
# 3 -0.005683 -0.002029 0.013120 -0.000519 0.001025 0.000486
# 4 -0.006769 0.002058 -0.000519 0.025549 0.006435 -0.004462
# 5 -0.004392 0.000752 0.001025 0.006435 0.024376 -0.003207
# 6 -0.000073 -0.002042 0.000486 -0.004462 -0.003207 0.032532
#
#
# Mechanical properties :
#
#
# Convention : Reuss Voigt Hill
#
# Bulk Modulus (GPa) = 63.82101 70.15451 66.98776
# Shear Modulus (GPa) = 30.85107 36.22380 33.53744
#
# Velocity S-wave (km/s) = 3.74471 4.05771 3.90435
# Velocity P-wave (km/s) = 6.90696 7.33764 7.12555
#
# Compressibility (1/GPa) = 0.01566882
#
# Stress axis : x y z
#
# Youngs Moduli (GPa) = 52.83361 77.03119 76.22004
#
# Poissons Ratio (x) = 0.53681 0.43312
# Poissons Ratio (y) = 0.36819 0.15463
# Poissons Ratio (z) = 0.30023 0.15628
#
# Static dielectric constant tensor:
#      x y z
#    x 4.028640 -0.116300 0.068920 
#    y -0.116300 4.509350 0.201530 
#    z 0.068920 0.201530 4.083900 
# 
# 
# High freq. dielectric constant tensor:
#      x y z
#    x 1.862630 -0.004690 0.008290 
#    y -0.004690 1.878240 -0.001020 
#    z 0.008290 -0.001020 1.866610 
# 
# From -- ./inp_files/591198.got.cif
#   From: 2010.06.25/outbox.cif.g09.slc.cpg/sg2_296_cif.got.tgz:591198.got - 2010.06.27 13:26:56.
