data_PCOD8031665
_publ_section_title
;
Structure prediction by ZEFSAII (Michael W. Deem and Ramdas Pophale) SiO2 
 PCOD8031665
Probable space group: P -1
;
_chemical_formula_sum "Si O2"
_cell_formula_units_Z 16
_cell_length_a 13.946435
_cell_length_b 13.732707
_cell_length_c 10.748088
_cell_angle_alpha 88.780525
_cell_angle_beta 115.181195
_cell_angle_gamma 34.184888
_cell_volume 710.772237
_symmetry_space_group_name_H-M "P -1"
_symmetry_group_IT_number 2
_symmetry_cell_setting 'triclinic'
loop_
_space_group_symop_operation_xyz
x,y,z
-x,-y,-z
loop_
_atom_site_type_symbol
_atom_site_label
_atom_site_fract_x
_atom_site_fract_y
_atom_site_fract_z
Si Si1 0.191949 0.271984 0.266804
Si Si2 0.455112 0.208751 0.277082
Si Si3 0.582483 0.823467 0.003721
Si Si4 0.043943 0.709461 0.985998
Si Si5 0.713061 0.302714 0.512043
Si Si6 0.927697 0.903580 0.670429
Si Si7 0.452888 0.481739 0.845893
Si Si8 0.809948 0.998031 0.093881
O O1 0.199070 0.366831 0.191022
O O2 0.162624 0.202751 0.165502
O O3 0.918297 0.516042 0.198755
O O4 0.500000 0.000000 0.500000
O O5 0.697550 0.015947 0.516928
O O6 0.548010 0.071758 0.209282
O O7 0.353801 0.402247 0.173748
O O8 0.432896 0.867253 0.000129
O O9 0.500000 0.000000 0.000000
O O10 0.040057 0.796977 0.876419
O O11 0.974992 0.809327 0.078650
O O12 0.500000 0.500000 0.500000
O O13 0.560617 0.443912 0.290647
O O14 0.826058 0.098450 0.589296
O O15 0.968668 0.162379 0.671135
O O16 0.155458 0.684428 0.698169
O O17 0.500000 0.500000 0.000000
O O18 0.684322 0.203728 0.963396
#
# Coordination Sequence:
#
# PCOD8031665 Si02
#       8
#     2   2   2   2   2   2   2   2
#     4  11  22  45  70 103 140 186 240 295 360 437
#     4  11  23  42  74  96 141 183 236 292 354 431
#     4  11  24  45  72 103 142 185 232 298 366 419
#     4  11  24  44  72 100 138 188 235 289 364 423
#     4  12  28  46  71 103 142 186 238 296 357 420
#     4  12  25  43  71 102 136 185 239 288 355 427
#     4  12  27  45  71 101 143 188 239 290 355 423
#     4  12  26  46  70 102 145 182 237 295 354 423
#
# _framework density 22.510726999999999
#
# number of rings (size 3 to 8) (size 9 to 14) (size 15 to 20)
#    0.000    0.500    2.500    7.125    5.250    1.000 
#    4.500    1.250    0.000    0.000    0.000    0.000 
#    0.000    0.000    0.000    0.000    0.000    0.000 
#
# Total GULP energy -198309.978360 kJ/mol
# GULP energy per Si atom -12394.373648 kJ/mol
# Density = 2.245949 g / cm^3
# Si number density = 22.510727 Si / 1000 Ang^3
#
#
#
# Elastic Constant Matrix: (Units=GPa)
#
#
# Indices 1 2 3 4 5 6 
#
# 1 98.1994 31.7252 31.6772 5.8564 -11.7675 0.8772
# 2 31.7252 120.5262 45.3369 13.7615 2.8368 11.8991
# 3 31.6772 45.3369 118.3207 7.7200 -9.8543 5.7693
# 4 5.8564 13.7615 7.7200 33.3499 -5.3119 -2.9913
# 5 -11.7675 2.8368 -9.8543 -5.3119 41.4926 2.1986
# 6 0.8772 11.8991 5.7693 -2.9913 2.1986 42.2682
#
#
#
# Elastic Compliance Matrix: (Units=1/GPa)
#
#
# Indices 1 2 3 4 5 6 
#
# 1 0.012016 -0.002525 -0.002018 -0.000062 0.003063 0.000573
# 2 -0.002525 0.011017 -0.003371 -0.003987 -0.002636 -0.002734
# 3 -0.002018 -0.003371 0.010516 -0.000401 0.002135 -0.000584
# 4 -0.000062 -0.003987 -0.000401 0.032692 0.004172 0.003275
# 5 0.003063 -0.002636 0.002135 0.004172 0.026227 -0.000682
# 6 0.000573 -0.002734 -0.000584 0.003275 -0.000682 0.024763
#
#
# Mechanical properties :
#
#
# Convention : Reuss Voigt Hill
#
# Bulk Modulus (GPa) = 56.43543 61.61386 59.02464
# Shear Modulus (GPa) = 35.97969 38.64263 37.31116
#
# Velocity S-wave (km/s) = 4.00226 4.14772 4.07564
# Velocity P-wave (km/s) = 6.81779 7.09707 6.95883
#
# Compressibility (1/GPa) = 0.01771936
#
# Stress axis : x y z
#
# Youngs Moduli (GPa) = 83.22366 90.76844 95.09167
#
# Poissons Ratio (x) = 0.22922 0.19191
# Poissons Ratio (y) = 0.21017 0.32059
# Poissons Ratio (z) = 0.16796 0.30601
#
# Static dielectric constant tensor:
#      x y z
#    x 4.379020 -0.124900 0.224360 
#    y -0.124900 3.888960 0.178750 
#    z 0.224360 0.178750 4.076970 
# 
# 
# High freq. dielectric constant tensor:
#      x y z
#    x 1.906550 0.002120 0.007120 
#    y 0.002120 1.883840 -0.005700 
#    z 0.007120 -0.005700 1.899190 
# 
# From -- ./inp_files/315290.got.cif
#   From: 2010.06.25/outbox.cif.g09.slc.cpg/sg2_158_cif.got.tgz:315290.got - 2010.06.27 13:26:56.
