data_PCOD8031868
_publ_section_title
;
Structure prediction by ZEFSAII (Michael W. Deem and Ramdas Pophale) SiO2 
 PCOD8031868
Probable space group: P -1
;
_chemical_formula_sum "Si O2"
_cell_formula_units_Z 16
_cell_length_a 12.722189
_cell_length_b 18.649081
_cell_length_c 9.478370
_cell_angle_alpha 124.825836
_cell_angle_beta 41.054732
_cell_angle_gamma 149.657098
_cell_volume 724.280376
_symmetry_space_group_name_H-M "P -1"
_symmetry_group_IT_number 2
_symmetry_cell_setting 'triclinic'
loop_
_space_group_symop_operation_xyz
x,y,z
-x,-y,-z
loop_
_atom_site_type_symbol
_atom_site_label
_atom_site_fract_x
_atom_site_fract_y
_atom_site_fract_z
Si Si1 0.371525 0.866458 0.073473
Si Si2 0.418552 0.678886 0.505793
Si Si3 0.729337 0.572934 0.737184
Si Si4 0.661550 0.143575 0.579595
Si Si5 0.414022 0.332767 0.172316
Si Si6 0.683331 0.846939 0.153899
Si Si7 0.007660 0.421140 0.009033
Si Si8 0.282367 0.153283 0.338637
O O1 0.320443 0.875605 0.295249
O O2 0.555181 0.861071 0.886045
O O3 0.090985 0.711424 0.114982
O O4 0.500000 0.000000 0.000000
O O5 0.306575 0.541121 0.402166
O O6 0.612115 0.812874 0.352191
O O7 0.574573 0.729760 0.550663
O O8 0.173349 0.636815 0.736734
O O9 0.700083 0.620464 0.681537
O O10 0.040030 0.718069 0.636438
O O11 0.500000 0.500000 0.000000
O O12 0.490514 0.156736 0.754583
O O13 0.500000 0.000000 0.500000
O O14 0.232021 0.195760 0.306527
O O15 0.404812 0.283085 0.972526
O O16 0.702652 0.468156 0.099830
O O17 0.000000 0.000000 0.000000
O O18 0.000000 0.500000 0.000000
O O19 0.000000 0.000000 0.500000
#
# Coordination Sequence:
#
# PCOD8031868 Si02
#       8
#     2   2   2   2   2   2   2   2
#     4  11  26  46  71 105 142 181 238 304 356 423
#     4  11  25  43  73 100 139 184 238 294 356 423
#     4  12  28  46  68 110 146 183 244 298 354 425
#     4  12  29  47  73 103 145 190 237 293 364 430
#     4  12  24  45  74  97 143 191 233 297 355 426
#     4  12  25  47  73 101 143 189 236 295 360 430
#     4  11  22  48  72 101 139 183 240 292 357 427
#     4  11  25  44  70 103 138 187 239 289 362 427
#
# _framework density 22.090893000000001
#
# number of rings (size 3 to 8) (size 9 to 14) (size 15 to 20)
#    0.000    0.500    5.000    3.000    7.000    2.500 
#    0.000    0.000    0.000    0.000    0.000    0.000 
#    0.000    0.000    0.000    0.000    0.000    0.000 
#
# Total GULP energy -198393.777440 kJ/mol
# GULP energy per Si atom -12399.611090 kJ/mol
# Density = 2.204061 g / cm^3
# Si number density = 22.090893 Si / 1000 Ang^3
#
#
#
# Elastic Constant Matrix: (Units=GPa)
#
#
# Indices 1 2 3 4 5 6 
#
# 1 104.8778 39.0108 31.8408 -12.6211 2.0783 -5.3092
# 2 39.0108 162.3036 57.5392 -2.1240 -0.9571 12.6305
# 3 31.8408 57.5392 110.7154 -15.4568 21.3551 11.2421
# 4 -12.6211 -2.1240 -15.4568 46.8537 9.9089 2.7457
# 5 2.0783 -0.9571 21.3551 9.9089 33.0941 -13.6432
# 6 -5.3092 12.6305 11.2421 2.7457 -13.6432 42.7646
#
#
#
# Elastic Compliance Matrix: (Units=1/GPa)
#
#
# Indices 1 2 3 4 5 6 
#
# 1 0.011411 -0.001999 -0.002716 0.001507 0.001853 0.003215
# 2 -0.001999 0.008428 -0.005125 -0.002845 0.004640 0.000273
# 3 -0.002716 -0.005125 0.018651 0.009890 -0.019312 -0.010522
# 4 0.001507 -0.002845 0.009890 0.029548 -0.019386 -0.009654
# 5 0.001853 0.004640 -0.019312 -0.019386 0.058305 0.023782
# 6 0.003215 0.000273 -0.010522 -0.009654 0.023782 0.034676
#
#
# Mechanical properties :
#
#
# Convention : Reuss Voigt Hill
#
# Bulk Modulus (GPa) = 53.16703 70.51981 61.84342
# Shear Modulus (GPa) = 26.74272 41.17620 33.95946
#
# Velocity S-wave (km/s) = 3.48311 4.32203 3.92504
# Velocity P-wave (km/s) = 6.34789 7.54310 6.97116
#
# Compressibility (1/GPa) = 0.01880865
#
# Stress axis : x y z
#
# Youngs Moduli (GPa) = 87.63824 118.65857 53.61752
#
# Poissons Ratio (x) = 0.23724 0.14562
# Poissons Ratio (y) = 0.17522 0.27478
# Poissons Ratio (z) = 0.23802 0.60809
#
# Static dielectric constant tensor:
#      x y z
#    x 4.417680 -0.239540 -0.035150 
#    y -0.239540 4.233240 -0.023500 
#    z -0.035150 -0.023500 4.385100 
# 
# 
# High freq. dielectric constant tensor:
#      x y z
#    x 1.869140 0.001430 0.007550 
#    y 0.001430 1.886860 -0.006600 
#    z 0.007550 -0.006600 1.876510 
# 
# From -- ./inp_files/279695.got.cif
#   From: 2010.06.25/outbox.cif.g09.slc.cpg/sg2_140_cif.got.tgz:279695.got - 2010.06.27 13:26:56.
