data_PCOD8031506
_publ_section_title
;
Structure prediction by ZEFSAII (Michael W. Deem and Ramdas Pophale) SiO2 
 PCOD8031506
Probable space group: P -1
;
_chemical_formula_sum "Si O2"
_cell_formula_units_Z 16
_cell_length_a 9.579689
_cell_length_b 14.730731
_cell_length_c 9.376765
_cell_angle_alpha 38.874571
_cell_angle_beta 72.643444
_cell_angle_gamma 70.427523
_cell_volume 780.908009
_symmetry_space_group_name_H-M "P -1"
_symmetry_group_IT_number 2
_symmetry_cell_setting 'triclinic'
loop_
_space_group_symop_operation_xyz
x,y,z
-x,-y,-z
loop_
_atom_site_type_symbol
_atom_site_label
_atom_site_fract_x
_atom_site_fract_y
_atom_site_fract_z
Si Si1 0.169024 0.027162 0.041265
Si Si2 0.671453 0.005933 0.459402
Si Si3 0.151592 0.852901 0.990974
Si Si4 0.839688 0.466244 0.550264
Si Si5 0.826850 0.686158 0.758290
Si Si6 0.835336 0.410592 0.286556
Si Si7 0.347659 0.835350 0.441546
Si Si8 0.691741 0.725772 0.448050
O O1 0.152785 0.889903 0.113383
O O2 0.292135 0.973348 0.187349
O O3 0.209457 0.156019 0.773947
O O4 0.012265 0.084281 0.097810
O O5 0.763010 0.843201 0.655488
O O6 0.500000 0.000000 0.500000
O O7 0.698857 0.112317 0.449259
O O8 0.724884 0.075492 0.214870
O O9 0.186393 0.678126 0.180647
O O10 0.821503 0.452229 0.404889
O O11 0.711941 0.594871 0.487563
O O12 0.000000 0.500000 0.500000
O O13 0.746846 0.664028 0.660903
O O14 0.001831 0.675971 0.693725
O O15 0.793487 0.560710 0.028202
O O16 0.720232 0.307085 0.403224
O O17 0.522798 0.800691 0.414738
#
# Coordination Sequence:
#
# PCOD8031506 Si02
#       8
#     2   2   2   2   2   2   2   2
#     4  11  22  44  70 101 136 173 230 287 336 395
#     4  12  26  45  69 101 139 183 225 274 348 411
#     4  11  23  42  74  98 135 181 228 282 338 402
#     4  12  24  44  72 101 135 179 234 275 341 403
#     4  11  24  46  70  96 143 182 227 278 341 405
#     4  11  26  45  68 104 136 177 233 285 329 408
#     4  12  27  44  68 103 139 176 227 284 339 403
#     4  12  25  45  70  98 140 186 216 283 348 399
#
# _framework density 20.488969000000001
#
# number of rings (size 3 to 8) (size 9 to 14) (size 15 to 20)
#    0.000    0.500    6.250    1.125    3.500    4.000 
#    0.000    0.000    0.000    0.000    0.000    0.000 
#    0.000    0.000    0.000    0.000    0.000    0.000 
#
# Total GULP energy -198501.622334 kJ/mol
# GULP energy per Si atom -12406.351396 kJ/mol
# Density = 2.044234 g / cm^3
# Si number density = 20.488969 Si / 1000 Ang^3
#
#
#
# Elastic Constant Matrix: (Units=GPa)
#
#
# Indices 1 2 3 4 5 6 
#
# 1 98.7483 26.0361 49.6343 5.7454 -4.2523 -4.3593
# 2 26.0361 125.1412 39.9377 -4.0576 -4.4765 2.7107
# 3 49.6343 39.9377 120.4300 -4.2207 0.9524 -5.1094
# 4 5.7454 -4.0576 -4.2207 33.6611 2.1316 1.0280
# 5 -4.2523 -4.4765 0.9524 2.1316 32.3032 0.8759
# 6 -4.3593 2.7107 -5.1094 1.0280 0.8759 40.7482
#
#
#
# Elastic Compliance Matrix: (Units=1/GPa)
#
#
# Indices 1 2 3 4 5 6 
#
# 1 0.013365 -0.001173 -0.005210 -0.003226 0.001939 0.000894
# 2 -0.001173 0.009153 -0.002575 0.000941 0.001158 -0.001106
# 3 -0.005210 -0.002575 0.011434 0.002079 -0.001545 0.001028
# 4 -0.003226 0.000941 0.002079 0.030809 -0.002365 -0.000873
# 5 0.001939 0.001158 -0.001545 -0.002365 0.031593 -0.000683
# 6 0.000894 -0.001106 0.001028 -0.000873 -0.000683 0.024876
#
#
# Mechanical properties :
#
#
# Convention : Reuss Voigt Hill
#
# Bulk Modulus (GPa) = 62.35916 63.94840 63.15378
# Shear Modulus (GPa) = 34.60456 36.58991 35.59724
#
# Velocity S-wave (km/s) = 4.11413 4.23050 4.17272
# Velocity P-wave (km/s) = 7.28489 7.42575 7.35565
#
# Compressibility (1/GPa) = 0.01603614
#
# Stress axis : x y z
#
# Youngs Moduli (GPa) = 74.82044 109.25824 87.46217
#
# Poissons Ratio (x) = 0.12811 0.45568
# Poissons Ratio (y) = 0.08773 0.22522
# Poissons Ratio (z) = 0.38982 0.28135
#
# Static dielectric constant tensor:
#      x y z
#    x 3.717430 -0.009160 0.053300 
#    y -0.009160 4.038690 -0.083760 
#    z 0.053300 -0.083760 3.728430 
# 
# 
# High freq. dielectric constant tensor:
#      x y z
#    x 1.802780 -0.001410 0.000660 
#    y -0.001410 1.813850 -0.006250 
#    z 0.000660 -0.006250 1.809880 
# 
# From -- ./inp_files/187547.got.cif
#   From: 2010.06.25/outbox.cif.g09.slc.cpg/sg2_94_cif.got.tgz:187547.got - 2010.06.27 13:26:56.
