data_PCOD8031909
_publ_section_title
;
Structure prediction by ZEFSAII (Michael W. Deem and Ramdas Pophale) SiO2 
 PCOD8031909
Probable space group: P -1
;
_chemical_formula_sum "Si O2"
_cell_formula_units_Z 16
_cell_length_a 9.234801
_cell_length_b 15.011540
_cell_length_c 9.304309
_cell_angle_alpha 72.223117
_cell_angle_beta 133.738037
_cell_angle_gamma 78.469105
_cell_volume 711.704123
_symmetry_space_group_name_H-M "P -1"
_symmetry_group_IT_number 2
_symmetry_cell_setting 'triclinic'
loop_
_space_group_symop_operation_xyz
x,y,z
-x,-y,-z
loop_
_atom_site_type_symbol
_atom_site_label
_atom_site_fract_x
_atom_site_fract_y
_atom_site_fract_z
Si Si1 0.718398 0.251715 0.701543
Si Si2 0.296229 0.919162 0.379592
Si Si3 0.395695 0.620187 0.735780
Si Si4 0.066037 0.212253 0.464831
Si Si5 0.900672 0.986491 0.294884
Si Si6 0.531197 0.753560 0.213272
Si Si7 0.167214 0.166350 0.220791
Si Si8 0.281270 0.445245 0.762428
O O1 0.784251 0.121153 0.793914
O O2 0.619708 0.314292 0.450327
O O3 0.507963 0.308665 0.652109
O O4 0.944064 0.254199 0.913858
O O5 0.601410 0.827877 0.645537
O O6 0.153871 0.907654 0.415963
O O7 0.234899 0.044793 0.267853
O O8 0.359600 0.523153 0.709268
O O9 0.205958 0.699473 0.696066
O O10 0.667063 0.561975 0.025808
O O11 0.203093 0.088466 0.704012
O O12 0.211018 0.266245 0.570867
O O13 0.064324 0.192091 0.301493
O O14 0.000000 0.000000 0.500000
O O15 0.691751 0.109101 0.019017
O O16 0.547926 0.686767 0.115223
O O17 0.000000 0.500000 0.500000
#
# Coordination Sequence:
#
# PCOD8031909 Si02
#       8
#     2   2   2   2   2   2   2   2
#     4  12  24  43  67 105 137 179 224 285 337 404
#     4  11  23  38  62  97 143 186 223 266 334 400
#     4  11  26  45  77 102 130 172 235 282 338 411
#     4  12  23  45  67 106 136 186 228 274 335 411
#     4  12  23  40  64 102 141 182 226 278 331 405
#     4  12  26  44  70  98 142 184 223 282 346 397
#     4  11  24  40  64  95 148 185 224 268 336 408
#     4  11  25  51  75  98 130 175 228 288 343 400
#
# _framework density 22.481254
#
# number of rings (size 3 to 8) (size 9 to 14) (size 15 to 20)
#    0.000    0.500    6.250    2.250    0.000    2.500 
#    0.000    0.625    0.000    0.000    0.000    0.000 
#    0.000    0.000    0.000    0.000    0.000    0.000 
#
# Total GULP energy -198235.521574 kJ/mol
# GULP energy per Si atom -12389.720098 kJ/mol
# Density = 2.243009 g / cm^3
# Si number density = 22.481254 Si / 1000 Ang^3
#
#
#
# Elastic Constant Matrix: (Units=GPa)
#
#
# Indices 1 2 3 4 5 6 
#
# 1 98.6742 22.1755 62.3578 14.1809 0.2128 0.0539
# 2 22.1755 99.0826 33.3551 12.1824 -0.1431 9.1654
# 3 62.3578 33.3551 119.1304 20.9917 -7.1572 4.4314
# 4 14.1809 12.1824 20.9917 33.9872 7.0116 2.0422
# 5 0.2128 -0.1431 -7.1572 7.0116 32.6454 4.8330
# 6 0.0539 9.1654 4.4314 2.0422 4.8330 19.9386
#
#
#
# Elastic Compliance Matrix: (Units=1/GPa)
#
#
# Indices 1 2 3 4 5 6 
#
# 1 0.015475 -0.000943 -0.007884 -0.000996 -0.002025 0.002737
# 2 -0.000943 0.011774 -0.002154 -0.002371 0.000818 -0.004886
# 3 -0.007884 -0.002154 0.014536 -0.005754 0.004881 -0.002813
# 4 -0.000996 -0.002371 -0.005754 0.036076 -0.009146 0.000894
# 5 -0.002025 0.000818 0.004881 -0.009146 0.035017 -0.009007
# 6 0.002737 -0.004886 -0.002813 0.000894 -0.009007 0.055109
#
#
# Mechanical properties :
#
#
# Convention : Reuss Voigt Hill
#
# Bulk Modulus (GPa) = 50.44889 61.40711 55.92800
# Shear Modulus (GPa) = 25.43811 30.58081 28.00946
#
# Velocity S-wave (km/s) = 3.36746 3.69220 3.53356
# Velocity P-wave (km/s) = 6.13261 6.74911 6.44823
#
# Compressibility (1/GPa) = 0.01982204
#
# Stress axis : x y z
#
# Youngs Moduli (GPa) = 64.62188 84.93637 68.79501
#
# Poissons Ratio (x) = 0.08009 0.54238
# Poissons Ratio (y) = 0.06093 0.14819
# Poissons Ratio (z) = 0.50948 0.18296
#
# Static dielectric constant tensor:
#      x y z
#    x 3.965970 0.057540 0.260890 
#    y 0.057540 3.783980 0.858350 
#    z 0.260890 0.858350 3.053710 
# 
# 
# High freq. dielectric constant tensor:
#      x y z
#    x 1.881760 0.000600 0.008140 
#    y 0.000600 1.899500 0.023180 
#    z 0.008140 0.023180 1.874810 
# 
# From -- ./inp_files/206533.got.cif
#   From: 2010.06.25/outbox.cif.g09.slc.cpg/sg2_104_cif.got.tgz:206533.got - 2010.06.27 13:26:56.
