data_PCOD8031561
_publ_section_title
;
Structure prediction by ZEFSAII (Michael W. Deem and Ramdas Pophale) SiO2 
 PCOD8031561
Probable space group: P -1
;
_chemical_formula_sum "Si O2"
_cell_formula_units_Z 16
_cell_length_a 17.113421
_cell_length_b 5.581403
_cell_length_c 13.444195
_cell_angle_alpha 105.704784
_cell_angle_beta 33.693997
_cell_angle_gamma 93.206389
_cell_volume 650.433569
_symmetry_space_group_name_H-M "P -1"
_symmetry_group_IT_number 2
_symmetry_cell_setting 'triclinic'
loop_
_space_group_symop_operation_xyz
x,y,z
-x,-y,-z
loop_
_atom_site_type_symbol
_atom_site_label
_atom_site_fract_x
_atom_site_fract_y
_atom_site_fract_z
Si Si1 0.384499 0.399914 0.552028
Si Si2 0.343619 0.163720 0.755178
Si Si3 0.125797 0.424321 0.498966
Si Si4 0.433507 0.358349 0.263108
Si Si5 0.423840 0.198788 0.880503
Si Si6 0.137153 0.161504 0.262224
Si Si7 0.109470 0.686923 0.130604
Si Si8 0.119364 0.851989 0.935456
O O1 0.500000 0.500000 0.500000
O O2 0.405095 0.141340 0.572598
O O3 0.421751 0.394560 0.397194
O O4 0.210877 0.567326 0.763628
O O5 0.458992 0.072335 0.716825
O O6 0.235660 0.995634 0.855806
O O7 0.255742 0.462655 0.913351
O O8 0.275920 0.452769 0.386379
O O9 0.160987 0.179275 0.357494
O O10 0.035004 0.686000 0.564379
O O11 0.023901 0.398088 0.694733
O O12 0.519511 0.546060 0.142680
O O13 0.507028 0.038587 0.138461
O O14 0.245739 0.292923 0.101678
O O15 0.170970 0.859586 0.161801
O O16 0.035343 0.842703 0.126692
O O17 0.000000 0.000000 0.000000
#
# Coordination Sequence:
#
# PCOD8031561 Si02
#       8
#     2   2   2   2   2   2   2   2
#     4  11  25  41  65  99 142 191 237 285 351 437
#     4  11  23  43  69 101 140 193 246 285 367 438
#     4  11  27  46  72 112 137 188 246 316 369 429
#     4  12  30  46  73 111 153 190 244 311 364 427
#     4  12  25  49  75 103 148 201 239 297 370 444
#     4  11  25  48  79  98 142 191 250 301 374 450
#     4  11  22  44  72 103 142 187 242 301 364 442
#     4  11  26  39  67 103 141 187 237 303 359 429
#
# _framework density 24.598977000000001
#
# number of rings (size 3 to 8) (size 9 to 14) (size 15 to 20)
#    0.000    0.750    3.750    1.875    8.750    3.000 
#    0.000    0.000    0.000    0.000    0.000    0.000 
#    0.000    0.000    0.000    0.000    0.000    0.000 
#
# Total GULP energy -198244.520707 kJ/mol
# GULP energy per Si atom -12390.282544 kJ/mol
# Density = 2.454299 g / cm^3
# Si number density = 24.598977 Si / 1000 Ang^3
#
#
#
# Elastic Constant Matrix: (Units=GPa)
#
#
# Indices 1 2 3 4 5 6 
#
# 1 102.6997 16.5631 11.6913 -2.4426 -21.9423 -7.7664
# 2 16.5631 111.0410 5.9025 -8.7335 -19.4382 -4.0698
# 3 11.6913 5.9025 56.5169 -6.2702 -9.3731 -6.1902
# 4 -2.4426 -8.7335 -6.2702 29.2444 4.2527 1.0608
# 5 -21.9423 -19.4382 -9.3731 4.2527 42.7117 2.8124
# 6 -7.7664 -4.0698 -6.1902 1.0608 2.8124 27.3927
#
#
#
# Elastic Compliance Matrix: (Units=1/GPa)
#
#
# Indices 1 2 3 4 5 6 
#
# 1 0.011234 -0.000663 -0.001196 -0.000340 0.005089 0.002307
# 2 -0.000663 0.010005 0.000098 0.002350 0.003946 0.000824
# 3 -0.001196 0.000098 0.019216 0.003474 0.003066 0.003569
# 4 -0.000340 0.002350 0.003474 0.035896 -0.001907 -0.000157
# 5 0.005089 0.003946 0.003066 -0.001907 0.028695 -0.000150
# 6 0.002307 0.000824 0.003569 -0.000157 -0.000150 0.038111
#
#
# Mechanical properties :
#
#
# Convention : Reuss Voigt Hill
#
# Bulk Modulus (GPa) = 27.07681 37.61903 32.34792
# Shear Modulus (GPa) = 31.44852 35.60981 33.52917
#
# Velocity S-wave (km/s) = 3.57942 3.80888 3.69593
# Velocity P-wave (km/s) = 5.30228 5.88808 5.60284
#
# Compressibility (1/GPa) = 0.03693198
#
# Stress axis : x y z
#
# Youngs Moduli (GPa) = 89.01654 99.94798 52.04059
#
# Poissons Ratio (x) = 0.06631 0.06222
# Poissons Ratio (y) = 0.05906 -0.00508
# Poissons Ratio (z) = 0.10643 -0.00977
#
# Static dielectric constant tensor:
#      x y z
#    x 4.524300 -0.285020 0.556700 
#    y -0.285020 4.731840 0.127240 
#    z 0.556700 0.127240 5.822940 
# 
# 
# High freq. dielectric constant tensor:
#      x y z
#    x 1.976910 -0.018670 0.008340 
#    y -0.018670 1.985090 0.004720 
#    z 0.008340 0.004720 1.990450 
# 
# From -- ./inp_files/98468.got.cif
#   From: 2010.06.25/outbox.cif.g09.slc.cpg/sg2_50_cif.got.tgz:98468.got - 2010.06.27 13:26:56.
