data_PCOD8031706
_publ_section_title
;
Structure prediction by ZEFSAII (Michael W. Deem and Ramdas Pophale) SiO2 
 PCOD8031706
Probable space group: P -1
;
_chemical_formula_sum "Si O2"
_cell_formula_units_Z 16
_cell_length_a 9.739593
_cell_length_b 14.420960
_cell_length_c 12.116268
_cell_angle_alpha 104.631310
_cell_angle_beta 85.475743
_cell_angle_gamma 151.942755
_cell_volume 734.672221
_symmetry_space_group_name_H-M "P -1"
_symmetry_group_IT_number 2
_symmetry_cell_setting 'triclinic'
loop_
_space_group_symop_operation_xyz
x,y,z
-x,-y,-z
loop_
_atom_site_type_symbol
_atom_site_label
_atom_site_fract_x
_atom_site_fract_y
_atom_site_fract_z
Si Si1 0.128214 0.498464 0.413812
Si Si2 0.255875 0.074620 0.805794
Si Si3 0.082586 0.473033 0.164918
Si Si4 0.455681 0.731227 0.932474
Si Si5 0.767573 0.590719 0.027649
Si Si6 0.141706 0.297548 0.440930
Si Si7 0.128810 0.982354 0.206722
Si Si8 0.202533 0.035504 0.470391
O O1 0.959728 0.387328 0.272658
O O2 0.094628 0.379458 0.446566
O O3 0.000000 0.500000 0.500000
O O4 0.472643 0.738662 0.428773
O O5 0.590869 0.267693 0.787417
O O6 0.165090 0.129972 0.813089
O O7 0.290835 0.074739 0.934920
O O8 0.991616 0.845411 0.697704
O O9 0.826653 0.370679 0.081526
O O10 0.124696 0.393090 0.087423
O O11 0.332241 0.550409 0.919650
O O12 0.606789 0.811929 0.827556
O O13 0.054280 0.828127 0.128607
O O14 0.500000 0.500000 0.000000
O O15 0.500000 0.500000 0.500000
O O16 0.951268 0.153041 0.519899
O O17 0.256234 0.054078 0.343526
O O18 0.000000 0.000000 0.500000
#
# Coordination Sequence:
#
# PCOD8031706 Si02
#       8
#     2   2   2   2   2   2   2   2
#     4  12  27  48  72 108 148 191 245 300 362 431
#     4  11  22  45  73 103 144 187 236 297 355 428
#     4  11  24  49  71 101 156 189 231 299 358 433
#     4  11  26  46  68 107 149 185 235 292 365 429
#     4  11  24  42  73 106 139 188 236 293 363 416
#     4  12  26  45  80 104 135 198 246 300 366 423
#     4  12  24  42  73 107 143 181 242 304 346 433
#     4  12  24  49  70 106 144 186 248 299 355 427
#
# _framework density 21.778420000000001
#
# number of rings (size 3 to 8) (size 9 to 14) (size 15 to 20)
#    0.000    0.500    6.250    2.625    1.750    4.000 
#    6.750    0.000    0.000    0.000    0.000    0.000 
#    0.000    0.000    0.000    0.000    0.000    0.000 
#
# Total GULP energy -198407.731679 kJ/mol
# GULP energy per Si atom -12400.483230 kJ/mol
# Density = 2.172885 g / cm^3
# Si number density = 21.778420 Si / 1000 Ang^3
#
#
#
# Elastic Constant Matrix: (Units=GPa)
#
#
# Indices 1 2 3 4 5 6 
#
# 1 150.7484 44.8812 58.9187 0.8482 -3.7760 -12.1626
# 2 44.8812 93.4868 47.6915 -6.6483 0.3756 -15.5852
# 3 58.9187 47.6915 158.7976 -13.6182 -3.5705 -13.6309
# 4 0.8482 -6.6483 -13.6182 50.5181 -2.3115 5.5977
# 5 -3.7760 0.3756 -3.5705 -2.3115 40.2228 -0.5692
# 6 -12.1626 -15.5852 -13.6309 5.5977 -0.5692 34.4938
#
#
#
# Elastic Compliance Matrix: (Units=1/GPa)
#
#
# Indices 1 2 3 4 5 6 
#
# 1 0.008474 -0.002813 -0.002305 -0.001220 0.000561 0.001014
# 2 -0.002813 0.014240 -0.002827 0.000668 -0.000550 0.004208
# 3 -0.002305 -0.002827 0.008248 0.001822 0.000660 0.000885
# 4 -0.001220 0.000668 0.001822 0.020755 0.001195 -0.002757
# 5 0.000561 -0.000550 0.000660 0.001195 0.025053 0.000430
# 6 0.001014 0.004208 0.000885 -0.002757 0.000430 0.032053
#
#
# Mechanical properties :
#
#
# Convention : Reuss Voigt Hill
#
# Bulk Modulus (GPa) = 66.33693 78.44619 72.39156
# Shear Modulus (GPa) = 38.53926 41.81638 40.17782
#
# Velocity S-wave (km/s) = 4.21123 4.38663 4.29983
# Velocity P-wave (km/s) = 7.36017 7.85844 7.61338
#
# Compressibility (1/GPa) = 0.01507456
#
# Stress axis : x y z
#
# Youngs Moduli (GPa) = 118.00200 70.22238 121.23452
#
# Poissons Ratio (x) = 0.19752 0.27939
# Poissons Ratio (y) = 0.33192 0.34274
# Poissons Ratio (z) = 0.27194 0.19853
#
# Static dielectric constant tensor:
#      x y z
#    x 3.402660 0.739660 -0.858860 
#    y 0.739660 2.748510 1.372000 
#    z -0.858860 1.372000 2.727420 
# 
# 
# High freq. dielectric constant tensor:
#      x y z
#    x 1.854680 0.002290 0.007730 
#    y 0.002290 1.856090 -0.001960 
#    z 0.007730 -0.001960 1.870640 
# 
# From -- ./inp_files/245855.got.cif
#   From: 2010.06.25/outbox.cif.g09.slc.cpg/sg2_123_cif.got.tgz:245855.got - 2010.06.27 13:26:56.
