data_PCOD8031727
_publ_section_title
;
Structure prediction by ZEFSAII (Michael W. Deem and Ramdas Pophale) SiO2 
 PCOD8031727
Probable space group: P -1
;
_chemical_formula_sum "Si O2"
_cell_formula_units_Z 14
_cell_length_a 8.653927
_cell_length_b 10.629736
_cell_length_c 11.701019
_cell_angle_alpha 60.178950
_cell_angle_beta 122.799084
_cell_angle_gamma 137.499781
_cell_volume 602.098827
_symmetry_space_group_name_H-M "P -1"
_symmetry_group_IT_number 2
_symmetry_cell_setting 'triclinic'
loop_
_space_group_symop_operation_xyz
x,y,z
-x,-y,-z
loop_
_atom_site_type_symbol
_atom_site_label
_atom_site_fract_x
_atom_site_fract_y
_atom_site_fract_z
Si Si1 0.057554 0.564212 0.807851
Si Si2 0.733163 0.955245 0.064288
Si Si3 0.199451 0.692036 0.560570
Si Si4 0.420469 0.852958 0.205162
Si Si5 0.862308 0.749848 0.755731
Si Si6 0.553175 0.439006 0.936508
Si Si7 0.679811 0.938160 0.505678
O O1 0.799443 0.366962 0.767046
O O2 0.023373 0.708642 0.778486
O O3 0.206773 0.640890 0.716213
O O4 0.214711 0.550267 0.965653
O O5 0.555059 0.879705 0.132837
O O6 0.694057 0.772461 0.087125
O O7 0.002860 0.118614 0.138324
O O8 0.672149 0.029769 0.899914
O O9 0.456526 0.794009 0.563527
O O10 0.000000 0.500000 0.500000
O O11 0.158462 0.847103 0.476563
O O12 0.595521 0.932272 0.347188
O O13 0.610847 0.564539 0.790478
O O14 0.827146 0.861676 0.599649
O O15 0.500000 0.500000 0.000000
#
# Coordination Sequence:
#
# PCOD8031727 Si02
#       7
#     2   2   2   2   2   2   2
#     4  12  23  46  74  98 140 186 231 289 344 401
#     4  11  24  44  73  99 133 185 232 282 344 407
#     4  11  24  46  71  99 143 190 224 280 349 416
#     4  11  22  45  74  99 135 185 233 282 342 410
#     4  12  26  45  71 105 139 178 236 289 341 408
#     4  12  26  46  69 103 141 180 232 288 345 414
#     4  11  26  45  70 107 141 180 232 284 346 410
#
# _framework density 23.251996999999999
#
# number of rings (size 3 to 8) (size 9 to 14) (size 15 to 20)
#    0.000    0.571    4.286    4.714    0.000    6.857 
#    0.000    0.000    0.000    0.000    0.000    0.000 
#    0.000    0.000    0.000    0.000    0.000    0.000 
#
# Total GULP energy -173616.517247 kJ/mol
# GULP energy per Si atom -12401.179803 kJ/mol
# Density = 2.319907 g / cm^3
# Si number density = 23.251997 Si / 1000 Ang^3
#
#
#
# Elastic Constant Matrix: (Units=GPa)
#
#
# Indices 1 2 3 4 5 6 
#
# 1 49.7931 20.7183 23.3718 -3.0141 -1.1404 -10.7736
# 2 20.7183 187.1598 49.3811 -0.2319 10.3770 -14.8312
# 3 23.3718 49.3811 148.7746 -5.8283 4.4173 -10.6869
# 4 -3.0141 -0.2319 -5.8283 32.8606 -1.1338 -4.4962
# 5 -1.1404 10.3770 4.4173 -1.1338 36.8240 -3.7201
# 6 -10.7736 -14.8312 -10.6869 -4.4962 -3.7201 30.3077
#
#
#
# Elastic Compliance Matrix: (Units=1/GPa)
#
#
# Indices 1 2 3 4 5 6 
#
# 1 0.023790 -0.001459 -0.002673 0.002804 0.002312 0.007500
# 2 -0.001459 0.006155 -0.001657 -0.000200 -0.001415 0.001706
# 3 -0.002673 -0.001657 0.007835 0.001275 -0.000401 0.001142
# 4 0.002804 -0.000200 0.001275 0.031826 0.001603 0.006267
# 5 0.002312 -0.001415 -0.000401 0.001603 0.028095 0.003675
# 6 0.007500 0.001706 0.001142 0.006267 0.003675 0.038279
#
#
# Mechanical properties :
#
#
# Convention : Reuss Voigt Hill
#
# Bulk Modulus (GPa) = 38.16390 63.63001 50.89695
# Shear Modulus (GPa) = 31.99106 39.48221 35.73664
#
# Velocity S-wave (km/s) = 3.71326 4.12517 3.92462
# Velocity P-wave (km/s) = 5.90196 7.07913 6.51718
#
# Compressibility (1/GPa) = 0.02620278
#
# Stress axis : x y z
#
# Youngs Moduli (GPa) = 42.03400 162.46712 127.62530
#
# Poissons Ratio (x) = 0.23698 0.34118
# Poissons Ratio (y) = 0.06131 0.21149
# Poissons Ratio (z) = 0.11237 0.26923
#
# Static dielectric constant tensor:
#      x y z
#    x 3.990840 -0.029960 -0.118940 
#    y -0.029960 4.663810 -0.195920 
#    z -0.118940 -0.195920 4.227170 
# 
# 
# High freq. dielectric constant tensor:
#      x y z
#    x 1.906360 0.001610 -0.018890 
#    y 0.001610 1.943720 -0.015990 
#    z -0.018890 -0.015990 1.916700 
# 
# From -- ./inp_files/381502.got.cif
#   From: 2010.06.25/outbox.cif.g09.slc.cpg/sg2_191_cif.got.tgz:381502.got - 2010.06.27 13:26:56.
