data_PCOD8031971
_publ_section_title
;
Structure prediction by ZEFSAII (Michael W. Deem and Ramdas Pophale) SiO2 
 PCOD8031971
Probable space group: P -1
;
_chemical_formula_sum "Si O2"
_cell_formula_units_Z 16
_cell_length_a 11.293660
_cell_length_b 9.240511
_cell_length_c 9.450613
_cell_angle_alpha 134.300797
_cell_angle_beta 95.847114
_cell_angle_gamma 97.733649
_cell_volume 672.224383
_symmetry_space_group_name_H-M "P -1"
_symmetry_group_IT_number 2
_symmetry_cell_setting 'triclinic'
loop_
_space_group_symop_operation_xyz
x,y,z
-x,-y,-z
loop_
_atom_site_type_symbol
_atom_site_label
_atom_site_fract_x
_atom_site_fract_y
_atom_site_fract_z
Si Si1 0.178217 0.031066 0.221922
Si Si2 0.369885 0.691979 0.697306
Si Si3 0.098774 0.545312 0.921411
Si Si4 0.584106 0.257327 0.571242
Si Si5 0.665528 0.912037 0.459779
Si Si6 0.359506 0.152655 0.068278
Si Si7 0.684931 0.602016 0.018926
Si Si8 0.094994 0.402283 0.526207
O O1 0.215078 0.068222 0.416820
O O2 0.291761 0.124063 0.191886
O O3 0.080985 0.171976 0.295887
O O4 0.121075 0.781436 0.020986
O O5 0.381895 0.617092 0.486063
O O6 0.497010 0.691247 0.795751
O O7 0.242409 0.537336 0.637824
O O8 0.364426 0.929963 0.856362
O O9 0.213833 0.502749 0.984404
O O10 0.054688 0.386860 0.675455
O O11 0.000000 0.500000 0.000000
O O12 0.444656 0.101290 0.448433
O O13 0.580413 0.407749 0.806430
O O14 0.682892 0.123797 0.514557
O O15 0.637129 0.710706 0.216753
O O16 0.277640 0.237397 0.001294
O O17 0.000000 0.500000 0.500000
#
# Coordination Sequence:
#
# PCOD8031971 Si02
#       8
#     2   2   2   2   2   2   2   2
#     4  12  25  51  76 107 147 189 245 306 372 434
#     4  11  24  46  73 112 156 189 251 298 368 449
#     4  12  30  51  72 107 147 193 251 306 362 439
#     4  11  23  39  69 106 152 187 235 292 370 433
#     4  11  23  41  68 108 144 193 231 297 364 440
#     4  11  25  43  80 113 149 197 236 307 378 438
#     4  12  25  44  71 109 145 191 244 297 369 437
#     4  12  30  49  78 107 145 200 252 302 360 437
#
# _framework density 23.801573999999999
#
# number of rings (size 3 to 8) (size 9 to 14) (size 15 to 20)
#    0.000    0.500    6.250    1.125    5.250    4.000 
#    0.000    0.000    0.000    0.000    0.000    0.000 
#    0.000    0.000    0.000    0.000    0.000    0.000 
#
# Total GULP energy -198253.266350 kJ/mol
# GULP energy per Si atom -12390.829147 kJ/mol
# Density = 2.374740 g / cm^3
# Si number density = 23.801574 Si / 1000 Ang^3
#
#
#
# Elastic Constant Matrix: (Units=GPa)
#
#
# Indices 1 2 3 4 5 6 
#
# 1 57.8761 40.4737 21.4247 2.4396 -11.2199 -1.5723
# 2 40.4737 91.1648 5.2941 0.3040 -6.6600 -10.1000
# 3 21.4247 5.2941 98.4669 -6.7708 -18.5252 -6.0278
# 4 2.4396 0.3040 -6.7708 43.7288 -6.2887 -9.7510
# 5 -11.2199 -6.6600 -18.5252 -6.2887 25.4269 -2.3797
# 6 -1.5723 -10.1000 -6.0278 -9.7510 -2.3797 43.5717
#
#
#
# Elastic Compliance Matrix: (Units=1/GPa)
#
#
# Indices 1 2 3 4 5 6 
#
# 1 0.028802 -0.012426 -0.004968 -0.002176 0.005040 -0.002740
# 2 -0.012426 0.016951 0.002549 0.002212 0.001775 0.004426
# 3 -0.004968 0.002549 0.013499 0.004619 0.009813 0.003849
# 4 -0.002176 0.002212 0.004619 0.026885 0.010350 0.007655
# 5 0.005040 0.001775 0.009813 0.010350 0.052394 0.007129
# 6 -0.002740 0.004426 0.003849 0.007655 0.007129 0.026513
#
#
# Mechanical properties :
#
#
# Convention : Reuss Voigt Hill
#
# Bulk Modulus (GPa) = 33.82737 42.43253 38.12995
# Shear Modulus (GPa) = 24.43955 34.56651 29.50303
#
# Velocity S-wave (km/s) = 3.20785 3.81501 3.52453
# Velocity P-wave (km/s) = 5.28806 6.10509 5.71120
#
# Compressibility (1/GPa) = 0.02956186
#
# Stress axis : x y z
#
# Youngs Moduli (GPa) = 34.72021 58.99496 74.07979
#
# Poissons Ratio (x) = 0.73310 0.36801
# Poissons Ratio (y) = 0.43145 -0.18886
# Poissons Ratio (z) = 0.17248 -0.15041
#
# Static dielectric constant tensor:
#      x y z
#    x 3.904290 -0.264650 -0.171830 
#    y -0.264650 4.358430 0.039250 
#    z -0.171830 0.039250 4.439380 
# 
# 
# High freq. dielectric constant tensor:
#      x y z
#    x 1.921640 -0.025000 -0.021200 
#    y -0.025000 1.948600 -0.003860 
#    z -0.021200 -0.003860 1.959200 
# 
# From -- ./inp_files/246010.got.cif
#   From: 2010.06.25/outbox.cif.g09.slc.cpg/sg2_124_cif.got.tgz:246010.got - 2010.06.27 13:26:56.
