data_PCOD8031371
_publ_section_title
;
Structure prediction by ZEFSAII (Michael W. Deem and Ramdas Pophale) SiO2 
 PCOD8031371
Probable space group: P -1
;
_chemical_formula_sum "Si O2"
_cell_formula_units_Z 16
_cell_length_a 14.918600
_cell_length_b 12.168882
_cell_length_c 8.869558
_cell_angle_alpha 107.596499
_cell_angle_beta 109.942888
_cell_angle_gamma 132.984996
_cell_volume 695.940262
_symmetry_space_group_name_H-M "P -1"
_symmetry_group_IT_number 2
_symmetry_cell_setting 'triclinic'
loop_
_space_group_symop_operation_xyz
x,y,z
-x,-y,-z
loop_
_atom_site_type_symbol
_atom_site_label
_atom_site_fract_x
_atom_site_fract_y
_atom_site_fract_z
Si Si1 0.932470 0.196301 0.683179
Si Si2 0.497864 0.227376 0.015681
Si Si3 0.955358 0.076514 0.072284
Si Si4 0.624604 0.849144 0.609697
Si Si5 0.317795 0.482766 0.045632
Si Si6 0.857507 0.312836 0.475300
Si Si7 0.703716 0.388725 0.493076
Si Si8 0.782113 0.876221 0.202241
O O1 0.977397 0.357479 0.677425
O O2 0.776257 0.066935 0.668538
O O3 0.852116 0.009318 0.451915
O O4 0.125672 0.348970 0.938479
O O5 0.669852 0.375332 0.290545
O O6 0.582359 0.324731 0.935979
O O7 0.410802 0.260120 0.024686
O O8 0.327877 0.950820 0.810313
O O9 0.130768 0.348732 0.241707
O O10 0.945889 0.056820 0.239834
O O11 0.744246 0.893268 0.808796
O O12 0.000000 0.000000 0.000000
O O13 0.460137 0.604573 0.318414
O O14 0.504532 0.818123 0.623280
O O15 0.265426 0.306632 0.862801
O O16 0.783927 0.344777 0.541209
O O17 0.000000 0.500000 0.500000
#
# Coordination Sequence:
#
# PCOD8031371 Si02
#       8
#     2   2   2   2   2   2   2   2
#     4  11  25  46  68 107 141 181 240 294 346 417
#     4  11  23  45  73 106 133 179 245 284 350 421
#     4  12  27  47  69 106 146 188 236 287 350 419
#     4  12  26  45  67 103 148 177 240 276 356 425
#     4  12  24  44  72 102 142 188 228 294 354 410
#     4  11  24  47  77 105 136 180 240 302 345 413
#     4  12  26  45  76 100 142 192 231 292 356 405
#     4  11  22  43  72 101 141 184 234 292 348 414
#
# _framework density 22.990480999999999
#
# number of rings (size 3 to 8) (size 9 to 14) (size 15 to 20)
#    0.000    0.500    3.750    6.375    1.750    1.500 
#    0.000    1.250    0.000    0.000    0.000    0.000 
#    0.000    0.000    0.000    0.000    0.000    0.000 
#
# Total GULP energy -198421.065408 kJ/mol
# GULP energy per Si atom -12401.316588 kJ/mol
# Density = 2.293815 g / cm^3
# Si number density = 22.990481 Si / 1000 Ang^3
#
#
#
# Elastic Constant Matrix: (Units=GPa)
#
#
# Indices 1 2 3 4 5 6 
#
# 1 159.7051 51.0338 42.6693 17.4009 5.1475 -2.4748
# 2 51.0338 115.2666 47.0966 10.8275 -6.2720 3.0409
# 3 42.6693 47.0966 107.7795 0.7209 16.3335 -6.7272
# 4 17.4009 10.8275 0.7209 28.9145 5.2496 -2.7932
# 5 5.1475 -6.2720 16.3335 5.2496 27.5780 -4.1410
# 6 -2.4748 3.0409 -6.7272 -2.7932 -4.1410 47.2556
#
#
#
# Elastic Compliance Matrix: (Units=1/GPa)
#
#
# Indices 1 2 3 4 5 6 
#
# 1 0.007991 -0.002305 -0.002126 -0.003887 -0.000012 0.000033
# 2 -0.002305 0.013072 -0.006021 -0.004891 0.007685 -0.001435
# 3 -0.002126 -0.006021 0.014372 0.005198 -0.010213 0.001734
# 4 -0.003887 -0.004891 0.005198 0.040826 -0.010890 0.002310
# 5 -0.000012 0.007685 -0.010213 -0.010890 0.046353 0.001469
# 6 0.000033 -0.001435 0.001734 0.002310 0.001469 0.021768
#
#
# Mechanical properties :
#
#
# Convention : Reuss Voigt Hill
#
# Bulk Modulus (GPa) = 68.82382 73.81672 71.32027
# Shear Modulus (GPa) = 29.38933 36.87972 33.13453
#
# Velocity S-wave (km/s) = 3.57925 4.00950 3.80047
# Velocity P-wave (km/s) = 6.86164 7.32203 7.09557
#
# Compressibility (1/GPa) = 0.01452985
#
# Stress axis : x y z
#
# Youngs Moduli (GPa) = 125.14454 76.50127 69.57932
#
# Poissons Ratio (x) = 0.17637 0.14794
# Poissons Ratio (y) = 0.28852 0.41891
# Poissons Ratio (z) = 0.26608 0.46059
#
# Static dielectric constant tensor:
#      x y z
#    x 4.323920 0.169880 0.262880 
#    y 0.169880 4.228930 -0.047880 
#    z 0.262880 -0.047880 4.183490 
# 
# 
# High freq. dielectric constant tensor:
#      x y z
#    x 1.914690 0.013400 0.013380 
#    y 0.013400 1.910790 -0.008610 
#    z 0.013380 -0.008610 1.904580 
# 
# From -- ./inp_files/308141.got.cif
#   From: 2010.06.25/outbox.cif.g09.slc.cpg/sg2_155_cif.got.tgz:308141.got - 2010.06.27 13:26:56.
