data_PCOD8031905
_publ_section_title
;
Structure prediction by ZEFSAII (Michael W. Deem and Ramdas Pophale) SiO2 
 PCOD8031905
Probable space group: P -1
;
_chemical_formula_sum "Si O2"
_cell_formula_units_Z 16
_cell_length_a 18.117413
_cell_length_b 14.616286
_cell_length_c 14.081243
_cell_angle_alpha 50.799203
_cell_angle_beta 41.152984
_cell_angle_gamma 20.162534
_cell_volume 798.526053
_symmetry_space_group_name_H-M "P -1"
_symmetry_group_IT_number 2
_symmetry_cell_setting 'triclinic'
loop_
_space_group_symop_operation_xyz
x,y,z
-x,-y,-z
loop_
_atom_site_type_symbol
_atom_site_label
_atom_site_fract_x
_atom_site_fract_y
_atom_site_fract_z
Si Si1 0.117425 0.157968 0.821144
Si Si2 0.527577 0.603475 0.686586
Si Si3 0.417288 0.455580 0.932047
Si Si4 0.884573 0.601673 0.648252
Si Si5 0.368046 0.960095 0.905966
Si Si6 0.124511 0.112311 0.220430
Si Si7 0.466117 0.414325 0.528969
Si Si8 0.097630 0.168597 0.422097
O O1 0.024997 0.362773 0.724019
O O2 0.357631 0.874919 0.712577
O O3 0.201437 0.122327 0.865943
O O4 0.882816 0.286600 0.979694
O O5 0.446091 0.566891 0.852085
O O6 0.455903 0.646203 0.617778
O O7 0.839269 0.332405 0.577860
O O8 0.639791 0.211981 0.795775
O O9 0.479052 0.314051 0.057364
O O10 0.568793 0.878668 0.766601
O O11 0.949055 0.662545 0.595124
O O12 0.000000 0.500000 0.500000
O O13 0.180581 0.152858 0.054809
O O14 0.138693 0.160290 0.277137
O O15 0.842026 0.323520 0.335436
O O16 0.500000 0.500000 0.500000
O O17 0.647780 0.138546 0.578263
#
# Coordination Sequence:
#
# PCOD8031905 Si02
#       8
#     2   2   2   2   2   2   2   2
#     4  11  23  41  66  88 125 167 201 256 312 358
#     4  11  23  38  61 100 122 161 213 245 306 379
#     4   9  21  40  61  92 132 155 203 254 305 371
#     4  11  24  44  64  89 124 162 209 259 307 362
#     4   9  23  40  62  91 121 165 203 250 305 364
#     4   9  22  41  60  94 124 159 211 243 310 370
#     4  11  23  38  66  92 125 169 200 253 311 363
#     4  11  24  40  64  91 128 162 204 263 301 359
#
# _framework density 20.036916000000002
#
# number of rings (size 3 to 8) (size 9 to 14) (size 15 to 20)
#    0.750    1.000    0.000    3.375    3.500    8.000 
#    0.000    1.250    0.000    0.000    0.000    0.000 
#    0.000    0.000    0.000    0.000    0.000    0.000 
#
# Total GULP energy -198356.539898 kJ/mol
# GULP energy per Si atom -12397.283744 kJ/mol
# Density = 1.999131 g / cm^3
# Si number density = 20.036916 Si / 1000 Ang^3
#
#
#
# Elastic Constant Matrix: (Units=GPa)
#
#
# Indices 1 2 3 4 5 6 
#
# 1 100.7344 29.2514 50.5641 -9.3913 5.1753 -2.2321
# 2 29.2514 66.6683 29.5245 4.7135 4.3999 -2.9753
# 3 50.5641 29.5245 101.2116 -5.1073 1.4053 -13.5694
# 4 -9.3913 4.7135 -5.1073 32.9078 5.5894 -3.3625
# 5 5.1753 4.3999 1.4053 5.5894 29.4622 -0.7397
# 6 -2.2321 -2.9753 -13.5694 -3.3625 -0.7397 35.0971
#
#
#
# Elastic Compliance Matrix: (Units=1/GPa)
#
#
# Indices 1 2 3 4 5 6 
#
# 1 0.014597 -0.003883 -0.006112 0.004052 -0.002497 -0.001428
# 2 -0.003883 0.018736 -0.003799 -0.004244 -0.001144 -0.000558
# 3 -0.006112 -0.003799 0.014800 0.001492 0.000782 0.005171
# 4 0.004052 -0.004244 0.001492 0.033850 -0.006481 0.003581
# 5 -0.002497 -0.001144 0.000782 -0.006481 0.035748 0.000179
# 6 -0.001428 -0.000558 0.005171 0.003581 0.000179 0.030700
#
#
# Mechanical properties :
#
#
# Convention : Reuss Voigt Hill
#
# Bulk Modulus (GPa) = 48.67369 54.14380 51.40875
# Shear Modulus (GPa) = 27.34212 30.11170 28.72691
#
# Velocity S-wave (km/s) = 3.69804 3.88082 3.79053
# Velocity P-wave (km/s) = 6.52524 6.86744 6.69852
#
# Compressibility (1/GPa) = 0.02054498
#
# Stress axis : x y z
#
# Youngs Moduli (GPa) = 68.50679 53.37220 67.56918
#
# Poissons Ratio (x) = 0.20725 0.41299
# Poissons Ratio (y) = 0.26603 0.25667
# Poissons Ratio (z) = 0.41872 0.20274
#
# Static dielectric constant tensor:
#      x y z
#    x 3.557650 -0.124750 -0.001280 
#    y -0.124750 3.623460 0.112350 
#    z -0.001280 0.112350 3.746590 
# 
# 
# High freq. dielectric constant tensor:
#      x y z
#    x 1.780480 -0.009420 -0.001050 
#    y -0.009420 1.781680 0.007240 
#    z -0.001050 0.007240 1.792480 
# 
# From -- ./inp_files/538889.got.cif
#   From: 2010.06.25/outbox.cif.g09.slc.cpg/sg2_270_cif.got.tgz:538889.got - 2010.06.27 13:26:56.
