data_PCOD8031209
_publ_section_title
;
Structure prediction by ZEFSAII (Michael W. Deem and Ramdas Pophale) SiO2 
 PCOD8031209
Probable space group: P -1
;
_chemical_formula_sum "Si O2"
_cell_formula_units_Z 16
_cell_length_a 10.563399
_cell_length_b 10.599963
_cell_length_c 15.448669
_cell_angle_alpha 123.970146
_cell_angle_beta 117.527891
_cell_angle_gamma 108.493788
_cell_volume 792.180534
_symmetry_space_group_name_H-M "P -1"
_symmetry_group_IT_number 2
_symmetry_cell_setting 'triclinic'
loop_
_space_group_symop_operation_xyz
x,y,z
-x,-y,-z
loop_
_atom_site_type_symbol
_atom_site_label
_atom_site_fract_x
_atom_site_fract_y
_atom_site_fract_z
Si Si1 0.171248 0.826670 0.843649
Si Si2 0.164464 0.539811 0.971012
Si Si3 0.697013 0.052020 0.548835
Si Si4 0.508175 0.962974 0.129856
Si Si5 0.976585 0.700602 0.999235
Si Si6 0.877675 0.861604 0.820577
Si Si7 0.400263 0.605823 0.380483
Si Si8 0.253612 0.728230 0.509965
O O1 0.332012 0.978175 0.869235
O O2 0.022706 0.856136 0.812474
O O3 0.010161 0.544791 0.673411
O O4 0.326837 0.930793 0.018256
O O5 0.934642 0.291854 0.758914
O O6 0.155340 0.710566 0.061858
O O7 0.202937 0.471431 0.043473
O O8 0.377804 0.711437 0.038187
O O9 0.725438 0.095077 0.470387
O O10 0.500000 0.000000 0.500000
O O11 0.616135 0.814598 0.463902
O O12 0.657793 0.179393 0.329645
O O13 0.839510 0.578743 0.819046
O O14 0.122566 0.978096 0.169224
O O15 0.620039 0.580168 0.653638
O O16 0.000000 0.000000 0.000000
O O17 0.404358 0.730046 0.506940
#
# Coordination Sequence:
#
# PCOD8031209 Si02
#       8
#     2   2   2   2   2   2   2   2
#     4  10  21  38  54  80 114 142 186 226 267 331
#     4  11  20  32  54  86 111 132 191 233 265 324
#     4  10  17  31  49  79 117 140 170 235 272 314
#     4  11  21  33  57  85 106 145 185 229 272 315
#     4  10  19  32  56  79 110 144 179 224 279 316
#     4   9  18  36  57  74 111 148 174 218 281 328
#     4   9  17  31  49  79 109 136 177 213 269 332
#     4  10  18  32  53  80 113 143 179 226 274 312
#
# _framework density 20.197419
#
# number of rings (size 3 to 8) (size 9 to 14) (size 15 to 20)
#    0.000    2.000    3.750    2.625    5.250    0.000 
#    0.000    1.250    8.250    0.000    0.000    4.375 
#    0.000    0.000    0.000    0.000    0.000    0.000 
#
# Total GULP energy -198223.579856 kJ/mol
# GULP energy per Si atom -12388.973741 kJ/mol
# Density = 2.015145 g / cm^3
# Si number density = 20.197419 Si / 1000 Ang^3
#
#
#
# Elastic Constant Matrix: (Units=GPa)
#
#
# Indices 1 2 3 4 5 6 
#
# 1 30.5712 40.0326 24.4584 12.9792 -4.0125 -0.5445
# 2 40.0326 161.3150 47.6416 32.6015 -13.3819 2.2597
# 3 24.4584 47.6416 94.4664 6.9574 -10.2723 0.8244
# 4 12.9792 32.6015 6.9574 50.9364 2.4150 -4.1752
# 5 -4.0125 -13.3819 -10.2723 2.4150 20.1066 5.8007
# 6 -0.5445 2.2597 0.8244 -4.1752 5.8007 29.1130
#
#
#
# Elastic Compliance Matrix: (Units=1/GPa)
#
#
# Indices 1 2 3 4 5 6 
#
# 1 0.055553 -0.009787 -0.008911 -0.006617 0.000527 0.000997
# 2 -0.009787 0.010574 -0.001851 -0.004499 0.005453 -0.002683
# 3 -0.008911 -0.001851 0.014231 0.001208 0.004443 -0.001138
# 4 -0.006617 -0.004499 0.001208 0.024867 -0.008243 0.005400
# 5 0.000527 0.005453 0.004443 -0.008243 0.060716 -0.013819
# 6 0.000997 -0.002683 -0.001138 0.005400 -0.013819 0.038136
#
#
# Mechanical properties :
#
#
# Convention : Reuss Voigt Hill
#
# Bulk Modulus (GPa) = 25.47240 56.73533 41.10387
# Shear Modulus (GPa) = 19.36030 31.64587 25.50308
#
# Velocity S-wave (km/s) = 3.09941 3.96261 3.55729
# Velocity P-wave (km/s) = 5.04456 7.00627 6.10472
#
# Compressibility (1/GPa) = 0.03925817
#
# Stress axis : x y z
#
# Youngs Moduli (GPa) = 18.00097 94.57341 70.27122
#
# Poissons Ratio (x) = 0.92562 0.62621
# Poissons Ratio (y) = 0.17618 0.13006
# Poissons Ratio (z) = 0.16041 0.17504
#
# Static dielectric constant tensor:
#      x y z
#    x 3.238770 -0.134770 -0.169010 
#    y -0.134770 5.160170 0.626360 
#    z -0.169010 0.626360 3.868510 
# 
# 
# High freq. dielectric constant tensor:
#      x y z
#    x 1.703470 0.014620 -0.004330 
#    y 0.014620 1.821300 0.010550 
#    z -0.004330 0.010550 1.800250 
# 
# From -- ./inp_files/519051.got.cif
#   From: 2010.06.25/outbox.cif.g09.slc.cpg/sg2_260_cif.got.tgz:519051.got - 2010.06.27 13:26:56.
