data_PCOD8031013
_publ_section_title
;
Structure prediction by ZEFSAII (Michael W. Deem and Ramdas Pophale) SiO2 
 PCOD8031013
Probable space group: P -1
;
_chemical_formula_sum "Si O2"
_cell_formula_units_Z 14
_cell_length_a 9.719842
_cell_length_b 9.331485
_cell_length_c 8.569105
_cell_angle_alpha 90.096493
_cell_angle_beta 124.657297
_cell_angle_gamma 87.936375
_cell_volume 638.736923
_symmetry_space_group_name_H-M "P -1"
_symmetry_group_IT_number 2
_symmetry_cell_setting 'triclinic'
loop_
_space_group_symop_operation_xyz
x,y,z
-x,-y,-z
loop_
_atom_site_type_symbol
_atom_site_label
_atom_site_fract_x
_atom_site_fract_y
_atom_site_fract_z
Si Si1 0.357138 0.784812 0.787374
Si Si2 0.665038 0.733783 0.488016
Si Si3 0.845359 0.447039 0.497582
Si Si4 0.050810 0.775553 0.170445
Si Si5 0.671641 0.157509 0.875512
Si Si6 0.140361 0.999305 0.461753
Si Si7 0.679773 0.824026 0.837347
O O1 0.273468 0.635534 0.697599
O O2 0.300604 0.905289 0.624422
O O3 0.558521 0.772448 0.897953
O O4 0.302942 0.838262 0.922970
O O5 0.735701 0.574312 0.504739
O O6 0.502978 0.761436 0.277334
O O7 0.612943 0.756171 0.634187
O O8 0.811253 0.839599 0.538854
O O9 0.912741 0.345358 0.678387
O O10 0.000000 0.500000 0.500000
O O11 0.179085 0.758582 0.108997
O O12 0.067344 0.933275 0.256392
O O13 0.135758 0.241268 0.010896
O O14 0.675074 0.995073 0.817722
O O15 0.000000 0.000000 0.500000
#
# Coordination Sequence:
#
# PCOD8031013 Si02
#       7
#     2   2   2   2   2   2   2
#     4  11  26  45  72 102 143 182 233 286 347 415
#     4  12  25  44  72  99 143 186 231 291 342 417
#     4  11  28  50  70 101 142 188 235 282 350 419
#     4  11  26  45  72 102 143 182 233 286 347 415
#     4  12  25  44  74 110 138 180 237 289 349 409
#     4  11  22  41  72 102 137 182 232 291 348 398
#     4  12  25  44  74 110 138 180 237 289 349 409
#
# _framework density 21.918257000000001
#
# number of rings (size 3 to 8) (size 9 to 14) (size 15 to 20)
#    0.000    0.571    2.857    5.571    8.000    3.429 
#    0.000    0.000    0.000    0.000    0.000    0.000 
#    0.000    0.000    0.000    0.000    0.000    0.000 
#
# Total GULP energy -173716.675513 kJ/mol
# GULP energy per Si atom -12408.333965 kJ/mol
# Density = 2.186837 g / cm^3
# Si number density = 21.918257 Si / 1000 Ang^3
#
#
#
# Elastic Constant Matrix: (Units=GPa)
#
#
# Indices 1 2 3 4 5 6 
#
# 1 138.4318 22.7118 11.2926 -3.0283 -1.5954 8.8700
# 2 22.7118 105.7983 16.5309 9.0121 6.0893 -7.0198
# 3 11.2926 16.5309 74.7898 6.7780 -1.8502 -1.9978
# 4 -3.0283 9.0121 6.7780 25.5882 -7.2776 -3.9361
# 5 -1.5954 6.0893 -1.8502 -7.2776 43.1759 4.0755
# 6 8.8700 -7.0198 -1.9978 -3.9361 4.0755 34.3146
#
#
#
# Elastic Compliance Matrix: (Units=1/GPa)
#
#
# Indices 1 2 3 4 5 6 
#
# 1 0.007817 -0.001898 -0.000960 0.001777 0.001040 -0.002384
# 2 -0.001898 0.010773 -0.001738 -0.003908 -0.002554 0.002448
# 3 -0.000960 -0.001738 0.014200 -0.003139 0.000258 0.000329
# 4 0.001777 -0.003908 -0.003139 0.044093 0.007659 0.002707
# 5 0.001040 -0.002554 0.000258 0.007659 0.025134 -0.002883
# 6 -0.002384 0.002448 0.000329 0.002707 -0.002883 0.030931
#
#
# Mechanical properties :
#
#
# Convention : Reuss Voigt Hill
#
# Bulk Modulus (GPa) = 42.37567 46.67672 44.52620
# Shear Modulus (GPa) = 33.33205 38.51471 35.92338
#
# Velocity S-wave (km/s) = 3.90390 4.19644 4.05281
# Velocity P-wave (km/s) = 6.30048 6.69494 6.50070
#
# Compressibility (1/GPa) = 0.02359845
#
# Stress axis : x y z
#
# Youngs Moduli (GPa) = 127.92594 92.82266 70.42467
#
# Poissons Ratio (x) = 0.17613 0.06760
# Poissons Ratio (y) = 0.24274 0.12242
# Poissons Ratio (z) = 0.12279 0.16135
#
# Static dielectric constant tensor:
#      x y z
#    x 4.085840 -0.024880 0.071280 
#    y -0.024880 3.943400 -0.011480 
#    z 0.071280 -0.011480 4.080740 
# 
# 
# High freq. dielectric constant tensor:
#      x y z
#    x 1.884790 -0.002540 0.000820 
#    y -0.002540 1.851720 0.001880 
#    z 0.000820 0.001880 1.867570 
# 
# From -- ./inp_files/159395.got.cif
#   From: 2010.06.25/outbox.cif.g09.slc.cpg/sg2_80_cif.got.tgz:159395.got - 2010.06.27 13:26:56.
