data_PCOD8031087
_publ_section_title
;
Structure prediction by ZEFSAII (Michael W. Deem and Ramdas Pophale) SiO2 
 PCOD8031087
Probable space group: P -1
;
_chemical_formula_sum "Si O2"
_cell_formula_units_Z 16
_cell_length_a 8.967129
_cell_length_b 5.453075
_cell_length_c 18.288316
_cell_angle_alpha 84.747581
_cell_angle_beta 48.378635
_cell_angle_gamma 96.344505
_cell_volume 647.837525
_symmetry_space_group_name_H-M "P -1"
_symmetry_group_IT_number 2
_symmetry_cell_setting 'triclinic'
loop_
_space_group_symop_operation_xyz
x,y,z
-x,-y,-z
loop_
_atom_site_type_symbol
_atom_site_label
_atom_site_fract_x
_atom_site_fract_y
_atom_site_fract_z
Si Si1 0.810655 0.597572 0.856602
Si Si2 0.404807 0.139497 0.370085
Si Si3 0.811640 0.999538 0.247437
Si Si4 0.194063 0.559087 0.487648
Si Si5 0.972807 0.686442 0.307819
Si Si6 0.870789 0.761100 0.089857
Si Si7 0.721512 0.382203 0.033863
Si Si8 0.653376 0.890913 0.777731
O O1 0.693941 0.661844 0.820990
O O2 0.965494 0.433395 0.782702
O O3 0.650661 0.454748 0.974189
O O4 0.953409 0.844692 0.841781
O O5 0.334081 0.357662 0.432737
O O6 0.343375 0.179357 0.305936
O O7 0.648824 0.176774 0.300682
O O8 0.306323 0.852127 0.435315
O O9 0.807883 0.843012 0.329208
O O10 0.754656 0.826178 0.198238
O O11 0.127189 0.523359 0.594873
O O12 0.000000 0.500000 0.500000
O O13 0.179812 0.853862 0.271536
O O14 0.701586 0.588405 0.097062
O O15 0.040146 0.605053 0.059508
O O16 0.000000 0.000000 0.000000
O O17 0.579778 0.112114 0.117336
#
# Coordination Sequence:
#
# PCOD8031087 Si02
#       8
#     2   2   2   2   2   2   2   2
#     4  11  24  46  68 103 150 195 239 304 372 430
#     4  12  29  48  81 112 144 195 251 313 366 455
#     4  11  26  45  70 106 148 189 249 300 375 435
#     4  12  27  51  79 111 149 191 250 308 384 436
#     4  11  26  47  73  98 151 193 235 317 369 440
#     4  11  22  42  67 101 145 195 237 309 359 430
#     4  11  24  40  71 103 145 195 249 295 365 438
#     4  11  26  43  69 108 140 194 247 303 362 447
#
# _framework density 24.697548999999999
#
# number of rings (size 3 to 8) (size 9 to 14) (size 15 to 20)
#    0.000    0.750    3.750    2.250    8.750    2.500 
#    0.000    0.000    0.000    0.000    0.000    0.000 
#    0.000    0.000    0.000    0.000    0.000    0.000 
#
# Total GULP energy -198326.309669 kJ/mol
# GULP energy per Si atom -12395.394354 kJ/mol
# Density = 2.464134 g / cm^3
# Si number density = 24.697549 Si / 1000 Ang^3
#
#
#
# Elastic Constant Matrix: (Units=GPa)
#
#
# Indices 1 2 3 4 5 6 
#
# 1 87.1181 9.1219 29.0230 0.5322 16.2136 0.4257
# 2 9.1219 77.3690 28.8186 -2.9572 10.3372 -9.1486
# 3 29.0230 28.8186 110.0672 -14.3402 20.8562 3.4539
# 4 0.5322 -2.9572 -14.3402 45.4104 -10.6165 2.5817
# 5 16.2136 10.3372 20.8562 -10.6165 42.9306 0.1808
# 6 0.4257 -9.1486 3.4539 2.5817 0.1808 26.4739
#
#
#
# Elastic Compliance Matrix: (Units=1/GPa)
#
#
# Indices 1 2 3 4 5 6 
#
# 1 0.013247 0.000083 -0.003029 -0.002083 -0.004068 0.000442
# 2 0.000083 0.015333 -0.003968 -0.001081 -0.002088 0.005934
# 3 -0.003029 -0.003968 0.011979 0.003049 -0.002953 -0.003162
# 4 -0.002083 -0.001081 0.003049 0.024432 0.005621 -0.003159
# 5 -0.004068 -0.002088 -0.002953 0.005621 0.028161 -0.001011
# 6 0.000442 0.005934 -0.003162 -0.003159 -0.001011 0.040544
#
#
# Mechanical properties :
#
#
# Convention : Reuss Voigt Hill
#
# Bulk Modulus (GPa) = 37.41085 45.38680 41.39883
# Shear Modulus (GPa) = 31.96236 36.80239 34.38238
#
# Velocity S-wave (km/s) = 3.60133 3.86440 3.73518
# Velocity P-wave (km/s) = 5.69853 6.19099 5.94986
#
# Compressibility (1/GPa) = 0.02673021
#
# Stress axis : x y z
#
# Youngs Moduli (GPa) = 75.48996 65.22050 83.47992
#
# Poissons Ratio (x) = -0.00538 0.25285
# Poissons Ratio (y) = -0.00623 0.33122
# Poissons Ratio (z) = 0.22865 0.25878
#
# Static dielectric constant tensor:
#      x y z
#    x 4.932200 -0.239360 -0.143780 
#    y -0.239360 4.389870 0.013720 
#    z -0.143780 0.013720 4.543090 
# 
# 
# High freq. dielectric constant tensor:
#      x y z
#    x 2.002250 -0.005620 0.011810 
#    y -0.005620 1.970700 -0.010960 
#    z 0.011810 -0.010960 1.983240 
# 
# From -- ./inp_files/323847.got.cif
#   From: 2010.06.25/outbox.cif.g09.slc.cpg/sg2_162_cif.got.tgz:323847.got - 2010.06.27 13:26:56.
