data_PCOD8031179
_publ_section_title
;
Structure prediction by ZEFSAII (Michael W. Deem and Ramdas Pophale) SiO2 
 PCOD8031179
Probable space group: P -1
;
_chemical_formula_sum "Si O2"
_cell_formula_units_Z 10
_cell_length_a 19.780004
_cell_length_b 11.036482
_cell_length_c 14.680572
_cell_angle_alpha 32.269573
_cell_angle_beta 20.223048
_cell_angle_gamma 22.817834
_cell_volume 425.104019
_symmetry_space_group_name_H-M "P -1"
_symmetry_group_IT_number 2
_symmetry_cell_setting 'triclinic'
loop_
_space_group_symop_operation_xyz
x,y,z
-x,-y,-z
loop_
_atom_site_type_symbol
_atom_site_label
_atom_site_fract_x
_atom_site_fract_y
_atom_site_fract_z
Si Si1 0.634644 0.920471 0.783956
Si Si2 0.076825 0.897819 0.265306
Si Si3 0.460096 0.591662 0.136149
Si Si4 0.682803 0.705688 0.387293
Si Si5 0.748387 0.584223 0.183128
O O1 0.944406 0.753034 0.514967
O O2 0.488507 0.231929 0.709034
O O3 0.612690 0.699063 0.901315
O O4 0.500000 0.000000 0.000000
O O5 0.184994 0.854481 0.258527
O O6 0.328915 0.726396 0.987632
O O7 0.843072 0.263320 0.302266
O O8 0.383823 0.505968 0.375811
O O9 0.634092 0.806156 0.277746
O O10 0.500000 0.000000 0.500000
O O11 0.004422 0.485184 0.136050
#
# Coordination Sequence:
#
# PCOD8031179 Si02
#       5
#     2   2   2   2   2
#     4  12  26  45  68 103 141 181 231 286 341 407
#     4  11  24  45  71 101 141 181 228 285 341 409
#     4  11  24  44  71 102 137 184 231 278 346 409
#     4  11  22  42  71 104 136 182 228 281 345 404
#     4  11  24  43  70 103 138 180 233 279 342 413
#
# _framework density 23.523652999999999
#
# number of rings (size 3 to 8) (size 9 to 14) (size 15 to 20)
#    0.000    0.800    2.000    6.000    2.800    2.400 
#    3.600    2.000    0.000    0.000    0.000    0.000 
#    0.000    0.000    0.000    0.000    0.000    0.000 
#
# Total GULP energy -123973.244106 kJ/mol
# GULP energy per Si atom -12397.324411 kJ/mol
# Density = 2.347011 g / cm^3
# Si number density = 23.523653 Si / 1000 Ang^3
#
#
#
# Elastic Constant Matrix: (Units=GPa)
#
#
# Indices 1 2 3 4 5 6 
#
# 1 112.3488 28.5690 34.3621 8.0706 9.8198 10.0981
# 2 28.5690 72.7030 14.1232 0.3038 19.6793 11.3312
# 3 34.3621 14.1232 135.5963 -5.1086 4.4115 10.8781
# 4 8.0706 0.3038 -5.1086 31.8614 7.8334 0.2763
# 5 9.8198 19.6793 4.4115 7.8334 51.2050 -9.2094
# 6 10.0981 11.3312 10.8781 0.2763 -9.2094 22.3878
#
#
#
# Elastic Compliance Matrix: (Units=1/GPa)
#
#
# Indices 1 2 3 4 5 6 
#
# 1 0.010927 -0.003305 -0.002329 -0.002943 -0.000594 -0.002332
# 2 -0.003305 0.019556 0.000239 0.003168 -0.009640 -0.012528
# 3 -0.002329 0.000239 0.008372 0.002305 -0.001391 -0.003739
# 4 -0.002943 0.003168 0.002305 0.034214 -0.006925 -0.004666
# 5 -0.000594 -0.009640 -0.001391 -0.006925 0.027635 0.017276
# 6 -0.002332 -0.012528 -0.003739 -0.004666 0.017276 0.061041
#
#
# Mechanical properties :
#
#
# Convention : Reuss Voigt Hill
#
# Bulk Modulus (GPa) = 35.63305 52.75076 44.19190
# Shear Modulus (GPa) = 27.48929 37.33042 32.40985
#
# Velocity S-wave (km/s) = 3.42216 3.98795 3.71584
# Velocity P-wave (km/s) = 5.54937 6.60895 6.10220
#
# Compressibility (1/GPa) = 0.02806384
#
# Stress axis : x y z
#
# Youngs Moduli (GPa) = 91.52021 51.13641 119.44159
#
# Poissons Ratio (x) = 0.16899 0.27821
# Poissons Ratio (y) = 0.30244 -0.02850
# Poissons Ratio (z) = 0.21317 -0.01220
#
# Static dielectric constant tensor:
#      x y z
#    x 4.383000 0.066180 -0.051760 
#    y 0.066180 4.053260 -0.101260 
#    z -0.051760 -0.101260 4.382980 
# 
# 
# High freq. dielectric constant tensor:
#      x y z
#    x 1.930470 0.006260 0.007630 
#    y 0.006260 1.919580 -0.009640 
#    z 0.007630 -0.009640 1.950810 
# 
# From -- ./inp_files/152002.got.cif
#   From: 2010.06.25/outbox.cif.g09.slc.cpg/sg2_77_cif.got.tgz:152002.got - 2010.06.27 13:26:56.
