data_PCOD8031224
_publ_section_title
;
Structure prediction by ZEFSAII (Michael W. Deem and Ramdas Pophale) SiO2 
 PCOD8031224
Probable space group: P -1
;
_chemical_formula_sum "Si O2"
_cell_formula_units_Z 16
_cell_length_a 15.249435
_cell_length_b 8.201709
_cell_length_c 11.270740
_cell_angle_alpha 139.206843
_cell_angle_beta 107.544353
_cell_angle_gamma 51.579196
_cell_volume 681.071713
_symmetry_space_group_name_H-M "P -1"
_symmetry_group_IT_number 2
_symmetry_cell_setting 'triclinic'
loop_
_space_group_symop_operation_xyz
x,y,z
-x,-y,-z
loop_
_atom_site_type_symbol
_atom_site_label
_atom_site_fract_x
_atom_site_fract_y
_atom_site_fract_z
Si Si1 0.361965 0.352287 0.228466
Si Si2 0.715138 0.656442 0.227853
Si Si3 0.039179 0.959375 0.628523
Si Si4 0.516227 0.238319 0.778906
Si Si5 0.778016 0.695305 0.529309
Si Si6 0.573704 0.261971 0.170172
Si Si7 0.809055 0.217581 0.809474
Si Si8 0.753428 0.087394 0.338628
O O1 0.486937 0.283171 0.241852
O O2 0.301953 0.499221 0.156897
O O3 0.284851 0.586841 0.434616
O O4 0.387072 0.011845 0.064307
O O5 0.575524 0.825755 0.263454
O O6 0.770482 0.553975 0.325317
O O7 0.731310 0.904506 0.320021
O O8 0.787384 0.334368 0.000816
O O9 0.126125 0.587954 0.500348
O O10 0.108650 0.105645 0.745327
O O11 0.000000 0.000000 0.500000
O O12 0.925868 0.156147 0.776021
O O13 0.488923 0.389395 0.719303
O O14 0.649299 0.907498 0.656124
O O15 0.500000 0.500000 0.000000
O O16 0.821367 0.900385 0.631701
O O17 0.689048 0.160105 0.228490
#
# Coordination Sequence:
#
# PCOD8031224 Si02
#       8
#     2   2   2   2   2   2   2   2
#     4  11  22  42  73 104 150 188 231 298 361 428
#     4  12  25  46  75 111 149 187 240 301 366 437
#     4  12  28  50  76 103 143 200 251 304 359 425
#     4  12  25  45  74 109 150 193 233 297 371 438
#     4  12  26  49  75 107 147 191 244 298 366 433
#     4  11  24  42  69 111 148 186 236 292 366 433
#     4  12  24  50  73 106 147 196 245 295 360 428
#     4  12  25  44  72 108 143 195 242 296 359 427
#
# _framework density 23.49239
#
# number of rings (size 3 to 8) (size 9 to 14) (size 15 to 20)
#    0.000    0.250    6.250    1.875    3.500    2.000 
#    0.000    0.000    0.000    0.000    0.000    0.000 
#    0.000    0.000    0.000    0.000    0.000    0.000 
#
# Total GULP energy -198458.408712 kJ/mol
# GULP energy per Si atom -12403.650544 kJ/mol
# Density = 2.343892 g / cm^3
# Si number density = 23.492390 Si / 1000 Ang^3
#
#
#
# Elastic Constant Matrix: (Units=GPa)
#
#
# Indices 1 2 3 4 5 6 
#
# 1 157.3753 45.5208 37.4606 -2.9346 -4.9312 -16.8619
# 2 45.5208 104.6350 10.2166 10.4540 4.6124 -10.8381
# 3 37.4606 10.2166 98.5941 -14.3150 -5.8262 -12.3769
# 4 -2.9346 10.4540 -14.3150 29.4193 4.8693 11.5441
# 5 -4.9312 4.6124 -5.8262 4.8693 28.9082 2.3241
# 6 -16.8619 -10.8381 -12.3769 11.5441 2.3241 38.1277
#
#
#
# Elastic Compliance Matrix: (Units=1/GPa)
#
#
# Indices 1 2 3 4 5 6 
#
# 1 0.008079 -0.003110 -0.002471 -0.000239 0.001265 0.001882
# 2 -0.003110 0.012049 -0.000578 -0.006061 -0.001855 0.003810
# 3 -0.002471 -0.000578 0.012099 0.005262 0.001142 0.001008
# 4 -0.000239 -0.006061 0.005262 0.044668 -0.004462 -0.013373
# 5 0.001265 -0.001855 0.001142 -0.004462 0.036122 -0.000448
# 6 0.001882 0.003810 0.001008 -0.013373 -0.000448 0.032546
#
#
# Mechanical properties :
#
#
# Convention : Reuss Voigt Hill
#
# Bulk Modulus (GPa) = 50.23114 60.77781 55.50448
# Shear Modulus (GPa) = 30.39196 37.11812 33.75504
#
# Velocity S-wave (km/s) = 3.60070 3.97924 3.79469
# Velocity P-wave (km/s) = 6.22214 6.85857 6.54809
#
# Compressibility (1/GPa) = 0.01990797
#
# Stress axis : x y z
#
# Youngs Moduli (GPa) = 123.77916 82.99745 82.64953
#
# Poissons Ratio (x) = 0.25815 0.20422
# Poissons Ratio (y) = 0.38500 0.04778
# Poissons Ratio (z) = 0.30585 0.04798
#
# Static dielectric constant tensor:
#      x y z
#    x 4.557990 -0.025940 0.073400 
#    y -0.025940 4.302290 -0.075380 
#    z 0.073400 -0.075380 4.182520 
# 
# 
# High freq. dielectric constant tensor:
#      x y z
#    x 1.946860 0.004320 0.004770 
#    y 0.004320 1.931540 -0.009840 
#    z 0.004770 -0.009840 1.924430 
# 
# From -- ./inp_files/448372.got.cif
#   From: 2010.06.25/outbox.cif.g09.slc.cpg/sg2_225_cif.got.tgz:448372.got - 2010.06.27 13:26:56.
