data_PCOD8031964
_publ_section_title
;
Structure prediction by ZEFSAII (Michael W. Deem and Ramdas Pophale) SiO2 
 PCOD8031964
Probable space group: P -1
;
_chemical_formula_sum "Si O2"
_cell_formula_units_Z 14
_cell_length_a 14.655758
_cell_length_b 15.001423
_cell_length_c 11.292454
_cell_angle_alpha 129.466127
_cell_angle_beta 128.808790
_cell_angle_gamma 19.893691
_cell_volume 648.200656
_symmetry_space_group_name_H-M "P -1"
_symmetry_group_IT_number 2
_symmetry_cell_setting 'triclinic'
loop_
_space_group_symop_operation_xyz
x,y,z
-x,-y,-z
loop_
_atom_site_type_symbol
_atom_site_label
_atom_site_fract_x
_atom_site_fract_y
_atom_site_fract_z
Si Si1 0.027552 0.716937 0.500705
Si Si2 0.066976 0.453017 0.649158
Si Si3 0.593941 0.225744 0.431289
Si Si4 0.140385 0.975560 0.171007
Si Si5 0.644309 0.020373 0.819077
Si Si6 0.754852 0.273961 0.752526
Si Si7 0.649495 0.169824 0.155400
O O1 0.283454 0.519832 0.462268
O O2 0.034033 0.574057 0.396422
O O3 0.047300 0.771729 0.687074
O O4 0.749798 0.991945 0.438085
O O5 0.387307 0.180751 0.696263
O O6 0.000000 0.500000 0.500000
O O7 0.905870 0.707049 0.779077
O O8 0.733896 0.225538 0.569246
O O9 0.614516 0.173897 0.267741
O O10 0.310010 0.907663 0.165537
O O11 0.327028 0.740375 0.218655
O O12 0.000000 0.000000 0.000000
O O13 0.587878 0.107692 0.981808
O O14 0.560266 0.553669 0.833044
O O15 0.057905 0.045546 0.823741
#
# Coordination Sequence:
#
# PCOD8031964 Si02
#       7
#     2   2   2   2   2   2   2
#     4  11  25  45  70  99 129 179 228 275 327 395
#     4  12  26  47  71  97 134 178 228 271 329 401
#     4  11  24  43  68  97 134 178 229 269 326 398
#     4  11  24  43  67 107 141 169 214 281 345 396
#     4  12  27  43  70 102 136 175 223 275 339 392
#     4  11  23  39  67  97 139 182 219 262 334 411
#     4  12  24  44  64  99 139 178 220 274 330 398
#
# _framework density 21.598251000000001
#
# number of rings (size 3 to 8) (size 9 to 14) (size 15 to 20)
#    0.000    0.571    2.857    5.571    4.000    1.714 
#    0.000    4.286    0.000    0.000    0.000    0.000 
#    0.000    0.000    0.000    0.000    0.000    0.000 
#
# Total GULP energy -173568.293565 kJ/mol
# GULP energy per Si atom -12397.735255 kJ/mol
# Density = 2.154909 g / cm^3
# Si number density = 21.598251 Si / 1000 Ang^3
#
#
#
# Elastic Constant Matrix: (Units=GPa)
#
#
# Indices 1 2 3 4 5 6 
#
# 1 73.3895 28.1278 51.9594 4.7987 2.7113 4.9274
# 2 28.1278 122.8542 29.8662 5.1769 0.9848 4.4562
# 3 51.9594 29.8662 145.8829 7.7341 -15.0623 6.0311
# 4 4.7987 5.1769 7.7341 31.7948 -3.8858 9.1871
# 5 2.7113 0.9848 -15.0623 -3.8858 37.3265 2.6974
# 6 4.9274 4.4562 6.0311 9.1871 2.6974 29.7106
#
#
#
# Elastic Compliance Matrix: (Units=1/GPa)
#
#
# Indices 1 2 3 4 5 6 
#
# 1 0.019799 -0.002764 -0.006826 -0.001176 -0.004189 -0.000740
# 2 -0.002764 0.009031 -0.000849 -0.000770 -0.000428 -0.000447
# 3 -0.006826 -0.000849 0.009999 -0.000395 0.004589 -0.001065
# 4 -0.001176 -0.000770 -0.000395 0.035576 0.004446 -0.011014
# 5 -0.004189 -0.000428 0.004589 0.004446 0.029727 -0.004246
# 6 -0.000740 -0.000447 -0.001065 -0.011014 -0.004246 0.037855
#
#
# Mechanical properties :
#
#
# Convention : Reuss Voigt Hill
#
# Bulk Modulus (GPa) = 55.70705 62.44816 59.07761
# Shear Modulus (GPa) = 29.61234 35.24462 32.42848
#
# Velocity S-wave (km/s) = 3.70679 4.04397 3.87905
# Velocity P-wave (km/s) = 6.64596 7.12609 6.89021
#
# Compressibility (1/GPa) = 0.01795105
#
# Stress axis : x y z
#
# Youngs Moduli (GPa) = 50.50777 110.72866 100.01475
#
# Poissons Ratio (x) = 0.30603 0.68265
# Poissons Ratio (y) = 0.13959 0.08496
# Poissons Ratio (z) = 0.34474 0.09406
#
# Static dielectric constant tensor:
#      x y z
#    x 3.743660 0.065150 -0.050600 
#    y 0.065150 4.033650 0.040850 
#    z -0.050600 0.040850 4.187380 
# 
# 
# High freq. dielectric constant tensor:
#      x y z
#    x 1.836950 0.006990 -0.000990 
#    y 0.006990 1.858770 0.002880 
#    z -0.000990 0.002880 1.863150 
# 
# From -- ./inp_files/78338.got.cif
#   From: 2010.06.25/outbox.cif.g09.slc.cpg/sg2_40_cif.got.tgz:78338.got - 2010.06.27 13:26:56.
