data_PCOD8031456
_publ_section_title
;
Structure prediction by ZEFSAII (Michael W. Deem and Ramdas Pophale) SiO2 
 PCOD8031456
Probable space group: P -1
;
_chemical_formula_sum "Si O2"
_cell_formula_units_Z 16
_cell_length_a 18.370259
_cell_length_b 14.375198
_cell_length_c 23.485296
_cell_angle_alpha 19.496500
_cell_angle_beta 157.595252
_cell_angle_gamma 148.435276
_cell_volume 779.647704
_symmetry_space_group_name_H-M "P -1"
_symmetry_group_IT_number 2
_symmetry_cell_setting 'triclinic'
loop_
_space_group_symop_operation_xyz
x,y,z
-x,-y,-z
loop_
_atom_site_type_symbol
_atom_site_label
_atom_site_fract_x
_atom_site_fract_y
_atom_site_fract_z
Si Si1 0.107091 0.683068 0.271728
Si Si2 0.525995 0.815850 0.332745
Si Si3 0.423022 0.806769 0.745358
Si Si4 0.146848 0.119746 0.836134
Si Si5 0.442156 0.916629 0.421631
Si Si6 0.184399 0.218544 0.161364
Si Si7 0.046059 0.620281 0.556486
Si Si8 0.065119 0.287220 0.363737
O O1 0.334890 0.687863 0.443636
O O2 0.023753 0.544350 0.346104
O O3 0.086031 0.492404 0.312554
O O4 0.000000 0.000000 0.000000
O O5 0.500000 0.500000 0.500000
O O6 0.733383 0.835619 0.447217
O O7 0.508080 0.961016 0.297825
O O8 0.358489 0.946338 0.093589
O O9 0.190982 0.832144 0.559486
O O10 0.515218 0.839933 0.731052
O O11 0.500000 0.500000 0.000000
O O12 0.154524 0.398145 0.718164
O O13 0.124182 0.192873 0.710286
O O14 0.976499 0.955386 0.830151
O O15 0.646263 0.757825 0.684364
O O16 0.289748 0.056840 0.277111
O O17 0.082927 0.534815 0.890344
O O18 0.000000 0.000000 0.500000
#
# Coordination Sequence:
#
# PCOD8031456 Si02
#       8
#     2   2   2   2   2   2   2   2
#     4  12  23  45  71 100 132 177 230 273 325 401
#     4  12  26  44  68  95 138 184 217 267 343 405
#     4  12  24  41  66 106 130 167 234 278 317 395
#     4  11  22  44  67 101 138 175 220 277 341 392
#     4  11  24  40  73 100 130 176 226 278 333 391
#     4  11  23  44  66 100 139 175 219 277 345 392
#     4  11  23  40  70 102 132 168 226 287 324 382
#     4  12  27  45  68 100 140 176 220 278 339 397
#
# _framework density 20.522089000000001
#
# number of rings (size 3 to 8) (size 9 to 14) (size 15 to 20)
#    0.000    0.500    6.250    2.250    1.750    1.000 
#    0.000    7.500    0.000    0.000    0.000    0.000 
#    0.000    0.000    0.000    0.000    0.000    0.000 
#
# Total GULP energy -198380.170065 kJ/mol
# GULP energy per Si atom -12398.760629 kJ/mol
# Density = 2.047538 g / cm^3
# Si number density = 20.522089 Si / 1000 Ang^3
#
#
#
# Elastic Constant Matrix: (Units=GPa)
#
#
# Indices 1 2 3 4 5 6 
#
# 1 96.6320 22.4518 39.7269 3.1770 -19.8295 12.6096
# 2 22.4518 120.3084 39.5442 5.9351 -8.4912 -0.6945
# 3 39.7269 39.5442 142.2133 16.0252 -13.0694 -3.5850
# 4 3.1770 5.9351 16.0252 40.8206 2.0893 0.8900
# 5 -19.8295 -8.4912 -13.0694 2.0893 33.0647 0.8689
# 6 12.6096 -0.6945 -3.5850 0.8900 0.8689 41.7601
#
#
#
# Elastic Compliance Matrix: (Units=1/GPa)
#
#
# Indices 1 2 3 4 5 6 
#
# 1 0.013893 -0.001128 -0.003047 0.000024 0.006958 -0.004621
# 2 -0.001128 0.009311 -0.002130 -0.000482 0.000895 0.000304
# 3 -0.003047 -0.002130 0.008988 -0.003087 0.001329 0.001694
# 4 0.000024 -0.000482 -0.003087 0.025945 -0.002949 -0.000772
# 5 0.006958 0.000895 0.001329 -0.002949 0.035428 -0.002646
# 6 -0.004621 0.000304 0.001694 -0.000772 -0.002646 0.025564
#
#
# Mechanical properties :
#
#
# Convention : Reuss Voigt Hill
#
# Bulk Modulus (GPa) = 51.06542 62.51104 56.78823
# Shear Modulus (GPa) = 36.16225 40.29114 38.22670
#
# Velocity S-wave (km/s) = 4.20231 4.43573 4.32059
# Velocity P-wave (km/s) = 6.96297 7.53397 7.25409
#
# Compressibility (1/GPa) = 0.01958273
#
# Stress axis : x y z
#
# Youngs Moduli (GPa) = 71.97696 107.39719 111.26301
#
# Poissons Ratio (x) = 0.12114 0.33903
# Poissons Ratio (y) = 0.08119 0.23696
# Poissons Ratio (z) = 0.21932 0.22872
#
# Static dielectric constant tensor:
#      x y z
#    x 3.630510 -0.114920 -0.192080 
#    y -0.114920 4.094110 0.244710 
#    z -0.192080 0.244710 3.836850 
# 
# 
# High freq. dielectric constant tensor:
#      x y z
#    x 1.803170 0.008150 -0.020110 
#    y 0.008150 1.818950 0.016020 
#    z -0.020110 0.016020 1.803320 
# 
# From -- ./inp_files/457414.got.cif
#   From: 2010.06.25/outbox.cif.g09.slc.cpg/sg2_229_cif.got.tgz:457414.got - 2010.06.27 13:26:56.
