data_PCOD8031573
_publ_section_title
;
Structure prediction by ZEFSAII (Michael W. Deem and Ramdas Pophale) SiO2 
 PCOD8031573
Probable space group: P -1
;
_chemical_formula_sum "Si O2"
_cell_formula_units_Z 14
_cell_length_a 21.539258
_cell_length_b 9.251450
_cell_length_c 12.240739
_cell_angle_alpha 59.811971
_cell_angle_beta 150.490509
_cell_angle_gamma 139.801950
_cell_volume 667.395298
_symmetry_space_group_name_H-M "P -1"
_symmetry_group_IT_number 2
_symmetry_cell_setting 'triclinic'
loop_
_space_group_symop_operation_xyz
x,y,z
-x,-y,-z
loop_
_atom_site_type_symbol
_atom_site_label
_atom_site_fract_x
_atom_site_fract_y
_atom_site_fract_z
Si Si1 0.380796 0.730541 0.696464
Si Si2 0.197967 0.891541 0.729355
Si Si3 0.459317 0.066347 0.517847
Si Si4 0.917359 0.871341 0.543099
Si Si5 0.127716 0.006191 0.033592
Si Si6 0.868680 0.644793 0.972155
Si Si7 0.871392 0.346181 0.505986
O O1 0.255086 0.436441 0.608857
O O2 0.328730 0.791501 0.696967
O O3 0.341028 0.812867 0.504572
O O4 0.605996 0.908595 0.976471
O O5 0.194626 0.754001 0.680029
O O6 0.023292 0.656513 0.631978
O O7 0.171444 0.046889 0.578259
O O8 0.319329 0.084868 0.286937
O O9 0.668696 0.336061 0.784300
O O10 0.500000 0.000000 0.500000
O O11 0.000000 0.000000 0.500000
O O12 0.072507 0.972617 0.834054
O O13 0.183459 0.235383 0.092131
O O14 0.949504 0.748728 0.931966
O O15 0.037583 0.723247 0.269720
#
# Coordination Sequence:
#
# PCOD8031573 Si02
#       7
#     2   2   2   2   2   2   2
#     4  12  25  43  69  99 135 178 226 278 339 402
#     4  11  24  45  68  99 136 179 225 275 342 404
#     4  12  27  43  71 104 135 176 227 286 340 408
#     4  12  26  45  66  98 140 181 218 279 342 405
#     4  11  26  47  71  97 137 182 227 283 342 402
#     4  11  23  48  71 100 135 177 235 280 339 404
#     4  11  22  44  72  99 133 178 226 280 338 402
#
# _framework density 20.977073000000001
#
# number of rings (size 3 to 8) (size 9 to 14) (size 15 to 20)
#    0.000    0.571    5.714    2.143    4.000    1.143 
#    5.143    0.000    0.000    0.000    0.000    0.000 
#    0.000    0.000    0.000    0.000    0.000    0.000 
#
# Total GULP energy -173528.624682 kJ/mol
# GULP energy per Si atom -12394.901763 kJ/mol
# Density = 2.092933 g / cm^3
# Si number density = 20.977073 Si / 1000 Ang^3
#
#
#
# Elastic Constant Matrix: (Units=GPa)
#
#
# Indices 1 2 3 4 5 6 
#
# 1 81.0046 25.3720 9.5593 9.9423 -4.5321 5.7529
# 2 25.3720 127.0350 20.7688 4.2678 -2.8129 -1.0382
# 3 9.5593 20.7688 75.6269 -1.3727 -6.1475 -2.8208
# 4 9.9423 4.2678 -1.3727 35.2685 -0.5796 -0.4874
# 5 -4.5321 -2.8129 -6.1475 -0.5796 33.0856 -9.0802
# 6 5.7529 -1.0382 -2.8208 -0.4874 -9.0802 36.0659
#
#
#
# Elastic Compliance Matrix: (Units=1/GPa)
#
#
# Indices 1 2 3 4 5 6 
#
# 1 0.013910 -0.002464 -0.001166 -0.003686 0.000803 -0.002229
# 2 -0.002464 0.008723 -0.002060 -0.000431 0.000155 0.000516
# 3 -0.001166 -0.002060 0.014266 0.001208 0.002882 0.001984
# 4 -0.003686 -0.000431 0.001208 0.029518 0.000530 0.001202
# 5 0.000803 0.000155 0.002882 0.000530 0.033218 0.008472
# 6 -0.002229 0.000516 0.001984 0.001202 0.008472 0.030402
#
#
# Mechanical properties :
#
#
# Convention : Reuss Voigt Hill
#
# Bulk Modulus (GPa) = 39.18747 43.89629 41.54188
# Shear Modulus (GPa) = 33.35043 36.08175 34.71609
#
# Velocity S-wave (km/s) = 3.99162 4.15186 4.07253
# Velocity P-wave (km/s) = 6.32184 6.62987 6.47769
#
# Compressibility (1/GPa) = 0.02551836
#
# Stress axis : x y z
#
# Youngs Moduli (GPa) = 71.89049 114.64049 70.09610
#
# Poissons Ratio (x) = 0.28248 0.08175
# Poissons Ratio (y) = 0.17714 0.14440
# Poissons Ratio (z) = 0.08385 0.23616
#
# Static dielectric constant tensor:
#      x y z
#    x 3.852880 0.006260 0.066390 
#    y 0.006260 4.044300 -0.120130 
#    z 0.066390 -0.120130 3.587350 
# 
# 
# High freq. dielectric constant tensor:
#      x y z
#    x 1.832240 -0.004600 0.003080 
#    y -0.004600 1.840340 -0.006790 
#    z 0.003080 -0.006790 1.818470 
# 
# From -- ./inp_files/28270.got.cif
#   From: 2010.06.25/outbox.cif.g09.slc.cpg/sg2_15_cif.got.tgz:28270.got - 2010.06.27 13:26:56.
