data_PCOD8031839
_publ_section_title
;
Structure prediction by ZEFSAII (Michael W. Deem and Ramdas Pophale) SiO2 
 PCOD8031839
Probable space group: P -1
;
_chemical_formula_sum "Si O2"
_cell_formula_units_Z 14
_cell_length_a 8.377725
_cell_length_b 18.332223
_cell_length_c 9.052271
_cell_angle_alpha 123.812924
_cell_angle_beta 53.560424
_cell_angle_gamma 80.892886
_cell_volume 633.805099
_symmetry_space_group_name_H-M "P -1"
_symmetry_group_IT_number 2
_symmetry_cell_setting 'triclinic'
loop_
_space_group_symop_operation_xyz
x,y,z
-x,-y,-z
loop_
_atom_site_type_symbol
_atom_site_label
_atom_site_fract_x
_atom_site_fract_y
_atom_site_fract_z
Si Si1 0.206038 0.106586 0.867560
Si Si2 0.486131 0.466810 0.131445
Si Si3 0.232057 0.478356 0.756388
Si Si4 0.947569 0.651863 0.818332
Si Si5 0.356999 0.794837 0.697533
Si Si6 0.701656 0.990986 0.981726
Si Si7 0.654455 0.231954 0.668208
O O1 0.500000 0.000000 0.500000
O O2 0.035779 0.248551 0.070985
O O3 0.273160 0.082317 0.976432
O O4 0.984357 0.097819 0.949931
O O5 0.638761 0.479842 0.181657
O O6 0.148305 0.557419 0.463266
O O7 0.500000 0.500000 0.000000
O O8 0.657749 0.320670 0.858392
O O9 0.474692 0.324891 0.417692
O O10 0.086223 0.561643 0.783215
O O11 0.000000 0.500000 0.000000
O O12 0.605483 0.741152 0.086336
O O13 0.408871 0.739930 0.441320
O O14 0.454318 0.865237 0.732565
O O15 0.019745 0.910825 0.648112
O O16 0.500000 0.000000 0.000000
#
# Coordination Sequence:
#
# PCOD8031839 Si02
#       7
#     2   2   2   2   2   2   2
#     4  11  23  43  74  97 137 185 229 287 344 410
#     4  12  23  43  68 104 142 180 231 281 347 407
#     4  12  25  43  73 103 141 186 227 284 345 419
#     4  12  24  45  67 108 142 182 233 280 353 413
#     4  11  22  47  70  98 140 182 227 278 355 405
#     4  11  26  48  72 100 133 184 239 288 343 414
#     4  11  23  43  70 100 137 185 224 288 342 410
#
# _framework density 22.088809999999999
#
# number of rings (size 3 to 8) (size 9 to 14) (size 15 to 20)
#    0.000    0.571    4.286    5.143    2.000    0.000 
#    5.143    1.429    0.000    0.000    0.000    0.000 
#    0.000    0.000    0.000    0.000    0.000    0.000 
#
# Total GULP energy -173500.448852 kJ/mol
# GULP energy per Si atom -12392.889204 kJ/mol
# Density = 2.203854 g / cm^3
# Si number density = 22.088810 Si / 1000 Ang^3
#
#
#
# Elastic Constant Matrix: (Units=GPa)
#
#
# Indices 1 2 3 4 5 6 
#
# 1 115.4399 48.6979 51.0889 4.6388 -10.7437 9.7914
# 2 48.6979 128.0492 43.8522 5.1724 4.0549 1.0204
# 3 51.0889 43.8522 146.9977 -11.6629 -7.7931 2.5282
# 4 4.6388 5.1724 -11.6629 45.4231 14.5467 0.4392
# 5 -10.7437 4.0549 -7.7931 14.5467 35.7502 6.7370
# 6 9.7914 1.0204 2.5282 0.4392 6.7370 32.9705
#
#
#
# Elastic Compliance Matrix: (Units=1/GPa)
#
#
# Indices 1 2 3 4 5 6 
#
# 1 0.012735 -0.003755 -0.003197 -0.003523 0.005851 -0.004569
# 2 -0.003755 0.009970 -0.001872 -0.000346 -0.002815 0.001530
# 3 -0.003197 -0.001872 0.008685 0.002781 -0.000046 0.000314
# 4 -0.003523 -0.000346 0.002781 0.026916 -0.011916 0.002920
# 5 0.005851 -0.002815 -0.000046 -0.011916 0.036577 -0.008962
# 6 -0.004569 0.001530 0.000314 0.002920 -0.008962 0.033408
#
#
# Mechanical properties :
#
#
# Convention : Reuss Voigt Hill
#
# Bulk Modulus (GPa) = 72.76792 75.30720 74.03756
# Shear Modulus (GPa) = 33.21845 39.28527 36.25186
#
# Velocity S-wave (km/s) = 3.88217 4.22182 4.05555
# Velocity P-wave (km/s) = 7.28765 7.61130 7.45123
#
# Compressibility (1/GPa) = 0.01374232
#
# Stress axis : x y z
#
# Youngs Moduli (GPa) = 78.52460 100.30530 115.13960
#
# Poissons Ratio (x) = 0.37664 0.36805
# Poissons Ratio (y) = 0.29486 0.21555
# Poissons Ratio (z) = 0.25101 0.18778
#
# Static dielectric constant tensor:
#      x y z
#    x 4.020130 0.781930 -0.056370 
#    y 0.781930 7.712330 0.815920 
#    z -0.056370 0.815920 4.581290 
# 
# 
# High freq. dielectric constant tensor:
#      x y z
#    x 1.857780 0.021310 -0.014650 
#    y 0.021310 1.871170 0.003810 
#    z -0.014650 0.003810 1.885900 
# 
# From -- ./inp_files/218166.got.cif
#   From: 2010.06.25/outbox.cif.g09.slc.cpg/sg2_110_cif.got.tgz:218166.got - 2010.06.27 13:26:56.
