data_PCOD8031847
_publ_section_title
;
Structure prediction by ZEFSAII (Michael W. Deem and Ramdas Pophale) SiO2 
 PCOD8031847
Probable space group: P -1
;
_chemical_formula_sum "Si O2"
_cell_formula_units_Z 12
_cell_length_a 9.042504
_cell_length_b 5.410041
_cell_length_c 15.247368
_cell_angle_alpha 63.280737
_cell_angle_beta 112.514124
_cell_angle_gamma 71.506524
_cell_volume 495.557854
_symmetry_space_group_name_H-M "P -1"
_symmetry_group_IT_number 2
_symmetry_cell_setting 'triclinic'
loop_
_space_group_symop_operation_xyz
x,y,z
-x,-y,-z
loop_
_atom_site_type_symbol
_atom_site_label
_atom_site_fract_x
_atom_site_fract_y
_atom_site_fract_z
Si Si1 0.370319 0.632228 0.037152
Si Si2 0.992782 0.686238 0.207108
Si Si3 0.291620 0.473801 0.783288
Si Si4 0.008884 0.754335 0.398516
Si Si5 0.377515 0.493321 0.617720
Si Si6 0.396030 0.251849 0.268181
O O1 0.478041 0.766628 0.095609
O O2 0.385257 0.347807 0.148029
O O3 0.500000 0.500000 0.000000
O O4 0.138779 0.915442 0.916708
O O5 0.069039 0.621348 0.334118
O O6 0.172956 0.461216 0.218641
O O7 0.841289 0.586605 0.177648
O O8 0.291724 0.389950 0.694361
O O9 0.203301 0.876499 0.706179
O O10 0.185945 0.776265 0.470795
O O11 0.000000 0.500000 0.500000
O O12 0.485804 0.653595 0.656571
O O13 0.514579 0.150723 0.643793
#
# Coordination Sequence:
#
# PCOD8031847 Si02
#       6
#     2   2   2   2   2   2
#     4  11  22  47  73 102 139 185 239 290 349 423
#     4  12  26  43  71 107 140 185 233 295 356 413
#     4  11  24  44  75 102 136 186 243 292 347 418
#     4  12  24  44  74 104 140 183 245 289 345 421
#     4  11  25  47  72 101 143 191 232 287 348 424
#     4  11  28  47  71 106 148 183 233 292 360 415
#
# _framework density 24.215132000000001
#
# number of rings (size 3 to 8) (size 9 to 14) (size 15 to 20)
#    0.000    0.667    3.333    4.500    4.667    2.667 
#    0.000    5.000    0.000    0.000    0.000    0.000 
#    0.000    0.000    0.000    0.000    0.000    0.000 
#
# Total GULP energy -148716.997559 kJ/mol
# GULP energy per Si atom -12393.083130 kJ/mol
# Density = 2.416002 g / cm^3
# Si number density = 24.215132 Si / 1000 Ang^3
#
#
#
# Elastic Constant Matrix: (Units=GPa)
#
#
# Indices 1 2 3 4 5 6 
#
# 1 77.5258 10.5678 6.7004 6.7541 12.7619 -20.6936
# 2 10.5678 105.2099 18.7345 -0.1778 5.4828 -12.9402
# 3 6.7004 18.7345 98.1930 17.5255 11.7293 -7.3002
# 4 6.7541 -0.1778 17.5255 36.5516 -5.3047 -1.0246
# 5 12.7619 5.4828 11.7293 -5.3047 26.0273 -5.1069
# 6 -20.6936 -12.9402 -7.3002 -1.0246 -5.1069 46.2308
#
#
#
# Elastic Compliance Matrix: (Units=1/GPa)
#
#
# Indices 1 2 3 4 5 6 
#
# 1 0.016309 -0.000674 0.001285 -0.004638 -0.008140 0.006312
# 2 -0.000674 0.010204 -0.001895 0.001102 -0.000300 0.002246
# 3 0.001285 -0.001895 0.012720 -0.007367 -0.007251 0.001089
# 4 -0.004638 0.001102 -0.007367 0.033473 0.012015 -0.000862
# 5 -0.008140 -0.000300 -0.007251 0.012015 0.048336 0.000733
# 6 0.006312 0.002246 0.001089 -0.000862 0.000733 0.025319
#
#
# Mechanical properties :
#
#
# Convention : Reuss Voigt Hill
#
# Bulk Modulus (GPa) = 27.27413 39.21490 33.24451
# Shear Modulus (GPa) = 31.02713 38.09036 34.55874
#
# Velocity S-wave (km/s) = 3.58342 3.97041 3.78187
# Velocity P-wave (km/s) = 5.33001 6.10314 5.72963
#
# Compressibility (1/GPa) = 0.03666478
#
# Stress axis : x y z
#
# Youngs Moduli (GPa) = 61.31691 98.00381 78.61704
#
# Poissons Ratio (x) = 0.06608 -0.10104
# Poissons Ratio (y) = 0.04134 0.14896
# Poissons Ratio (z) = -0.07880 0.18569
#
# Static dielectric constant tensor:
#      x y z
#    x 4.350290 -0.092720 0.165460 
#    y -0.092720 4.174180 0.203250 
#    z 0.165460 0.203250 4.967060 
# 
# 
# High freq. dielectric constant tensor:
#      x y z
#    x 1.953620 -0.007200 0.010410 
#    y -0.007200 1.952810 0.010000 
#    z 0.010410 0.010000 1.979810 
# 
# From -- ./inp_files/18800.got.cif
#   From: 2010.06.25/outbox.cif.g09.slc.cpg/sg2_10_cif.got.tgz:18800.got - 2010.06.27 13:26:56.
