data_PCOD8031422
_publ_section_title
;
Structure prediction by ZEFSAII (Michael W. Deem and Ramdas Pophale) SiO2 
 PCOD8031422
Probable space group: P -1
;
_chemical_formula_sum "Si O2"
_cell_formula_units_Z 16
_cell_length_a 19.307716
_cell_length_b 6.173370
_cell_length_c 9.084885
_cell_angle_alpha 81.113588
_cell_angle_beta 41.472196
_cell_angle_gamma 72.891970
_cell_volume 681.670119
_symmetry_space_group_name_H-M "P -1"
_symmetry_group_IT_number 2
_symmetry_cell_setting 'triclinic'
loop_
_space_group_symop_operation_xyz
x,y,z
-x,-y,-z
loop_
_atom_site_type_symbol
_atom_site_label
_atom_site_fract_x
_atom_site_fract_y
_atom_site_fract_z
Si Si1 0.172531 0.337205 0.808838
Si Si2 0.203372 0.683216 0.498058
Si Si3 0.722343 0.651560 0.830816
Si Si4 0.019422 0.044890 0.134531
Si Si5 0.420961 0.728958 0.664737
Si Si6 0.310932 0.015468 0.403865
Si Si7 0.489761 0.030966 0.741965
Si Si8 0.198534 0.612842 0.005254
O O1 0.147283 0.521425 0.698728
O O2 0.253251 0.113085 0.636671
O O3 0.228443 0.440237 0.839601
O O4 0.069883 0.260555 0.041566
O O5 0.274437 0.558724 0.261384
O O6 0.097308 0.889328 0.602298
O O7 0.291061 0.767092 0.447337
O O8 0.740174 0.854977 0.679179
O O9 0.609396 0.745101 0.089905
O O10 0.815525 0.544826 0.815346
O O11 0.091043 0.816706 0.123716
O O12 0.000000 0.000000 0.000000
O O13 0.500000 0.500000 0.500000
O O14 0.429597 0.921789 0.515643
O O15 0.297762 0.717936 0.872705
O O16 0.451229 0.811645 0.770477
O O17 0.436741 0.019043 0.220582
#
# Coordination Sequence:
#
# PCOD8031422 Si02
#       8
#     2   2   2   2   2   2   2   2
#     4  11  22  43  75 101 134 167 236 286 344 398
#     4  11  25  46  69 103 138 180 234 283 343 412
#     4  11  28  44  64 102 146 186 226 277 349 414
#     4  12  24  44  75 105 130 177 234 293 344 400
#     4  11  23  42  71 105 138 171 235 288 342 399
#     4  11  24  44  70 100 141 182 230 281 338 412
#     4  11  24  43  69 102 136 186 230 283 339 407
#     4  12  26  43  71 105 138 181 226 290 345 406
#
# _framework density 23.471767
#
# number of rings (size 3 to 8) (size 9 to 14) (size 15 to 20)
#    0.000    0.750    3.750    3.000    5.250    2.000 
#    0.000    1.250    0.000    0.000    0.000    0.000 
#    0.000    0.000    0.000    0.000    0.000    0.000 
#
# Total GULP energy -198249.122930 kJ/mol
# GULP energy per Si atom -12390.570183 kJ/mol
# Density = 2.341834 g / cm^3
# Si number density = 23.471767 Si / 1000 Ang^3
#
#
#
# Elastic Constant Matrix: (Units=GPa)
#
#
# Indices 1 2 3 4 5 6 
#
# 1 134.9351 67.0179 42.5421 11.9247 -3.6653 -0.6551
# 2 67.0179 101.3152 37.2324 24.5121 6.4790 6.5661
# 3 42.5421 37.2324 78.7526 21.3475 6.1462 12.3574
# 4 11.9247 24.5121 21.3475 44.6085 -1.8289 4.1892
# 5 -3.6653 6.4790 6.1462 -1.8289 30.1866 -3.9314
# 6 -0.6551 6.5661 12.3574 4.1892 -3.9314 37.3112
#
#
#
# Elastic Compliance Matrix: (Units=1/GPa)
#
#
# Indices 1 2 3 4 5 6 
#
# 1 0.012781 -0.007949 -0.004929 0.003191 0.004900 0.003414
# 2 -0.007949 0.017846 -0.001440 -0.006966 -0.005260 -0.002575
# 3 -0.004929 -0.001440 0.019237 -0.006754 -0.005399 -0.006015
# 4 0.003191 -0.006966 -0.006754 0.028756 0.005108 0.000828
# 5 0.004900 -0.005260 -0.005399 0.005108 0.037058 0.006131
# 6 0.003414 -0.002575 -0.006015 0.000828 0.006131 0.029860
#
#
# Mechanical properties :
#
#
# Convention : Reuss Voigt Hill
#
# Bulk Modulus (GPa) = 47.10831 67.62086 57.36458
# Shear Modulus (GPa) = 27.58599 33.63531 30.61065
#
# Velocity S-wave (km/s) = 3.43196 3.78962 3.61522
# Velocity P-wave (km/s) = 5.98483 6.92967 6.47451
#
# Compressibility (1/GPa) = 0.02122768
#
# Stress axis : x y z
#
# Youngs Moduli (GPa) = 78.24199 56.03346 51.98235
#
# Poissons Ratio (x) = 0.44544 0.25621
# Poissons Ratio (y) = 0.62198 0.07486
# Poissons Ratio (z) = 0.38564 0.08070
#
# Static dielectric constant tensor:
#      x y z
#    x 4.387270 -0.003180 0.071740 
#    y -0.003180 4.392420 0.094080 
#    z 0.071740 0.094080 4.163400 
# 
# 
# High freq. dielectric constant tensor:
#      x y z
#    x 1.925460 0.003130 0.004860 
#    y 0.003130 1.937840 0.011220 
#    z 0.004860 0.011220 1.915040 
# 
# From -- ./inp_files/106893.got.cif
#   From: 2010.06.25/outbox.cif.g09.slc.cpg/sg2_54_cif.got.tgz:106893.got - 2010.06.27 13:26:56.
