data_PCOD8031718
_publ_section_title
;
Structure prediction by ZEFSAII (Michael W. Deem and Ramdas Pophale) SiO2 
 PCOD8031718
Probable space group: P -1
;
_chemical_formula_sum "Si O2"
_cell_formula_units_Z 14
_cell_length_a 17.248909
_cell_length_b 9.227799
_cell_length_c 13.926956
_cell_angle_alpha 51.359956
_cell_angle_beta 22.202618
_cell_angle_gamma 52.392703
_cell_volume 650.405922
_symmetry_space_group_name_H-M "P -1"
_symmetry_group_IT_number 2
_symmetry_cell_setting 'triclinic'
loop_
_space_group_symop_operation_xyz
x,y,z
-x,-y,-z
loop_
_atom_site_type_symbol
_atom_site_label
_atom_site_fract_x
_atom_site_fract_y
_atom_site_fract_z
Si Si1 0.548507 0.298808 0.341820
Si Si2 0.093645 0.955943 0.015044
Si Si3 0.307899 0.511140 0.364584
Si Si4 0.849954 0.691678 0.080015
Si Si5 0.120714 0.328621 0.491250
Si Si6 0.162118 0.398877 0.077903
Si Si7 0.606229 0.805155 0.927796
O O1 0.448095 0.371977 0.328249
O O2 0.374812 0.307929 0.617421
O O3 0.662948 0.095075 0.266290
O O4 0.725612 0.414198 0.135161
O O5 0.016950 0.777669 0.232729
O O6 0.046897 0.136796 0.061667
O O7 0.000000 0.000000 0.000000
O O8 0.296747 0.418357 0.311696
O O9 0.080443 0.550538 0.652306
O O10 0.418235 0.696878 0.153153
O O11 0.808674 0.724480 0.001050
O O12 0.000000 0.500000 0.000000
O O13 0.234305 0.179773 0.348737
O O14 0.000000 0.500000 0.500000
O O15 0.261692 0.280242 0.099942
O O16 0.500000 0.000000 0.000000
#
# Coordination Sequence:
#
# PCOD8031718 Si02
#       7
#     2   2   2   2   2   2   2
#     4  11  23  46  71 101 139 189 241 296 360 433
#     4  12  27  46  74 110 147 187 248 302 355 442
#     4  11  22  45  73  97 142 188 245 294 363 427
#     4  12  25  42  72 104 144 194 232 294 375 430
#     4  12  24  48  74 103 142 197 243 295 363 429
#     4  11  23  44  68 101 141 184 237 303 357 432
#     4  11  27  41  68 105 140 182 241 305 359 428
#
# _framework density 21.525017999999999
#
# number of rings (size 3 to 8) (size 9 to 14) (size 15 to 20)
#    0.000    0.571    4.286    3.857    2.000    4.000 
#    0.000    0.000    0.000    0.000    0.000    0.000 
#    0.000    0.000    0.000    0.000    0.000    0.000 
#
# Total GULP energy -173550.401376 kJ/mol
# GULP energy per Si atom -12396.457241 kJ/mol
# Density = 2.147603 g / cm^3
# Si number density = 21.525018 Si / 1000 Ang^3
#
#
#
# Elastic Constant Matrix: (Units=GPa)
#
#
# Indices 1 2 3 4 5 6 
#
# 1 147.1996 57.0133 48.6445 -4.5552 3.8851 25.3986
# 2 57.0133 128.6892 49.1531 22.3513 2.6953 10.3299
# 3 48.6445 49.1531 121.5162 15.5509 3.8537 -5.5883
# 4 -4.5552 22.3513 15.5509 36.3173 3.4667 9.0979
# 5 3.8851 2.6953 3.8537 3.4667 40.6895 3.1070
# 6 25.3986 10.3299 -5.5883 9.0979 3.1070 34.8256
#
#
#
# Elastic Compliance Matrix: (Units=1/GPa)
#
#
# Indices 1 2 3 4 5 6 
#
# 1 0.012120 -0.004233 -0.004750 0.008857 -0.000370 -0.010627
# 2 -0.004233 0.011553 -0.002028 -0.007096 0.000347 0.001157
# 3 -0.004750 -0.002028 0.012150 -0.006434 -0.000607 0.007751
# 4 0.008857 -0.007096 -0.006434 0.039871 -0.001970 -0.015627
# 5 -0.000370 0.000347 -0.000607 -0.001970 0.024939 -0.001641
# 6 -0.010627 0.001157 0.007751 -0.015627 -0.001641 0.041594
#
#
# Mechanical properties :
#
#
# Convention : Reuss Voigt Hill
#
# Bulk Modulus (GPa) = 72.45928 78.55854 75.50891
# Shear Modulus (GPa) = 29.61208 38.53942 34.07575
#
# Velocity S-wave (km/s) = 3.71307 4.23596 3.98311
# Velocity P-wave (km/s) = 7.21931 7.77818 7.50395
#
# Compressibility (1/GPa) = 0.01380086
#
# Stress axis : x y z
#
# Youngs Moduli (GPa) = 82.50757 86.55846 82.30196
#
# Poissons Ratio (x) = 0.36638 0.39094
# Poissons Ratio (y) = 0.34924 0.16694
# Poissons Ratio (z) = 0.39192 0.17558
#
# Static dielectric constant tensor:
#      x y z
#    x 4.250600 0.168000 0.201230 
#    y 0.168000 3.920810 -0.187160 
#    z 0.201230 -0.187160 4.431350 
# 
# 
# High freq. dielectric constant tensor:
#      x y z
#    x 1.865980 0.008700 -0.001490 
#    y 0.008700 1.843250 0.012100 
#    z -0.001490 0.012100 1.856470 
# 
# From -- ./inp_files/60360.got.cif
#   From: 2010.06.25/outbox.cif.g09.slc.cpg/sg2_31_cif.got.tgz:60360.got - 2010.06.27 13:26:56.
