data_PCOD8031342
_publ_section_title
;
Structure prediction by ZEFSAII (Michael W. Deem and Ramdas Pophale) SiO2 
 PCOD8031342
Probable space group: P -1
;
_chemical_formula_sum "Si O2"
_cell_formula_units_Z 16
_cell_length_a 16.845083
_cell_length_b 9.638062
_cell_length_c 6.524600
_cell_angle_alpha 68.620243
_cell_angle_beta 100.005501
_cell_angle_gamma 133.364616
_cell_volume 712.509060
_symmetry_space_group_name_H-M "P -1"
_symmetry_group_IT_number 2
_symmetry_cell_setting 'triclinic'
loop_
_space_group_symop_operation_xyz
x,y,z
-x,-y,-z
loop_
_atom_site_type_symbol
_atom_site_label
_atom_site_fract_x
_atom_site_fract_y
_atom_site_fract_z
Si Si1 0.996675 0.837153 0.979139
Si Si2 0.104419 0.525859 0.568967
Si Si3 0.614399 0.719165 0.480486
Si Si4 0.673386 0.551020 0.899308
Si Si5 0.219013 0.187578 0.798689
Si Si6 0.346440 0.918896 0.520876
Si Si7 0.847631 0.652864 0.637713
Si Si8 0.490018 0.888399 0.855929
O O1 0.952099 0.804190 0.748421
O O2 0.926712 0.628087 0.182906
O O3 0.125767 0.953768 0.960162
O O4 0.000000 0.000000 0.000000
O O5 0.213623 0.755250 0.558858
O O6 0.137909 0.485068 0.397491
O O7 0.000000 0.500000 0.500000
O O8 0.500000 0.500000 0.500000
O O9 0.669049 0.706208 0.706066
O O10 0.686261 0.792080 0.269288
O O11 0.603495 0.878457 0.442459
O O12 0.738894 0.515603 0.805069
O O13 0.734574 0.649685 0.088319
O O14 0.551141 0.330190 0.990498
O O15 0.159905 0.222399 0.592704
O O16 0.394503 0.832064 0.695534
O O17 0.392554 0.977658 0.276959
O O18 0.500000 0.000000 0.000000
#
# Coordination Sequence:
#
# PCOD8031342 Si02
#       8
#     2   2   2   2   2   2   2   2
#     4  12  24  44  72 100 128 182 235 278 330 404
#     4  12  29  45  65 100 149 184 226 281 346 410
#     4  11  26  45  69 103 139 176 222 288 347 402
#     4  11  23  42  71 102 129 174 230 283 337 411
#     4  11  24  41  71 101 132 172 232 285 336 395
#     4  11  26  46  66 101 142 177 225 284 341 407
#     4  11  22  43  70  97 137 173 232 279 336 397
#     4  11  23  44  74  97 131 178 230 277 347 406
#
# _framework density 22.455856000000001
#
# number of rings (size 3 to 8) (size 9 to 14) (size 15 to 20)
#    0.000    0.750    2.500    4.125    3.500    7.500 
#    2.250    0.000    0.000    0.000    0.000    0.000 
#    0.000    0.000    0.000    0.000    0.000    0.000 
#
# Total GULP energy -198425.734440 kJ/mol
# GULP energy per Si atom -12401.608402 kJ/mol
# Density = 2.240475 g / cm^3
# Si number density = 22.455856 Si / 1000 Ang^3
#
#
#
# Elastic Constant Matrix: (Units=GPa)
#
#
# Indices 1 2 3 4 5 6 
#
# 1 104.6686 29.3164 30.6923 -5.2336 -23.9844 9.1033
# 2 29.3164 131.4975 44.0098 -1.2212 -15.6702 17.4269
# 3 30.6923 44.0098 112.0489 5.6064 -24.1081 5.6951
# 4 -5.2336 -1.2212 5.6064 40.3712 4.7130 -7.7946
# 5 -23.9844 -15.6702 -24.1081 4.7130 37.8910 -3.1991
# 6 9.1033 17.4269 5.6951 -7.7946 -3.1991 45.9239
#
#
#
# Elastic Compliance Matrix: (Units=1/GPa)
#
#
# Indices 1 2 3 4 5 6 
#
# 1 0.011816 -0.001296 -0.001458 0.000797 0.005822 -0.001129
# 2 -0.001296 0.009383 -0.002974 -0.000140 0.000941 -0.002893
# 3 -0.001458 -0.002974 0.011856 -0.002611 0.005707 -0.000098
# 4 0.000797 -0.000140 -0.002611 0.026573 -0.004144 0.004440
# 5 0.005822 0.000941 0.005707 -0.004144 0.034569 -0.000514
# 6 -0.001129 -0.002893 -0.000098 0.004440 -0.000514 0.023827
#
#
# Mechanical properties :
#
#
# Convention : Reuss Voigt Hill
#
# Bulk Modulus (GPa) = 46.29571 61.80578 54.05074
# Shear Modulus (GPa) = 36.58210 41.11699 38.84954
#
# Velocity S-wave (km/s) = 4.04055 4.28368 4.16389
# Velocity P-wave (km/s) = 6.51376 7.21453 6.87309
#
# Compressibility (1/GPa) = 0.02160028
#
# Stress axis : x y z
#
# Youngs Moduli (GPa) = 84.62790 106.57328 84.34846
#
# Poissons Ratio (x) = 0.13809 0.12296
# Poissons Ratio (y) = 0.10965 0.25085
# Poissons Ratio (z) = 0.12337 0.31695
#
# Static dielectric constant tensor:
#      x y z
#    x 4.309750 0.457880 -0.476010 
#    y 0.457880 4.545930 -0.574120 
#    z -0.476010 -0.574120 4.879460 
# 
# 
# High freq. dielectric constant tensor:
#      x y z
#    x 1.883190 0.013160 -0.013060 
#    y 0.013160 1.885970 0.001920 
#    z -0.013060 0.001920 1.899770 
# 
# From -- ./inp_files/106716.got.cif
#   From: 2010.06.25/outbox.cif.g09.slc.cpg/sg2_54_cif.got.tgz:106716.got - 2010.06.27 13:26:56.
