data_PCOD8031520
_publ_section_title
;
Structure prediction by ZEFSAII (Michael W. Deem and Ramdas Pophale) SiO2 
 PCOD8031520
Probable space group: P -1
;
_chemical_formula_sum "Si O2"
_cell_formula_units_Z 16
_cell_length_a 8.212162
_cell_length_b 12.803234
_cell_length_c 9.578833
_cell_angle_alpha 99.965689
_cell_angle_beta 51.054913
_cell_angle_gamma 93.731697
_cell_volume 770.226789
_symmetry_space_group_name_H-M "P -1"
_symmetry_group_IT_number 2
_symmetry_cell_setting 'triclinic'
loop_
_space_group_symop_operation_xyz
x,y,z
-x,-y,-z
loop_
_atom_site_type_symbol
_atom_site_label
_atom_site_fract_x
_atom_site_fract_y
_atom_site_fract_z
Si Si1 0.441142 0.416718 0.398879
Si Si2 0.095722 0.258503 0.266771
Si Si3 0.000084 0.656960 0.369832
Si Si4 0.311241 0.465633 0.184202
Si Si5 0.294171 0.033748 0.203573
Si Si6 0.592302 0.912087 0.533420
Si Si7 0.240784 0.769372 0.793142
Si Si8 0.043327 0.843780 0.199549
O O1 0.500000 0.500000 0.500000
O O2 0.372589 0.483721 0.315345
O O3 0.644880 0.339537 0.238305
O O4 0.246524 0.348066 0.535579
O O5 0.268339 0.342355 0.152849
O O6 0.210724 0.145810 0.211867
O O7 0.968249 0.299747 0.480981
O O8 0.943333 0.253134 0.217843
O O9 0.106094 0.539154 0.272735
O O10 0.109297 0.736516 0.224208
O O11 0.500000 0.500000 0.000000
O O12 0.340342 0.040812 0.344010
O O13 0.123578 0.946712 0.257080
O O14 0.500000 0.000000 0.000000
O O15 0.411132 0.832265 0.634061
O O16 0.791470 0.855282 0.334642
O O17 0.500000 0.000000 0.500000
O O18 0.141141 0.836295 0.991092
#
# Coordination Sequence:
#
# PCOD8031520 Si02
#       8
#     2   2   2   2   2   2   2   2
#     4  11  22  44  70  98 138 177 227 286 342 404
#     4  11  25  46  68  98 140 182 232 281 344 413
#     4  11  23  44  71  99 136 185 227 280 354 409
#     4  11  24  43  69 102 134 180 232 284 344 413
#     4  12  26  46  72 100 140 188 227 284 346 409
#     4  12  26  46  69 102 136 180 233 282 342 405
#     4  12  25  45  68 104 139 179 228 289 339 403
#     4  12  26  45  71 101 145 180 231 282 343 415
#
# _framework density 20.773102000000002
#
# number of rings (size 3 to 8) (size 9 to 14) (size 15 to 20)
#    0.000    0.500    3.750    5.625    5.250    2.000 
#    2.250    2.500    0.000    0.000    0.000    0.000 
#    0.000    0.000    0.000    0.000    0.000    0.000 
#
# Total GULP energy -198462.985125 kJ/mol
# GULP energy per Si atom -12403.936570 kJ/mol
# Density = 2.072582 g / cm^3
# Si number density = 20.773102 Si / 1000 Ang^3
#
#
#
# Elastic Constant Matrix: (Units=GPa)
#
#
# Indices 1 2 3 4 5 6 
#
# 1 130.7207 58.3598 40.1674 1.3534 7.8805 -2.4248
# 2 58.3598 145.8554 39.5816 -8.2209 -2.0705 -6.6237
# 3 40.1674 39.5816 88.8580 -0.0148 -21.3740 -0.7125
# 4 1.3534 -8.2209 -0.0148 38.1552 3.0849 -4.0398
# 5 7.8805 -2.0705 -21.3740 3.0849 26.8521 7.2401
# 6 -2.4248 -6.6237 -0.7125 -4.0398 7.2401 42.5796
#
#
#
# Elastic Compliance Matrix: (Units=1/GPa)
#
#
# Indices 1 2 3 4 5 6 
#
# 1 0.011339 -0.003017 -0.005836 -0.000199 -0.008593 0.001521
# 2 -0.003017 0.009076 -0.003040 0.002365 -0.001559 0.001679
# 3 -0.005836 -0.003040 0.019645 -0.002335 0.018417 -0.003830
# 4 -0.000199 0.002365 -0.002335 0.027614 -0.005850 0.003932
# 5 -0.008593 -0.001559 0.018417 -0.005850 0.057892 -0.010823
# 6 0.001521 0.001679 -0.003830 0.003932 -0.010823 0.025982
#
#
# Mechanical properties :
#
#
# Convention : Reuss Voigt Hill
#
# Bulk Modulus (GPa) = 61.45346 71.29464 66.37405
# Shear Modulus (GPa) = 27.66109 36.67241 32.16675
#
# Velocity S-wave (km/s) = 3.65304 4.20620 3.93934
# Velocity P-wave (km/s) = 6.88770 7.61477 7.26034
#
# Compressibility (1/GPa) = 0.01627248
#
# Stress axis : x y z
#
# Youngs Moduli (GPa) = 88.19467 110.18459 50.90287
#
# Poissons Ratio (x) = 0.33243 0.29709
# Poissons Ratio (y) = 0.26609 0.15475
# Poissons Ratio (z) = 0.51474 0.33497
#
# Static dielectric constant tensor:
#      x y z
#    x 3.775340 -0.264510 -0.121500 
#    y -0.264510 3.807410 0.063920 
#    z -0.121500 0.063920 3.885370 
# 
# 
# High freq. dielectric constant tensor:
#      x y z
#    x 1.821380 -0.004470 -0.005630 
#    y -0.004470 1.829210 -0.001910 
#    z -0.005630 -0.001910 1.815940 
# 
# From -- ./inp_files/188149.got.cif
#   From: 2010.06.25/outbox.cif.g09.slc.cpg/sg2_95_cif.got.tgz:188149.got - 2010.06.27 13:26:56.
