data_PCOD8031317
_publ_section_title
;
Structure prediction by ZEFSAII (Michael W. Deem and Ramdas Pophale) SiO2 
 PCOD8031317
Probable space group: P -1
;
_chemical_formula_sum "Si O2"
_cell_formula_units_Z 16
_cell_length_a 9.356373
_cell_length_b 9.543953
_cell_length_c 14.901432
_cell_angle_alpha 75.864309
_cell_angle_beta 127.450519
_cell_angle_gamma 67.808339
_cell_volume 747.722419
_symmetry_space_group_name_H-M "P -1"
_symmetry_group_IT_number 2
_symmetry_cell_setting 'triclinic'
loop_
_space_group_symop_operation_xyz
x,y,z
-x,-y,-z
loop_
_atom_site_type_symbol
_atom_site_label
_atom_site_fract_x
_atom_site_fract_y
_atom_site_fract_z
Si Si1 0.460062 0.287569 0.010280
Si Si2 0.233150 0.995789 0.359592
Si Si3 0.527625 0.978317 0.193108
Si Si4 0.026128 0.818305 0.057444
Si Si5 0.103691 0.400316 0.708172
Si Si6 0.709293 0.851765 0.475108
Si Si7 0.782509 0.313188 0.650786
Si Si8 0.778068 0.338762 0.028780
O O1 0.212648 0.373775 0.851900
O O2 0.390587 0.436567 0.039094
O O3 0.594938 0.075612 0.138732
O O4 0.647652 0.258135 0.016280
O O5 0.507738 0.862001 0.445865
O O6 0.149365 0.876222 0.339602
O O7 0.221301 0.051641 0.449897
O O8 0.046349 0.197615 0.199681
O O9 0.672712 0.755337 0.250875
O O10 0.603463 0.974825 0.323794
O O11 0.237688 0.112634 0.054500
O O12 0.164095 0.716851 0.218571
O O13 0.194039 0.658964 0.067572
O O14 0.000000 0.000000 0.000000
O O15 0.949757 0.623206 0.581342
O O16 0.935059 0.351888 0.652948
O O17 0.500000 0.500000 0.500000
#
# Coordination Sequence:
#
# PCOD8031317 Si02
#       8
#     2   2   2   2   2   2   2   2
#     4  11  25  44  70 100 137 182 222 289 352 398
#     4  11  22  43  69  95 137 182 222 283 338 408
#     4  12  25  43  70 103 135 178 235 286 336 403
#     4  12  24  42  72  99 133 179 234 283 331 408
#     4  12  24  44  67 100 139 182 225 282 349 411
#     4  11  24  44  69  96 138 185 225 277 350 405
#     4  12  25  43  67 104 141 178 227 281 346 406
#     4  11  23  45  71  99 137 179 235 280 340 412
#
# _framework density 21.398315
#
# number of rings (size 3 to 8) (size 9 to 14) (size 15 to 20)
#    0.000    0.500    6.250    2.250    0.000    1.500 
#    2.250    2.500    0.000    0.000    0.000    0.000 
#    0.000    0.000    0.000    0.000    0.000    0.000 
#
# Total GULP energy -198500.416021 kJ/mol
# GULP energy per Si atom -12406.276001 kJ/mol
# Density = 2.134961 g / cm^3
# Si number density = 21.398315 Si / 1000 Ang^3
#
#
#
# Elastic Constant Matrix: (Units=GPa)
#
#
# Indices 1 2 3 4 5 6 
#
# 1 85.2022 42.2825 34.6235 9.3465 3.5642 -8.0417
# 2 42.2825 106.0163 49.2379 11.6582 0.3280 -10.5362
# 3 34.6235 49.2379 143.2005 10.5478 -12.1718 -3.9714
# 4 9.3465 11.6582 10.5478 40.8097 -4.5278 3.3289
# 5 3.5642 0.3280 -12.1718 -4.5278 31.8733 -0.8495
# 6 -8.0417 -10.5362 -3.9714 3.3289 -0.8495 29.1468
#
#
#
# Elastic Compliance Matrix: (Units=1/GPa)
#
#
# Indices 1 2 3 4 5 6 
#
# 1 0.015527 -0.004708 -0.002142 -0.002163 -0.002748 0.002458
# 2 -0.004708 0.013438 -0.003315 -0.002300 -0.001116 0.003337
# 3 -0.002142 -0.003315 0.008970 -0.000445 0.003625 -0.000410
# 4 -0.002163 -0.002300 -0.000445 0.026547 0.003749 -0.004412
# 5 -0.002748 -0.001116 0.003625 0.003749 0.033607 -0.000116
# 6 0.002458 0.003337 -0.000410 -0.004412 -0.000116 0.036638
#
#
# Mechanical properties :
#
#
# Convention : Reuss Voigt Hill
#
# Bulk Modulus (GPa) = 56.79570 65.18964 60.99267
# Shear Modulus (GPa) = 31.07032 34.25095 32.66063
#
# Velocity S-wave (km/s) = 3.81464 4.00514 3.91105
# Velocity P-wave (km/s) = 6.78246 7.20549 6.99717
#
# Compressibility (1/GPa) = 0.01760697
#
# Stress axis : x y z
#
# Youngs Moduli (GPa) = 64.40205 74.41767 111.47738
#
# Poissons Ratio (x) = 0.35032 0.23875
# Poissons Ratio (y) = 0.30317 0.36955
# Poissons Ratio (z) = 0.13793 0.24670
#
# Static dielectric constant tensor:
#      x y z
#    x 3.834880 -0.045540 0.127440 
#    y -0.045540 3.902520 0.065990 
#    z 0.127440 0.065990 3.939960 
# 
# 
# High freq. dielectric constant tensor:
#      x y z
#    x 1.829800 -0.006400 0.010990 
#    y -0.006400 1.848650 0.004400 
#    z 0.010990 0.004400 1.849180 
# 
# From -- ./inp_files/206509.got.cif
#   From: 2010.06.25/outbox.cif.g09.slc.cpg/sg2_104_cif.got.tgz:206509.got - 2010.06.27 13:26:56.
