data_PCOD8031217
_publ_section_title
;
Structure prediction by ZEFSAII (Michael W. Deem and Ramdas Pophale) SiO2 
 PCOD8031217
Probable space group: P -1
;
_chemical_formula_sum "Si O2"
_cell_formula_units_Z 16
_cell_length_a 8.623846
_cell_length_b 10.869991
_cell_length_c 9.046945
_cell_angle_alpha 85.464178
_cell_angle_beta 49.541532
_cell_angle_gamma 87.264490
_cell_volume 643.249032
_symmetry_space_group_name_H-M "P -1"
_symmetry_group_IT_number 2
_symmetry_cell_setting 'triclinic'
loop_
_space_group_symop_operation_xyz
x,y,z
-x,-y,-z
loop_
_atom_site_type_symbol
_atom_site_label
_atom_site_fract_x
_atom_site_fract_y
_atom_site_fract_z
Si Si1 0.118129 0.683165 0.392697
Si Si2 0.860862 0.950259 0.800080
Si Si3 0.627853 0.801163 0.337249
Si Si4 0.275459 0.932275 0.407821
Si Si5 0.743266 0.691700 0.832065
Si Si6 0.519982 0.570489 0.231178
Si Si7 0.083413 0.809809 0.099804
Si Si8 0.456790 0.706364 0.741916
O O1 0.221001 0.805556 0.375915
O O2 0.288646 0.577008 0.308790
O O3 0.051004 0.711881 0.263575
O O4 0.928626 0.646442 0.618418
O O5 0.795223 0.810613 0.895233
O O6 0.105926 0.963445 0.632190
O O7 0.737762 0.963554 0.719570
O O8 0.807387 0.059682 0.935674
O O9 0.499615 0.916829 0.340343
O O10 0.560117 0.670915 0.322569
O O11 0.581002 0.791378 0.542159
O O12 0.863587 0.833015 0.160313
O O13 0.551062 0.721713 0.844934
O O14 0.679889 0.585189 0.995578
O O15 0.546834 0.435491 0.296357
O O16 0.223716 0.751715 0.891463
#
# Coordination Sequence:
#
# PCOD8031217 Si02
#       8
#     2   2   2   2   2   2   2   2
#     4   9  19  40  66  98 128 167 226 273 321 392
#     4   9  20  42  71 100 132 171 221 276 325 402
#     4  11  25  45  66  98 140 179 210 277 354 380
#     4   8  18  39  68  95 130 172 220 263 327 407
#     4  11  22  42  73 100 127 178 226 274 333 383
#     4  11  25  45  69  97 132 176 234 278 321 393
#     4  11  23  42  65 102 139 170 221 271 334 406
#     4  12  26  43  67 101 136 176 229 275 326 401
#
# _framework density 24.873723999999999
#
# number of rings (size 3 to 8) (size 9 to 14) (size 15 to 20)
#    0.000    1.750    2.500    1.500    0.000    6.000 
#    0.000    1.250    0.000    0.000    0.000    0.000 
#    0.000    0.000    0.000    0.000    0.000    0.000 
#
# Total GULP energy -198401.907705 kJ/mol
# GULP energy per Si atom -12400.119232 kJ/mol
# Density = 2.481711 g / cm^3
# Si number density = 24.873724 Si / 1000 Ang^3
#
#
#
# Elastic Constant Matrix: (Units=GPa)
#
#
# Indices 1 2 3 4 5 6 
#
# 1 85.5242 7.5689 21.3957 5.4783 -15.2767 -10.0966
# 2 7.5689 68.3851 17.2530 10.7048 -16.7247 -0.4159
# 3 21.3957 17.2530 83.0636 5.1460 -27.8072 -17.4001
# 4 5.4783 10.7048 5.1460 32.3207 -0.1705 -3.2606
# 5 -15.2767 -16.7247 -27.8072 -0.1705 33.2315 9.9813
# 6 -10.0966 -0.4159 -17.4001 -3.2606 9.9813 25.4535
#
#
#
# Elastic Compliance Matrix: (Units=1/GPa)
#
#
# Indices 1 2 3 4 5 6 
#
# 1 0.013184 0.000246 -0.001402 -0.001832 0.004294 0.002356
# 2 0.000246 0.018262 -0.001272 -0.006352 0.009741 -0.005107
# 3 -0.001402 -0.001272 0.018182 -0.001464 0.011809 0.007034
# 4 -0.001832 -0.006352 -0.001464 0.034070 -0.006631 0.005133
# 5 0.004294 0.009741 0.011809 -0.006631 0.049973 -0.010511
# 6 0.002356 -0.005107 0.007034 0.005133 -0.010511 0.049726
#
#
# Mechanical properties :
#
#
# Convention : Reuss Voigt Hill
#
# Bulk Modulus (GPa) = 22.33560 36.60089 29.46824
# Shear Modulus (GPa) = 24.60896 30.91817 27.76357
#
# Velocity S-wave (km/s) = 3.14882 3.52945 3.34455
# Velocity P-wave (km/s) = 4.71372 5.59964 5.17567
#
# Compressibility (1/GPa) = 0.04477158
#
# Stress axis : x y z
#
# Youngs Moduli (GPa) = 75.84800 54.75771 54.99996
#
# Poissons Ratio (x) = -0.01347 0.07714
# Poissons Ratio (y) = -0.01865 0.06995
# Poissons Ratio (z) = 0.10637 0.06964
#
# Static dielectric constant tensor:
#      x y z
#    x 4.483740 -0.344480 -0.084680 
#    y -0.344480 4.462640 0.098070 
#    z -0.084680 0.098070 4.300140 
# 
# 
# High freq. dielectric constant tensor:
#      x y z
#    x 1.980950 -0.002250 -0.006150 
#    y -0.002250 1.987490 0.006690 
#    z -0.006150 0.006690 1.988360 
# 
# From -- ./inp_files/186383.got.cif
#   From: 2010.06.25/outbox.cif.g09.slc.cpg/sg2_94_cif.got.tgz:186383.got - 2010.06.27 13:26:56.
