data_PCOD8031049
_publ_section_title
;
Structure prediction by ZEFSAII (Michael W. Deem and Ramdas Pophale) SiO2 
 PCOD8031049
Probable space group: P -1
;
_chemical_formula_sum "Si O2"
_cell_formula_units_Z 16
_cell_length_a 5.086118
_cell_length_b 27.840641
_cell_length_c 7.361341
_cell_angle_alpha 37.977556
_cell_angle_beta 97.323792
_cell_angle_gamma 88.547930
_cell_volume 622.527149
_symmetry_space_group_name_H-M "P -1"
_symmetry_group_IT_number 2
_symmetry_cell_setting 'triclinic'
loop_
_space_group_symop_operation_xyz
x,y,z
-x,-y,-z
loop_
_atom_site_type_symbol
_atom_site_label
_atom_site_fract_x
_atom_site_fract_y
_atom_site_fract_z
Si Si1 0.764318 0.277442 0.707797
Si Si2 0.743751 0.964351 0.757038
Si Si3 0.012065 0.889300 0.660969
Si Si4 0.282186 0.749448 0.640950
Si Si5 0.538908 0.580549 0.169039
Si Si6 0.278832 0.151305 0.577810
Si Si7 0.946756 0.464114 0.874021
Si Si8 0.783234 0.624809 0.509015
O O1 0.698955 0.264681 0.531061
O O2 0.529802 0.338967 0.602704
O O3 0.045863 0.306236 0.678817
O O4 0.779520 0.195505 0.066130
O O5 0.940231 0.902506 0.828762
O O6 0.500000 0.000000 0.500000
O O7 0.664780 0.918738 0.059801
O O8 0.868322 0.037412 0.623296
O O9 0.765035 0.884483 0.517197
O O10 0.446734 0.816588 0.508420
O O11 0.974514 0.778565 0.594685
O O12 0.434881 0.666909 0.000573
O O13 0.500000 0.500000 0.500000
O O14 0.300820 0.582835 0.986350
O O15 0.847429 0.571867 0.160988
O O16 0.836541 0.561527 0.532269
O O17 0.133450 0.442612 0.129876
#
# Coordination Sequence:
#
# PCOD8031049 Si02
#       8
#     2   2   2   2   2   2   2   2
#     4  12  23  44  72 102 146 190 244 296 367 429
#     4  11  26  50  79 108 150 191 237 294 367 432
#     4  11  28  46  75 115 142 193 239 297 362 434
#     4  12  25  47  71 104 144 199 242 297 365 429
#     4  12  25  42  67  94 144 190 238 299 369 422
#     4  12  28  48  77 109 152 188 246 296 356 434
#     4  11  22  42  63 102 131 181 245 303 357 425
#     4  11  23  39  73  98 134 183 245 307 355 428
#
# _framework density 25.701688000000001
#
# number of rings (size 3 to 8) (size 9 to 14) (size 15 to 20)
#    0.000    0.500    3.750    3.750    5.250    5.500 
#    0.000    0.000    0.000    0.000    0.000    0.000 
#    0.000    0.000    0.000    0.000    0.000    0.000 
#
# Total GULP energy -198317.558312 kJ/mol
# GULP energy per Si atom -12394.847394 kJ/mol
# Density = 2.564319 g / cm^3
# Si number density = 25.701688 Si / 1000 Ang^3
#
#
#
# Elastic Constant Matrix: (Units=GPa)
#
#
# Indices 1 2 3 4 5 6 
#
# 1 89.3819 2.9677 -5.4729 -13.2626 -1.6399 3.9739
# 2 2.9677 81.1426 5.3786 -14.4180 -18.3343 19.1809
# 3 -5.4729 5.3786 128.7815 -16.9770 -7.8019 -3.6503
# 4 -13.2626 -14.4180 -16.9770 34.2375 -1.3780 -5.4245
# 5 -1.6399 -18.3343 -7.8019 -1.3780 38.9449 -13.9460
# 6 3.9739 19.1809 -3.6503 -5.4245 -13.9460 35.9050
#
#
#
# Elastic Compliance Matrix: (Units=1/GPa)
#
#
# Indices 1 2 3 4 5 6 
#
# 1 0.012121 0.000839 0.001298 0.005694 0.001256 -0.000310
# 2 0.000839 0.016070 0.000470 0.006735 0.006048 -0.005263
# 3 0.001298 0.000470 0.008803 0.005601 0.003159 0.002574
# 4 0.005694 0.006735 0.005601 0.038145 0.007708 0.005098
# 5 0.001256 0.006048 0.003159 0.007708 0.033463 0.011113
# 6 -0.000310 -0.005263 0.002574 0.005098 0.011113 0.036045
#
#
# Mechanical properties :
#
#
# Convention : Reuss Voigt Hill
#
# Bulk Modulus (GPa) = 23.69207 33.89476 28.79342
# Shear Modulus (GPa) = 32.57287 41.57965 37.07626
#
# Velocity S-wave (km/s) = 3.56384 4.02653 3.80223
# Velocity P-wave (km/s) = 5.11593 5.90200 5.52297
#
# Compressibility (1/GPa) = 0.04220821
#
# Stress axis : x y z
#
# Youngs Moduli (GPa) = 82.49967 62.22954 113.59380
#
# Poissons Ratio (x) = -0.05224 -0.14745
# Poissons Ratio (y) = -0.06926 -0.05334
# Poissons Ratio (z) = -0.10709 -0.02922
#
# Static dielectric constant tensor:
#      x y z
#    x 5.110720 -0.069490 0.422370 
#    y -0.069490 5.458320 -0.079830 
#    z 0.422370 -0.079830 5.121580 
# 
# 
# High freq. dielectric constant tensor:
#      x y z
#    x 2.019980 0.013550 0.012960 
#    y 0.013550 2.039570 -0.004900 
#    z 0.012960 -0.004900 2.052060 
# 
# From -- ./inp_files/106350.got.cif
#   From: 2010.06.25/outbox.cif.g09.slc.cpg/sg2_54_cif.got.tgz:106350.got - 2010.06.27 13:26:56.
