data_PCOD8031921
_publ_section_title
;
Structure prediction by ZEFSAII (Michael W. Deem and Ramdas Pophale) SiO2 
 PCOD8031921
Probable space group: P -1
;
_chemical_formula_sum "Si O2"
_cell_formula_units_Z 12
_cell_length_a 11.369600
_cell_length_b 11.004362
_cell_length_c 10.442588
_cell_angle_alpha 26.517075
_cell_angle_beta 106.380659
_cell_angle_gamma 93.503154
_cell_volume 500.762580
_symmetry_space_group_name_H-M "P -1"
_symmetry_group_IT_number 2
_symmetry_cell_setting 'triclinic'
loop_
_space_group_symop_operation_xyz
x,y,z
-x,-y,-z
loop_
_atom_site_type_symbol
_atom_site_label
_atom_site_fract_x
_atom_site_fract_y
_atom_site_fract_z
Si Si1 0.037529 0.238411 0.855201
Si Si2 0.331890 0.916556 0.361341
Si Si3 0.464852 0.266753 0.635164
Si Si4 0.787966 0.372731 0.944307
Si Si5 0.731213 0.496878 0.082209
Si Si6 0.044864 0.338742 0.342916
O O1 0.000000 0.500000 0.500000
O O2 0.949658 0.414565 0.785397
O O3 0.196878 0.081960 0.080283
O O4 0.000000 0.000000 0.000000
O O5 0.454254 0.829172 0.382357
O O6 0.330722 0.635017 0.702837
O O7 0.340533 0.142645 0.258191
O O8 0.500000 0.500000 0.500000
O O9 0.305889 0.431414 0.387460
O O10 0.500000 0.000000 0.000000
O O11 0.891810 0.523781 0.877636
O O12 0.698707 0.414589 0.007718
O O13 0.857832 0.015972 0.265394
O O14 0.896001 0.354565 0.276685
#
# Coordination Sequence:
#
# PCOD8031921 Si02
#       6
#     2   2   2   2   2   2
#     4  11  23  38  65  95 134 183 216 270 336 396
#     4  11  25  45  67  98 138 176 231 287 326 404
#     4  12  29  48  68  97 139 185 232 280 333 407
#     4  12  25  43  73 100 139 186 220 281 346 403
#     4  11  23  45  71 104 136 173 228 286 346 396
#     4  11  23  41  67 110 137 171 228 281 345 408
#
# _framework density 23.963455
#
# number of rings (size 3 to 8) (size 9 to 14) (size 15 to 20)
#    0.000    0.667    0.000    9.000    7.000    1.333 
#    0.000    0.000    0.000    0.000    0.000    0.000 
#    0.000    0.000    0.000    0.000    0.000    0.000 
#
# Total GULP energy -148665.882652 kJ/mol
# GULP energy per Si atom -12388.823554 kJ/mol
# Density = 2.390891 g / cm^3
# Si number density = 23.963455 Si / 1000 Ang^3
#
#
#
# Elastic Constant Matrix: (Units=GPa)
#
#
# Indices 1 2 3 4 5 6 
#
# 1 94.1512 16.5072 36.5631 -4.1334 -12.6536 -14.6589
# 2 16.5072 102.7424 36.4964 -19.5431 2.6160 -4.9814
# 3 36.5631 36.4964 130.5934 -25.6845 -29.3316 -1.4280
# 4 -4.1334 -19.5431 -25.6845 38.9472 -9.7920 -10.4396
# 5 -12.6536 2.6160 -29.3316 -9.7920 42.7864 -2.4647
# 6 -14.6589 -4.9814 -1.4280 -10.4396 -2.4647 30.5734
#
#
#
# Elastic Compliance Matrix: (Units=1/GPa)
#
#
# Indices 1 2 3 4 5 6 
#
# 1 0.013293 -0.000615 -0.002217 0.002455 0.003431 0.007285
# 2 -0.000615 0.011779 -0.002470 0.004680 -0.001352 0.002998
# 3 -0.002217 -0.002470 0.014121 0.012051 0.012181 0.004291
# 4 0.002455 0.004680 0.012051 0.046803 0.020573 0.020143
# 5 0.003431 -0.001352 0.012181 0.020573 0.038225 0.012100
# 6 0.007285 0.002998 0.004291 0.020143 0.012100 0.044743
#
#
# Mechanical properties :
#
#
# Convention : Reuss Voigt Hill
#
# Bulk Modulus (GPa) = 34.97773 56.29114 45.63443
# Shear Modulus (GPa) = 26.44123 38.32276 32.38199
#
# Velocity S-wave (km/s) = 3.32535 4.00336 3.68000
# Velocity P-wave (km/s) = 5.41958 6.70154 6.09436
#
# Compressibility (1/GPa) = 0.02858962
#
# Stress axis : x y z
#
# Youngs Moduli (GPa) = 75.22750 84.89423 70.81630
#
# Poissons Ratio (x) = 0.05225 0.15697
# Poissons Ratio (y) = 0.04630 0.17491
# Poissons Ratio (z) = 0.16675 0.20968
#
# Static dielectric constant tensor:
#      x y z
#    x 5.104190 -0.204720 1.092100 
#    y -0.204720 4.572380 -0.238610 
#    z 1.092100 -0.238610 6.588480 
# 
# 
# High freq. dielectric constant tensor:
#      x y z
#    x 1.955360 -0.012590 -0.008210 
#    y -0.012590 1.965820 -0.006270 
#    z -0.008210 -0.006270 1.965350 
# 
# From -- ./inp_files/427185.got.cif
#   From: 2010.06.25/outbox.cif.g09.slc.cpg/sg2_214_cif.got.tgz:427185.got - 2010.06.27 13:26:56.
