data_PCOD8031115
_publ_section_title
;
Structure prediction by ZEFSAII (Michael W. Deem and Ramdas Pophale) SiO2 
 PCOD8031115
Probable space group: P -1
;
_chemical_formula_sum "Si O2"
_cell_formula_units_Z 12
_cell_length_a 14.726676
_cell_length_b 11.405262
_cell_length_c 19.874192
_cell_angle_alpha 22.053931
_cell_angle_beta 152.245955
_cell_angle_gamma 150.413751
_cell_volume 559.884915
_symmetry_space_group_name_H-M "P -1"
_symmetry_group_IT_number 2
_symmetry_cell_setting 'triclinic'
loop_
_space_group_symop_operation_xyz
x,y,z
-x,-y,-z
loop_
_atom_site_type_symbol
_atom_site_label
_atom_site_fract_x
_atom_site_fract_y
_atom_site_fract_z
Si Si1 0.815534 0.821989 0.018994
Si Si2 0.828185 0.449556 0.356690
Si Si3 0.369734 0.720729 0.269772
Si Si4 0.287992 0.719475 0.007570
Si Si5 0.136645 0.227421 0.281668
Si Si6 0.432190 0.635893 0.009656
O O1 0.668984 0.522333 0.041957
O O2 0.695896 0.086245 0.815172
O O3 0.894526 0.703571 0.203318
O O4 0.000000 0.000000 0.000000
O O5 0.619645 0.491430 0.228704
O O6 0.000000 0.500000 0.500000
O O7 0.790587 0.092660 0.489680
O O8 0.500000 0.500000 0.500000
O O9 0.176709 0.469881 0.242240
O O10 0.489284 0.975356 0.156677
O O11 0.265401 0.408155 0.206039
O O12 0.270905 0.574864 0.997314
O O13 0.108724 0.874008 0.831587
O O14 0.500000 0.000000 0.000000
#
# Coordination Sequence:
#
# PCOD8031115 Si02
#       6
#     2   2   2   2   2   2
#     4  11  25  44  67  98 137 179 224 277 336 401
#     4  11  25  44  67 100 137 176 225 277 338 401
#     4  11  22  42  68  95 129 177 224 276 335 398
#     4  11  23  42  67 100 132 175 222 277 336 396
#     4  11  24  41  69  96 136 172 223 278 334 395
#     4  11  23  44  68  95 138 176 225 278 335 404
#
# _framework density 21.432977999999999
#
# number of rings (size 3 to 8) (size 9 to 14) (size 15 to 20)
#    0.000    1.000    1.667    6.000    9.333    2.000 
#    6.000    3.333    0.000    0.000    0.000    0.000 
#    0.000    0.000    0.000    0.000    0.000    0.000 
#
# Total GULP energy -148777.329571 kJ/mol
# GULP energy per Si atom -12398.110798 kJ/mol
# Density = 2.138420 g / cm^3
# Si number density = 21.432978 Si / 1000 Ang^3
#
#
#
# Elastic Constant Matrix: (Units=GPa)
#
#
# Indices 1 2 3 4 5 6 
#
# 1 141.1245 35.8372 50.7419 -2.7615 -0.6194 13.0372
# 2 35.8372 110.0820 42.7767 -1.5536 -0.7923 -0.2562
# 3 50.7419 42.7767 160.2697 -4.6804 9.6655 7.6103
# 4 -2.7615 -1.5536 -4.6804 35.9958 -11.9144 0.2205
# 5 -0.6194 -0.7923 9.6655 -11.9144 19.6724 -1.4011
# 6 13.0372 -0.2562 7.6103 0.2205 -1.4011 44.5147
#
#
#
# Elastic Compliance Matrix: (Units=1/GPa)
#
#
# Indices 1 2 3 4 5 6 
#
# 1 0.008575 -0.001928 -0.002173 0.000841 0.001620 -0.002104
# 2 -0.001928 0.010668 -0.002391 0.000665 0.002025 0.001095
# 3 -0.002173 -0.002391 0.007859 -0.000745 -0.004538 -0.000860
# 4 0.000841 0.000665 -0.000745 0.034924 0.021599 0.000392
# 5 0.001620 0.002025 -0.004538 0.021599 0.066440 0.002297
# 6 -0.002104 0.001095 -0.000860 0.000392 0.002297 0.023304
#
#
# Mechanical properties :
#
#
# Convention : Reuss Voigt Hill
#
# Bulk Modulus (GPa) = 70.84687 74.46532 72.65610
# Shear Modulus (GPa) = 29.50536 38.84461 34.17498
#
# Velocity S-wave (km/s) = 3.71433 4.26182 3.99746
# Velocity P-wave (km/s) = 7.17787 7.68350 7.43499
#
# Compressibility (1/GPa) = 0.01411495
#
# Stress axis : x y z
#
# Youngs Moduli (GPa) = 116.61753 93.74074 127.24855
#
# Poissons Ratio (x) = 0.18077 0.27656
# Poissons Ratio (y) = 0.22489 0.30430
# Poissons Ratio (z) = 0.25345 0.22417
#
# Static dielectric constant tensor:
#      x y z
#    x 4.369910 -0.367980 -0.056630 
#    y -0.367980 4.230520 -0.009850 
#    z -0.056630 -0.009850 3.882340 
# 
# 
# High freq. dielectric constant tensor:
#      x y z
#    x 1.849920 -0.009360 0.003840 
#    y -0.009360 1.849360 -0.007750 
#    z 0.003840 -0.007750 1.840540 
# 
# From -- ./inp_files/241544.got.cif
#   From: 2010.06.25/outbox.cif.g09.slc.cpg/sg2_121_cif.got.tgz:241544.got - 2010.06.27 13:26:56.
