data_PCOD8031203
_publ_section_title
;
Structure prediction by ZEFSAII (Michael W. Deem and Ramdas Pophale) SiO2 
 PCOD8031203
Probable space group: P -1
;
_chemical_formula_sum "Si O2"
_cell_formula_units_Z 14
_cell_length_a 16.811556
_cell_length_b 23.008430
_cell_length_c 11.758568
_cell_angle_alpha 28.350290
_cell_angle_beta 35.858142
_cell_angle_gamma 16.443392
_cell_volume 591.968803
_symmetry_space_group_name_H-M "P -1"
_symmetry_group_IT_number 2
_symmetry_cell_setting 'triclinic'
loop_
_space_group_symop_operation_xyz
x,y,z
-x,-y,-z
loop_
_atom_site_type_symbol
_atom_site_label
_atom_site_fract_x
_atom_site_fract_y
_atom_site_fract_z
Si Si1 0.731352 0.906063 0.442233
Si Si2 0.889287 0.479228 0.520159
Si Si3 0.934011 0.246031 0.284793
Si Si4 0.384139 0.729492 0.756763
Si Si5 0.786795 0.830448 0.101000
Si Si6 0.670509 0.217650 0.010574
Si Si7 0.830647 0.739970 0.849713
O O1 0.720000 0.916511 0.573765
O O2 0.031766 0.623446 0.523191
O O3 0.500000 0.000000 0.500000
O O4 0.659705 0.100868 0.153171
O O5 0.566553 0.688067 0.552322
O O6 0.913099 0.605790 0.286148
O O7 0.101806 0.244285 0.769843
O O8 0.969436 0.335681 0.171621
O O9 0.588054 0.493870 0.241028
O O10 0.063006 0.016495 0.584257
O O11 0.092364 0.152550 0.142448
O O12 0.411579 0.737405 0.842220
O O13 0.500000 0.500000 0.000000
O O14 0.435743 0.104805 0.036079
O O15 0.000000 0.000000 0.000000
O O16 0.000000 0.500000 0.000000
#
# Coordination Sequence:
#
# PCOD8031203 Si02
#       7
#     2   2   2   2   2   2   2
#     4  12  23  43  73 108 153 196 244 313 378 442
#     4  11  22  42  72 104 148 195 244 301 375 446
#     4  12  26  47  76 110 151 196 255 309 376 458
#     4  12  27  51  73 104 146 202 260 308 369 451
#     4  11  22  42  72 108 151 193 237 310 376 447
#     4  12  27  52  74 107 151 200 253 320 378 447
#     4  12  24  40  68 117 156 188 241 311 384 451
#
# _framework density 23.649895000000001
#
# number of rings (size 3 to 8) (size 9 to 14) (size 15 to 20)
#    0.000    0.286    5.714    3.857    2.000    1.143 
#    0.000    0.000    0.000    0.000    0.000    0.000 
#    0.000    0.000    0.000    0.000    0.000    0.000 
#
# Total GULP energy -173543.385985 kJ/mol
# GULP energy per Si atom -12395.956142 kJ/mol
# Density = 2.359607 g / cm^3
# Si number density = 23.649895 Si / 1000 Ang^3
#
#
#
# Elastic Constant Matrix: (Units=GPa)
#
#
# Indices 1 2 3 4 5 6 
#
# 1 87.3965 48.2038 30.1959 -6.9168 2.7537 -3.0017
# 2 48.2038 126.3980 27.6565 -20.4723 3.3039 -9.4579
# 3 30.1959 27.6565 107.6141 -31.7260 -8.1205 -12.1654
# 4 -6.9168 -20.4723 -31.7260 37.6014 -2.0268 5.6838
# 5 2.7537 3.3039 -8.1205 -2.0268 38.6094 -8.3359
# 6 -3.0017 -9.4579 -12.1654 5.6838 -8.3359 48.7804
#
#
#
# Elastic Compliance Matrix: (Units=1/GPa)
#
#
# Indices 1 2 3 4 5 6 
#
# 1 0.015841 -0.005737 -0.004383 -0.003845 -0.002005 -0.001125
# 2 -0.005737 0.010917 0.000460 0.005086 0.000121 0.001306
# 3 -0.004383 0.000460 0.014442 0.011442 0.004529 0.002862
# 4 -0.003845 0.005086 0.011442 0.038564 0.004234 -0.000167
# 5 -0.002005 0.000121 0.004529 0.004234 0.028371 0.005384
# 6 -0.001125 0.001306 0.002862 -0.000167 0.005384 0.022337
#
#
# Mechanical properties :
#
#
# Convention : Reuss Voigt Hill
#
# Bulk Modulus (GPa) = 45.70011 59.28009 52.49010
# Shear Modulus (GPa) = 31.83010 39.35506 35.59258
#
# Velocity S-wave (km/s) = 3.67261 4.08373 3.88361
# Velocity P-wave (km/s) = 6.11144 6.88156 6.50790
#
# Compressibility (1/GPa) = 0.02188178
#
# Stress axis : x y z
#
# Youngs Moduli (GPa) = 63.12872 91.60077 69.24047
#
# Poissons Ratio (x) = 0.52549 0.30346
# Poissons Ratio (y) = 0.36215 -0.03187
# Poissons Ratio (z) = 0.27667 -0.04216
#
# Static dielectric constant tensor:
#      x y z
#    x 2.161400 -2.196470 0.208600 
#    y -2.196470 1.739110 -0.260250 
#    z 0.208600 -0.260250 4.350700 
# 
# 
# High freq. dielectric constant tensor:
#      x y z
#    x 1.938160 0.011460 0.013860 
#    y 0.011460 1.939450 -0.013190 
#    z 0.013860 -0.013190 1.930630 
# 
# From -- ./inp_files/457610.got.cif
#   From: 2010.06.25/outbox.cif.g09.slc.cpg/sg2_229_cif.got.tgz:457610.got - 2010.06.27 13:26:56.
