data_PCOD8031254
_publ_section_title
;
Structure prediction by ZEFSAII (Michael W. Deem and Ramdas Pophale) SiO2 
 PCOD8031254
Probable space group: P -1
;
_chemical_formula_sum "Si O2"
_cell_formula_units_Z 14
_cell_length_a 9.793629
_cell_length_b 8.968906
_cell_length_c 20.307048
_cell_angle_alpha 145.692443
_cell_angle_beta 48.203783
_cell_angle_gamma 113.547356
_cell_volume 699.443431
_symmetry_space_group_name_H-M "P -1"
_symmetry_group_IT_number 2
_symmetry_cell_setting 'triclinic'
loop_
_space_group_symop_operation_xyz
x,y,z
-x,-y,-z
loop_
_atom_site_type_symbol
_atom_site_label
_atom_site_fract_x
_atom_site_fract_y
_atom_site_fract_z
Si Si1 0.215927 0.277882 0.356834
Si Si2 0.879095 0.266504 0.807364
Si Si3 0.710604 0.727077 0.123732
Si Si4 0.378190 0.303646 0.448852
Si Si5 0.051512 0.833347 0.110222
Si Si6 0.003773 0.705819 0.363850
Si Si7 0.293575 0.217097 0.165987
O O1 0.322698 0.376645 0.417218
O O2 0.322938 0.291825 0.259214
O O3 0.000000 0.500000 0.500000
O O4 0.225749 0.960045 0.254989
O O5 0.021590 0.153129 0.784311
O O6 0.997485 0.297543 0.716369
O O7 0.720874 0.578783 0.993902
O O8 0.877467 0.868900 0.127829
O O9 0.502845 0.967812 0.293056
O O10 0.768291 0.473532 0.067709
O O11 0.500000 0.500000 0.500000
O O12 0.182742 0.368061 0.578866
O O13 0.125762 0.085262 0.164871
O O14 0.213298 0.488938 0.243860
O O15 0.000000 0.000000 0.500000
O O16 0.500000 0.000000 0.000000
#
# Coordination Sequence:
#
# PCOD8031254 Si02
#       7
#     2   2   2   2   2   2   2
#     4  11  22  43  64  89 128 178 211 260 331 386
#     4   9  20  39  69  86 119 172 215 263 312 379
#     4   9  20  40  69  87 125 170 221 252 329 384
#     4  12  26  41  65  98 135 172 211 269 334 390
#     4   8  19  41  65  90 125 169 212 264 322 379
#     4  12  24  42  62  99 134 163 219 278 320 373
#     4  11  24  38  65  92 127 165 224 265 311 389
#
# _framework density 20.015916000000001
#
# number of rings (size 3 to 8) (size 9 to 14) (size 15 to 20)
#    0.857    0.857    2.857    0.857    6.000    0.571 
#    2.571    2.143    0.000    0.000    0.000    0.000 
#    0.000    0.000    0.000    0.000    0.000    0.000 
#
# Total GULP energy -173438.268835 kJ/mol
# GULP energy per Si atom -12388.447774 kJ/mol
# Density = 1.997036 g / cm^3
# Si number density = 20.015916 Si / 1000 Ang^3
#
#
#
# Elastic Constant Matrix: (Units=GPa)
#
#
# Indices 1 2 3 4 5 6 
#
# 1 111.9913 38.5932 45.6023 2.6790 11.1305 -1.8741
# 2 38.5932 81.2409 39.5614 -4.3385 8.8645 -9.0364
# 3 45.6023 39.5614 133.1547 -2.9130 -4.9385 -14.8105
# 4 2.6790 -4.3385 -2.9130 31.9981 -5.1438 3.8871
# 5 11.1305 8.8645 -4.9385 -5.1438 35.9238 6.7191
# 6 -1.8741 -9.0364 -14.8105 3.8871 6.7191 24.6929
#
#
#
# Elastic Compliance Matrix: (Units=1/GPa)
#
#
# Indices 1 2 3 4 5 6 
#
# 1 0.011981 -0.004031 -0.003215 -0.002209 -0.003239 -0.001265
# 2 -0.004031 0.016834 -0.003207 0.001076 -0.004104 0.004878
# 3 -0.003215 -0.003207 0.010100 0.000699 0.002559 0.003834
# 4 -0.002209 0.001076 0.000699 0.033468 0.006503 -0.006393
# 5 -0.003239 -0.004104 0.002559 0.006503 0.033049 -0.010230
# 6 -0.001265 0.004878 0.003834 -0.006393 -0.010230 0.048276
#
#
# Mechanical properties :
#
#
# Convention : Reuss Voigt Hill
#
# Bulk Modulus (GPa) = 55.52641 63.76675 59.64658
# Shear Modulus (GPa) = 27.68273 32.03163 29.85718
#
# Velocity S-wave (km/s) = 3.72295 4.00473 3.86641
# Velocity P-wave (km/s) = 6.80308 7.30143 7.05666
#
# Compressibility (1/GPa) = 0.01800945
#
# Stress axis : x y z
#
# Youngs Moduli (GPa) = 83.46451 59.40477 99.00537
#
# Poissons Ratio (x) = 0.23949 0.31827
# Poissons Ratio (y) = 0.33648 0.31749
# Poissons Ratio (z) = 0.26831 0.19050
#
# Static dielectric constant tensor:
#      x y z
#    x 3.586600 0.049420 0.178610 
#    y 0.049420 3.672570 0.077280 
#    z 0.178610 0.077280 3.875210 
# 
# 
# High freq. dielectric constant tensor:
#      x y z
#    x 1.776050 -0.004940 0.012040 
#    y -0.004940 1.761130 0.022730 
#    z 0.012040 0.022730 1.788190 
# 
# From -- ./inp_files/586955.got.cif
#   From: 2010.06.25/outbox.cif.g09.slc.cpg/sg2_294_cif.got.tgz:586955.got - 2010.06.27 13:26:56.
