data_PCOD8031105
_publ_section_title
;
Structure prediction by ZEFSAII (Michael W. Deem and Ramdas Pophale) SiO2 
 PCOD8031105
Probable space group: P -1
;
_chemical_formula_sum "Si O2"
_cell_formula_units_Z 16
_cell_length_a 25.307805
_cell_length_b 8.388763
_cell_length_c 14.392657
_cell_angle_alpha 60.841208
_cell_angle_beta 19.200216
_cell_angle_gamma 52.689759
_cell_volume 755.684232
_symmetry_space_group_name_H-M "P -1"
_symmetry_group_IT_number 2
_symmetry_cell_setting 'triclinic'
loop_
_space_group_symop_operation_xyz
x,y,z
-x,-y,-z
loop_
_atom_site_type_symbol
_atom_site_label
_atom_site_fract_x
_atom_site_fract_y
_atom_site_fract_z
Si Si1 0.054524 0.530713 0.655125
Si Si2 0.080744 0.811540 0.682433
Si Si3 0.371154 0.080181 0.280624
Si Si4 0.722646 0.238414 0.117677
Si Si5 0.805380 0.185789 0.305954
Si Si6 0.691615 0.536685 0.242571
Si Si7 0.178504 0.772368 0.254170
Si Si8 0.405593 0.740088 0.052006
O O1 0.091121 0.614016 0.667338
O O2 0.165399 0.275777 0.542688
O O3 0.127137 0.602522 0.426168
O O4 0.833958 0.622751 0.987686
O O5 0.159779 0.735987 0.675577
O O6 0.213642 0.879988 0.389063
O O7 0.870753 0.008303 0.976409
O O8 0.344730 0.891623 0.416325
O O9 0.464263 0.158654 0.180419
O O10 0.500000 0.000000 0.000000
O O11 0.728116 0.418820 0.117329
O O12 0.518449 0.264023 0.458863
O O13 0.765536 0.273165 0.932124
O O14 0.717953 0.382167 0.327098
O O15 0.000000 0.000000 0.000000
O O16 0.355217 0.750565 0.023956
O O17 0.000000 0.000000 0.500000
O O18 0.500000 0.500000 0.000000
#
# Coordination Sequence:
#
# PCOD8031105 Si02
#       8
#     2   2   2   2   2   2   2   2
#     4  11  24  44  68 101 132 174 228 278 341 393
#     4  11  22  43  70  94 137 171 218 289 326 395
#     4  12  24  40  70 103 133 174 220 279 339 395
#     4  11  24  47  66  92 141 181 219 277 337 395
#     4  12  24  45  69  94 135 179 222 274 336 395
#     4  11  27  46  65  97 140 181 227 273 329 413
#     4  11  23  44  71  98 132 175 219 283 341 387
#     4  11  22  42  68 101 134 164 221 285 332 390
#
# _framework density 21.172864000000001
#
# number of rings (size 3 to 8) (size 9 to 14) (size 15 to 20)
#    0.000    0.750    8.750    0.000    3.500    1.500 
#    6.750    0.000    0.000    0.000    0.000    0.000 
#    0.000    0.000    0.000    0.000    0.000    0.000 
#
# Total GULP energy -198445.257928 kJ/mol
# GULP energy per Si atom -12402.828621 kJ/mol
# Density = 2.112467 g / cm^3
# Si number density = 21.172864 Si / 1000 Ang^3
#
#
#
# Elastic Constant Matrix: (Units=GPa)
#
#
# Indices 1 2 3 4 5 6 
#
# 1 160.3118 36.6723 51.0852 -13.1801 5.1841 -0.0364
# 2 36.6723 51.3837 28.7232 -0.7407 -5.0328 3.8671
# 3 51.0852 28.7232 122.7991 -1.7510 -9.6463 10.9915
# 4 -13.1801 -0.7407 -1.7510 43.7039 2.8771 -8.9998
# 5 5.1841 -5.0328 -9.6463 2.8771 43.3364 1.0005
# 6 -0.0364 3.8671 10.9915 -8.9998 1.0005 26.3535
#
#
#
# Elastic Compliance Matrix: (Units=1/GPa)
#
#
# Indices 1 2 3 4 5 6 
#
# 1 0.008641 -0.005008 -0.002857 0.003219 -0.002537 0.003134
# 2 -0.005008 0.025424 -0.003375 -0.002061 0.003010 -0.003148
# 3 -0.002857 -0.003375 0.010712 -0.001610 0.002548 -0.004623
# 4 0.003219 -0.002061 -0.001610 0.025999 -0.002939 0.009968
# 5 -0.002537 0.003010 0.002548 -0.002939 0.024570 -0.003444
# 6 0.003134 -0.003148 -0.004623 0.009968 -0.003444 0.043875
#
#
# Mechanical properties :
#
#
# Convention : Reuss Voigt Hill
#
# Bulk Modulus (GPa) = 44.84746 63.05066 53.94906
# Shear Modulus (GPa) = 29.56218 37.21300 33.38759
#
# Velocity S-wave (km/s) = 3.74067 4.19690 3.97533
# Velocity P-wave (km/s) = 6.31541 7.30266 6.82691
#
# Compressibility (1/GPa) = 0.02229780
#
# Stress axis : x y z
#
# Youngs Moduli (GPa) = 115.72101 39.33277 93.34941
#
# Poissons Ratio (x) = 0.19698 0.26674
# Poissons Ratio (y) = 0.57954 0.31501
# Poissons Ratio (z) = 0.33067 0.13273
#
# Static dielectric constant tensor:
#      x y z
#    x 4.903070 0.416180 -0.224920 
#    y 0.416180 4.111790 -0.215100 
#    z -0.224920 -0.215100 4.437150 
# 
# 
# High freq. dielectric constant tensor:
#      x y z
#    x 1.841440 0.004490 -0.005840 
#    y 0.004490 1.807180 0.010610 
#    z -0.005840 0.010610 1.848160 
# 
# From -- ./inp_files/543830.got.cif
#   From: 2010.06.25/outbox.cif.g09.slc.cpg/sg2_272_cif.got.tgz:543830.got - 2010.06.27 13:26:56.
