data_PCOD8031566
_publ_section_title
;
Structure prediction by ZEFSAII (Michael W. Deem and Ramdas Pophale) SiO2 
 PCOD8031566
Probable space group: P -1
;
_chemical_formula_sum "Si O2"
_cell_formula_units_Z 16
_cell_length_a 16.789100
_cell_length_b 18.259610
_cell_length_c 10.815482
_cell_angle_alpha 145.174695
_cell_angle_beta 47.154320
_cell_angle_gamma 156.763309
_cell_volume 705.264211
_symmetry_space_group_name_H-M "P -1"
_symmetry_group_IT_number 2
_symmetry_cell_setting 'triclinic'
loop_
_space_group_symop_operation_xyz
x,y,z
-x,-y,-z
loop_
_atom_site_type_symbol
_atom_site_label
_atom_site_fract_x
_atom_site_fract_y
_atom_site_fract_z
Si Si1 0.138483 0.499112 0.715957
Si Si2 0.238736 0.699828 0.149798
Si Si3 0.499038 0.513684 0.663293
Si Si4 0.270586 0.500831 0.992851
Si Si5 0.477600 0.144468 0.365563
Si Si6 0.674519 0.567192 0.896218
Si Si7 0.046949 0.125268 0.294216
Si Si8 0.125208 0.960617 0.390716
O O1 0.367319 0.758025 0.767556
O O2 0.032583 0.257982 0.446935
O O3 0.972746 0.441412 0.776940
O O4 0.179959 0.540986 0.879189
O O5 0.427709 0.987686 0.305848
O O6 0.315138 0.695627 0.182612
O O7 0.500000 0.500000 0.500000
O O8 0.462100 0.623214 0.889616
O O9 0.720451 0.689884 0.728836
O O10 0.309465 0.241735 0.544445
O O11 0.281489 0.475873 0.090182
O O12 0.033676 0.226799 0.813951
O O13 0.598669 0.392030 0.630595
O O14 0.242378 0.947031 0.290048
O O15 0.500000 0.500000 0.000000
O O16 0.885295 0.858745 0.033023
O O17 0.997624 0.084706 0.436334
#
# Coordination Sequence:
#
# PCOD8031566 Si02
#       8
#     2   2   2   2   2   2   2   2
#     4  11  22  44  72 107 132 181 238 290 342 405
#     4  11  23  45  70 100 141 182 235 292 339 397
#     4  12  22  37  66 104 137 174 230 293 348 402
#     4  12  25  43  70 103 140 186 229 289 351 406
#     4  12  25  45  71 102 143 187 235 277 344 424
#     4  12  26  48  69 101 147 189 221 284 361 423
#     4  12  22  43  71 103 137 176 230 286 353 407
#     4  12  21  43  70 101 144 173 230 300 338 401
#
# _framework density 22.686532
#
# number of rings (size 3 to 8) (size 9 to 14) (size 15 to 20)
#    0.000    0.250    7.500    2.250    0.000    1.000 
#    4.500    0.625    0.000    0.000    0.000    0.000 
#    0.000    0.000    0.000    0.000    0.000    0.000 
#
# Total GULP energy -198371.221842 kJ/mol
# GULP energy per Si atom -12398.201365 kJ/mol
# Density = 2.263490 g / cm^3
# Si number density = 22.686532 Si / 1000 Ang^3
#
#
#
# Elastic Constant Matrix: (Units=GPa)
#
#
# Indices 1 2 3 4 5 6 
#
# 1 134.7998 43.3972 21.8012 1.5747 -22.9305 9.4308
# 2 43.3972 136.8445 34.0420 -11.4827 -14.8536 10.3093
# 3 21.8012 34.0420 83.4542 15.4123 -20.7737 11.4379
# 4 1.5747 -11.4827 15.4123 27.4966 -1.4390 -10.4312
# 5 -22.9305 -14.8536 -20.7737 -1.4390 37.4014 0.9826
# 6 9.4308 10.3093 11.4379 -10.4312 0.9826 25.8875
#
#
#
# Elastic Compliance Matrix: (Units=1/GPa)
#
#
# Indices 1 2 3 4 5 6 
#
# 1 0.009362 -0.002701 0.001383 -0.003957 0.005408 -0.004746
# 2 -0.002701 0.009948 -0.005394 0.008369 -0.000452 0.002794
# 3 0.001383 -0.005394 0.022870 -0.021179 0.011051 -0.017414
# 4 -0.003957 0.008369 -0.021179 0.064265 -0.009279 0.033713
# 5 0.005408 -0.000452 0.011051 -0.009279 0.035964 -0.011777
# 6 -0.004746 0.002794 -0.017414 0.033713 -0.011777 0.060970
#
#
# Mechanical properties :
#
#
# Convention : Reuss Voigt Hill
#
# Bulk Modulus (GPa) = 34.77156 61.50881 48.14019
# Shear Modulus (GPa) = 22.08594 35.21431 28.65012
#
# Velocity S-wave (km/s) = 3.12352 3.94409 3.55754
# Velocity P-wave (km/s) = 5.32623 6.92188 6.17581
#
# Compressibility (1/GPa) = 0.02875914
#
# Stress axis : x y z
#
# Youngs Moduli (GPa) = 106.81056 100.51869 43.72472
#
# Poissons Ratio (x) = 0.27146 -0.06048
# Poissons Ratio (y) = 0.28845 0.23584
# Poissons Ratio (z) = -0.14775 0.54216
#
# Static dielectric constant tensor:
#      x y z
#    x 4.289980 0.166140 -0.229180 
#    y 0.166140 4.941040 0.005260 
#    z -0.229180 0.005260 4.154880 
# 
# 
# High freq. dielectric constant tensor:
#      x y z
#    x 1.892870 -0.006890 -0.021580 
#    y -0.006890 1.913710 0.002430 
#    z -0.021580 0.002430 1.883730 
# 
# From -- ./inp_files/467167.got.cif
#   From: 2010.06.25/outbox.cif.g09.slc.cpg/sg2_234_cif.got.tgz:467167.got - 2010.06.27 13:26:56.
