data_PCOD8031600
_publ_section_title
;
Structure prediction by ZEFSAII (Michael W. Deem and Ramdas Pophale) SiO2 
 PCOD8031600
Probable space group: P -1
;
_chemical_formula_sum "Si O2"
_cell_formula_units_Z 16
_cell_length_a 6.460466
_cell_length_b 21.959580
_cell_length_c 8.418459
_cell_angle_alpha 132.645579
_cell_angle_beta 89.722446
_cell_angle_gamma 62.389593
_cell_volume 678.966505
_symmetry_space_group_name_H-M "P -1"
_symmetry_group_IT_number 2
_symmetry_cell_setting 'triclinic'
loop_
_space_group_symop_operation_xyz
x,y,z
-x,-y,-z
loop_
_atom_site_type_symbol
_atom_site_label
_atom_site_fract_x
_atom_site_fract_y
_atom_site_fract_z
Si Si1 0.908797 0.249405 0.960072
Si Si2 0.472563 0.083242 0.766363
Si Si3 0.996120 0.531963 0.376637
Si Si4 0.306923 0.853863 0.367950
Si Si5 0.399067 0.709315 0.677989
Si Si6 0.121117 0.955076 0.090958
Si Si7 0.739349 0.408996 0.726773
Si Si8 0.110038 0.332671 0.869329
O O1 0.877005 0.179995 0.718014
O O2 0.156687 0.176411 0.954094
O O3 0.951041 0.319200 0.976833
O O4 0.650963 0.320775 0.201542
O O5 0.600521 0.133784 0.779028
O O6 0.640456 0.038308 0.852226
O O7 0.500000 0.000000 0.500000
O O8 0.712385 0.648381 0.554498
O O9 0.000000 0.500000 0.500000
O O10 0.220991 0.542253 0.343012
O O11 0.040622 0.444508 0.104207
O O12 0.572298 0.764363 0.308747
O O13 0.131175 0.968992 0.656486
O O14 0.318021 0.668962 0.465809
O O15 0.227527 0.835390 0.885972
O O16 0.000000 0.000000 0.000000
O O17 0.010658 0.337978 0.702736
O O18 0.500000 0.500000 0.000000
#
# Coordination Sequence:
#
# PCOD8031600 Si02
#       8
#     2   2   2   2   2   2   2   2
#     4  11  24  44  77 110 146 195 258 309 377 455
#     4  11  22  44  74 103 142 204 257 305 373 456
#     4  12  28  49  77 112 149 196 260 317 377 458
#     4  11  24  46  73 105 148 196 253 307 381 455
#     4  12  28  47  75 107 153 196 254 314 380 457
#     4  12  28  44  72 109 154 202 246 320 385 450
#     4  12  29  49  75 110 157 200 249 316 393 454
#     4  11  27  44  79 110 144 201 251 316 384 461
#
# _framework density 23.565228000000001
#
# number of rings (size 3 to 8) (size 9 to 14) (size 15 to 20)
#    0.000    0.500    3.750    3.000   10.500    1.000 
#    0.000    1.875    0.000    0.000    0.000    0.000 
#    0.000    0.000    0.000    0.000    0.000    0.000 
#
# Total GULP energy -198387.267094 kJ/mol
# GULP energy per Si atom -12399.204193 kJ/mol
# Density = 2.351159 g / cm^3
# Si number density = 23.565228 Si / 1000 Ang^3
#
#
#
# Elastic Constant Matrix: (Units=GPa)
#
#
# Indices 1 2 3 4 5 6 
#
# 1 119.2067 42.9850 46.2425 2.3676 0.5711 -11.9137
# 2 42.9850 111.6894 35.3826 -1.0615 0.4027 -21.4659
# 3 46.2425 35.3826 135.6343 17.8865 4.8804 -5.2323
# 4 2.3676 -1.0615 17.8865 42.0728 -6.4736 4.7401
# 5 0.5711 0.4027 4.8804 -6.4736 45.0922 -6.0175
# 6 -11.9137 -21.4659 -5.2323 4.7401 -6.0175 37.1418
#
#
#
# Elastic Compliance Matrix: (Units=1/GPa)
#
#
# Indices 1 2 3 4 5 6 
#
# 1 0.010698 -0.002936 -0.002909 0.000480 0.000453 0.001337
# 2 -0.002936 0.011812 -0.002009 0.000837 0.001025 0.005661
# 3 -0.002909 -0.002009 0.009470 -0.004107 -0.001626 -0.000500
# 4 0.000480 0.000837 -0.004107 0.026405 0.003864 -0.002685
# 5 0.000453 0.001025 -0.001626 0.003864 0.023401 0.003807
# 6 0.001337 0.005661 -0.000500 -0.002685 0.003807 0.031514
#
#
# Mechanical properties :
#
#
# Convention : Reuss Voigt Hill
#
# Bulk Modulus (GPa) = 61.46039 68.41673 64.93856
# Shear Modulus (GPa) = 37.19358 40.98938 39.09148
#
# Velocity S-wave (km/s) = 3.97712 4.17514 4.07733
# Velocity P-wave (km/s) = 6.87223 7.23452 7.05570
#
# Compressibility (1/GPa) = 0.01627064
#
# Stress axis : x y z
#
# Youngs Moduli (GPa) = 93.47612 84.65906 105.59961
#
# Poissons Ratio (x) = 0.24852 0.30724
# Poissons Ratio (y) = 0.27441 0.21220
# Poissons Ratio (z) = 0.27197 0.17012
#
# Static dielectric constant tensor:
#      x y z
#    x 4.556460 -0.232260 -0.006090 
#    y -0.232260 4.357370 0.051670 
#    z -0.006090 0.051670 4.323600 
# 
# 
# High freq. dielectric constant tensor:
#      x y z
#    x 1.945040 -0.014260 0.003000 
#    y -0.014260 1.926400 0.006900 
#    z 0.003000 0.006900 1.939580 
# 
# From -- ./inp_files/142673.got.cif
#   From: 2010.06.25/outbox.cif.g09.slc.cpg/sg2_72_cif.got.tgz:142673.got - 2010.06.27 13:26:56.
