data_PCOD8031503
_publ_section_title
;
Structure prediction by ZEFSAII (Michael W. Deem and Ramdas Pophale) SiO2 
 PCOD8031503
Probable space group: P -1
;
_chemical_formula_sum "Si O2"
_cell_formula_units_Z 14
_cell_length_a 8.611676
_cell_length_b 19.102905
_cell_length_c 10.654348
_cell_angle_alpha 153.616032
_cell_angle_beta 56.673558
_cell_angle_gamma 124.309232
_cell_volume 638.626956
_symmetry_space_group_name_H-M "P -1"
_symmetry_group_IT_number 2
_symmetry_cell_setting 'triclinic'
loop_
_space_group_symop_operation_xyz
x,y,z
-x,-y,-z
loop_
_atom_site_type_symbol
_atom_site_label
_atom_site_fract_x
_atom_site_fract_y
_atom_site_fract_z
Si Si1 0.005459 0.385889 0.932777
Si Si2 0.185322 0.431229 0.350329
Si Si3 0.765308 0.841279 0.947385
Si Si4 0.069770 0.105599 0.299626
Si Si5 0.683529 0.132508 0.111973
Si Si6 0.335400 0.716927 0.900457
Si Si7 0.324568 0.536779 0.214021
O O1 0.093484 0.233562 0.606352
O O2 0.133920 0.495940 0.152677
O O3 0.000000 0.500000 0.000000
O O4 0.806112 0.304980 0.953577
O O5 0.130236 0.259149 0.162729
O O6 0.323290 0.540860 0.564171
O O7 0.305525 0.416697 0.148181
O O8 0.000000 0.500000 0.500000
O O9 0.818288 0.800965 0.717351
O O10 0.539708 0.797270 0.993507
O O11 0.849080 0.031096 0.241927
O O12 0.144989 0.946171 0.045457
O O13 0.718793 0.175989 0.018962
O O14 0.657232 0.283038 0.451931
O O15 0.500000 0.000000 0.000000
O O16 0.500000 0.500000 0.000000
#
# Coordination Sequence:
#
# PCOD8031503 Si02
#       7
#     2   2   2   2   2   2   2
#     4  12  28  45  67 104 141 177 233 296 343 400
#     4  11  22  44  69  98 136 183 227 278 344 416
#     4  11  24  43  69  99 133 187 231 278 345 420
#     4  11  26  44  71 100 138 184 229 284 352 409
#     4  11  23  47  73 100 140 184 230 279 347 418
#     4  11  24  42  70 100 137 184 230 281 346 414
#     4  11  26  44  70 101 135 180 229 285 343 405
#
# _framework density 21.922029999999999
#
# number of rings (size 3 to 8) (size 9 to 14) (size 15 to 20)
#    0.000    0.857    2.857    3.857    8.000    1.143 
#    2.571    0.000    0.000    0.000    0.000    0.000 
#    0.000    0.000    0.000    0.000    0.000    0.000 
#
# Total GULP energy -173514.401391 kJ/mol
# GULP energy per Si atom -12393.885814 kJ/mol
# Density = 2.187213 g / cm^3
# Si number density = 21.922030 Si / 1000 Ang^3
#
#
#
# Elastic Constant Matrix: (Units=GPa)
#
#
# Indices 1 2 3 4 5 6 
#
# 1 95.7777 53.6024 41.6987 3.6014 1.3623 10.1482
# 2 53.6024 190.7795 60.4109 -12.4850 -9.3819 -1.4190
# 3 41.6987 60.4109 116.9086 -6.5477 3.0325 -3.4642
# 4 3.6014 -12.4850 -6.5477 34.7019 7.2028 3.4061
# 5 1.3623 -9.3819 3.0325 7.2028 32.2094 5.9439
# 6 10.1482 -1.4190 -3.4642 3.4061 5.9439 50.6757
#
#
#
# Elastic Compliance Matrix: (Units=1/GPa)
#
#
# Indices 1 2 3 4 5 6 
#
# 1 0.014193 -0.003008 -0.003767 -0.002993 0.000100 -0.002994
# 2 -0.003008 0.007117 -0.002537 0.001963 0.001951 0.000267
# 3 -0.003767 -0.002537 0.011429 0.001973 -0.002395 0.001613
# 4 -0.002993 0.001963 0.001973 0.031601 -0.006447 -0.000579
# 5 0.000100 0.001951 -0.002395 -0.006447 0.033957 -0.003679
# 6 -0.002994 0.000267 0.001613 -0.000579 -0.003679 0.020921
#
#
# Mechanical properties :
#
#
# Convention : Reuss Voigt Hill
#
# Bulk Modulus (GPa) = 70.85261 79.43218 75.14239
# Shear Modulus (GPa) = 35.07645 40.03432 37.55538
#
# Velocity S-wave (km/s) = 4.00441 4.27806 4.14349
# Velocity P-wave (km/s) = 7.33286 7.79198 7.56590
#
# Compressibility (1/GPa) = 0.01411381
#
# Stress axis : x y z
#
# Youngs Moduli (GPa) = 70.45898 140.51632 87.49898
#
# Poissons Ratio (x) = 0.42269 0.32959
# Poissons Ratio (y) = 0.21195 0.22201
# Poissons Ratio (z) = 0.26540 0.35652
#
# Static dielectric constant tensor:
#      x y z
#    x 4.132370 -0.042760 0.124730 
#    y -0.042760 4.472620 0.006430 
#    z 0.124730 0.006430 3.983800 
# 
# 
# High freq. dielectric constant tensor:
#      x y z
#    x 1.864140 0.006210 0.021570 
#    y 0.006210 1.893960 0.004330 
#    z 0.021570 0.004330 1.842640 
# 
# From -- ./inp_files/218995.got.cif
#   From: 2010.06.25/outbox.cif.g09.slc.cpg/sg2_110_cif.got.tgz:218995.got - 2010.06.27 13:26:56.
