data_PCOD8031956
_publ_section_title
;
Structure prediction by ZEFSAII (Michael W. Deem and Ramdas Pophale) SiO2 
 PCOD8031956
Probable space group: P -1
;
_chemical_formula_sum "Si O2"
_cell_formula_units_Z 16
_cell_length_a 15.215347
_cell_length_b 14.700186
_cell_length_c 10.630811
_cell_angle_alpha 137.395473
_cell_angle_beta 129.846688
_cell_angle_gamma 26.833799
_cell_volume 725.576069
_symmetry_space_group_name_H-M "P -1"
_symmetry_group_IT_number 2
_symmetry_cell_setting 'triclinic'
loop_
_space_group_symop_operation_xyz
x,y,z
-x,-y,-z
loop_
_atom_site_type_symbol
_atom_site_label
_atom_site_fract_x
_atom_site_fract_y
_atom_site_fract_z
Si Si1 0.964285 0.630818 0.907408
Si Si2 0.672402 0.574442 0.024157
Si Si3 0.580991 0.423110 0.179347
Si Si4 0.773353 0.873309 0.402796
Si Si5 0.717443 0.291182 0.437861
Si Si6 0.478963 0.979903 0.106163
Si Si7 0.414944 0.792761 0.229014
Si Si8 0.050582 0.159006 0.686671
O O1 0.093942 0.624908 0.951670
O O2 0.061774 0.396386 0.728382
O O3 0.743184 0.832811 0.862749
O O4 0.964911 0.675332 0.100825
O O5 0.597164 0.731715 0.994573
O O6 0.567957 0.726965 0.212497
O O7 0.616006 0.470927 0.847827
O O8 0.724009 0.307635 0.310342
O O9 0.526595 0.619450 0.273584
O O10 0.684285 0.232549 0.971485
O O11 0.566811 0.017427 0.307302
O O12 0.846725 0.929406 0.444479
O O13 0.743224 0.953884 0.600440
O O14 0.500000 0.500000 0.500000
O O15 0.837396 0.296177 0.620040
O O16 0.813450 0.056465 0.315397
O O17 0.500000 0.000000 0.000000
#
# Coordination Sequence:
#
# PCOD8031956 Si02
#       8
#     2   2   2   2   2   2   2   2
#     4  11  23  40  63  96 129 169 211 267 326 382
#     4   9  21  41  68  90 131 167 213 271 317 383
#     4   9  19  42  70  92 126 177 214 263 331 379
#     4  11  24  41  63  90 135 170 214 270 312 390
#     4  11  23  40  68  98 128 167 210 274 336 385
#     4  11  23  39  66  95 127 173 217 261 335 386
#     4   9  21  43  68  94 126 182 218 262 325 380
#     4  11  24  39  63 102 132 159 219 267 329 397
#
# _framework density 22.051445000000001
#
# number of rings (size 3 to 8) (size 9 to 14) (size 15 to 20)
#    0.750    1.000    1.250    2.625    1.750    6.000 
#    0.000    4.375    0.000    0.000    0.000    0.000 
#    0.000    0.000    0.000    0.000    0.000    0.000 
#
# Total GULP energy -198279.189296 kJ/mol
# GULP energy per Si atom -12392.449331 kJ/mol
# Density = 2.200125 g / cm^3
# Si number density = 22.051445 Si / 1000 Ang^3
#
#
#
# Elastic Constant Matrix: (Units=GPa)
#
#
# Indices 1 2 3 4 5 6 
#
# 1 94.1686 37.2392 -1.1889 3.9266 -0.8264 -5.9514
# 2 37.2392 109.6148 32.8458 -3.4914 1.2235 -17.6260
# 3 -1.1889 32.8458 88.1506 9.8099 -9.0586 -6.7394
# 4 3.9266 -3.4914 9.8099 19.3710 -2.7968 -2.4563
# 5 -0.8264 1.2235 -9.0586 -2.7968 34.3671 -0.2229
# 6 -5.9514 -17.6260 -6.7394 -2.4563 -0.2229 43.3352
#
#
#
# Elastic Compliance Matrix: (Units=1/GPa)
#
#
# Indices 1 2 3 4 5 6 
#
# 1 0.013023 -0.005489 0.002841 -0.004981 0.000850 -0.000280
# 2 -0.005489 0.013629 -0.005741 0.006795 -0.001550 0.004274
# 3 0.002841 -0.005741 0.014832 -0.008633 0.003479 -0.000110
# 4 -0.004981 0.006795 -0.008633 0.059066 0.002196 0.004096
# 5 0.000850 -0.001550 0.003479 0.002196 0.030271 0.000308
# 6 -0.000280 0.004274 -0.000110 0.004096 0.000308 0.024993
#
#
# Mechanical properties :
#
#
# Convention : Reuss Voigt Hill
#
# Bulk Modulus (GPa) = 40.47575 47.74736 44.11155
# Shear Modulus (GPa) = 27.65091 34.28384 30.96737
#
# Velocity S-wave (km/s) = 3.54493 3.94727 3.75150
# Velocity P-wave (km/s) = 5.92877 6.51723 6.22995
#
# Compressibility (1/GPa) = 0.02470615
#
# Stress axis : x y z
#
# Youngs Moduli (GPa) = 76.78646 73.37422 67.42396
#
# Poissons Ratio (x) = 0.40274 -0.19156
# Poissons Ratio (y) = 0.42147 0.38707
# Poissons Ratio (z) = -0.21816 0.42123
#
# Static dielectric constant tensor:
#      x y z
#    x 4.155960 -0.094100 -0.056090 
#    y -0.094100 3.778130 -0.100000 
#    z -0.056090 -0.100000 3.891100 
# 
# 
# High freq. dielectric constant tensor:
#      x y z
#    x 1.873820 -0.004840 0.000160 
#    y -0.004840 1.840850 0.001050 
#    z 0.000160 0.001050 1.863890 
# 
# From -- ./inp_files/455966.got.cif
#   From: 2010.06.25/outbox.cif.g09.slc.cpg/sg2_228_cif.got.tgz:455966.got - 2010.06.27 13:26:56.
