data_PCOD8031699
_publ_section_title
;
Structure prediction by ZEFSAII (Michael W. Deem and Ramdas Pophale) SiO2 
 PCOD8031699
Probable space group: P -1
;
_chemical_formula_sum "Si O2"
_cell_formula_units_Z 16
_cell_length_a 14.259209
_cell_length_b 8.839720
_cell_length_c 9.214769
_cell_angle_alpha 79.520065
_cell_angle_beta 94.048865
_cell_angle_gamma 138.843339
_cell_volume 747.693775
_symmetry_space_group_name_H-M "P -1"
_symmetry_group_IT_number 2
_symmetry_cell_setting 'triclinic'
loop_
_space_group_symop_operation_xyz
x,y,z
-x,-y,-z
loop_
_atom_site_type_symbol
_atom_site_label
_atom_site_fract_x
_atom_site_fract_y
_atom_site_fract_z
Si Si1 0.549506 0.404907 0.641754
Si Si2 0.492803 0.663983 0.665367
Si Si3 0.852147 0.803929 0.937869
Si Si4 0.969852 0.324937 0.638967
Si Si5 0.749742 0.440310 0.211239
Si Si6 0.269315 0.010116 0.128520
Si Si7 0.869568 0.884357 0.606997
Si Si8 0.587253 0.992686 0.106299
O O1 0.473656 0.455935 0.704175
O O2 0.464839 0.249570 0.513461
O O3 0.713245 0.646386 0.570767
O O4 0.536913 0.255656 0.783393
O O5 0.347041 0.573912 0.694898
O O6 0.607506 0.862222 0.760558
O O7 0.771816 0.560818 0.042822
O O8 0.757927 0.843023 0.930929
O O9 0.886372 0.812907 0.772278
O O10 0.000000 0.000000 0.000000
O O11 0.000000 0.500000 0.500000
O O12 0.112087 0.423614 0.700403
O O13 0.871442 0.252903 0.778354
O O14 0.875962 0.076673 0.593438
O O15 0.681836 0.193900 0.203034
O O16 0.310124 0.985272 0.984801
O O17 0.000000 0.000000 0.500000
O O18 0.500000 0.000000 0.000000
#
# Coordination Sequence:
#
# PCOD8031699 Si02
#       8
#     2   2   2   2   2   2   2   2
#     4  11  25  44  70 105 135 181 234 286 345 414
#     4  11  24  44  75  96 138 178 240 281 345 404
#     4  11  22  45  72  99 135 180 236 280 345 407
#     4  11  26  46  69 100 143 182 226 284 354 407
#     4  12  25  45  72 104 138 183 233 288 347 415
#     4  11  24  48  70 101 140 186 229 290 342 410
#     4  11  23  45  71 101 134 180 232 283 339 411
#     4  12  27  43  69 106 142 180 230 286 354 411
#
# _framework density 21.399135999999999
#
# number of rings (size 3 to 8) (size 9 to 14) (size 15 to 20)
#    0.000    0.750    6.250    2.250    1.750    5.000 
#    2.250    0.000    0.000    0.000    0.000    0.000 
#    0.000    0.000    0.000    0.000    0.000    0.000 
#
# Total GULP energy -198344.173980 kJ/mol
# GULP energy per Si atom -12396.510874 kJ/mol
# Density = 2.135043 g / cm^3
# Si number density = 21.399136 Si / 1000 Ang^3
#
#
#
# Elastic Constant Matrix: (Units=GPa)
#
#
# Indices 1 2 3 4 5 6 
#
# 1 114.4051 46.2110 57.9964 -12.6437 -2.3046 9.3263
# 2 46.2110 96.8782 48.0657 -10.7881 -3.6510 0.5803
# 3 57.9964 48.0657 105.3800 -20.1768 8.1386 -17.8397
# 4 -12.6437 -10.7881 -20.1768 44.8174 -3.6403 5.1768
# 5 -2.3046 -3.6510 8.1386 -3.6403 48.2478 2.2403
# 6 9.3263 0.5803 -17.8397 5.1768 2.2403 29.6063
#
#
#
# Elastic Compliance Matrix: (Units=1/GPa)
#
#
# Indices 1 2 3 4 5 6 
#
# 1 0.015464 -0.002542 -0.009169 0.001080 0.002673 -0.010737
# 2 -0.002542 0.014626 -0.005863 0.000724 0.002183 -0.003310
# 3 -0.009169 -0.005863 0.020794 0.003197 -0.004860 0.015342
# 4 0.001080 0.000724 0.003197 0.024689 0.001563 -0.002863
# 5 0.002673 0.002183 -0.004860 0.001563 0.022225 -0.005768
# 6 -0.010737 -0.003310 0.015342 -0.002863 -0.005768 0.047405
#
#
# Mechanical properties :
#
#
# Convention : Reuss Voigt Hill
#
# Bulk Modulus (GPa) = 63.54053 69.02327 66.28190
# Shear Modulus (GPa) = 26.94031 35.49365 31.21698
#
# Velocity S-wave (km/s) = 3.55201 4.07707 3.82356
# Velocity P-wave (km/s) = 6.82494 7.38163 7.10874
#
# Compressibility (1/GPa) = 0.01573799
#
# Stress axis : x y z
#
# Youngs Moduli (GPa) = 64.66580 68.37051 48.09068
#
# Poissons Ratio (x) = 0.17381 0.44092
# Poissons Ratio (y) = 0.16439 0.28193
# Poissons Ratio (z) = 0.59289 0.40083
#
# Static dielectric constant tensor:
#      x y z
#    x 4.329210 -0.378050 0.292650 
#    y -0.378050 4.683600 -0.359000 
#    z 0.292650 -0.359000 5.091430 
# 
# 
# High freq. dielectric constant tensor:
#      x y z
#    x 1.843800 0.008990 0.001960 
#    y 0.008990 1.835740 0.002800 
#    z 0.001960 0.002800 1.852400 
# 
# From -- ./inp_files/298257.got.cif
#   From: 2010.06.25/outbox.cif.g09.slc.cpg/sg2_150_cif.got.tgz:298257.got - 2010.06.27 13:26:56.
