data_PCOD8031556
_publ_section_title
;
Structure prediction by ZEFSAII (Michael W. Deem and Ramdas Pophale) SiO2 
 PCOD8031556
Probable space group: P -1
;
_chemical_formula_sum "Si O2"
_cell_formula_units_Z 14
_cell_length_a 22.903170
_cell_length_b 16.118822
_cell_length_c 13.033542
_cell_angle_alpha 25.769670
_cell_angle_beta 27.172573
_cell_angle_gamma 17.875977
_cell_volume 622.709110
_symmetry_space_group_name_H-M "P -1"
_symmetry_group_IT_number 2
_symmetry_cell_setting 'triclinic'
loop_
_space_group_symop_operation_xyz
x,y,z
-x,-y,-z
loop_
_atom_site_type_symbol
_atom_site_label
_atom_site_fract_x
_atom_site_fract_y
_atom_site_fract_z
Si Si1 0.246850 0.898809 0.992122
Si Si2 0.682780 0.053285 0.757112
Si Si3 0.794474 0.714633 0.521688
Si Si4 0.410379 0.650362 0.621365
Si Si5 0.359882 0.511101 0.058520
Si Si6 0.047060 0.844184 0.496673
Si Si7 0.591211 0.766297 0.317854
O O1 0.306003 0.677556 0.061117
O O2 0.062203 0.002507 0.216720
O O3 0.404021 0.773682 0.976828
O O4 0.186050 0.162122 0.739927
O O5 0.489798 0.378620 0.738518
O O6 0.722061 0.067050 0.561225
O O7 0.873761 0.894066 0.695711
O O8 0.646477 0.873006 0.035405
O O9 0.753604 0.558953 0.703436
O O10 0.000000 0.500000 0.500000
O O11 0.611320 0.968606 0.599656
O O12 0.585001 0.590459 0.449505
O O13 0.300524 0.703882 0.836550
O O14 0.238099 0.488974 0.586419
O O15 0.000000 0.000000 0.500000
#
# Coordination Sequence:
#
# PCOD8031556 Si02
#       7
#     2   2   2   2   2   2   2
#     4  11  24  46  73  99 141 188 233 292 360 411
#     4  11  25  41  73 106 141 194 226 286 357 411
#     4  12  28  44  74 108 139 186 236 296 358 421
#     4  11  22  44  72 100 146 183 233 288 350 414
#     4  11  22  48  72 101 140 187 237 292 351 422
#     4  12  25  47  72 105 139 186 237 287 346 428
#     4  12  23  48  71 100 147 184 234 290 349 416
#
# _framework density 22.482409000000001
#
# number of rings (size 3 to 8) (size 9 to 14) (size 15 to 20)
#    0.000    0.571    5.714    2.143    2.000    1.714 
#    5.143    0.000    0.000    0.000    0.000    0.000 
#    0.000    0.000    0.000    0.000    0.000    0.000 
#
# Total GULP energy -173456.492995 kJ/mol
# GULP energy per Si atom -12389.749500 kJ/mol
# Density = 2.243124 g / cm^3
# Si number density = 22.482409 Si / 1000 Ang^3
#
#
#
# Elastic Constant Matrix: (Units=GPa)
#
#
# Indices 1 2 3 4 5 6 
#
# 1 82.6770 14.9940 40.1216 -8.1063 7.6947 1.1905
# 2 14.9940 71.8092 31.2550 2.9646 9.6852 -9.6896
# 3 40.1216 31.2550 186.8296 -19.9738 10.7833 5.2233
# 4 -8.1063 2.9646 -19.9738 28.9704 1.7737 3.5820
# 5 7.6947 9.6852 10.7833 1.7737 49.3080 -2.3620
# 6 1.1905 -9.6896 5.2233 3.5820 -2.3620 20.8131
#
#
#
# Elastic Compliance Matrix: (Units=1/GPa)
#
#
# Indices 1 2 3 4 5 6 
#
# 1 0.014005 -0.002153 -0.002192 0.002958 -0.001482 -0.001931
# 2 -0.002153 0.017619 -0.003283 -0.005794 -0.001722 0.009951
# 3 -0.002192 -0.003283 0.007100 0.005194 -0.000953 -0.004187
# 4 0.002958 -0.005794 0.005194 0.041097 -0.002490 -0.011526
# 5 -0.001482 -0.001722 -0.000953 -0.002490 0.021261 0.002364
# 6 -0.001931 0.009951 -0.004187 -0.011526 0.002364 0.056093
#
#
# Mechanical properties :
#
#
# Convention : Reuss Voigt Hill
#
# Bulk Modulus (GPa) = 42.61275 57.11745 49.86510
# Shear Modulus (GPa) = 27.73882 36.81466 32.27674
#
# Velocity S-wave (km/s) = 3.51636 4.05098 3.79310
# Velocity P-wave (km/s) = 5.95662 6.88049 6.43516
#
# Compressibility (1/GPa) = 0.02346716
#
# Stress axis : x y z
#
# Youngs Moduli (GPa) = 71.40283 56.75805 140.85026
#
# Poissons Ratio (x) = 0.12220 0.30870
# Poissons Ratio (y) = 0.15374 0.46246
# Poissons Ratio (z) = 0.15649 0.18636
#
# Static dielectric constant tensor:
#      x y z
#    x 5.554370 -0.625150 -0.872840 
#    y -0.625150 4.027370 0.232590 
#    z -0.872840 0.232590 4.997480 
# 
# 
# High freq. dielectric constant tensor:
#      x y z
#    x 1.898100 -0.003980 0.000620 
#    y -0.003980 1.858210 -0.003420 
#    z 0.000620 -0.003420 1.911270 
# 
# From -- ./inp_files/471829.got.cif
#   From: 2010.06.25/outbox.cif.g09.slc.cpg/sg2_236_cif.got.tgz:471829.got - 2010.06.27 13:26:56.
