data_PCOD8031928
_publ_section_title
;
Structure prediction by ZEFSAII (Michael W. Deem and Ramdas Pophale) SiO2 
 PCOD8031928
Probable space group: P -1
;
_chemical_formula_sum "Si O2"
_cell_formula_units_Z 14
_cell_length_a 11.653927
_cell_length_b 9.953528
_cell_length_c 9.194857
_cell_angle_alpha 119.420730
_cell_angle_beta 80.727037
_cell_angle_gamma 54.211633
_cell_volume 582.414516
_symmetry_space_group_name_H-M "P -1"
_symmetry_group_IT_number 2
_symmetry_cell_setting 'triclinic'
loop_
_space_group_symop_operation_xyz
x,y,z
-x,-y,-z
loop_
_atom_site_type_symbol
_atom_site_label
_atom_site_fract_x
_atom_site_fract_y
_atom_site_fract_z
Si Si1 0.298013 0.662368 0.104406
Si Si2 0.566883 0.729399 0.759167
Si Si3 0.860176 0.946556 0.434477
Si Si4 0.133760 0.814955 0.668261
Si Si5 0.778782 0.104845 0.028740
Si Si6 0.212286 0.418603 0.106496
Si Si7 0.404764 0.997530 0.642099
O O1 0.284243 0.506873 0.084378
O O2 0.182596 0.918938 0.339090
O O3 0.500000 0.500000 0.000000
O O4 0.268148 0.699207 0.956565
O O5 0.705493 0.441972 0.580820
O O6 0.367036 0.885464 0.946812
O O7 0.666780 0.747976 0.860850
O O8 0.551921 0.804972 0.636373
O O9 0.681606 0.063096 0.450628
O O10 0.994447 0.667353 0.305269
O O11 0.957644 0.973056 0.319808
O O12 0.226549 0.835091 0.773754
O O13 0.986465 0.850499 0.795236
O O14 0.241851 0.257574 0.893995
O O15 0.500000 0.000000 0.500000
#
# Coordination Sequence:
#
# PCOD8031928 Si02
#       7
#     2   2   2   2   2   2   2
#     4  12  22  38  73 104 136 176 230 289 348 410
#     4  12  25  46  72 101 144 183 238 287 353 414
#     4  12  24  47  72 105 140 182 236 295 347 415
#     4  11  23  41  72 111 136 180 231 301 345 417
#     4  11  23  38  69 110 142 172 230 293 359 402
#     4  12  25  46  70 102 146 184 226 290 352 420
#     4  12  30  48  69  97 143 195 236 282 355 423
#
# _framework density 24.037862000000001
#
# number of rings (size 3 to 8) (size 9 to 14) (size 15 to 20)
#    0.000    0.286    5.714    3.429    4.000    0.000 
#    2.571    0.714    0.000    0.000    0.000    0.000 
#    0.000    0.000    0.000    0.000    0.000    0.000 
#
# Total GULP energy -173504.620305 kJ/mol
# GULP energy per Si atom -12393.187165 kJ/mol
# Density = 2.398315 g / cm^3
# Si number density = 24.037862 Si / 1000 Ang^3
#
#
#
# Elastic Constant Matrix: (Units=GPa)
#
#
# Indices 1 2 3 4 5 6 
#
# 1 86.8179 15.1135 24.2088 -10.6775 1.8869 -10.9772
# 2 15.1135 108.1725 5.1838 -23.2277 -3.2991 -17.3786
# 3 24.2088 5.1838 60.6084 -10.3797 -6.1136 -0.4832
# 4 -10.6775 -23.2277 -10.3797 41.1095 -3.2453 3.8722
# 5 1.8869 -3.2991 -6.1136 -3.2453 38.9064 -2.4179
# 6 -10.9772 -17.3786 -0.4832 3.8722 -2.4179 36.9984
#
#
#
# Elastic Compliance Matrix: (Units=1/GPa)
#
#
# Indices 1 2 3 4 5 6 
#
# 1 0.013766 -0.000880 -0.005296 0.001323 -0.001254 0.003381
# 2 -0.000880 0.011450 0.000650 0.006122 0.001913 0.004610
# 3 -0.005296 0.000650 0.019669 0.004365 0.003691 -0.001225
# 4 0.001323 0.006122 0.004365 0.029471 0.003629 0.000478
# 5 -0.001254 0.001913 0.003691 0.003629 0.026930 0.001955
# 6 0.003381 0.004610 -0.001225 0.000478 0.001955 0.030258
#
#
# Mechanical properties :
#
#
# Convention : Reuss Voigt Hill
#
# Bulk Modulus (GPa) = 29.55712 38.29008 33.92360
# Shear Modulus (GPa) = 32.49405 37.47570 34.98487
#
# Velocity S-wave (km/s) = 3.68065 3.95274 3.81912
# Velocity P-wave (km/s) = 5.51232 6.06596 5.79575
#
# Compressibility (1/GPa) = 0.03383279
#
# Stress axis : x y z
#
# Youngs Moduli (GPa) = 72.64304 87.33814 50.84085
#
# Poissons Ratio (x) = 0.07689 0.26926
# Poissons Ratio (y) = 0.06396 -0.03307
# Poissons Ratio (z) = 0.38473 -0.05681
#
# Static dielectric constant tensor:
#      x y z
#    x 4.375560 -0.392050 -0.038760 
#    y -0.392050 4.480690 -0.024440 
#    z -0.038760 -0.024440 4.404340 
# 
# 
# High freq. dielectric constant tensor:
#      x y z
#    x 1.955950 -0.031570 -0.001280 
#    y -0.031570 1.959240 -0.008900 
#    z -0.001280 -0.008900 1.955080 
# 
# From -- ./inp_files/180033.got.cif
#   From: 2010.06.25/outbox.cif.g09.slc.cpg/sg2_91_cif.got.tgz:180033.got - 2010.06.27 13:26:56.
