data_PCOD8031943
_publ_section_title
;
Structure prediction by ZEFSAII (Michael W. Deem and Ramdas Pophale) SiO2 
 PCOD8031943
Probable space group: P -1
;
_chemical_formula_sum "Si O2"
_cell_formula_units_Z 12
_cell_length_a 13.252748
_cell_length_b 10.030788
_cell_length_c 17.436699
_cell_angle_alpha 35.359070
_cell_angle_beta 159.546026
_cell_angle_gamma 138.201687
_cell_volume 466.765139
_symmetry_space_group_name_H-M "P -1"
_symmetry_group_IT_number 2
_symmetry_cell_setting 'triclinic'
loop_
_space_group_symop_operation_xyz
x,y,z
-x,-y,-z
loop_
_atom_site_type_symbol
_atom_site_label
_atom_site_fract_x
_atom_site_fract_y
_atom_site_fract_z
Si Si1 0.381386 0.605381 0.735550
Si Si2 0.588296 0.226470 0.160054
Si Si3 0.873936 0.425185 0.866895
Si Si4 0.061475 0.605105 0.357421
Si Si5 0.235033 0.302930 0.483260
Si Si6 0.791180 0.959680 0.801792
O O1 0.243245 0.664959 0.696226
O O2 0.151410 0.531284 0.543359
O O3 0.521015 0.833249 0.699957
O O4 0.606230 0.379654 0.022060
O O5 0.730086 0.973711 0.360829
O O6 0.250623 0.238832 0.940182
O O7 0.538049 0.409629 0.648078
O O8 0.933589 0.605188 0.756733
O O9 0.000000 0.500000 0.000000
O O10 0.039084 0.180575 0.078766
O O11 0.070873 0.390309 0.403913
O O12 0.300296 0.782401 0.417579
O O13 0.000000 0.000000 0.000000
#
# Coordination Sequence:
#
# PCOD8031943 Si02
#       6
#     2   2   2   2   2   2
#     4  11  25  43  69  98 131 179 217 266 336 387
#     4  11  25  47  65  97 139 170 219 271 324 399
#     4  11  23  39  64 103 130 167 223 266 326 387
#     4  12  24  44  71  97 131 176 220 269 330 385
#     4  11  24  41  68  96 132 173 214 274 325 381
#     4  12  21  44  70  94 135 167 220 278 318 386
#
# _framework density 25.708860000000001
#
# number of rings (size 3 to 8) (size 9 to 14) (size 15 to 20)
#    0.000    0.667    5.000    2.000    4.667    0.667 
#    0.000    7.500    0.000    0.000    0.000    0.000 
#    0.000    0.000    0.000    0.000    0.000    0.000 
#
# Total GULP energy -148731.191745 kJ/mol
# GULP energy per Si atom -12394.265979 kJ/mol
# Density = 2.565035 g / cm^3
# Si number density = 25.708860 Si / 1000 Ang^3
#
#
#
# Elastic Constant Matrix: (Units=GPa)
#
#
# Indices 1 2 3 4 5 6 
#
# 1 168.9659 67.1981 60.2520 12.2734 -24.6420 -34.4816
# 2 67.1981 148.7323 80.1364 -20.8642 -28.7066 -41.9641
# 3 60.2520 80.1364 114.0128 -2.2726 -38.9907 -36.5284
# 4 12.2734 -20.8642 -2.2726 60.9076 -9.7292 -6.7897
# 5 -24.6420 -28.7066 -38.9907 -9.7292 48.8229 3.5764
# 6 -34.4816 -41.9641 -36.5284 -6.7897 3.5764 48.9457
#
#
#
# Elastic Compliance Matrix: (Units=1/GPa)
#
#
# Indices 1 2 3 4 5 6 
#
# 1 0.008165 -0.002265 -0.001848 -0.002141 0.000735 0.002081
# 2 -0.002265 0.014226 -0.004800 0.006666 0.004157 0.007640
# 3 -0.001848 -0.004800 0.020320 0.002475 0.012292 0.009193
# 4 -0.002141 0.006666 0.002475 0.021520 0.008487 0.008419
# 5 0.000735 0.004157 0.012292 0.008487 0.033930 0.011953
# 6 0.002081 0.007640 0.009193 0.008419 0.011953 0.035602
#
#
# Mechanical properties :
#
#
# Convention : Reuss Voigt Hill
#
# Bulk Modulus (GPa) = 40.18435 94.09820 67.14127
# Shear Modulus (GPa) = 31.27296 46.67690 38.97493
#
# Velocity S-wave (km/s) = 3.49152 4.26560 3.89782
# Velocity P-wave (km/s) = 5.64967 7.80650 6.81396
#
# Compressibility (1/GPa) = 0.02488531
#
# Stress axis : x y z
#
# Youngs Moduli (GPa) = 122.46841 70.29389 49.21375
#
# Poissons Ratio (x) = 0.15921 0.09094
# Poissons Ratio (y) = 0.27739 0.23622
# Poissons Ratio (z) = 0.22631 0.33740
#
# Static dielectric constant tensor:
#      x y z
#    x 5.209750 0.365150 -0.366430 
#    y 0.365150 5.059740 0.009120 
#    z -0.366430 0.009120 4.615600 
# 
# 
# High freq. dielectric constant tensor:
#      x y z
#    x 2.060600 0.019780 -0.013340 
#    y 0.019780 2.052670 0.013240 
#    z -0.013340 0.013240 2.018110 
# 
# From -- ./inp_files/514969.got.cif
#   From: 2010.06.25/outbox.cif.g09.slc.cpg/sg2_258_cif.got.tgz:514969.got - 2010.06.27 13:26:56.
