data_PCOD8031488
_publ_section_title
;
Structure prediction by ZEFSAII (Michael W. Deem and Ramdas Pophale) SiO2 
 PCOD8031488
Probable space group: P -1
;
_chemical_formula_sum "Si O2"
_cell_formula_units_Z 14
_cell_length_a 6.704958
_cell_length_b 12.221423
_cell_length_c 12.994992
_cell_angle_alpha 117.578224
_cell_angle_beta 129.264445
_cell_angle_gamma 51.542031
_cell_volume 641.364062
_symmetry_space_group_name_H-M "P -1"
_symmetry_group_IT_number 2
_symmetry_cell_setting 'triclinic'
loop_
_space_group_symop_operation_xyz
x,y,z
-x,-y,-z
loop_
_atom_site_type_symbol
_atom_site_label
_atom_site_fract_x
_atom_site_fract_y
_atom_site_fract_z
Si Si1 0.966672 0.327644 0.328811
Si Si2 0.289410 0.015429 0.346342
Si Si3 0.805954 0.951296 0.203222
Si Si4 0.380921 0.639362 0.956133
Si Si5 0.720004 0.764849 0.234408
Si Si6 0.171979 0.547125 0.442969
Si Si7 0.141058 0.092977 0.038910
O O1 0.176663 0.159772 0.307839
O O2 0.145630 0.407328 0.389414
O O3 0.658187 0.383933 0.188362
O O4 0.890468 0.356396 0.435699
O O5 0.500000 0.000000 0.500000
O O6 0.450141 0.882430 0.264447
O O7 0.006090 0.024812 0.317378
O O8 0.915878 0.820013 0.260934
O O9 0.466998 0.044506 0.165814
O O10 0.846251 0.909816 0.080213
O O11 0.046148 0.743914 0.923785
O O12 0.500000 0.500000 0.000000
O O13 0.581604 0.711976 0.075500
O O14 0.937910 0.636779 0.319135
O O15 0.500000 0.500000 0.500000
O O16 0.000000 0.000000 0.000000
#
# Coordination Sequence:
#
# PCOD8031488 Si02
#       7
#     2   2   2   2   2   2   2
#     4  11  26  47  73 102 143 190 236 300 357 418
#     4  12  26  46  74 103 143 192 247 295 353 430
#     4  11  24  40  76 101 140 186 237 297 365 411
#     4  12  24  45  72 103 144 187 234 294 361 422
#     4  12  25  48  70 107 143 187 241 304 353 427
#     4  11  27  49  71 100 150 192 234 291 366 431
#     4  11  22  44  69 101 144 183 228 295 361 419
#
# _framework density 21.828475999999998
#
# number of rings (size 3 to 8) (size 9 to 14) (size 15 to 20)
#    0.000    0.571    5.714    1.714    4.000    4.000 
#    0.000    1.429    0.000    0.000    0.000    0.000 
#    0.000    0.000    0.000    0.000    0.000    0.000 
#
# Total GULP energy -173551.257440 kJ/mol
# GULP energy per Si atom -12396.518389 kJ/mol
# Density = 2.177879 g / cm^3
# Si number density = 21.828476 Si / 1000 Ang^3
#
#
#
# Elastic Constant Matrix: (Units=GPa)
#
#
# Indices 1 2 3 4 5 6 
#
# 1 136.0976 46.4177 32.9608 -5.3438 16.9438 9.4498
# 2 46.4177 118.2879 17.8524 -10.2647 12.2937 12.2415
# 3 32.9608 17.8524 132.6953 -14.1161 18.6116 8.0973
# 4 -5.3438 -10.2647 -14.1161 39.8845 4.9304 0.1445
# 5 16.9438 12.2937 18.6116 4.9304 32.4415 -5.7505
# 6 9.4498 12.2415 8.0973 0.1445 -5.7505 27.8545
#
#
#
# Elastic Compliance Matrix: (Units=1/GPa)
#
#
# Indices 1 2 3 4 5 6 
#
# 1 0.009212 -0.002780 -0.001221 0.000533 -0.003543 -0.002283
# 2 -0.002780 0.010666 0.000455 0.003065 -0.004159 -0.004751
# 3 -0.001221 0.000455 0.009299 0.004018 -0.006150 -0.003779
# 4 0.000533 0.003065 0.004018 0.028472 -0.008902 -0.004681
# 5 -0.003543 -0.004159 -0.006150 -0.008902 0.041513 0.013434
# 6 -0.002283 -0.004751 -0.003779 -0.004681 0.013434 0.042660
#
#
# Mechanical properties :
#
#
# Convention : Reuss Voigt Hill
#
# Bulk Modulus (GPa) = 45.28143 64.61584 54.94864
# Shear Modulus (GPa) = 31.99454 39.35941 35.67698
#
# Velocity S-wave (km/s) = 3.83263 4.25093 4.04719
# Velocity P-wave (km/s) = 6.35411 7.33210 6.86055
#
# Compressibility (1/GPa) = 0.02208411
#
# Stress axis : x y z
#
# Youngs Moduli (GPa) = 108.55316 93.75521 107.53941
#
# Poissons Ratio (x) = 0.26063 0.13134
# Poissons Ratio (y) = 0.30177 -0.04891
# Poissons Ratio (z) = 0.13258 -0.04264
#
# Static dielectric constant tensor:
#      x y z
#    x 3.966320 -0.056170 -0.014190 
#    y -0.056170 4.193090 -0.033970 
#    z -0.014190 -0.033970 4.460770 
# 
# 
# High freq. dielectric constant tensor:
#      x y z
#    x 1.849750 0.009770 -0.002290 
#    y 0.009770 1.863490 -0.011970 
#    z -0.002290 -0.011970 1.881770 
# 
# From -- ./inp_files/365119.got.cif
#   From: 2010.06.25/outbox.cif.g09.slc.cpg/sg2_183_cif.got.tgz:365119.got - 2010.06.27 13:26:56.
