data_PCOD8031703
_publ_section_title
;
Structure prediction by ZEFSAII (Michael W. Deem and Ramdas Pophale) SiO2 
 PCOD8031703
Probable space group: P -1
;
_chemical_formula_sum "Si O2"
_cell_formula_units_Z 16
_cell_length_a 9.001371
_cell_length_b 15.426440
_cell_length_c 9.182855
_cell_angle_alpha 112.968757
_cell_angle_beta 132.125378
_cell_angle_gamma 98.434422
_cell_volume 697.842360
_symmetry_space_group_name_H-M "P -1"
_symmetry_group_IT_number 2
_symmetry_cell_setting 'triclinic'
loop_
_space_group_symop_operation_xyz
x,y,z
-x,-y,-z
loop_
_atom_site_type_symbol
_atom_site_label
_atom_site_fract_x
_atom_site_fract_y
_atom_site_fract_z
Si Si1 0.199517 0.124553 0.532708
Si Si2 0.512733 0.497467 0.830784
Si Si3 0.634536 0.957844 0.966288
Si Si4 0.916888 0.528316 0.609288
Si Si5 0.652514 0.330177 0.794115
Si Si6 0.087601 0.249517 0.766936
Si Si7 0.720074 0.295373 0.487589
Si Si8 0.363473 0.965622 0.537822
O O1 0.379950 0.221746 0.596451
O O2 0.173530 0.181974 0.692955
O O3 0.313168 0.057842 0.618975
O O4 0.929451 0.034392 0.225526
O O5 0.247534 0.429908 0.529276
O O6 0.651897 0.441735 0.841163
O O7 0.500000 0.500000 0.000000
O O8 0.663567 0.626393 0.939579
O O9 0.526040 0.820699 0.824483
O O10 0.569506 0.970665 0.770269
O O11 0.500000 0.000000 0.000000
O O12 0.763052 0.410486 0.527627
O O13 0.000000 0.500000 0.500000
O O14 0.142292 0.635295 0.923253
O O15 0.711276 0.296995 0.659151
O O16 0.943209 0.284220 0.589990
O O17 0.902127 0.164927 0.719649
O O18 0.500000 0.000000 0.500000
#
# Coordination Sequence:
#
# PCOD8031703 Si02
#       8
#     2   2   2   2   2   2   2   2
#     4  12  24  45  77 104 143 194 241 290 359 437
#     4  12  24  46  74 108 142 185 251 298 357 438
#     4  11  25  46  76 104 141 191 245 296 355 431
#     4  12  25  45  76 101 141 198 239 292 365 436
#     4  12  27  47  71 108 152 188 235 311 362 422
#     4  11  22  45  73 102 145 187 237 303 348 433
#     4  11  25  47  70 106 153 182 240 312 358 419
#     4  11  26  45  68 107 149 184 236 302 362 423
#
# _framework density 22.927817000000001
#
# number of rings (size 3 to 8) (size 9 to 14) (size 15 to 20)
#    0.000    0.500    6.250    2.250    1.750    4.500 
#    0.000    0.000    0.000    0.000    0.000    0.000 
#    0.000    0.000    0.000    0.000    0.000    0.000 
#
# Total GULP energy -198329.907068 kJ/mol
# GULP energy per Si atom -12395.619192 kJ/mol
# Density = 2.287563 g / cm^3
# Si number density = 22.927817 Si / 1000 Ang^3
#
#
#
# Elastic Constant Matrix: (Units=GPa)
#
#
# Indices 1 2 3 4 5 6 
#
# 1 73.7607 34.5931 27.3341 4.5928 6.4124 1.3176
# 2 34.5931 75.6931 16.9089 12.2343 5.9359 6.1999
# 3 27.3341 16.9089 121.7187 10.6299 13.6505 2.3773
# 4 4.5928 12.2343 10.6299 40.4024 -3.2927 4.0237
# 5 6.4124 5.9359 13.6505 -3.2927 34.6482 0.4212
# 6 1.3176 6.1999 2.3773 4.0237 0.4212 50.5732
#
#
#
# Elastic Compliance Matrix: (Units=1/GPa)
#
#
# Indices 1 2 3 4 5 6 
#
# 1 0.018366 -0.007857 -0.003043 0.000974 -0.000769 0.000557
# 2 -0.007857 0.017829 -0.000067 -0.004490 -0.001981 -0.001604
# 3 -0.003043 -0.000067 0.009501 -0.002396 -0.003395 -0.000140
# 4 0.000974 -0.004490 -0.002396 0.027122 0.004129 -0.001555
# 5 -0.000769 -0.001981 -0.003395 0.004129 0.031075 -0.000165
# 6 0.000557 -0.001604 -0.000140 -0.001555 -0.000165 0.020087
#
#
# Mechanical properties :
#
#
# Convention : Reuss Voigt Hill
#
# Bulk Modulus (GPa) = 42.08066 47.64942 44.86504
# Shear Modulus (GPa) = 32.50276 37.94717 35.22496
#
# Velocity S-wave (km/s) = 3.76920 4.07267 3.92387
# Velocity P-wave (km/s) = 6.11031 6.55309 6.33557
#
# Compressibility (1/GPa) = 0.02376389
#
# Stress axis : x y z
#
# Youngs Moduli (GPa) = 54.44916 56.08772 105.25280
#
# Poissons Ratio (x) = 0.44065 0.32025
# Poissons Ratio (y) = 0.42778 0.00703
# Poissons Ratio (z) = 0.16567 0.00375
#
# Static dielectric constant tensor:
#      x y z
#    x 4.103810 -0.054940 0.005830 
#    y -0.054940 4.455370 0.279860 
#    z 0.005830 0.279860 4.129560 
# 
# 
# High freq. dielectric constant tensor:
#      x y z
#    x 1.908550 -0.006670 0.012320 
#    y -0.006670 1.917740 0.010210 
#    z 0.012320 0.010210 1.901450 
# 
# From -- ./inp_files/187056.got.cif
#   From: 2010.06.25/outbox.cif.g09.slc.cpg/sg2_94_cif.got.tgz:187056.got - 2010.06.27 13:26:56.
