data_PCOD8031864
_publ_section_title
;
Structure prediction by ZEFSAII (Michael W. Deem and Ramdas Pophale) SiO2 
 PCOD8031864
Probable space group: P -1
;
_chemical_formula_sum "Si O2"
_cell_formula_units_Z 16
_cell_length_a 12.747497
_cell_length_b 19.735774
_cell_length_c 11.992638
_cell_angle_alpha 142.101184
_cell_angle_beta 64.123615
_cell_angle_gamma 144.187303
_cell_volume 893.952591
_symmetry_space_group_name_H-M "P -1"
_symmetry_group_IT_number 2
_symmetry_cell_setting 'triclinic'
loop_
_space_group_symop_operation_xyz
x,y,z
-x,-y,-z
loop_
_atom_site_type_symbol
_atom_site_label
_atom_site_fract_x
_atom_site_fract_y
_atom_site_fract_z
Si Si1 0.622143 0.718207 0.121914
Si Si2 0.319602 0.845482 0.787515
Si Si3 0.510364 0.618170 0.300093
Si Si4 0.123494 0.461565 0.320802
Si Si5 0.036031 0.956596 0.319692
Si Si6 0.441042 0.959266 0.293297
Si Si7 0.396835 0.745337 0.214098
Si Si8 0.990055 0.670788 0.033735
O O1 0.536392 0.671377 0.227001
O O2 0.590265 0.809742 0.193740
O O3 0.873754 0.880826 0.205860
O O4 0.482425 0.508823 0.857386
O O5 0.247281 0.660576 0.580262
O O6 0.105272 0.749208 0.785392
O O7 0.408462 0.954065 0.767554
O O8 0.500000 0.000000 0.000000
O O9 0.285298 0.486496 0.281639
O O10 0.709857 0.830195 0.554847
O O11 0.056394 0.441001 0.198634
O O12 0.957275 0.770319 0.139175
O O13 0.000000 0.000000 0.500000
O O14 0.376381 0.795913 0.174796
O O15 0.230178 0.851178 0.203728
O O16 0.564391 0.141480 0.554073
O O17 0.176800 0.499337 0.013809
#
# Coordination Sequence:
#
# PCOD8031864 Si02
#       8
#     2   2   2   2   2   2   2   2
#     4  10  17  31  50  78 108 143 171 219 274 319
#     4  11  22  37  56  77 107 144 187 230 264 314
#     4  10  18  31  50  79 111 136 175 223 275 320
#     4  11  21  33  56  81 108 140 176 232 275 316
#     4  10  19  27  51  80 112 140 172 218 271 329
#     4  11  23  37  54  80 111 151 182 216 271 324
#     4  11  22  36  55  79 118 146 176 219 267 341
#     4  12  19  34  54  82 116 140 177 223 276 321
#
# _framework density 17.898040999999999
#
# number of rings (size 3 to 8) (size 9 to 14) (size 15 to 20)
#    0.000    1.250    5.000    4.125    0.000    0.000 
#    0.000    0.000    0.000    0.750    0.000    1.750 
#    0.000    0.000    0.000    0.000    0.000    0.000 
#
# Total GULP energy -198332.278266 kJ/mol
# GULP energy per Si atom -12395.767392 kJ/mol
# Density = 1.785730 g / cm^3
# Si number density = 17.898041 Si / 1000 Ang^3
#
#
#
# Elastic Constant Matrix: (Units=GPa)
#
#
# Indices 1 2 3 4 5 6 
#
# 1 78.1513 42.9425 13.0266 1.7942 -4.9412 16.6834
# 2 42.9425 100.0305 29.6409 9.2649 6.9121 16.7003
# 3 13.0266 29.6409 81.7627 7.3085 2.8491 4.2363
# 4 1.7942 9.2649 7.3085 21.6070 3.6840 5.6725
# 5 -4.9412 6.9121 2.8491 3.6840 25.2391 3.8408
# 6 16.6834 16.7003 4.2363 5.6725 3.8408 27.7519
#
#
#
# Elastic Compliance Matrix: (Units=1/GPa)
#
#
# Indices 1 2 3 4 5 6 
#
# 1 0.019084 -0.007379 -0.000410 0.002801 0.006683 -0.008467
# 2 -0.007379 0.015387 -0.003813 -0.003174 -0.004309 -0.002996
# 3 -0.000410 -0.003813 0.013924 -0.003286 -0.000300 0.001129
# 4 0.002801 -0.003174 -0.003286 0.051687 -0.004350 -0.009235
# 5 0.006683 -0.004309 -0.000300 -0.004350 0.043775 -0.006548
# 6 -0.008467 -0.002996 0.001129 -0.009235 -0.006548 0.045548
#
#
# Mechanical properties :
#
#
# Convention : Reuss Voigt Hill
#
# Bulk Modulus (GPa) = 39.69794 47.90716 43.80255
# Shear Modulus (GPa) = 22.62373 26.54188 24.58281
#
# Velocity S-wave (km/s) = 3.55918 3.85509 3.71009
# Velocity P-wave (km/s) = 6.25448 6.82938 6.54824
#
# Compressibility (1/GPa) = 0.02519022
#
# Stress axis : x y z
#
# Youngs Moduli (GPa) = 52.39882 64.99195 71.81880
#
# Poissons Ratio (x) = 0.47957 0.02946
# Poissons Ratio (y) = 0.38665 0.27386
# Poissons Ratio (z) = 0.02149 0.24783
#
# Static dielectric constant tensor:
#      x y z
#    x 3.390320 0.375340 0.208250 
#    y 0.375340 3.277020 0.300300 
#    z 0.208250 0.300300 3.676570 
# 
# 
# High freq. dielectric constant tensor:
#      x y z
#    x 1.681280 0.034390 0.002260 
#    y 0.034390 1.655370 0.015710 
#    z 0.002260 0.015710 1.711060 
# 
# From -- ./inp_files/432835.got.cif
#   From: 2010.06.25/outbox.cif.g09.slc.cpg/sg2_217_cif.got.tgz:432835.got - 2010.06.27 13:26:56.
