data_PCOD8031517
_publ_section_title
;
Structure prediction by ZEFSAII (Michael W. Deem and Ramdas Pophale) SiO2 
 PCOD8031517
Probable space group: P -1
;
_chemical_formula_sum "Si O2"
_cell_formula_units_Z 16
_cell_length_a 8.856306
_cell_length_b 12.152988
_cell_length_c 9.854938
_cell_angle_alpha 56.489904
_cell_angle_beta 106.439012
_cell_angle_gamma 125.085118
_cell_volume 722.781130
_symmetry_space_group_name_H-M "P -1"
_symmetry_group_IT_number 2
_symmetry_cell_setting 'triclinic'
loop_
_space_group_symop_operation_xyz
x,y,z
-x,-y,-z
loop_
_atom_site_type_symbol
_atom_site_label
_atom_site_fract_x
_atom_site_fract_y
_atom_site_fract_z
Si Si1 0.364903 0.187472 0.191885
Si Si2 0.233354 0.349343 0.872005
Si Si3 0.434482 0.676314 0.583071
Si Si4 0.974810 0.876306 0.260139
Si Si5 0.945776 0.374868 0.453997
Si Si6 0.582243 0.152281 0.058003
Si Si7 0.964789 0.422957 0.900493
Si Si8 0.386272 0.138365 0.759122
O O1 0.398209 0.222070 0.337333
O O2 0.541586 0.187984 0.173923
O O3 0.364898 0.327412 0.021082
O O4 0.175284 0.029269 0.216139
O O5 0.356212 0.492196 0.703107
O O6 0.091057 0.189716 0.864561
O O7 0.126747 0.399527 0.910469
O O8 0.276368 0.714664 0.551966
O O9 0.504062 0.721555 0.415248
O O10 0.828557 0.912445 0.268009
O O11 0.984889 0.742293 0.430850
O O12 0.000000 0.500000 0.500000
O O13 0.054063 0.465825 0.285136
O O14 0.558785 0.986032 0.180243
O O15 0.782782 0.257106 0.975963
O O16 0.446807 0.175715 0.906679
O O17 0.000000 0.500000 0.000000
#
# Coordination Sequence:
#
# PCOD8031517 Si02
#       8
#     2   2   2   2   2   2   2   2
#     4  12  26  44  72  99 139 178 223 278 342 392
#     4  11  24  45  71  98 139 179 225 268 343 402
#     4  11  25  45  69 101 136 176 224 281 333 398
#     4  12  25  44  72  99 133 183 223 278 330 405
#     4  11  22  44  70  97 133 181 221 268 336 405
#     4  11  24  42  68  98 135 173 227 278 324 406
#     4  11  24  41  68 100 135 175 221 277 335 395
#     4  11  26  42  68 101 132 174 230 276 330 392
#
# _framework density 22.136714999999999
#
# number of rings (size 3 to 8) (size 9 to 14) (size 15 to 20)
#    0.000    0.750    3.750    4.500    3.500    6.000 
#    0.000    0.000    0.000    0.000    0.000    0.000 
#    0.000    0.000    0.000    0.000    0.000    0.000 
#
# Total GULP energy -198339.400282 kJ/mol
# GULP energy per Si atom -12396.212518 kJ/mol
# Density = 2.208633 g / cm^3
# Si number density = 22.136715 Si / 1000 Ang^3
#
#
#
# Elastic Constant Matrix: (Units=GPa)
#
#
# Indices 1 2 3 4 5 6 
#
# 1 62.3065 42.8438 47.5953 -1.1004 -9.0367 -0.7917
# 2 42.8438 73.1888 34.0653 1.2345 9.5643 5.0337
# 3 47.5953 34.0653 119.0157 -5.3452 2.9481 -3.1780
# 4 -1.1004 1.2345 -5.3452 30.9762 5.2588 -2.9127
# 5 -9.0367 9.5643 2.9481 5.2588 37.4307 -2.1104
# 6 -0.7917 5.0337 -3.1780 -2.9127 -2.1104 24.2540
#
#
#
# Elastic Compliance Matrix: (Units=1/GPa)
#
#
# Indices 1 2 3 4 5 6 
#
# 1 0.042258 -0.022319 -0.010869 -0.001879 0.017356 0.005872
# 2 -0.022319 0.028588 0.000850 -0.000279 -0.013157 -0.007729
# 3 -0.010869 0.000850 0.012754 0.002587 -0.004148 0.001090
# 4 -0.001879 -0.000279 0.002587 0.033917 -0.005128 0.003963
# 5 0.017356 -0.013157 -0.004148 -0.005128 0.035610 0.005236
# 6 0.005872 -0.007729 0.001090 0.003963 0.005236 0.044100
#
#
# Mechanical properties :
#
#
# Convention : Reuss Voigt Hill
#
# Bulk Modulus (GPa) = 52.84122 55.94663 54.39392
# Shear Modulus (GPa) = 18.64211 27.19928 22.92070
#
# Velocity S-wave (km/s) = 2.90510 3.50908 3.22128
# Velocity P-wave (km/s) = 5.93086 6.46114 6.20167
#
# Compressibility (1/GPa) = 0.01892462
#
# Stress axis : x y z
#
# Youngs Moduli (GPa) = 23.66440 34.97924 78.40983
#
# Poissons Ratio (x) = 0.78069 0.85220
# Poissons Ratio (y) = 0.52816 -0.06662
# Poissons Ratio (z) = 0.25720 -0.02972
#
# Static dielectric constant tensor:
#      x y z
#    x 3.340550 -0.233730 0.327600 
#    y -0.233730 3.802710 -0.045020 
#    z 0.327600 -0.045020 4.219520 
# 
# 
# High freq. dielectric constant tensor:
#      x y z
#    x 1.875200 0.000640 0.007770 
#    y 0.000640 1.863750 -0.006200 
#    z 0.007770 -0.006200 1.885010 
# 
# From -- ./inp_files/185126.got.cif
#   From: 2010.06.25/outbox.cif.g09.slc.cpg/sg2_93_cif.got.tgz:185126.got - 2010.06.27 13:26:56.
