data_PCOD8031072
_publ_section_title
;
Structure prediction by ZEFSAII (Michael W. Deem and Ramdas Pophale) SiO2 
 PCOD8031072
Probable space group: P -1
;
_chemical_formula_sum "Si O2"
_cell_formula_units_Z 16
_cell_length_a 18.462389
_cell_length_b 11.743122
_cell_length_c 9.432040
_cell_angle_alpha 50.464600
_cell_angle_beta 48.970851
_cell_angle_gamma 28.732668
_cell_volume 731.038798
_symmetry_space_group_name_H-M "P -1"
_symmetry_group_IT_number 2
_symmetry_cell_setting 'triclinic'
loop_
_space_group_symop_operation_xyz
x,y,z
-x,-y,-z
loop_
_atom_site_type_symbol
_atom_site_label
_atom_site_fract_x
_atom_site_fract_y
_atom_site_fract_z
Si Si1 0.578862 0.838492 0.168405
Si Si2 0.192340 0.709680 0.641571
Si Si3 0.940733 0.646339 0.323537
Si Si4 0.134517 0.318958 0.081722
Si Si5 0.603591 0.986943 0.463783
Si Si6 0.855013 0.007303 0.755428
Si Si7 0.856489 0.079221 0.172777
Si Si8 0.636279 0.260876 0.095695
O O1 0.671617 0.567932 0.261892
O O2 0.435396 0.993838 0.336801
O O3 0.704097 0.808072 0.082559
O O4 0.500000 0.000000 0.000000
O O5 0.225930 0.758828 0.412339
O O6 0.173485 0.853047 0.677496
O O7 0.031937 0.819797 0.727694
O O8 0.788200 0.739921 0.392239
O O9 0.891708 0.867972 0.257152
O O10 0.000000 0.500000 0.500000
O O11 0.081505 0.470762 0.169928
O O12 0.155066 0.119098 0.239153
O O13 0.000000 0.500000 0.000000
O O14 0.500000 0.000000 0.500000
O O15 0.562067 0.204188 0.303422
O O16 0.770846 0.063855 0.964253
O O17 0.701149 0.296048 0.105253
O O18 0.000000 0.000000 0.000000
O O19 0.500000 0.500000 0.000000
#
# Coordination Sequence:
#
# PCOD8031072 Si02
#       8
#     2   2   2   2   2   2   2   2
#     4  12  26  45  68 103 141 182 233 290 358 415
#     4  11  24  42  70 102 140 181 235 291 347 423
#     4  11  24  42  65  98 131 175 226 280 340 406
#     4  12  22  42  71  97 135 183 232 288 340 416
#     4  11  25  44  65  98 135 176 229 280 344 412
#     4  11  23  43  70 104 135 184 238 287 351 416
#     4  11  22  42  65  99 136 178 231 282 342 415
#     4  11  24  44  68  98 142 181 228 283 353 421
#
# _framework density 21.886662000000001
#
# number of rings (size 3 to 8) (size 9 to 14) (size 15 to 20)
#    0.000    0.750    2.500    6.000    0.000    4.000 
#    0.000    3.750    0.000    0.000    0.000    0.000 
#    0.000    0.000    0.000    0.000    0.000    0.000 
#
# Total GULP energy -198287.485090 kJ/mol
# GULP energy per Si atom -12392.967818 kJ/mol
# Density = 2.183685 g / cm^3
# Si number density = 21.886662 Si / 1000 Ang^3
#
#
#
# Elastic Constant Matrix: (Units=GPa)
#
#
# Indices 1 2 3 4 5 6 
#
# 1 123.3928 18.7775 39.9149 -3.6864 -15.1433 -3.9730
# 2 18.7775 65.6852 30.8859 -12.0817 -6.7417 -5.5867
# 3 39.9149 30.8859 138.3175 -3.4290 -0.1534 -7.0362
# 4 -3.6864 -12.0817 -3.4290 40.0871 -5.1901 9.6186
# 5 -15.1433 -6.7417 -0.1534 -5.1901 39.7432 6.1903
# 6 -3.9730 -5.5867 -7.0362 9.6186 6.1903 40.6767
#
#
#
# Elastic Compliance Matrix: (Units=1/GPa)
#
#
# Indices 1 2 3 4 5 6 
#
# 1 0.009535 -0.001037 -0.002514 0.000919 0.003632 -0.000416
# 2 -0.001037 0.018674 -0.003729 0.005682 0.003510 -0.000059
# 3 -0.002514 -0.003729 0.008825 -0.001169 -0.001918 0.001337
# 4 0.000919 0.005682 -0.001169 0.029173 0.006238 -0.007180
# 5 0.003632 0.003510 -0.001918 0.006238 0.028781 -0.005350
# 6 -0.000416 -0.000059 0.001337 -0.007180 -0.005350 0.027278
#
#
# Mechanical properties :
#
#
# Convention : Reuss Voigt Hill
#
# Bulk Modulus (GPa) = 44.49633 56.28357 50.38995
# Shear Modulus (GPa) = 34.64537 39.95588 37.30063
#
# Velocity S-wave (km/s) = 3.98294 4.27732 4.13275
# Velocity P-wave (km/s) = 6.44408 7.08277 6.77096
#
# Compressibility (1/GPa) = 0.02247376
#
# Stress axis : x y z
#
# Youngs Moduli (GPa) = 104.87427 53.54952 113.31570
#
# Poissons Ratio (x) = 0.05553 0.28492
# Poissons Ratio (y) = 0.10875 0.42255
# Poissons Ratio (z) = 0.26370 0.19968
#
# Static dielectric constant tensor:
#      x y z
#    x 4.445650 0.033510 -0.139750 
#    y 0.033510 3.925000 -0.154310 
#    z -0.139750 -0.154310 3.961190 
# 
# 
# High freq. dielectric constant tensor:
#      x y z
#    x 1.866740 -0.011130 -0.000590 
#    y -0.011130 1.855010 -0.002200 
#    z -0.000590 -0.002200 1.880970 
# 
# From -- ./inp_files/332841.got.cif
#   From: 2010.06.25/outbox.cif.g09.slc.cpg/sg2_167_cif.got.tgz:332841.got - 2010.06.27 13:26:56.
