data_PCOD8031215
_publ_section_title
;
Structure prediction by ZEFSAII (Michael W. Deem and Ramdas Pophale) SiO2 
 PCOD8031215
Probable space group: P -1
;
_chemical_formula_sum "Si O2"
_cell_formula_units_Z 16
_cell_length_a 8.711738
_cell_length_b 19.864103
_cell_length_c 11.582792
_cell_angle_alpha 158.418948
_cell_angle_beta 100.984620
_cell_angle_gamma 78.749064
_cell_volume 722.857495
_symmetry_space_group_name_H-M "P -1"
_symmetry_group_IT_number 2
_symmetry_cell_setting 'triclinic'
loop_
_space_group_symop_operation_xyz
x,y,z
-x,-y,-z
loop_
_atom_site_type_symbol
_atom_site_label
_atom_site_fract_x
_atom_site_fract_y
_atom_site_fract_z
Si Si1 0.239021 0.078302 0.915707
Si Si2 0.410180 0.341653 0.182491
Si Si3 0.720905 0.615217 0.179825
Si Si4 0.918290 0.808226 0.697878
Si Si5 0.614933 0.258111 0.701134
Si Si6 0.136799 0.459117 0.152518
Si Si7 0.354091 0.884177 0.277993
Si Si8 0.038619 0.070192 0.494511
O O1 0.339460 0.884076 0.623179
O O2 0.328414 0.214140 0.060846
O O3 0.212424 0.169767 0.183836
O O4 0.067130 0.028127 0.769671
O O5 0.500000 0.500000 0.500000
O O6 0.277854 0.402383 0.168298
O O7 0.575538 0.271316 0.040715
O O8 0.834688 0.754296 0.480456
O O9 0.572090 0.736254 0.304756
O O10 0.670669 0.462103 0.017767
O O11 0.799244 0.503453 0.906317
O O12 0.044433 0.641018 0.478601
O O13 0.000000 0.000000 0.000000
O O14 0.700911 0.184024 0.711981
O O15 0.021489 0.291659 0.849203
O O16 0.500000 0.000000 0.500000
O O17 0.217027 0.003963 0.385807
O O18 0.000000 0.000000 0.500000
#
# Coordination Sequence:
#
# PCOD8031215 Si02
#       8
#     2   2   2   2   2   2   2   2
#     4  12  26  45  68 107 141 177 227 288 357 410
#     4  12  28  42  69 109 143 182 217 293 360 417
#     4  11  25  43  72  96 125 189 239 281 326 408
#     4  12  29  46  66 100 145 187 224 288 351 408
#     4  11  22  42  72  97 129 177 244 281 329 406
#     4  12  24  47  70  99 138 179 239 277 344 414
#     4  12  21  44  71 102 141 178 232 284 349 414
#     4  12  22  41  76 103 132 180 231 288 343 414
#
# _framework density 22.134377000000001
#
# number of rings (size 3 to 8) (size 9 to 14) (size 15 to 20)
#    0.000    0.250    6.250    2.625    3.500    2.000 
#    0.000    0.000    0.000    0.000    0.000    0.000 
#    0.000    0.000    0.000    0.000    0.000    0.000 
#
# Total GULP energy -198258.884766 kJ/mol
# GULP energy per Si atom -12391.180298 kJ/mol
# Density = 2.208400 g / cm^3
# Si number density = 22.134377 Si / 1000 Ang^3
#
#
#
# Elastic Constant Matrix: (Units=GPa)
#
#
# Indices 1 2 3 4 5 6 
#
# 1 93.2103 17.6826 47.0490 5.7706 -7.7244 -2.0783
# 2 17.6826 64.0215 28.3487 0.6724 1.2438 12.0505
# 3 47.0490 28.3487 150.2516 0.7797 -7.8695 1.0707
# 4 5.7706 0.6724 0.7797 37.4437 3.4625 -5.0844
# 5 -7.7244 1.2438 -7.8695 3.4625 58.6887 -5.5092
# 6 -2.0783 12.0505 1.0707 -5.0844 -5.5092 33.8787
#
#
#
# Elastic Compliance Matrix: (Units=1/GPa)
#
#
# Indices 1 2 3 4 5 6 
#
# 1 0.013304 -0.002412 -0.003631 -0.001838 0.001590 0.001771
# 2 -0.002412 0.018944 -0.002855 -0.000725 -0.001734 -0.007187
# 3 -0.003631 -0.002855 0.008362 0.000466 0.000744 0.000719
# 4 -0.001838 -0.000725 0.000466 0.027675 -0.001416 0.004053
# 5 0.001590 -0.001734 0.000744 -0.001416 0.017785 0.003370
# 6 0.001771 -0.007187 0.000719 0.004053 0.003370 0.033316
#
#
# Mechanical properties :
#
#
# Convention : Reuss Voigt Hill
#
# Bulk Modulus (GPa) = 43.82979 54.84933 49.33956
# Shear Modulus (GPa) = 34.53399 40.29576 37.41488
#
# Velocity S-wave (km/s) = 3.95422 4.27137 4.11585
# Velocity P-wave (km/s) = 6.37906 7.01142 6.70271
#
# Compressibility (1/GPa) = 0.02281553
#
# Stress axis : x y z
#
# Youngs Moduli (GPa) = 75.16768 52.78698 119.58242
#
# Poissons Ratio (x) = 0.12731 0.43415
# Poissons Ratio (y) = 0.18129 0.34139
# Poissons Ratio (z) = 0.27290 0.15070
#
# Static dielectric constant tensor:
#      x y z
#    x 4.194210 0.016040 0.101290 
#    y 0.016040 3.460140 -0.463050 
#    z 0.101290 -0.463050 3.703450 
# 
# 
# High freq. dielectric constant tensor:
#      x y z
#    x 1.891290 0.005520 -0.005450 
#    y 0.005520 1.867110 0.007720 
#    z -0.005450 0.007720 1.882030 
# 
# From -- ./inp_files/405772.got.cif
#   From: 2010.06.25/outbox.cif.g09.slc.cpg/sg2_203_cif.got.tgz:405772.got - 2010.06.27 13:26:56.
