data_PCOD8031256
_publ_section_title
;
Structure prediction by ZEFSAII (Michael W. Deem and Ramdas Pophale) SiO2 
 PCOD8031256
Probable space group: P -1
;
_chemical_formula_sum "Si O2"
_cell_formula_units_Z 16
_cell_length_a 9.827802
_cell_length_b 9.161470
_cell_length_c 14.712164
_cell_angle_alpha 95.716181
_cell_angle_beta 112.130641
_cell_angle_gamma 134.774396
_cell_volume 724.622435
_symmetry_space_group_name_H-M "P -1"
_symmetry_group_IT_number 2
_symmetry_cell_setting 'triclinic'
loop_
_space_group_symop_operation_xyz
x,y,z
-x,-y,-z
loop_
_atom_site_type_symbol
_atom_site_label
_atom_site_fract_x
_atom_site_fract_y
_atom_site_fract_z
Si Si1 0.165166 0.345513 0.155633
Si Si2 0.876125 0.926539 0.365898
Si Si3 0.289382 0.711196 0.681744
Si Si4 0.589404 0.902195 0.016693
Si Si5 0.731337 0.270728 0.529114
Si Si6 0.284772 0.414224 0.394958
Si Si7 0.527590 0.401147 0.189638
Si Si8 0.500252 0.823540 0.189845
O O1 0.300268 0.437980 0.292344
O O2 0.277701 0.298811 0.122526
O O3 0.225858 0.551386 0.134718
O O4 0.873341 0.111705 0.072772
O O5 0.773948 0.696113 0.281417
O O6 0.657306 0.869896 0.312748
O O7 0.000000 0.000000 0.500000
O O8 0.044357 0.133185 0.344668
O O9 0.276280 0.765539 0.581593
O O10 0.457890 0.700982 0.728189
O O11 0.015327 0.458442 0.641639
O O12 0.442753 0.958565 0.790212
O O13 0.551592 0.802246 0.100567
O O14 0.441718 0.676703 0.896804
O O15 0.500000 0.000000 0.000000
O O16 0.702279 0.416768 0.548439
O O17 0.500000 0.000000 0.500000
O O18 0.500000 0.500000 0.500000
#
# Coordination Sequence:
#
# PCOD8031256 Si02
#       8
#     2   2   2   2   2   2   2   2
#     4  11  25  46  71 104 139 183 242 293 359 425
#     4  11  23  42  69 103 142 189 232 289 361 423
#     4  11  22  43  64  99 144 182 236 296 352 419
#     4  12  25  50  74 103 143 188 245 297 357 420
#     4  11  24  38  64  99 140 189 233 285 354 429
#     4  12  23  42  66 100 144 184 231 289 350 427
#     4  11  26  45  71 104 140 188 240 297 356 420
#     4  11  23  46  73 100 141 191 229 300 360 418
#
# _framework density 22.080463999999999
#
# number of rings (size 3 to 8) (size 9 to 14) (size 15 to 20)
#    0.000    0.750    3.750    4.125    3.500    2.500 
#    2.250    0.000    0.000    0.000    0.000    0.000 
#    0.000    0.000    0.000    0.000    0.000    0.000 
#
# Total GULP energy -198217.018417 kJ/mol
# GULP energy per Si atom -12388.563651 kJ/mol
# Density = 2.203021 g / cm^3
# Si number density = 22.080464 Si / 1000 Ang^3
#
#
#
# Elastic Constant Matrix: (Units=GPa)
#
#
# Indices 1 2 3 4 5 6 
#
# 1 108.1386 49.6769 38.1249 11.0224 -9.4094 -18.7882
# 2 49.6769 173.0229 47.2402 16.8751 -4.2899 5.1689
# 3 38.1249 47.2402 95.0534 11.5841 -11.3536 -7.5071
# 4 11.0224 16.8751 11.5841 31.5006 -4.9790 -4.8986
# 5 -9.4094 -4.2899 -11.3536 -4.9790 33.4835 -3.4543
# 6 -18.7882 5.1689 -7.5071 -4.8986 -3.4543 36.7957
#
#
#
# Elastic Compliance Matrix: (Units=1/GPa)
#
#
# Indices 1 2 3 4 5 6 
#
# 1 0.013137 -0.003103 -0.002785 -0.000378 0.002996 0.006806
# 2 -0.003103 0.007781 -0.002761 -0.002914 -0.001635 -0.003782
# 3 -0.002785 -0.002761 0.013788 -0.001778 0.003467 0.001868
# 4 -0.000378 -0.002914 -0.001778 0.035625 0.004735 0.005041
# 5 0.002996 -0.001635 0.003467 0.004735 0.033017 0.006196
# 6 0.006806 -0.003782 0.001868 0.005041 0.006196 0.032818
#
#
# Mechanical properties :
#
#
# Convention : Reuss Voigt Hill
#
# Bulk Modulus (GPa) = 57.45103 71.81099 64.63101
# Shear Modulus (GPa) = 31.39378 36.43415 33.91397
#
# Velocity S-wave (km/s) = 3.77475 4.06650 3.92334
# Velocity P-wave (km/s) = 6.71370 7.39200 7.06100
#
# Compressibility (1/GPa) = 0.01740613
#
# Stress axis : x y z
#
# Youngs Moduli (GPa) = 76.12246 128.51533 72.52594
#
# Poissons Ratio (x) = 0.39884 0.20200
# Poissons Ratio (y) = 0.23624 0.20027
# Poissons Ratio (z) = 0.21202 0.35487
#
# Static dielectric constant tensor:
#      x y z
#    x 3.973560 -0.003450 -0.012100 
#    y -0.003450 4.314600 0.011510 
#    z -0.012100 0.011510 4.115110 
# 
# 
# High freq. dielectric constant tensor:
#      x y z
#    x 1.865030 -0.008280 -0.001380 
#    y -0.008280 1.881860 0.002010 
#    z -0.001380 0.002010 1.874430 
# 
# From -- ./inp_files/495270.got.cif
#   From: 2010.06.25/outbox.cif.g09.slc.cpg/sg2_248_cif.got.tgz:495270.got - 2010.06.27 13:26:56.
