data_PCOD8031079
_publ_section_title
;
Structure prediction by ZEFSAII (Michael W. Deem and Ramdas Pophale) SiO2 
 PCOD8031079
Probable space group: P -1
;
_chemical_formula_sum "Si O2"
_cell_formula_units_Z 12
_cell_length_a 8.380779
_cell_length_b 11.989686
_cell_length_c 11.072441
_cell_angle_alpha 139.860648
_cell_angle_beta 138.426471
_cell_angle_gamma 43.333995
_cell_volume 443.401156
_symmetry_space_group_name_H-M "P -1"
_symmetry_group_IT_number 2
_symmetry_cell_setting 'triclinic'
loop_
_space_group_symop_operation_xyz
x,y,z
-x,-y,-z
loop_
_atom_site_type_symbol
_atom_site_label
_atom_site_fract_x
_atom_site_fract_y
_atom_site_fract_z
Si Si1 0.292910 0.881859 0.355364
Si Si2 0.728563 0.478750 0.830774
Si Si3 0.602171 0.651783 0.135966
Si Si4 0.789261 0.486836 0.602601
Si Si5 0.141517 0.830120 0.786598
Si Si6 0.288308 0.128862 0.236003
O O1 0.232210 0.709543 0.231585
O O2 0.436890 0.838104 0.269089
O O3 0.463545 0.942269 0.596753
O O4 0.035233 0.057431 0.332370
O O5 0.653128 0.467646 0.637335
O O6 0.548857 0.653989 0.960693
O O7 0.000000 0.500000 0.000000
O O8 0.902136 0.601507 0.290128
O O9 0.500000 0.500000 0.000000
O O10 0.700527 0.702423 0.698461
O O11 0.702091 0.375199 0.352959
O O12 0.980297 0.799705 0.783457
O O13 0.310337 0.953082 0.020785
#
# Coordination Sequence:
#
# PCOD8031079 Si02
#       6
#     2   2   2   2   2   2
#     4  11  22  42  68  98 133 173 226 275 327 394
#     4   9  20  39  65 100 132 176 219 270 333 401
#     4   9  18  35  65  98 122 171 223 267 316 393
#     4  11  22  42  66  96 137 177 213 275 342 388
#     4  11  24  42  67 102 134 173 221 279 332 388
#     4  11  24  42  67 100 135 172 225 276 326 397
#
# _framework density 27.063528999999999
#
# number of rings (size 3 to 8) (size 9 to 14) (size 15 to 20)
#    0.000    1.667    1.667    4.000    0.000    1.333 
#    3.000    2.500    0.000    0.000    0.000    0.000 
#    0.000    0.000    0.000    0.000    0.000    0.000 
#
# Total GULP energy -148794.199319 kJ/mol
# GULP energy per Si atom -12399.516610 kJ/mol
# Density = 2.700193 g / cm^3
# Si number density = 27.063529 Si / 1000 Ang^3
#
#
#
# Elastic Constant Matrix: (Units=GPa)
#
#
# Indices 1 2 3 4 5 6 
#
# 1 146.1011 47.0835 70.5791 10.0836 -3.3904 18.4143
# 2 47.0835 85.5684 57.1746 26.6761 -5.8374 26.2580
# 3 70.5791 57.1746 233.4239 -16.0733 -10.5786 11.0023
# 4 10.0836 26.6761 -16.0733 54.1888 18.1159 0.9761
# 5 -3.3904 -5.8374 -10.5786 18.1159 39.6762 -1.2776
# 6 18.4143 26.2580 11.0023 0.9761 -1.2776 47.1788
#
#
#
# Elastic Compliance Matrix: (Units=1/GPa)
#
#
# Indices 1 2 3 4 5 6 
#
# 1 0.008982 -0.002902 -0.001991 -0.000861 0.000158 -0.001404
# 2 -0.002902 0.027099 -0.005968 -0.017637 0.009817 -0.011927
# 3 -0.001991 -0.005968 0.006551 0.005840 -0.001891 0.002399
# 4 -0.000861 -0.017637 0.005840 0.034438 -0.016590 0.007629
# 5 0.000158 0.009817 -0.001891 -0.016590 0.033609 -0.003831
# 6 -0.001404 -0.011927 0.002399 0.007629 -0.003831 0.027561
#
#
# Mechanical properties :
#
#
# Convention : Reuss Voigt Hill
#
# Bulk Modulus (GPa) = 47.82172 90.52975 69.17574
# Shear Modulus (GPa) = 29.95254 47.55917 38.75585
#
# Velocity S-wave (km/s) = 3.33039 4.19658 3.78833
# Velocity P-wave (km/s) = 5.70063 7.55018 6.68963
#
# Compressibility (1/GPa) = 0.02091100
#
# Stress axis : x y z
#
# Youngs Moduli (GPa) = 111.33961 36.90183 152.64578
#
# Poissons Ratio (x) = 0.10708 0.30390
# Poissons Ratio (y) = 0.32309 0.91092
# Poissons Ratio (z) = 0.22166 0.22021
#
# Static dielectric constant tensor:
#      x y z
#    x 5.402670 0.198960 -0.456180 
#    y 0.198960 5.768170 -0.292450 
#    z -0.456180 -0.292450 6.604020 
# 
# 
# High freq. dielectric constant tensor:
#      x y z
#    x 2.092860 -0.002120 0.010390 
#    y -0.002120 2.112000 -0.015940 
#    z 0.010390 -0.015940 2.135060 
# 
# From -- ./inp_files/386371.got.cif
#   From: 2010.06.25/outbox.cif.g09.slc.cpg/sg2_194_cif.got.tgz:386371.got - 2010.06.27 13:26:56.
