data_PCOD8031086
_publ_section_title
;
Structure prediction by ZEFSAII (Michael W. Deem and Ramdas Pophale) SiO2 
 PCOD8031086
Probable space group: P -1
;
_chemical_formula_sum "Si O2"
_cell_formula_units_Z 14
_cell_length_a 14.900661
_cell_length_b 9.969350
_cell_length_c 9.352563
_cell_angle_alpha 41.054145
_cell_angle_beta 63.173379
_cell_angle_gamma 47.985171
_cell_volume 673.860423
_symmetry_space_group_name_H-M "P -1"
_symmetry_group_IT_number 2
_symmetry_cell_setting 'triclinic'
loop_
_space_group_symop_operation_xyz
x,y,z
-x,-y,-z
loop_
_atom_site_type_symbol
_atom_site_label
_atom_site_fract_x
_atom_site_fract_y
_atom_site_fract_z
Si Si1 0.857906 0.463811 0.047647
Si Si2 0.226637 0.111281 0.789916
Si Si3 0.422761 0.189571 0.024541
Si Si4 0.436540 0.162267 0.548823
Si Si5 0.931914 0.988528 0.199886
Si Si6 0.028125 0.589356 0.696658
Si Si7 0.448867 0.595151 0.118813
O O1 0.718778 0.667143 0.021390
O O2 0.905125 0.607909 0.810321
O O3 0.926316 0.349553 0.241381
O O4 0.870169 0.247061 0.117633
O O5 0.300649 0.228442 0.598792
O O6 0.170787 0.054843 0.740378
O O7 0.121036 0.302557 0.818582
O O8 0.320654 0.856361 0.005818
O O9 0.462867 0.011274 0.271230
O O10 0.454124 0.391342 0.867695
O O11 0.500000 0.000000 0.000000
O O12 0.421281 0.419339 0.359666
O O13 0.500000 0.000000 0.500000
O O14 0.014638 0.766781 0.432726
O O15 0.000000 0.000000 0.000000
O O16 0.500000 0.500000 0.000000
#
# Coordination Sequence:
#
# PCOD8031086 Si02
#       7
#     2   2   2   2   2   2   2
#     4  11  25  45  70  94 142 179 223 276 337 412
#     4  11  24  41  69  98 137 167 227 282 332 399
#     4  11  25  45  67 104 136 174 226 277 336 402
#     4  11  24  40  69  97 134 178 219 279 339 397
#     4  12  26  42  69 105 132 174 233 280 335 402
#     4  11  26  46  65  99 136 184 220 276 346 400
#     4  11  22  42  67 101 131 173 225 269 338 395
#
# _framework density 20.775817
#
# number of rings (size 3 to 8) (size 9 to 14) (size 15 to 20)
#    0.000    0.857    4.286    3.429    4.000    0.571 
#    0.000    1.429    0.000    0.000    0.000    0.000 
#    0.000    0.000    0.000    0.000    0.000    0.000 
#
# Total GULP energy -173520.820413 kJ/mol
# GULP energy per Si atom -12394.344315 kJ/mol
# Density = 2.072853 g / cm^3
# Si number density = 20.775817 Si / 1000 Ang^3
#
#
#
# Elastic Constant Matrix: (Units=GPa)
#
#
# Indices 1 2 3 4 5 6 
#
# 1 131.0895 42.8714 54.7598 -8.1606 -15.6105 -2.2340
# 2 42.8714 128.4793 31.7223 -8.3480 -5.9093 0.3134
# 3 54.7598 31.7223 141.3916 -3.3558 -14.3397 0.1149
# 4 -8.1606 -8.3480 -3.3558 25.3202 9.5702 3.4115
# 5 -15.6105 -5.9093 -14.3397 9.5702 34.1306 -3.2472
# 6 -2.2340 0.3134 0.1149 3.4115 -3.2472 43.4400
#
#
#
# Elastic Compliance Matrix: (Units=1/GPa)
#
#
# Indices 1 2 3 4 5 6 
#
# 1 0.010097 -0.002428 -0.003069 0.000931 0.002711 0.000674
# 2 -0.002428 0.008985 -0.001092 0.002363 -0.000717 -0.000426
# 3 -0.003069 -0.001092 0.008722 -0.001110 0.002392 0.000093
# 4 0.000931 0.002363 -0.001110 0.045930 -0.012942 -0.004541
# 5 0.002711 -0.000717 0.002392 -0.012942 0.035411 0.003802
# 6 0.000674 -0.000426 0.000093 -0.004541 0.003802 0.023699
#
#
# Mechanical properties :
#
#
# Convention : Reuss Voigt Hill
#
# Bulk Modulus (GPa) = 68.36991 73.29637 70.83314
# Shear Modulus (GPa) = 33.13553 38.68529 35.91041
#
# Velocity S-wave (km/s) = 3.99796 4.31981 4.16200
# Velocity P-wave (km/s) = 7.36827 7.76127 7.56732
#
# Compressibility (1/GPa) = 0.01462632
#
# Stress axis : x y z
#
# Youngs Moduli (GPa) = 99.04172 111.30085 114.64822
#
# Poissons Ratio (x) = 0.27021 0.35188
# Poissons Ratio (y) = 0.24045 0.12517
# Poissons Ratio (z) = 0.30398 0.12152
#
# Static dielectric constant tensor:
#      x y z
#    x 3.897940 0.131830 -0.100490 
#    y 0.131830 3.780620 -0.139110 
#    z -0.100490 -0.139110 3.632350 
# 
# 
# High freq. dielectric constant tensor:
#      x y z
#    x 1.829380 0.007920 -0.003220 
#    y 0.007920 1.827330 -0.002800 
#    z -0.003220 -0.002800 1.809100 
# 
# From -- ./inp_files/62998.got.cif
#   From: 2010.06.25/outbox.cif.g09.slc.cpg/sg2_32_cif.got.tgz:62998.got - 2010.06.27 13:26:56.
