data_PCOD8031697
_publ_section_title
;
Structure prediction by ZEFSAII (Michael W. Deem and Ramdas Pophale) SiO2 
 PCOD8031697
Probable space group: P -1
;
_chemical_formula_sum "Si O2"
_cell_formula_units_Z 14
_cell_length_a 9.472787
_cell_length_b 9.266112
_cell_length_c 9.169883
_cell_angle_alpha 104.162696
_cell_angle_beta 80.490030
_cell_angle_gamma 119.399764
_cell_volume 678.952816
_symmetry_space_group_name_H-M "P -1"
_symmetry_group_IT_number 2
_symmetry_cell_setting 'triclinic'
loop_
_space_group_symop_operation_xyz
x,y,z
-x,-y,-z
loop_
_atom_site_type_symbol
_atom_site_label
_atom_site_fract_x
_atom_site_fract_y
_atom_site_fract_z
Si Si1 0.906001 0.000057 0.373089
Si Si2 0.643038 0.013324 0.574508
Si Si3 0.155751 0.642363 0.237344
Si Si4 0.554150 0.140953 0.149235
Si Si5 0.920664 0.265026 0.223562
Si Si6 0.626965 0.441881 0.018753
Si Si7 0.950010 0.747374 0.100778
O O1 0.721296 0.916976 0.443572
O O2 0.947607 0.182683 0.345044
O O3 0.943574 0.902898 0.216145
O O4 0.000000 0.000000 0.500000
O O5 0.776571 0.211172 0.616956
O O6 0.500000 0.000000 0.500000
O O7 0.582380 0.927275 0.719720
O O8 0.013559 0.467430 0.282623
O O9 0.083484 0.701525 0.131159
O O10 0.306717 0.620999 0.144885
O O11 0.730349 0.193309 0.201509
O O12 0.542982 0.297276 0.117607
O O13 0.500000 0.000000 0.000000
O O14 0.005313 0.213600 0.066378
O O15 0.773267 0.592554 0.114148
O O16 0.500000 0.500000 0.000000
#
# Coordination Sequence:
#
# PCOD8031697 Si02
#       7
#     2   2   2   2   2   2   2
#     4  12  27  44  66 103 140 178 224 281 334 407
#     4  12  26  44  68  99 142 179 223 276 347 399
#     4  11  22  47  70  98 135 179 227 281 335 408
#     4  12  23  43  74 100 135 181 228 273 341 403
#     4  11  23  45  75  97 128 187 233 269 338 403
#     4  11  24  40  70 107 134 168 230 290 332 385
#     4  11  22  45  72  98 136 175 232 278 331 405
#
# _framework density 20.619990999999999
#
# number of rings (size 3 to 8) (size 9 to 14) (size 15 to 20)
#    0.000    0.571    7.143    1.286    4.000    2.857 
#    2.571    0.714    0.000    0.000    0.000    0.000 
#    0.000    0.000    0.000    0.000    0.000    0.000 
#
# Total GULP energy -173566.323161 kJ/mol
# GULP energy per Si atom -12397.594512 kJ/mol
# Density = 2.057306 g / cm^3
# Si number density = 20.619991 Si / 1000 Ang^3
#
#
#
# Elastic Constant Matrix: (Units=GPa)
#
#
# Indices 1 2 3 4 5 6 
#
# 1 145.0618 47.2211 39.6991 -6.9924 4.8286 -11.7724
# 2 47.2211 120.8524 47.3192 -18.3011 7.2883 -0.7159
# 3 39.6991 47.3192 91.0246 -18.8559 -1.1828 -5.0520
# 4 -6.9924 -18.3011 -18.8559 36.0287 0.2736 7.7211
# 5 4.8286 7.2883 -1.1828 0.2736 45.7506 -1.5124
# 6 -11.7724 -0.7159 -5.0520 7.7211 -1.5124 34.6684
#
#
#
# Elastic Compliance Matrix: (Units=1/GPa)
#
#
# Indices 1 2 3 4 5 6 
#
# 1 0.008601 -0.002533 -0.002613 -0.001585 -0.000469 0.002820
# 2 -0.002533 0.011596 -0.004317 0.003610 -0.001784 -0.002132
# 3 -0.002613 -0.004317 0.015509 0.005375 0.001337 0.000145
# 4 -0.001585 0.003610 0.005375 0.033644 -0.000708 -0.007204
# 5 -0.000469 -0.001784 0.001337 -0.000708 0.022267 0.001128
# 6 0.002820 -0.002132 0.000145 -0.007204 0.001128 0.031433
#
#
# Mechanical properties :
#
#
# Convention : Reuss Voigt Hill
#
# Bulk Modulus (GPa) = 59.59268 69.49085 64.54177
# Shear Modulus (GPa) = 33.88221 38.13617 36.00919
#
# Velocity S-wave (km/s) = 4.05800 4.30522 4.18344
# Velocity P-wave (km/s) = 7.13581 7.64769 7.39617
#
# Compressibility (1/GPa) = 0.01678058
#
# Stress axis : x y z
#
# Youngs Moduli (GPa) = 116.26288 86.23462 64.47962
#
# Poissons Ratio (x) = 0.21843 0.16846
# Poissons Ratio (y) = 0.29449 0.27838
# Poissons Ratio (z) = 0.30374 0.37230
#
# Static dielectric constant tensor:
#      x y z
#    x 3.723680 0.122060 0.066530 
#    y 0.122060 4.142400 -0.072760 
#    z 0.066530 -0.072760 3.674030 
# 
# 
# High freq. dielectric constant tensor:
#      x y z
#    x 1.815300 0.002320 -0.002340 
#    y 0.002320 1.807470 -0.006720 
#    z -0.002340 -0.006720 1.811070 
# 
# From -- ./inp_files/156617.got.cif
#   From: 2010.06.25/outbox.cif.g09.slc.cpg/sg2_79_cif.got.tgz:156617.got - 2010.06.27 13:26:56.
