data_PCOD8031523
_publ_section_title
;
Structure prediction by ZEFSAII (Michael W. Deem and Ramdas Pophale) SiO2 
 PCOD8031523
Probable space group: P -1
;
_chemical_formula_sum "Si O2"
_cell_formula_units_Z 16
_cell_length_a 8.308583
_cell_length_b 15.411746
_cell_length_c 8.621535
_cell_angle_alpha 63.602625
_cell_angle_beta 99.516530
_cell_angle_gamma 55.720423
_cell_volume 676.023376
_symmetry_space_group_name_H-M "P -1"
_symmetry_group_IT_number 2
_symmetry_cell_setting 'triclinic'
loop_
_space_group_symop_operation_xyz
x,y,z
-x,-y,-z
loop_
_atom_site_type_symbol
_atom_site_label
_atom_site_fract_x
_atom_site_fract_y
_atom_site_fract_z
Si Si1 0.547693 0.571261 0.229770
Si Si2 0.916671 0.245322 0.179026
Si Si3 0.796096 0.983647 0.376065
Si Si4 0.185249 0.494105 0.963446
Si Si5 0.590852 0.013292 0.697808
Si Si6 0.329995 0.685515 0.419891
Si Si7 0.412227 0.793692 0.599704
Si Si8 0.126294 0.043948 0.936409
O O1 0.765771 0.525049 0.201757
O O2 0.517076 0.626257 0.355783
O O3 0.589575 0.438637 0.363391
O O4 0.314086 0.692120 0.996264
O O5 0.895048 0.368027 0.101687
O O6 0.955010 0.175965 0.409045
O O7 0.150497 0.115972 0.227582
O O8 0.780415 0.019464 0.168624
O O9 0.576542 0.004664 0.349524
O O10 0.768326 0.093956 0.384582
O O11 0.425082 0.360396 0.188311
O O12 0.000000 0.500000 0.000000
O O13 0.464484 0.160009 0.479286
O O14 0.645558 0.017726 0.881633
O O15 0.292637 0.798919 0.424459
O O16 0.066844 0.784799 0.227778
O O17 0.000000 0.000000 0.000000
#
# Coordination Sequence:
#
# PCOD8031523 Si02
#       8
#     2   2   2   2   2   2   2   2
#     4  11  25  44  72  98 141 185 226 289 350 411
#     4  11  22  44  70  99 134 181 229 279 349 408
#     4  11  26  43  69 102 141 181 224 288 348 404
#     4  12  25  43  69 104 136 177 235 286 346 412
#     4  11  23  46  67 100 144 179 221 283 352 407
#     4  11  24  46  67 103 138 178 237 285 338 411
#     4  11  24  41  71 102 135 174 233 288 332 407
#     4  12  25  42  67  97 137 184 232 276 339 410
#
# _framework density 23.667819999999999
#
# number of rings (size 3 to 8) (size 9 to 14) (size 15 to 20)
#    0.000    0.750    3.750    4.500    3.500    0.500 
#    0.000    0.625    0.000    0.000    0.000    0.000 
#    0.000    0.000    0.000    0.000    0.000    0.000 
#
# Total GULP energy -198216.230420 kJ/mol
# GULP energy per Si atom -12388.514401 kJ/mol
# Density = 2.361395 g / cm^3
# Si number density = 23.667820 Si / 1000 Ang^3
#
#
#
# Elastic Constant Matrix: (Units=GPa)
#
#
# Indices 1 2 3 4 5 6 
#
# 1 71.6334 24.2603 13.5425 14.0588 -20.0020 -6.4697
# 2 24.2603 140.1407 37.4250 15.3097 -16.2346 9.1078
# 3 13.5425 37.4250 125.2106 2.3357 -9.2967 6.8703
# 4 14.0588 15.3097 2.3357 43.6398 -9.0418 -9.7314
# 5 -20.0020 -16.2346 -9.2967 -9.0418 37.3395 8.0555
# 6 -6.4697 9.1078 6.8703 -9.7314 8.0555 34.5429
#
#
#
# Elastic Compliance Matrix: (Units=1/GPa)
#
#
# Indices 1 2 3 4 5 6 
#
# 1 0.017491 -0.001680 -0.000852 -0.003188 0.007382 0.001269
# 2 -0.001680 0.008786 -0.002009 -0.002707 0.002538 -0.003586
# 3 -0.000852 -0.002009 0.008856 0.000426 0.001319 -0.001579
# 4 -0.003188 -0.002707 0.000426 0.026909 0.002206 0.007098
# 5 0.007382 0.002538 0.001319 0.002206 0.034190 -0.006901
# 6 0.001269 -0.003586 -0.001579 0.007098 -0.006901 0.034056
#
#
# Mechanical properties :
#
#
# Convention : Reuss Voigt Hill
#
# Bulk Modulus (GPa) = 38.38409 54.16004 46.27206
# Shear Modulus (GPa) = 33.77196 40.55489 37.16342
#
# Velocity S-wave (km/s) = 3.78155 4.14394 3.96689
# Velocity P-wave (km/s) = 5.94305 6.76974 6.36982
#
# Compressibility (1/GPa) = 0.02605246
#
# Stress axis : x y z
#
# Youngs Moduli (GPa) = 57.17153 113.82100 112.92208
#
# Poissons Ratio (x) = 0.19117 0.09619
# Poissons Ratio (y) = 0.09602 0.22682
# Poissons Ratio (z) = 0.04870 0.22862
#
# Static dielectric constant tensor:
#      x y z
#    x 4.020840 -0.060020 -0.290680 
#    y -0.060020 3.513830 1.199080 
#    z -0.290680 1.199080 3.640540 
# 
# 
# High freq. dielectric constant tensor:
#      x y z
#    x 1.916670 -0.007650 -0.017350 
#    y -0.007650 1.948100 0.000200 
#    z -0.017350 0.000200 1.963990 
# 
# From -- ./inp_files/205982.got.cif
#   From: 2010.06.25/outbox.cif.g09.slc.cpg/sg2_103_cif.got.tgz:205982.got - 2010.06.27 13:26:56.
