data_PCOD8031073
_publ_section_title
;
Structure prediction by ZEFSAII (Michael W. Deem and Ramdas Pophale) SiO2 
 PCOD8031073
Probable space group: P -1
;
_chemical_formula_sum "Si O2"
_cell_formula_units_Z 14
_cell_length_a 8.745960
_cell_length_b 12.008880
_cell_length_c 14.988625
_cell_angle_alpha 150.112174
_cell_angle_beta 125.219915
_cell_angle_gamma 66.534807
_cell_volume 620.482302
_symmetry_space_group_name_H-M "P -1"
_symmetry_group_IT_number 2
_symmetry_cell_setting 'triclinic'
loop_
_space_group_symop_operation_xyz
x,y,z
-x,-y,-z
loop_
_atom_site_type_symbol
_atom_site_label
_atom_site_fract_x
_atom_site_fract_y
_atom_site_fract_z
Si Si1 0.456202 0.132285 0.165837
Si Si2 0.712348 0.445806 0.608813
Si Si3 0.197709 0.923195 0.304537
Si Si4 0.121097 0.148007 0.719673
Si Si5 0.549620 0.316650 0.652818
Si Si6 0.472225 0.736882 0.010036
Si Si7 0.131087 0.558708 0.893370
O O1 0.642566 0.310406 0.398655
O O2 0.304661 0.287946 0.210323
O O3 0.370020 0.917577 0.054036
O O4 0.500000 0.000000 0.000000
O O5 0.594068 0.307987 0.556770
O O6 0.938959 0.458056 0.701749
O O7 0.296578 0.779934 0.306809
O O8 0.991307 0.932343 0.281919
O O9 0.333900 0.174336 0.506040
O O10 0.149990 0.813201 0.114430
O O11 0.337475 0.109787 0.768461
O O12 0.138321 0.412960 0.884106
O O13 0.000000 0.000000 0.500000
O O14 0.561460 0.582681 0.864504
O O15 0.319876 0.565130 0.902139
#
# Coordination Sequence:
#
# PCOD8031073 Si02
#       7
#     2   2   2   2   2   2   2
#     4  11  25  46  74  96 126 180 229 284 333 390
#     4  11  24  47  72  96 136 177 225 276 338 393
#     4  11  24  38  65  99 138 179 214 263 339 404
#     4  12  24  39  64  97 134 176 217 270 336 401
#     4  11  22  42  65  99 138 177 219 270 331 403
#     4  12  25  42  66  98 137 173 225 279 328 396
#     4  12  24  42  65 100 135 176 216 271 337 400
#
# _framework density 22.563095000000001
#
# number of rings (size 3 to 8) (size 9 to 14) (size 15 to 20)
#    0.000    0.571    4.286    4.286    4.000    0.571 
#    0.000    0.714    0.000    0.000    0.000    0.000 
#    0.000    0.000    0.000    0.000    0.000    0.000 
#
# Total GULP energy -173546.868099 kJ/mol
# GULP energy per Si atom -12396.204864 kJ/mol
# Density = 2.251174 g / cm^3
# Si number density = 22.563095 Si / 1000 Ang^3
#
#
#
# Elastic Constant Matrix: (Units=GPa)
#
#
# Indices 1 2 3 4 5 6 
#
# 1 137.6427 30.6726 49.2249 -13.8502 24.4710 -0.1438
# 2 30.6726 86.2277 23.5718 7.6698 10.1093 -0.1891
# 3 49.2249 23.5718 93.6526 -5.9681 -12.5766 15.1428
# 4 -13.8502 7.6698 -5.9681 38.4194 1.6215 -2.2083
# 5 24.4710 10.1093 -12.5766 1.6215 46.8485 2.1031
# 6 -0.1438 -0.1891 15.1428 -2.2083 2.1031 19.8912
#
#
#
# Elastic Compliance Matrix: (Units=1/GPa)
#
#
# Indices 1 2 3 4 5 6 
#
# 1 0.012743 -0.001491 -0.008574 0.004409 -0.009151 0.008062
# 2 -0.001491 0.013896 -0.003870 -0.003601 -0.003269 0.003013
# 3 -0.008574 -0.003870 0.020411 -0.000609 0.011574 -0.016929
# 4 0.004409 -0.003601 -0.000609 0.028589 -0.002856 0.003937
# 5 -0.009151 -0.003269 0.011574 -0.002856 0.030596 -0.012460
# 6 0.008062 0.003013 -0.016929 0.003937 -0.012460 0.065003
#
#
# Mechanical properties :
#
#
# Convention : Reuss Voigt Hill
#
# Bulk Modulus (GPa) = 52.13578 58.27350 55.20464
# Shear Modulus (GPa) = 24.33111 35.30206 29.81658
#
# Velocity S-wave (km/s) = 3.28740 3.95978 3.63915
# Velocity P-wave (km/s) = 6.12912 6.84029 6.49445
#
# Compressibility (1/GPa) = 0.01918068
#
# Stress axis : x y z
#
# Youngs Moduli (GPa) = 78.47745 71.96573 48.99345
#
# Poissons Ratio (x) = 0.10727 0.42006
# Poissons Ratio (y) = 0.11698 0.18959
# Poissons Ratio (z) = 0.67285 0.27848
#
# Static dielectric constant tensor:
#      x y z
#    x 1.588970 -0.969630 -0.380820 
#    y -0.969630 3.787620 0.000670 
#    z -0.380820 0.000670 4.215130 
# 
# 
# High freq. dielectric constant tensor:
#      x y z
#    x 1.876500 0.002170 -0.005100 
#    y 0.002170 1.877920 0.007250 
#    z -0.005100 0.007250 1.910970 
# 
# From -- ./inp_files/178612.got.cif
#   From: 2010.06.25/outbox.cif.g09.slc.cpg/sg2_90_cif.got.tgz:178612.got - 2010.06.27 13:26:56.
