data_PCOD8031292
_publ_section_title
;
Structure prediction by ZEFSAII (Michael W. Deem and Ramdas Pophale) SiO2 
 PCOD8031292
Probable space group: P -1
;
_chemical_formula_sum "Si O2"
_cell_formula_units_Z 16
_cell_length_a 9.496468
_cell_length_b 8.768658
_cell_length_c 19.114592
_cell_angle_alpha 112.918952
_cell_angle_beta 145.890259
_cell_angle_gamma 53.607723
_cell_volume 699.999296
_symmetry_space_group_name_H-M "P -1"
_symmetry_group_IT_number 2
_symmetry_cell_setting 'triclinic'
loop_
_space_group_symop_operation_xyz
x,y,z
-x,-y,-z
loop_
_atom_site_type_symbol
_atom_site_label
_atom_site_fract_x
_atom_site_fract_y
_atom_site_fract_z
Si Si1 0.716639 0.446086 0.756451
Si Si2 0.342103 0.789064 0.764870
Si Si3 0.634063 0.523500 0.186965
Si Si4 0.092833 0.853018 0.947649
Si Si5 0.333135 0.987153 0.496627
Si Si6 0.276436 0.098666 0.987510
Si Si7 0.813655 0.658662 0.716592
Si Si8 0.316917 0.326547 0.619593
O O1 0.472675 0.648843 0.727310
O O2 0.798535 0.492888 0.723679
O O3 0.556910 0.322810 0.663666
O O4 0.012084 0.317505 0.900532
O O5 0.376774 0.662509 0.825291
O O6 0.537039 0.887379 0.869583
O O7 0.999154 0.957162 0.646094
O O8 0.607089 0.655438 0.265783
O O9 0.931115 0.451303 0.254431
O O10 0.368573 0.646183 0.046535
O O11 0.856233 0.802904 0.811530
O O12 0.162524 0.955022 0.932100
O O13 0.000000 0.000000 0.000000
O O14 0.322514 0.129949 0.577646
O O15 0.500000 0.000000 0.500000
O O16 0.513742 0.776750 0.569359
O O17 0.500000 0.000000 0.000000
O O18 0.000000 0.500000 0.500000
#
# Coordination Sequence:
#
# PCOD8031292 Si02
#       8
#     2   2   2   2   2   2   2   2
#     4  11  24  43  69  96 133 173 220 276 331 393
#     4  11  23  44  67  94 134 179 220 266 337 397
#     4  11  22  43  68  98 130 179 220 276 330 398
#     4  12  24  42  68 100 133 175 224 280 331 397
#     4  12  24  45  71  97 134 181 224 269 333 407
#     4  12  25  42  66 101 131 172 223 280 333 391
#     4  12  24  43  67 102 136 175 221 277 336 391
#     4  11  22  46  70  96 132 178 225 264 337 397
#
# _framework density 22.857164999999998
#
# number of rings (size 3 to 8) (size 9 to 14) (size 15 to 20)
#    0.000    0.500    3.750    6.750    1.750    0.500 
#    2.250    1.250    0.000    0.000    0.000    0.000 
#    0.000    0.000    0.000    0.000    0.000    0.000 
#
# Total GULP energy -198401.889442 kJ/mol
# GULP energy per Si atom -12400.118090 kJ/mol
# Density = 2.280514 g / cm^3
# Si number density = 22.857165 Si / 1000 Ang^3
#
#
#
# Elastic Constant Matrix: (Units=GPa)
#
#
# Indices 1 2 3 4 5 6 
#
# 1 102.0778 17.2260 8.6665 -10.7358 0.8136 11.9252
# 2 17.2260 46.7783 33.9129 -13.7624 0.5618 7.6416
# 3 8.6665 33.9129 128.1462 -34.1481 10.9939 12.7963
# 4 -10.7358 -13.7624 -34.1481 42.5852 -0.5634 0.0373
# 5 0.8136 0.5618 10.9939 -0.5634 37.3215 -5.6451
# 6 11.9252 7.6416 12.7963 0.0373 -5.6451 38.1811
#
#
#
# Elastic Compliance Matrix: (Units=1/GPa)
#
#
# Indices 1 2 3 4 5 6 
#
# 1 0.010978 -0.003698 0.001363 0.002655 -0.001045 -0.003303
# 2 -0.003698 0.028653 -0.006341 0.003261 0.001222 -0.002277
# 3 0.001363 -0.006341 0.012276 0.008088 -0.004014 -0.003872
# 4 0.002655 0.003261 0.008088 0.031660 -0.002711 -0.004624
# 5 -0.001045 0.001222 -0.004014 -0.002711 0.028800 0.005688
# 6 -0.003303 -0.002277 -0.003872 -0.004624 0.005688 0.029821
#
#
# Mechanical properties :
#
#
# Convention : Reuss Voigt Hill
#
# Bulk Modulus (GPa) = 28.93930 44.06812 36.50371
# Shear Modulus (GPa) = 29.22973 38.09735 33.66354
#
# Velocity S-wave (km/s) = 3.57991 4.08702 3.84184
# Velocity P-wave (km/s) = 5.45675 6.44929 5.97367
#
# Compressibility (1/GPa) = 0.03455509
#
# Stress axis : x y z
#
# Youngs Moduli (GPa) = 91.09070 34.90033 81.45987
#
# Poissons Ratio (x) = 0.12905 -0.11102
# Poissons Ratio (y) = 0.33682 0.51655
# Poissons Ratio (z) = -0.12415 0.22131
#
# Static dielectric constant tensor:
#      x y z
#    x 4.317290 0.066470 0.295380 
#    y 0.066470 3.314080 -0.234770 
#    z 0.295380 -0.234770 4.543050 
# 
# 
# High freq. dielectric constant tensor:
#      x y z
#    x 1.905400 -0.007470 0.007790 
#    y -0.007470 1.900610 -0.009570 
#    z 0.007790 -0.009570 1.910400 
# 
# From -- ./inp_files/226100.got.cif
#   From: 2010.06.25/outbox.cif.g09.slc.cpg/sg2_114_cif.got.tgz:226100.got - 2010.06.27 13:26:56.
