data_PCOD8031444
_publ_section_title
;
Structure prediction by ZEFSAII (Michael W. Deem and Ramdas Pophale) SiO2 
 PCOD8031444
Probable space group: P -1
;
_chemical_formula_sum "Si O2"
_cell_formula_units_Z 16
_cell_length_a 21.120528
_cell_length_b 11.937451
_cell_length_c 17.338864
_cell_angle_alpha 31.441903
_cell_angle_beta 19.899143
_cell_angle_gamma 31.256034
_cell_volume 741.273044
_symmetry_space_group_name_H-M "P -1"
_symmetry_group_IT_number 2
_symmetry_cell_setting 'triclinic'
loop_
_space_group_symop_operation_xyz
x,y,z
-x,-y,-z
loop_
_atom_site_type_symbol
_atom_site_label
_atom_site_fract_x
_atom_site_fract_y
_atom_site_fract_z
Si Si1 0.319040 0.032024 0.634214
Si Si2 0.866921 0.206116 0.896106
Si Si3 0.746883 0.134677 0.347148
Si Si4 0.471963 0.054861 0.822716
Si Si5 0.185991 0.415794 0.034271
Si Si6 0.785149 0.456878 0.541034
Si Si7 0.665444 0.269158 0.931513
Si Si8 0.603343 0.634362 0.018612
O O1 0.235700 0.291932 0.554866
O O2 0.500000 0.000000 0.500000
O O3 0.373881 0.880408 0.583481
O O4 0.161786 0.952197 0.908911
O O5 0.768755 0.169697 0.950311
O O6 0.784084 0.466106 0.863671
O O7 0.098094 0.113705 0.673346
O O8 0.614940 0.184362 0.546120
O O9 0.847370 0.333804 0.107711
O O10 0.277860 0.235397 0.969127
O O11 0.427998 0.916271 0.882791
O O12 0.573261 0.885358 0.874788
O O13 0.981039 0.373422 0.315112
O O14 0.340601 0.371835 0.952812
O O15 0.813209 0.307722 0.674227
O O16 0.594332 0.439311 0.722905
O O17 0.500000 0.500000 0.000000
#
# Coordination Sequence:
#
# PCOD8031444 Si02
#       8
#     2   2   2   2   2   2   2   2
#     4  12  20  39  68  96 132 170 212 276 336 386
#     4  12  22  39  66 101 131 160 214 277 335 385
#     4  12  25  41  65 100 133 173 221 271 331 388
#     4  11  26  45  66  92 133 182 217 273 321 390
#     4  12  25  47  65  94 137 180 225 260 324 399
#     4  11  23  40  70  99 129 177 217 270 330 393
#     4  11  22  44  66 100 132 164 222 274 336 387
#     4  11  24  43  68 101 130 168 221 277 332 388
#
# _framework density 21.584489000000001
#
# number of rings (size 3 to 8) (size 9 to 14) (size 15 to 20)
#    0.000    0.500    6.250    3.375    1.750    2.500 
#    2.250    0.625    0.000    0.000    0.000    0.000 
#    0.000    0.000    0.000    0.000    0.000    0.000 
#
# Total GULP energy -198387.949383 kJ/mol
# GULP energy per Si atom -12399.246836 kJ/mol
# Density = 2.153536 g / cm^3
# Si number density = 21.584489 Si / 1000 Ang^3
#
#
#
# Elastic Constant Matrix: (Units=GPa)
#
#
# Indices 1 2 3 4 5 6 
#
# 1 79.7336 27.7452 21.9604 7.3039 0.1747 -0.9443
# 2 27.7452 105.9636 37.1571 16.3514 3.8748 7.2913
# 3 21.9604 37.1571 105.2503 13.3180 29.4970 0.2312
# 4 7.3039 16.3514 13.3180 33.5294 0.1489 8.9616
# 5 0.1747 3.8748 29.4970 0.1489 32.3780 -1.3263
# 6 -0.9443 7.2913 0.2312 8.9616 -1.3263 32.3045
#
#
#
# Elastic Compliance Matrix: (Units=1/GPa)
#
#
# Indices 1 2 3 4 5 6 
#
# 1 0.014375 -0.002883 -0.002603 -0.001106 0.002706 0.001508
# 2 -0.002883 0.012081 -0.003796 -0.003286 0.001970 -0.001792
# 3 -0.002603 -0.003796 0.015782 -0.004121 -0.013839 0.001243
# 4 -0.001106 -0.003286 -0.004121 0.035699 0.003620 -0.009016
# 5 0.002706 0.001970 -0.013839 0.003620 0.043247 0.000505
# 6 0.001508 -0.001792 0.001243 -0.009016 0.000505 0.033917
#
#
# Mechanical properties :
#
#
# Convention : Reuss Voigt Hill
#
# Bulk Modulus (GPa) = 42.24044 51.63034 46.93539
# Shear Modulus (GPa) = 27.53970 33.24803 30.39386
#
# Velocity S-wave (km/s) = 3.57585 3.92901 3.75658
# Velocity P-wave (km/s) = 6.05485 6.67494 6.37244
#
# Compressibility (1/GPa) = 0.02367399
#
# Stress axis : x y z
#
# Youngs Moduli (GPa) = 69.56393 82.77130 63.36475
#
# Poissons Ratio (x) = 0.23864 0.16495
# Poissons Ratio (y) = 0.20056 0.24053
# Poissons Ratio (z) = 0.18109 0.31419
#
# Static dielectric constant tensor:
#      x y z
#    x 4.144320 -0.532280 0.658610 
#    y -0.532280 5.090220 -1.380410 
#    z 0.658610 -1.380410 5.413720 
# 
# 
# High freq. dielectric constant tensor:
#      x y z
#    x 1.848070 -0.005930 0.011530 
#    y -0.005930 1.841580 -0.006060 
#    z 0.011530 -0.006060 1.848390 
# 
# From -- ./inp_files/315370.got.cif
#   From: 2010.06.25/outbox.cif.g09.slc.cpg/sg2_158_cif.got.tgz:315370.got - 2010.06.27 13:26:56.
