data_PCOD8031158
_publ_section_title
;
Structure prediction by ZEFSAII (Michael W. Deem and Ramdas Pophale) SiO2 
 PCOD8031158
Probable space group: P -1
;
_chemical_formula_sum "Si O2"
_cell_formula_units_Z 16
_cell_length_a 8.181778
_cell_length_b 10.928203
_cell_length_c 14.628247
_cell_angle_alpha 109.937013
_cell_angle_beta 122.745689
_cell_angle_gamma 38.709145
_cell_volume 679.729155
_symmetry_space_group_name_H-M "P -1"
_symmetry_group_IT_number 2
_symmetry_cell_setting 'triclinic'
loop_
_space_group_symop_operation_xyz
x,y,z
-x,-y,-z
loop_
_atom_site_type_symbol
_atom_site_label
_atom_site_fract_x
_atom_site_fract_y
_atom_site_fract_z
Si Si1 0.544657 0.482302 0.900162
Si Si2 0.132848 0.511225 0.218679
Si Si3 0.866953 0.522081 0.317924
Si Si4 0.838236 0.836214 0.087578
Si Si5 0.173892 0.247302 0.494031
Si Si6 0.502204 0.444485 0.587086
Si Si7 0.333277 0.816664 0.798945
Si Si8 0.123240 0.988286 0.437426
O O1 0.387178 0.441427 0.790844
O O2 0.387718 0.692230 0.868649
O O3 0.900005 0.302194 0.944404
O O4 0.500000 0.500000 0.000000
O O5 0.331655 0.542101 0.290995
O O6 0.344287 0.302131 0.175342
O O7 0.026367 0.517292 0.284098
O O8 0.858335 0.697876 0.122653
O O9 0.151567 0.308116 0.397571
O O10 0.706355 0.708329 0.384339
O O11 0.866961 0.960104 0.177774
O O12 0.500000 0.000000 0.000000
O O13 0.826426 0.410927 0.447110
O O14 0.312641 0.031503 0.500506
O O15 0.500000 0.500000 0.500000
O O16 0.655049 0.228112 0.588899
O O17 0.154461 0.840626 0.667700
O O18 0.000000 0.000000 0.500000
#
# Coordination Sequence:
#
# PCOD8031158 Si02
#       8
#     2   2   2   2   2   2   2   2
#     4  11  27  51  75 101 147 192 233 306 372 419
#     4  11  22  42  70 102 141 188 236 297 357 425
#     4  11  24  43  67  99 147 190 227 295 373 419
#     4  11  27  48  74 107 132 184 252 300 352 433
#     4  11  23  43  63 101 145 185 236 291 352 438
#     4  12  20  39  66  96 137 186 236 288 348 429
#     4  11  24  45  72 103 140 184 245 295 352 437
#     4  12  21  37  70 101 134 187 239 286 354 422
#
# _framework density 23.538785000000001
#
# number of rings (size 3 to 8) (size 9 to 14) (size 15 to 20)
#    0.000    0.750    6.250    0.750    3.500    1.500 
#    0.000    5.000    0.000    0.000    0.000    0.000 
#    0.000    0.000    0.000    0.000    0.000    0.000 
#
# Total GULP energy -198251.398049 kJ/mol
# GULP energy per Si atom -12390.712378 kJ/mol
# Density = 2.348521 g / cm^3
# Si number density = 23.538785 Si / 1000 Ang^3
#
#
#
# Elastic Constant Matrix: (Units=GPa)
#
#
# Indices 1 2 3 4 5 6 
#
# 1 109.1431 20.7558 55.7385 -2.6130 -26.1111 10.0525
# 2 20.7558 109.5177 28.0690 -14.1695 -17.3851 16.4260
# 3 55.7385 28.0690 116.2012 -13.3849 -17.0690 -6.4493
# 4 -2.6130 -14.1695 -13.3849 33.0893 5.0206 1.0399
# 5 -26.1111 -17.3851 -17.0690 5.0206 53.2050 -0.3155
# 6 10.0525 16.4260 -6.4493 1.0399 -0.3155 29.3286
#
#
#
# Elastic Compliance Matrix: (Units=1/GPa)
#
#
# Indices 1 2 3 4 5 6 
#
# 1 0.014361 0.000605 -0.006867 -0.001963 0.005188 -0.006646
# 2 0.000605 0.011780 -0.002691 0.003803 0.002879 -0.007500
# 3 -0.006867 -0.002691 0.013283 0.003512 -0.000280 0.006654
# 4 -0.001963 0.003803 0.003512 0.033442 -0.001761 -0.001889
# 5 0.005188 0.002879 -0.000280 -0.001761 0.022340 -0.003150
# 6 -0.006646 -0.007500 0.006654 -0.001889 -0.003150 0.042071
#
#
# Mechanical properties :
#
#
# Convention : Reuss Voigt Hill
#
# Bulk Modulus (GPa) = 46.47698 60.44319 53.46009
# Shear Modulus (GPa) = 30.79672 38.47784 34.63728
#
# Velocity S-wave (km/s) = 3.62102 4.04748 3.84017
# Velocity P-wave (km/s) = 6.10492 6.89758 6.51332
#
# Compressibility (1/GPa) = 0.02151603
#
# Stress axis : x y z
#
# Youngs Moduli (GPa) = 69.63489 84.88942 75.28695
#
# Poissons Ratio (x) = -0.05134 0.51702
# Poissons Ratio (y) = -0.04211 0.20259
# Poissons Ratio (z) = 0.47821 0.22843
#
# Static dielectric constant tensor:
#      x y z
#    x 4.416260 0.157290 0.157430 
#    y 0.157290 4.862630 0.180720 
#    z 0.157430 0.180720 4.326740 
# 
# 
# High freq. dielectric constant tensor:
#      x y z
#    x 1.946900 0.002180 0.000280 
#    y 0.002180 1.948810 -0.006740 
#    z 0.000280 -0.006740 1.931780 
# 
# From -- ./inp_files/500472.got.cif
#   From: 2010.06.25/outbox.cif.g09.slc.cpg/sg2_251_cif.got.tgz:500472.got - 2010.06.27 13:26:56.
