data_PCOD8031290
_publ_section_title
;
Structure prediction by ZEFSAII (Michael W. Deem and Ramdas Pophale) SiO2 
 PCOD8031290
Probable space group: P -1
;
_chemical_formula_sum "Si O2"
_cell_formula_units_Z 14
_cell_length_a 18.482492
_cell_length_b 22.255083
_cell_length_c 10.230924
_cell_angle_alpha 33.802777
_cell_angle_beta 135.512529
_cell_angle_gamma 161.827030
_cell_volume 656.209025
_symmetry_space_group_name_H-M "P -1"
_symmetry_group_IT_number 2
_symmetry_cell_setting 'triclinic'
loop_
_space_group_symop_operation_xyz
x,y,z
-x,-y,-z
loop_
_atom_site_type_symbol
_atom_site_label
_atom_site_fract_x
_atom_site_fract_y
_atom_site_fract_z
Si Si1 0.125897 0.873024 0.996481
Si Si2 0.557167 0.429958 0.673475
Si Si3 0.411537 0.631963 0.889092
Si Si4 0.415218 0.968410 0.584344
Si Si5 0.493364 0.081528 0.956567
Si Si6 0.950759 0.072484 0.760017
Si Si7 0.968853 0.658705 0.453059
O O1 0.339680 0.169877 0.767562
O O2 0.221639 0.881746 0.991280
O O3 0.858379 0.672155 0.966782
O O4 0.063896 0.736951 0.285968
O O5 0.500000 0.500000 0.500000
O O6 0.842813 0.691945 0.507254
O O7 0.561339 0.367509 0.924458
O O8 0.411434 0.761941 0.638632
O O9 0.654133 0.808361 0.806207
O O10 0.122657 0.727630 0.624406
O O11 0.500000 0.000000 0.500000
O O12 0.416497 0.880899 0.857362
O O13 0.672255 0.348091 0.652142
O O14 0.500000 0.000000 0.000000
O O15 0.985617 0.173540 0.754708
O O16 0.000000 0.000000 0.000000
#
# Coordination Sequence:
#
# PCOD8031290 Si02
#       7
#     2   2   2   2   2   2   2
#     4  12  25  46  68 106 145 177 238 297 347 419
#     4  12  23  47  74  97 137 182 229 294 360 421
#     4  11  26  42  70 103 136 182 231 288 354 414
#     4  11  22  43  68  96 140 193 233 283 350 415
#     4  12  26  41  66 104 144 190 237 289 347 417
#     4  11  22  46  71  98 134 178 230 287 353 421
#     4  11  23  42  69  97 138 184 235 286 344 416
#
# _framework density 21.334667
#
# number of rings (size 3 to 8) (size 9 to 14) (size 15 to 20)
#    0.000    0.571    7.143    1.286    2.000    5.143 
#    0.000    1.429    0.000    0.000    0.000    0.000 
#    0.000    0.000    0.000    0.000    0.000    0.000 
#
# Total GULP energy -173564.778381 kJ/mol
# GULP energy per Si atom -12397.484170 kJ/mol
# Density = 2.128611 g / cm^3
# Si number density = 21.334667 Si / 1000 Ang^3
#
#
#
# Elastic Constant Matrix: (Units=GPa)
#
#
# Indices 1 2 3 4 5 6 
#
# 1 131.6005 60.1688 40.8435 -10.6389 -9.3767 16.6436
# 2 60.1688 144.3597 34.3332 -26.0516 -5.3553 14.0454
# 3 40.8435 34.3332 90.4324 -19.8211 -8.7162 9.9977
# 4 -10.6389 -26.0516 -19.8211 25.6024 7.4257 -10.3012
# 5 -9.3767 -5.3553 -8.7162 7.4257 41.3798 -0.9788
# 6 16.6436 14.0454 9.9977 -10.3012 -0.9788 30.7620
#
#
#
# Elastic Compliance Matrix: (Units=1/GPa)
#
#
# Indices 1 2 3 4 5 6 
#
# 1 0.010914 -0.004017 -0.003788 -0.004806 0.001914 -0.004388
# 2 -0.004017 0.010202 -0.000247 0.009135 -0.001267 0.000614
# 3 -0.003788 -0.000247 0.015013 0.009896 0.000511 0.000613
# 4 -0.004806 0.009135 0.009896 0.063008 -0.008750 0.016034
# 5 0.001914 -0.001267 0.000511 -0.008750 0.026049 -0.002724
# 6 -0.004388 0.000614 0.000613 0.016034 -0.002724 0.039684
#
#
# Mechanical properties :
#
#
# Convention : Reuss Voigt Hill
#
# Bulk Modulus (GPa) = 49.93635 70.78705 60.36170
# Shear Modulus (GPa) = 26.64545 34.95199 30.79872
#
# Velocity S-wave (km/s) = 3.53785 4.05195 3.80360
# Velocity P-wave (km/s) = 6.33605 7.42580 6.90246
#
# Compressibility (1/GPa) = 0.02002549
#
# Stress axis : x y z
#
# Youngs Moduli (GPa) = 91.62618 98.01963 66.60944
#
# Poissons Ratio (x) = 0.39378 0.25230
# Poissons Ratio (y) = 0.36810 0.01642
# Poissons Ratio (z) = 0.34706 0.02417
#
# Static dielectric constant tensor:
#      x y z
#    x 3.480660 -0.947270 -0.108490 
#    y -0.947270 2.297790 -0.100480 
#    z -0.108490 -0.100480 4.050700 
# 
# 
# High freq. dielectric constant tensor:
#      x y z
#    x 1.845510 0.012560 -0.008200 
#    y 0.012560 1.829020 -0.015500 
#    z -0.008200 -0.015500 1.843470 
# 
# From -- ./inp_files/337486.got.cif
#   From: 2010.06.25/outbox.cif.g09.slc.cpg/sg2_169_cif.got.tgz:337486.got - 2010.06.27 13:26:56.
