data_PCOD8031806
_publ_section_title
;
Structure prediction by ZEFSAII (Michael W. Deem and Ramdas Pophale) SiO2 
 PCOD8031806
Probable space group: P -1
;
_chemical_formula_sum "Si O2"
_cell_formula_units_Z 16
_cell_length_a 9.622647
_cell_length_b 15.284225
_cell_length_c 11.659495
_cell_angle_alpha 44.009534
_cell_angle_beta 113.172528
_cell_angle_gamma 141.204594
_cell_volume 689.316638
_symmetry_space_group_name_H-M "P -1"
_symmetry_group_IT_number 2
_symmetry_cell_setting 'triclinic'
loop_
_space_group_symop_operation_xyz
x,y,z
-x,-y,-z
loop_
_atom_site_type_symbol
_atom_site_label
_atom_site_fract_x
_atom_site_fract_y
_atom_site_fract_z
Si Si1 0.782585 0.183635 0.929491
Si Si2 0.224248 0.923636 0.736007
Si Si3 0.616420 0.736496 0.869842
Si Si4 0.281501 0.333331 0.255671
Si Si5 0.937997 0.537892 0.555216
Si Si6 0.934542 0.028851 0.067415
Si Si7 0.564636 0.704948 0.440105
Si Si8 0.592985 0.013468 0.636734
O O1 0.877745 0.386855 0.765753
O O2 0.887891 0.198815 0.067609
O O3 0.500000 0.000000 0.000000
O O4 0.867039 0.130734 0.914616
O O5 0.008189 0.838858 0.667849
O O6 0.411323 0.155852 0.604816
O O7 0.377465 0.907749 0.751549
O O8 0.630820 0.721812 0.750589
O O9 0.631760 0.891210 0.759930
O O10 0.381191 0.527731 0.051697
O O11 0.840292 0.811085 0.927491
O O12 0.369028 0.367067 0.383789
O O13 0.711315 0.484280 0.512356
O O14 0.000000 0.500000 0.500000
O O15 0.155953 0.760820 0.461849
O O16 0.728910 0.820868 0.269519
O O17 0.000000 0.000000 0.000000
O O18 0.500000 0.000000 0.500000
#
# Coordination Sequence:
#
# PCOD8031806 Si02
#       8
#     2   2   2   2   2   2   2   2
#     4  11  22  46  74 105 141 201 251 297 371 453
#     4  11  23  46  76 103 146 194 246 305 369 452
#     4  11  27  46  70 111 146 198 245 310 378 443
#     4  11  25  48  79 103 147 202 252 295 384 463
#     4  12  26  45  79 109 145 200 252 298 376 455
#     4  11  26  44  72 104 153 190 244 322 372 431
#     4  11  23  46  76 110 141 202 252 303 372 459
#     4  12  29  47  72 111 153 185 247 322 368 436
#
# _framework density 23.211393000000001
#
# number of rings (size 3 to 8) (size 9 to 14) (size 15 to 20)
#    0.000    0.750    6.250    1.125    8.750    0.500 
#    2.250    1.250    2.750    0.000    0.000    0.000 
#    0.000    0.000    0.000    0.000    0.000    0.000 
#
# Total GULP energy -198324.110591 kJ/mol
# GULP energy per Si atom -12395.256912 kJ/mol
# Density = 2.315856 g / cm^3
# Si number density = 23.211393 Si / 1000 Ang^3
#
#
#
# Elastic Constant Matrix: (Units=GPa)
#
#
# Indices 1 2 3 4 5 6 
#
# 1 140.7990 65.6106 44.5574 -14.7686 9.0699 3.0188
# 2 65.6106 137.4729 53.7813 -3.9925 1.9107 7.4212
# 3 44.5574 53.7813 94.7978 -6.8681 7.7951 -3.6146
# 4 -14.7686 -3.9925 -6.8681 37.3037 0.2126 7.8300
# 5 9.0699 1.9107 7.7951 0.2126 39.8552 -3.2994
# 6 3.0188 7.4212 -3.6146 7.8300 -3.2994 38.0010
#
#
#
# Elastic Compliance Matrix: (Units=1/GPa)
#
#
# Indices 1 2 3 4 5 6 
#
# 1 0.010052 -0.003728 -0.002260 0.003415 -0.001780 -0.001144
# 2 -0.003728 0.010960 -0.004686 -0.000743 0.001074 -0.002044
# 3 -0.002260 -0.004686 0.014572 0.000849 -0.001939 0.002137
# 4 0.003415 -0.000743 0.000849 0.029562 -0.001585 -0.006274
# 5 -0.001780 0.001074 -0.001939 -0.001585 0.026025 0.002333
# 6 -0.001144 -0.002044 0.002137 -0.006274 0.002333 0.028504
#
#
# Mechanical properties :
#
#
# Convention : Reuss Voigt Hill
#
# Bulk Modulus (GPa) = 70.23858 77.88538 74.06198
# Shear Modulus (GPa) = 34.30132 36.97335 35.63734
#
# Velocity S-wave (km/s) = 3.84836 3.99544 3.92259
# Velocity P-wave (km/s) = 7.07620 7.41029 7.24517
#
# Compressibility (1/GPa) = 0.01423719
#
# Stress axis : x y z
#
# Youngs Moduli (GPa) = 99.48447 91.23816 68.62572
#
# Poissons Ratio (x) = 0.34011 0.15507
# Poissons Ratio (y) = 0.37085 0.32158
# Poissons Ratio (z) = 0.22480 0.42754
#
# Static dielectric constant tensor:
#      x y z
#    x 3.853540 0.089940 -0.406580 
#    y 0.089940 4.252640 0.210740 
#    z -0.406580 0.210740 4.134470 
# 
# 
# High freq. dielectric constant tensor:
#      x y z
#    x 1.922370 0.013530 0.000360 
#    y 0.013530 1.919360 0.004350 
#    z 0.000360 0.004350 1.922060 
# 
# From -- ./inp_files/398636.got.cif
#   From: 2010.06.25/outbox.cif.g09.slc.cpg/sg2_200_cif.got.tgz:398636.got - 2010.06.27 13:26:56.
