data_PCOD8031768
_publ_section_title
;
Structure prediction by ZEFSAII (Michael W. Deem and Ramdas Pophale) SiO2 
 PCOD8031768
Probable space group: P -1
;
_chemical_formula_sum "Si O2"
_cell_formula_units_Z 16
_cell_length_a 18.525579
_cell_length_b 7.734106
_cell_length_c 8.967688
_cell_angle_alpha 49.597084
_cell_angle_beta 131.495633
_cell_angle_gamma 115.208017
_cell_volume 732.845463
_symmetry_space_group_name_H-M "P -1"
_symmetry_group_IT_number 2
_symmetry_cell_setting 'triclinic'
loop_
_space_group_symop_operation_xyz
x,y,z
-x,-y,-z
loop_
_atom_site_type_symbol
_atom_site_label
_atom_site_fract_x
_atom_site_fract_y
_atom_site_fract_z
Si Si1 0.910739 0.106156 0.401700
Si Si2 0.936738 0.537336 0.041124
Si Si3 0.401097 0.082691 0.381913
Si Si4 0.747529 0.309453 0.571608
Si Si5 0.406530 0.010632 0.764026
Si Si6 0.397052 0.510941 0.936394
Si Si7 0.937305 0.196286 0.732076
Si Si8 0.783433 0.742023 0.544091
O O1 0.937757 0.186687 0.560269
O O2 0.827082 0.917678 0.386787
O O3 0.876958 0.317447 0.135776
O O4 0.000000 0.000000 0.500000
O O5 0.857517 0.741758 0.788846
O O6 0.000000 0.500000 0.000000
O O7 0.009053 0.581840 0.253880
O O8 0.424196 0.121312 0.565346
O O9 0.500000 0.000000 0.500000
O O10 0.318308 0.896368 0.342413
O O11 0.375811 0.319057 0.135837
O O12 0.684213 0.502724 0.292700
O O13 0.827352 0.194422 0.640575
O O14 0.791173 0.472044 0.667421
O O15 0.324620 0.172883 0.627620
O O16 0.375331 0.750773 0.851964
O O17 0.500000 0.000000 0.000000
O O18 0.500000 0.500000 0.000000
O O19 0.000000 0.000000 0.000000
#
# Coordination Sequence:
#
# PCOD8031768 Si02
#       8
#     2   2   2   2   2   2   2   2
#     4  12  24  44  72 104 142 190 235 290 362 415
#     4  12  24  47  69 102 146 187 237 295 347 422
#     4  11  24  46  76 102 135 188 235 286 363 419
#     4  11  25  45  72 104 142 188 234 293 354 420
#     4  11  26  46  70 104 141 179 232 298 355 422
#     4  11  22  46  71 100 142 179 233 292 348 427
#     4  12  24  46  72 100 145 187 240 295 347 422
#     4  12  26  46  69 105 148 181 238 293 353 426
#
# _framework density 21.832708
#
# number of rings (size 3 to 8) (size 9 to 14) (size 15 to 20)
#    0.000    0.500    6.250    2.625    0.000    3.500 
#    2.250    0.000    0.000    0.000    0.000    0.000 
#    0.000    0.000    0.000    0.000    0.000    0.000 
#
# Total GULP energy -198273.910666 kJ/mol
# GULP energy per Si atom -12392.119417 kJ/mol
# Density = 2.178302 g / cm^3
# Si number density = 21.832708 Si / 1000 Ang^3
#
#
#
# Elastic Constant Matrix: (Units=GPa)
#
#
# Indices 1 2 3 4 5 6 
#
# 1 163.4321 57.7823 66.3380 -7.8753 5.1024 1.4059
# 2 57.7823 89.7785 32.4814 -7.6133 -15.9819 2.7423
# 3 66.3380 32.4814 140.3557 -21.6928 -4.4194 14.7050
# 4 -7.8753 -7.6133 -21.6928 44.0645 7.0710 -4.7431
# 5 5.1024 -15.9819 -4.4194 7.0710 50.3188 -7.6467
# 6 1.4059 2.7423 14.7050 -4.7431 -7.6467 41.4541
#
#
#
# Elastic Compliance Matrix: (Units=1/GPa)
#
#
# Indices 1 2 3 4 5 6 
#
# 1 0.009504 -0.005424 -0.003463 -0.000415 -0.002826 0.000696
# 2 -0.005424 0.015984 -0.000941 0.000496 0.005557 0.000542
# 3 -0.003463 -0.000941 0.009864 0.003771 -0.000052 -0.002897
# 4 -0.000415 0.000496 0.003771 0.025126 -0.002849 0.000993
# 5 -0.002826 0.005557 -0.000052 -0.002849 0.022874 0.003640
# 6 0.000696 0.000542 -0.002897 0.000993 0.003640 0.025876
#
#
# Mechanical properties :
#
#
# Convention : Reuss Voigt Hill
#
# Bulk Modulus (GPa) = 63.70422 78.52995 71.11708
# Shear Modulus (GPa) = 37.28102 42.96512 40.12307
#
# Velocity S-wave (km/s) = 4.13677 4.44094 4.29155
# Velocity P-wave (km/s) = 7.21518 7.89576 7.56313
#
# Compressibility (1/GPa) = 0.01569755
#
# Stress axis : x y z
#
# Youngs Moduli (GPa) = 105.21616 62.56104 101.37889
#
# Poissons Ratio (x) = 0.33931 0.35107
# Poissons Ratio (y) = 0.57066 0.09538
# Poissons Ratio (z) = 0.36436 0.05886
#
# Static dielectric constant tensor:
#      x y z
#    x 3.826370 0.014270 0.019230 
#    y 0.014270 4.533580 0.334710 
#    z 0.019230 0.334710 4.424890 
# 
# 
# High freq. dielectric constant tensor:
#      x y z
#    x 1.857180 0.001070 0.007380 
#    y 0.001070 1.869320 -0.004350 
#    z 0.007380 -0.004350 1.872490 
# 
# From -- ./inp_files/328512.got.cif
#   From: 2010.06.25/outbox.cif.g09.slc.cpg/sg2_165_cif.got.tgz:328512.got - 2010.06.27 13:26:56.
