data_PCOD8031583
_publ_section_title
;
Structure prediction by ZEFSAII (Michael W. Deem and Ramdas Pophale) SiO2 
 PCOD8031583
Probable space group: P -1
;
_chemical_formula_sum "Si O2"
_cell_formula_units_Z 16
_cell_length_a 11.718906
_cell_length_b 9.239983
_cell_length_c 8.205976
_cell_angle_alpha 85.914191
_cell_angle_beta 51.179285
_cell_angle_gamma 97.978962
_cell_volume 671.009474
_symmetry_space_group_name_H-M "P -1"
_symmetry_group_IT_number 2
_symmetry_cell_setting 'triclinic'
loop_
_space_group_symop_operation_xyz
x,y,z
-x,-y,-z
loop_
_atom_site_type_symbol
_atom_site_label
_atom_site_fract_x
_atom_site_fract_y
_atom_site_fract_z
Si Si1 0.730557 0.098625 0.049952
Si Si2 0.513572 0.170018 0.805007
Si Si3 0.221160 0.895371 0.636583
Si Si4 0.039953 0.092891 0.619758
Si Si5 0.606199 0.578023 0.260541
Si Si6 0.880895 0.591217 0.632643
Si Si7 0.940642 0.628956 0.953957
Si Si8 0.629593 0.360018 0.977864
O O1 0.686511 0.062701 0.281971
O O2 0.734931 0.270795 0.989946
O O3 0.596675 0.994443 0.072527
O O4 0.892001 0.067279 0.866022
O O5 0.679115 0.165151 0.584557
O O6 0.434218 0.266372 0.752432
O O7 0.515258 0.239279 0.980119
O O8 0.172706 0.039578 0.597868
O O9 0.070734 0.777854 0.842070
O O10 0.102299 0.266015 0.507797
O O11 0.000000 0.000000 0.500000
O O12 0.500000 0.500000 0.500000
O O13 0.776672 0.622269 0.178205
O O14 0.565753 0.459991 0.156124
O O15 0.000000 0.500000 0.500000
O O16 0.895918 0.624045 0.806375
O O17 0.720531 0.477443 0.753828
O O18 0.000000 0.500000 0.000000
#
# Coordination Sequence:
#
# PCOD8031583 Si02
#       8
#     2   2   2   2   2   2   2   2
#     4  12  26  48  72 104 148 191 248 306 367 432
#     4  12  26  49  72 103 150 193 247 301 365 436
#     4  12  25  47  73 109 144 196 245 300 370 433
#     4  12  25  46  74 107 147 186 245 304 365 440
#     4  11  25  47  71 110 150 187 240 300 364 441
#     4  11  22  44  73 106 142 182 242 303 359 435
#     4  11  23  43  76 102 146 184 237 297 363 432
#     4  11  24  46  73 106 141 195 246 298 363 436
#
# _framework density 23.844671000000002
#
# number of rings (size 3 to 8) (size 9 to 14) (size 15 to 20)
#    0.000    0.500    2.500    6.750    1.750    0.000 
#    4.500    0.000    0.000    0.000    0.000    0.000 
#    0.000    0.000    0.000    0.000    0.000    0.000 
#
# Total GULP energy -198308.601213 kJ/mol
# GULP energy per Si atom -12394.287576 kJ/mol
# Density = 2.379040 g / cm^3
# Si number density = 23.844671 Si / 1000 Ang^3
#
#
#
# Elastic Constant Matrix: (Units=GPa)
#
#
# Indices 1 2 3 4 5 6 
#
# 1 88.0288 40.8771 23.8213 -14.6035 -10.4409 -16.2157
# 2 40.8771 141.9618 50.5460 -16.0744 -7.6747 -19.0623
# 3 23.8213 50.5460 123.7730 -5.8595 -20.7412 -6.0877
# 4 -14.6035 -16.0744 -5.8595 38.8893 -5.8324 1.7444
# 5 -10.4409 -7.6747 -20.7412 -5.8324 36.9670 2.3038
# 6 -16.2157 -19.0623 -6.0877 1.7444 2.3038 56.2958
#
#
#
# Elastic Compliance Matrix: (Units=1/GPa)
#
#
# Indices 1 2 3 4 5 6 
#
# 1 0.014604 -0.002859 -0.000660 0.004630 0.003712 0.002872
# 2 -0.002859 0.009503 -0.003194 0.002223 -0.000400 0.001996
# 3 -0.000660 -0.003194 0.010388 0.000783 0.005126 -0.000383
# 4 0.004630 0.002223 0.000783 0.029465 0.006796 0.000980
# 5 0.003712 -0.000400 0.005126 0.006796 0.031967 -0.000031
# 6 0.002872 0.001996 -0.000383 0.000980 -0.000031 0.019196
#
#
# Mechanical properties :
#
#
# Convention : Reuss Voigt Hill
#
# Bulk Modulus (GPa) = 47.46771 64.91695 56.19233
# Shear Modulus (GPa) = 36.88053 42.33169 39.60611
#
# Velocity S-wave (km/s) = 3.93708 4.21801 4.07996
# Velocity P-wave (km/s) = 6.37320 7.14186 6.76845
#
# Compressibility (1/GPa) = 0.02106695
#
# Stress axis : x y z
#
# Youngs Moduli (GPa) = 68.47515 105.23087 96.26409
#
# Poissons Ratio (x) = 0.30089 0.06358
# Poissons Ratio (y) = 0.19580 0.30748
# Poissons Ratio (z) = 0.04522 0.33612
#
# Static dielectric constant tensor:
#      x y z
#    x 4.201970 0.230200 -0.178030 
#    y 0.230200 4.417370 -0.125070 
#    z -0.178030 -0.125070 4.470530 
# 
# 
# High freq. dielectric constant tensor:
#      x y z
#    x 1.948810 -0.008840 0.002130 
#    y -0.008840 1.960710 -0.005470 
#    z 0.002130 -0.005470 1.950580 
# 
# From -- ./inp_files/243357.got.cif
#   From: 2010.06.25/outbox.cif.g09.slc.cpg/sg2_122_cif.got.tgz:243357.got - 2010.06.27 13:26:56.
