data_PCOD8031735
_publ_section_title
;
Structure prediction by ZEFSAII (Michael W. Deem and Ramdas Pophale) SiO2 
 PCOD8031735
Probable space group: P -1
;
_chemical_formula_sum "Si O2"
_cell_formula_units_Z 14
_cell_length_a 11.789580
_cell_length_b 11.226467
_cell_length_c 19.873631
_cell_angle_alpha 138.572614
_cell_angle_beta 157.608244
_cell_angle_gamma 53.071019
_cell_volume 616.807299
_symmetry_space_group_name_H-M "P -1"
_symmetry_group_IT_number 2
_symmetry_cell_setting 'triclinic'
loop_
_space_group_symop_operation_xyz
x,y,z
-x,-y,-z
loop_
_atom_site_type_symbol
_atom_site_label
_atom_site_fract_x
_atom_site_fract_y
_atom_site_fract_z
Si Si1 0.680291 0.198079 0.220856
Si Si2 0.247734 0.757976 0.124598
Si Si3 0.163386 0.487235 0.838242
Si Si4 0.594419 0.155550 0.427498
Si Si5 0.702675 0.909955 0.906765
Si Si6 0.377979 0.413042 0.653924
Si Si7 0.198811 0.324965 0.368078
O O1 0.598786 0.175227 0.245567
O O2 0.577584 0.369629 0.206393
O O3 0.059043 0.259355 0.447081
O O4 0.500000 0.000000 0.000000
O O5 0.330092 0.640452 0.180424
O O6 0.526197 0.971784 0.361153
O O7 0.223154 0.650202 0.995506
O O8 0.909625 0.772876 0.963931
O O9 0.972711 0.271644 0.672229
O O10 0.942095 0.518854 0.670922
O O11 0.500000 0.500000 0.000000
O O12 0.408283 0.072285 0.221525
O O13 0.457047 0.307185 0.449476
O O14 0.913682 0.122304 0.138614
O O15 0.374455 0.402047 0.566986
#
# Coordination Sequence:
#
# PCOD8031735 Si02
#       7
#     2   2   2   2   2   2   2
#     4  11  25  46  68  97 140 190 225 271 352 413
#     4  11  26  46  65 109 137 173 241 282 339 411
#     4  12  27  42  70 103 136 180 237 286 338 408
#     4  11  24  46  74  98 138 184 227 290 344 400
#     4  11  22  45  76  97 137 187 231 285 337 413
#     4  11  27  44  69 102 143 180 225 287 344 406
#     4  11  22  48  72 100 138 182 234 275 349 418
#
# _framework density 22.697528999999999
#
# number of rings (size 3 to 8) (size 9 to 14) (size 15 to 20)
#    0.000    0.857    4.286    2.143    8.000    5.714 
#    0.000    0.000    0.000    0.000    0.000    0.000 
#    0.000    0.000    0.000    0.000    0.000    0.000 
#
# Total GULP energy -173671.014182 kJ/mol
# GULP energy per Si atom -12405.072442 kJ/mol
# Density = 2.264587 g / cm^3
# Si number density = 22.697529 Si / 1000 Ang^3
#
#
#
# Elastic Constant Matrix: (Units=GPa)
#
#
# Indices 1 2 3 4 5 6 
#
# 1 115.3770 19.9765 30.0572 -4.3717 -5.7603 -0.6597
# 2 19.9765 84.3902 20.6948 3.8243 -23.9993 3.0890
# 3 30.0572 20.6948 73.9799 14.8952 0.4476 -5.0900
# 4 -4.3717 3.8243 14.8952 38.4355 5.5063 -7.3935
# 5 -5.7603 -23.9993 0.4476 5.5063 32.8900 1.3572
# 6 -0.6597 3.0890 -5.0900 -7.3935 1.3572 30.0006
#
#
#
# Elastic Compliance Matrix: (Units=1/GPa)
#
#
# Indices 1 2 3 4 5 6 
#
# 1 0.010166 -0.001415 -0.004315 0.002998 0.000290 0.000363
# 2 -0.001415 0.017102 -0.003962 -0.002903 0.012926 -0.003764
# 3 -0.004315 -0.003962 0.017776 -0.006193 -0.002931 0.001935
# 4 0.002998 -0.002903 -0.006193 0.031485 -0.007085 0.007394
# 5 0.000290 0.012926 -0.002931 -0.007085 0.041338 -0.005438
# 6 0.000363 -0.003764 0.001935 0.007394 -0.005438 0.036125
#
#
# Mechanical properties :
#
#
# Convention : Reuss Voigt Hill
#
# Bulk Modulus (GPa) = 38.96976 46.13380 42.55178
# Shear Modulus (GPa) = 27.48326 33.79980 30.64153
#
# Velocity S-wave (km/s) = 3.48350 3.86312 3.67821
# Velocity P-wave (km/s) = 5.77807 6.34570 6.06853
#
# Compressibility (1/GPa) = 0.02566092
#
# Stress axis : x y z
#
# Youngs Moduli (GPa) = 98.36228 58.47429 56.25429
#
# Poissons Ratio (x) = 0.08275 0.24274
# Poissons Ratio (y) = 0.13919 0.22286
# Poissons Ratio (z) = 0.42444 0.23165
#
# Static dielectric constant tensor:
#      x y z
#    x 4.128240 -0.112670 0.119250 
#    y -0.112670 4.269670 0.228620 
#    z 0.119250 0.228620 4.047490 
# 
# 
# High freq. dielectric constant tensor:
#      x y z
#    x 1.904740 -0.002820 0.007230 
#    y -0.002820 1.894080 0.022030 
#    z 0.007230 0.022030 1.894090 
# 
# From -- ./inp_files/451732.got.cif
#   From: 2010.06.25/outbox.cif.g09.slc.cpg/sg2_226_cif.got.tgz:451732.got - 2010.06.27 13:26:56.
