data_PCOD8031336
_publ_section_title
;
Structure prediction by ZEFSAII (Michael W. Deem and Ramdas Pophale) SiO2 
 PCOD8031336
Probable space group: P -1
;
_chemical_formula_sum "Si O2"
_cell_formula_units_Z 16
_cell_length_a 9.451955
_cell_length_b 17.470871
_cell_length_c 12.910505
_cell_angle_alpha 44.279360
_cell_angle_beta 30.213515
_cell_angle_gamma 46.184304
_cell_volume 732.376440
_symmetry_space_group_name_H-M "P -1"
_symmetry_group_IT_number 2
_symmetry_cell_setting 'triclinic'
loop_
_space_group_symop_operation_xyz
x,y,z
-x,-y,-z
loop_
_atom_site_type_symbol
_atom_site_label
_atom_site_fract_x
_atom_site_fract_y
_atom_site_fract_z
Si Si1 0.643595 0.219946 0.634002
Si Si2 0.796168 0.437258 0.630124
Si Si3 0.983796 0.190031 0.251940
Si Si4 0.967576 0.635942 0.668376
Si Si5 0.648894 0.233228 0.028380
Si Si6 0.172016 0.549005 0.928684
Si Si7 0.632882 0.103086 0.964069
Si Si8 0.910624 0.855458 0.986540
O O1 0.750246 0.147228 0.740236
O O2 0.299554 0.232258 0.821930
O O3 0.773282 0.162804 0.500150
O O4 0.763830 0.335018 0.462131
O O5 0.730052 0.348856 0.838581
O O6 0.502940 0.525444 0.706031
O O7 0.000000 0.500000 0.500000
O O8 0.941681 0.374389 0.497932
O O9 0.936435 0.319232 0.120960
O O10 0.296418 0.149144 0.140442
O O11 0.944885 0.122763 0.236263
O O12 0.693271 0.739969 0.756032
O O13 0.888427 0.517530 0.864830
O O14 0.750508 0.147864 0.951652
O O15 0.830099 0.187977 0.058524
O O16 0.000000 0.500000 0.000000
O O17 0.713078 0.969253 0.043496
#
# Coordination Sequence:
#
# PCOD8031336 Si02
#       8
#     2   2   2   2   2   2   2   2
#     4  11  22  43  70  95 129 179 218 272 327 394
#     4  11  27  42  67  98 135 175 221 263 333 401
#     4  11  23  43  66 100 135 168 223 272 332 386
#     4  11  24  44  67  95 137 180 210 269 336 397
#     4  11  24  46  67  98 137 175 217 277 332 394
#     4  11  24  40  65  99 131 171 216 269 321 399
#     4  11  23  48  67  96 132 178 223 278 335 385
#     4  11  28  40  71  99 133 170 229 285 324 384
#
# _framework density 21.846685999999998
#
# number of rings (size 3 to 8) (size 9 to 14) (size 15 to 20)
#    0.000    1.000    3.750    2.625    7.000    4.500 
#    0.000    0.625    0.000    0.000    0.000    0.000 
#    0.000    0.000    0.000    0.000    0.000    0.000 
#
# Total GULP energy -198297.168857 kJ/mol
# GULP energy per Si atom -12393.573054 kJ/mol
# Density = 2.179696 g / cm^3
# Si number density = 21.846686 Si / 1000 Ang^3
#
#
#
# Elastic Constant Matrix: (Units=GPa)
#
#
# Indices 1 2 3 4 5 6 
#
# 1 149.4335 30.6994 56.7244 16.8690 -9.1147 12.5043
# 2 30.6994 98.0241 38.0534 15.4970 -14.4007 3.3980
# 3 56.7244 38.0534 136.4621 15.6667 3.8152 8.9145
# 4 16.8690 15.4970 15.6667 23.1480 9.6528 2.4119
# 5 -9.1147 -14.4007 3.8152 9.6528 29.8406 1.9280
# 6 12.5043 3.3980 8.9145 2.4119 1.9280 35.4975
#
#
#
# Elastic Compliance Matrix: (Units=1/GPa)
#
#
# Indices 1 2 3 4 5 6 
#
# 1 0.009126 0.000378 -0.003110 -0.006964 0.005769 -0.002310
# 2 0.000378 0.015252 -0.003180 -0.013383 0.012247 -0.000550
# 3 -0.003110 -0.003180 0.009734 -0.000665 -0.003462 -0.000811
# 4 -0.006964 -0.013383 -0.000665 0.070705 -0.031424 0.000804
# 5 0.005769 0.012247 -0.003462 -0.031424 0.051987 -0.003024
# 6 -0.002310 -0.000550 -0.000811 0.000804 -0.003024 0.029351
#
#
# Mechanical properties :
#
#
# Convention : Reuss Voigt Hill
#
# Bulk Modulus (GPa) = 44.86845 70.54156 57.70501
# Shear Modulus (GPa) = 24.34182 34.92671 29.63426
#
# Velocity S-wave (km/s) = 3.34160 4.00274 3.68702
# Velocity P-wave (km/s) = 5.95574 7.32953 6.67806
#
# Compressibility (1/GPa) = 0.02228737
#
# Stress axis : x y z
#
# Youngs Moduli (GPa) = 109.57543 65.56544 102.73746
#
# Poissons Ratio (x) = -0.02476 0.31949
# Poissons Ratio (y) = -0.04138 0.32671
# Poissons Ratio (z) = 0.34075 0.20850
#
# Static dielectric constant tensor:
#      x y z
#    x 3.659010 -0.558470 -0.343120 
#    y -0.558470 2.561350 -0.556240 
#    z -0.343120 -0.556240 3.579510 
# 
# 
# High freq. dielectric constant tensor:
#      x y z
#    x 1.863550 0.009200 0.011180 
#    y 0.009200 1.850030 0.010570 
#    z 0.011180 0.010570 1.865870 
# 
# From -- ./inp_files/402933.got.cif
#   From: 2010.06.25/outbox.cif.g09.slc.cpg/sg2_202_cif.got.tgz:402933.got - 2010.06.27 13:26:56.
