data_PCOD8031167
_publ_section_title
;
Structure prediction by ZEFSAII (Michael W. Deem and Ramdas Pophale) SiO2 
 PCOD8031167
Probable space group: P -1
;
_chemical_formula_sum "Si O2"
_cell_formula_units_Z 14
_cell_length_a 9.530412
_cell_length_b 12.412190
_cell_length_c 10.587596
_cell_angle_alpha 71.410895
_cell_angle_beta 70.646313
_cell_angle_gamma 129.812365
_cell_volume 617.799054
_symmetry_space_group_name_H-M "P -1"
_symmetry_group_IT_number 2
_symmetry_cell_setting 'triclinic'
loop_
_space_group_symop_operation_xyz
x,y,z
-x,-y,-z
loop_
_atom_site_type_symbol
_atom_site_label
_atom_site_fract_x
_atom_site_fract_y
_atom_site_fract_z
Si Si1 0.322950 0.750894 0.394902
Si Si2 0.302310 0.940292 0.489555
Si Si3 0.607759 0.272044 0.070480
Si Si4 0.130216 0.700378 0.224545
Si Si5 0.851198 0.023314 0.879687
Si Si6 0.785741 0.633805 0.910068
Si Si7 0.861828 0.003208 0.171363
O O1 0.183256 0.772463 0.488845
O O2 0.374389 0.819209 0.204522
O O3 0.593537 0.896347 0.340671
O O4 0.132501 0.521294 0.551190
O O5 0.037328 0.829579 0.670964
O O6 0.500000 0.000000 0.500000
O O7 0.477096 0.144700 0.285913
O O8 0.383534 0.160810 0.076987
O O9 0.804108 0.302423 0.935348
O O10 0.777196 0.491848 0.975283
O O11 0.070974 0.795716 0.211225
O O12 0.100385 0.097760 0.738951
O O13 0.784928 0.938529 0.071650
O O14 0.500000 0.500000 0.000000
O O15 0.874260 0.748433 0.973818
#
# Coordination Sequence:
#
# PCOD8031167 Si02
#       7
#     2   2   2   2   2   2   2
#     4  11  22  42  70 106 142 178 240 299 343 417
#     4  12  26  44  71 103 141 184 242 294 345 427
#     4  12  24  45  75 102 139 190 235 284 362 420
#     4  11  23  41  74 105 136 187 235 290 356 421
#     4  11  23  43  70 100 134 186 233 291 353 418
#     4  12  27  48  70 102 146 191 230 293 365 424
#     4  11  24  44  69 101 142 181 236 298 346 416
#
# _framework density 22.661090999999999
#
# number of rings (size 3 to 8) (size 9 to 14) (size 15 to 20)
#    0.000    0.571    7.143    1.286    0.000    2.857 
#    0.000    0.000    0.000    0.000    0.000    0.000 
#    0.000    0.000    0.000    0.000    0.000    0.000 
#
# Total GULP energy -173506.985248 kJ/mol
# GULP energy per Si atom -12393.356089 kJ/mol
# Density = 2.260951 g / cm^3
# Si number density = 22.661091 Si / 1000 Ang^3
#
#
#
# Elastic Constant Matrix: (Units=GPa)
#
#
# Indices 1 2 3 4 5 6 
#
# 1 147.3829 51.6815 45.9296 -12.7703 0.0721 -8.8982
# 2 51.6815 93.5000 24.7248 -7.9728 5.9281 -0.4149
# 3 45.9296 24.7248 94.9440 7.2289 7.4142 2.6122
# 4 -12.7703 -7.9728 7.2289 27.8366 -3.0166 3.4502
# 5 0.0721 5.9281 7.4142 -3.0166 38.6643 -7.6691
# 6 -8.8982 -0.4149 2.6122 3.4502 -7.6691 46.3550
#
#
#
# Elastic Compliance Matrix: (Units=1/GPa)
#
#
# Indices 1 2 3 4 5 6 
#
# 1 0.010156 -0.004192 -0.004407 0.004576 0.002261 0.002194
# 2 -0.004192 0.013735 -0.001556 0.002349 -0.001829 -0.001072
# 3 -0.004407 -0.001556 0.013841 -0.006199 -0.003231 -0.001713
# 4 0.004576 0.002349 -0.006199 0.040860 0.003776 -0.001168
# 5 0.002261 -0.001829 -0.003231 0.003776 0.028037 0.004957
# 6 0.002194 -0.001072 -0.001713 -0.001168 0.004957 0.022988
#
#
# Mechanical properties :
#
#
# Convention : Reuss Voigt Hill
#
# Bulk Modulus (GPa) = 57.39318 64.49986 60.94652
# Shear Modulus (GPa) = 32.10616 36.80391 34.45504
#
# Velocity S-wave (km/s) = 3.76812 4.03439 3.90352
# Velocity P-wave (km/s) = 6.65683 7.08705 6.87531
#
# Compressibility (1/GPa) = 0.01742367
#
# Stress axis : x y z
#
# Youngs Moduli (GPa) = 98.46287 72.80630 72.24994
#
# Poissons Ratio (x) = 0.30519 0.31839
# Poissons Ratio (y) = 0.41274 0.11239
# Poissons Ratio (z) = 0.43391 0.11326
#
# Static dielectric constant tensor:
#      x y z
#    x 4.497470 -0.094360 -0.266900 
#    y -0.094360 4.441950 0.149150 
#    z -0.266900 0.149150 3.921220 
# 
# 
# High freq. dielectric constant tensor:
#      x y z
#    x 1.900960 -0.007000 -0.008510 
#    y -0.007000 1.914920 0.002340 
#    z -0.008510 0.002340 1.866020 
# 
# From -- ./inp_files/397181.got.cif
#   From: 2010.06.25/outbox.cif.g09.slc.cpg/sg2_199_cif.got.tgz:397181.got - 2010.06.27 13:26:56.
