data_PCOD8031089
_publ_section_title
;
Structure prediction by ZEFSAII (Michael W. Deem and Ramdas Pophale) SiO2 
 PCOD8031089
Probable space group: P -1
;
_chemical_formula_sum "Si O2"
_cell_formula_units_Z 16
_cell_length_a 12.078521
_cell_length_b 8.938807
_cell_length_c 9.486298
_cell_angle_alpha 77.903103
_cell_angle_beta 45.781036
_cell_angle_gamma 84.772148
_cell_volume 715.516112
_symmetry_space_group_name_H-M "P -1"
_symmetry_group_IT_number 2
_symmetry_cell_setting 'triclinic'
loop_
_space_group_symop_operation_xyz
x,y,z
-x,-y,-z
loop_
_atom_site_type_symbol
_atom_site_label
_atom_site_fract_x
_atom_site_fract_y
_atom_site_fract_z
Si Si1 0.786099 0.372736 0.936306
Si Si2 0.530367 0.360387 0.395867
Si Si3 0.261439 0.085863 0.061903
Si Si4 0.120462 0.306947 0.324980
Si Si5 0.970840 0.107684 0.877587
Si Si6 0.415559 0.857104 0.366398
Si Si7 0.705874 0.816462 0.557703
Si Si8 0.228287 0.793507 0.291364
O O1 0.882606 0.518178 0.753065
O O2 0.913944 0.277445 0.923102
O O3 0.700685 0.287081 0.893026
O O4 0.656687 0.415688 0.154462
O O5 0.500000 0.500000 0.500000
O O6 0.593766 0.220766 0.456341
O O7 0.373223 0.297818 0.467384
O O8 0.149326 0.216671 0.173622
O O9 0.178643 0.972398 0.047046
O O10 0.280286 0.976952 0.203391
O O11 0.418732 0.164325 0.845050
O O12 0.264504 0.280952 0.307764
O O13 0.956230 0.246195 0.549167
O O14 0.125558 0.114752 0.649861
O O15 0.000000 0.000000 0.000000
O O16 0.294529 0.753908 0.393737
O O17 0.394946 0.038182 0.360378
#
# Coordination Sequence:
#
# PCOD8031089 Si02
#       8
#     2   2   2   2   2   2   2   2
#     4  11  26  45  69  99 139 181 230 280 342 402
#     4  12  29  49  65 100 142 184 227 281 348 411
#     4  11  22  42  67 107 136 175 232 277 341 405
#     4  12  24  42  70 104 138 179 229 285 338 403
#     4  11  23  43  71  99 137 183 229 280 338 409
#     4  12  25  44  73 104 139 178 227 284 340 411
#     4  12  24  43  73  98 137 178 231 283 340 401
#     4  11  23  43  71 104 139 174 230 282 339 404
#
# _framework density 22.361481000000001
#
# number of rings (size 3 to 8) (size 9 to 14) (size 15 to 20)
#    0.000    0.500    3.750    6.000    3.500    0.500 
#    0.000    1.875    0.000    0.000    0.000    0.000 
#    0.000    0.000    0.000    0.000    0.000    0.000 
#
# Total GULP energy -198334.394747 kJ/mol
# GULP energy per Si atom -12395.899672 kJ/mol
# Density = 2.231059 g / cm^3
# Si number density = 22.361481 Si / 1000 Ang^3
#
#
#
# Elastic Constant Matrix: (Units=GPa)
#
#
# Indices 1 2 3 4 5 6 
#
# 1 89.5046 25.7228 34.1633 -3.8934 7.7720 2.7425
# 2 25.7228 112.4774 27.4906 5.0229 12.4189 -5.2476
# 3 34.1633 27.4906 94.9992 7.5190 5.2886 -1.9800
# 4 -3.8934 5.0229 7.5190 40.5131 -6.1480 6.1436
# 5 7.7720 12.4189 5.2886 -6.1480 27.7589 -5.7162
# 6 2.7425 -5.2476 -1.9800 6.1436 -5.7162 34.2310
#
#
#
# Elastic Compliance Matrix: (Units=1/GPa)
#
#
# Indices 1 2 3 4 5 6 
#
# 1 0.013853 -0.002064 -0.004519 0.002490 -0.002053 -0.002477
# 2 -0.002064 0.010396 -0.001870 -0.001932 -0.003866 0.001352
# 3 -0.004519 -0.001870 0.012992 -0.002915 -0.000767 0.001222
# 4 0.002490 -0.001932 -0.002915 0.027282 0.005820 -0.004589
# 5 -0.002053 -0.003866 -0.000767 0.005820 0.040857 0.005305
# 6 -0.002477 0.001352 0.001222 -0.004589 0.005305 0.031399
#
#
# Mechanical properties :
#
#
# Convention : Reuss Voigt Hill
#
# Bulk Modulus (GPa) = 49.17549 52.41497 50.79523
# Shear Modulus (GPa) = 31.15989 34.47422 32.81706
#
# Velocity S-wave (km/s) = 3.73696 3.93068 3.83504
# Velocity P-wave (km/s) = 6.37642 6.64011 6.50960
#
# Compressibility (1/GPa) = 0.02033534
#
# Stress axis : x y z
#
# Youngs Moduli (GPa) = 72.18616 96.19181 76.97304
#
# Poissons Ratio (x) = 0.19851 0.34784
# Poissons Ratio (y) = 0.14897 0.14393
# Poissons Ratio (z) = 0.32621 0.17986
#
# Static dielectric constant tensor:
#      x y z
#    x 4.323220 -0.157580 0.337080 
#    y -0.157580 4.009840 -0.108820 
#    z 0.337080 -0.108820 4.068630 
# 
# 
# High freq. dielectric constant tensor:
#      x y z
#    x 1.880940 -0.003600 0.006810 
#    y -0.003600 1.881770 0.000060 
#    z 0.006810 0.000060 1.886510 
# 
# From -- ./inp_files/184331.got.cif
#   From: 2010.06.25/outbox.cif.g09.slc.cpg/sg2_93_cif.got.tgz:184331.got - 2010.06.27 13:26:56.
