data_PCOD8031266
_publ_section_title
;
Structure prediction by ZEFSAII (Michael W. Deem and Ramdas Pophale) SiO2 
 PCOD8031266
Probable space group: P -1
;
_chemical_formula_sum "Si O2"
_cell_formula_units_Z 16
_cell_length_a 11.620373
_cell_length_b 9.583945
_cell_length_c 18.881341
_cell_angle_alpha 150.341274
_cell_angle_beta 47.098595
_cell_angle_gamma 124.509279
_cell_volume 760.400308
_symmetry_space_group_name_H-M "P -1"
_symmetry_group_IT_number 2
_symmetry_cell_setting 'triclinic'
loop_
_space_group_symop_operation_xyz
x,y,z
-x,-y,-z
loop_
_atom_site_type_symbol
_atom_site_label
_atom_site_fract_x
_atom_site_fract_y
_atom_site_fract_z
Si Si1 0.840543 0.343357 0.996214
Si Si2 0.645467 0.678784 0.108817
Si Si3 0.766586 0.283309 0.307104
Si Si4 0.731171 0.180849 0.123706
Si Si5 0.888009 0.605611 0.767531
Si Si6 0.311898 0.749040 0.224441
Si Si7 0.852802 0.704501 0.673392
Si Si8 0.375019 0.271438 0.344224
O O1 0.705218 0.507195 0.077896
O O2 0.773184 0.331988 0.099622
O O3 0.000000 0.500000 0.000000
O O4 0.885428 0.036789 0.808008
O O5 0.457417 0.758652 0.223513
O O6 0.744199 0.954522 0.183360
O O7 0.670005 0.500124 0.949292
O O8 0.777030 0.359707 0.252694
O O9 0.623541 0.457490 0.484841
O O10 0.926910 0.377453 0.316588
O O11 0.546065 0.142003 0.192947
O O12 0.822404 0.875955 0.959392
O O13 0.845266 0.314330 0.693881
O O14 0.797868 0.618740 0.736286
O O15 0.282682 0.042268 0.325115
O O16 0.711534 0.644248 0.654513
O O17 0.000000 0.500000 0.500000
#
# Coordination Sequence:
#
# PCOD8031266 Si02
#       8
#     2   2   2   2   2   2   2   2
#     4  11  26  43  70  99 133 179 226 279 332 404
#     4  11  22  43  66  97 136 173 224 284 327 400
#     4  12  24  44  70  97 143 175 227 274 344 398
#     4  11  24  42  69 100 128 181 228 269 336 406
#     4  11  24  41  72  99 130 182 227 281 331 402
#     4  11  23  41  67 101 132 172 232 281 329 391
#     4  11  24  46  65  96 141 175 218 276 350 397
#     4  12  25  45  69  99 137 182 219 284 340 404
#
# _framework density 21.041550999999998
#
# number of rings (size 3 to 8) (size 9 to 14) (size 15 to 20)
#    0.000    0.750    5.000    3.000    3.500    1.500 
#    2.250    0.625    0.000    0.000    0.000    0.000 
#    0.000    0.000    0.000    0.000    0.000    0.000 
#
# Total GULP energy -198348.196364 kJ/mol
# GULP energy per Si atom -12396.762273 kJ/mol
# Density = 2.099366 g / cm^3
# Si number density = 21.041551 Si / 1000 Ang^3
#
#
#
# Elastic Constant Matrix: (Units=GPa)
#
#
# Indices 1 2 3 4 5 6 
#
# 1 27.2777 33.5041 -55.1443 10.3502 27.5540 70.9000
# 2 33.5041 126.9927 17.7049 7.8054 12.4675 -1.9090
# 3 -55.1443 17.7049 18.6738 9.7123 28.4201 78.8426
# 4 10.3502 7.8054 9.7123 23.4261 -5.4066 -13.6964
# 5 27.5540 12.4675 28.4201 -5.4066 22.6901 -28.6256
# 6 70.9000 -1.9090 78.8426 -13.6964 -28.6256 -65.0154
#
#
#
# Elastic Compliance Matrix: (Units=1/GPa)
#
#
# Indices 1 2 3 4 5 6 
#
# 1 0.011283 -0.002820 -0.002437 0.002166 0.001761 0.008200
# 2 -0.002820 0.009319 -0.000923 -0.003548 -0.003908 -0.002000
# 3 -0.002437 -0.000923 0.009775 0.002383 0.001796 0.007930
# 4 0.002166 -0.003548 0.002383 0.040085 0.001279 -0.003652
# 5 0.001761 -0.003908 0.001796 0.001279 0.030288 -0.009391
# 6 0.008200 -0.002000 0.007930 -0.003652 -0.009391 0.008141
#
#
# Mechanical properties :
#
#
# Convention : Reuss Voigt Hill
#
# Bulk Modulus (GPa) = 55.50508 18.34152 36.92330
# Shear Modulus (GPa) = 39.29105 8.01214 23.65159
#
# Velocity S-wave (km/s) = 4.32592 1.95347 3.35631
# Velocity P-wave (km/s) = 7.16851 3.71803 5.71014
#
# Compressibility (1/GPa) = 0.01801637
#
# Stress axis : x y z
#
# Youngs Moduli (GPa) = 88.63082 107.30963 102.30558
#
# Poissons Ratio (x) = 0.30258 0.24929
# Poissons Ratio (y) = 0.24991 0.09448
# Poissons Ratio (z) = 0.21597 0.09910
#
# Static dielectric constant tensor:
#      x y z
#    x 4.236190 -0.200130 0.051910 
#    y -0.200130 3.798500 -0.005180 
#    z 0.051910 -0.005180 3.888750 
# 
# 
# High freq. dielectric constant tensor:
#      x y z
#    x 1.837700 -0.010670 0.004240 
#    y -0.010670 1.820220 -0.000700 
#    z 0.004240 -0.000700 1.819760 
# 
# From -- ./inp_files/298048.got.cif
#   From: 2010.06.25/outbox.cif.g09.slc.cpg/sg2_150_cif.got.tgz:298048.got - 2010.06.27 13:26:56.
