data_PCOD8031346
_publ_section_title
;
Structure prediction by ZEFSAII (Michael W. Deem and Ramdas Pophale) SiO2 
 PCOD8031346
Probable space group: P -1
;
_chemical_formula_sum "Si O2"
_cell_formula_units_Z 16
_cell_length_a 27.971488
_cell_length_b 11.926824
_cell_length_c 9.310051
_cell_angle_alpha 143.345172
_cell_angle_beta 27.907005
_cell_angle_gamma 150.347812
_cell_volume 711.274400
_symmetry_space_group_name_H-M "P -1"
_symmetry_group_IT_number 2
_symmetry_cell_setting 'triclinic'
loop_
_space_group_symop_operation_xyz
x,y,z
-x,-y,-z
loop_
_atom_site_type_symbol
_atom_site_label
_atom_site_fract_x
_atom_site_fract_y
_atom_site_fract_z
Si Si1 0.730643 0.476214 0.048768
Si Si2 0.533226 0.659965 0.441571
Si Si3 0.255227 0.851854 0.535354
Si Si4 0.328639 0.156986 0.161180
Si Si5 0.918002 0.560464 0.865038
Si Si6 0.148381 0.016078 0.759298
Si Si7 0.392893 0.543618 0.192925
Si Si8 0.227445 0.729732 0.794227
O O1 0.592556 0.409109 0.378189
O O2 0.822109 0.739770 0.025227
O O3 0.725680 0.321981 0.776784
O O4 0.785847 0.449227 0.021886
O O5 0.500000 0.500000 0.500000
O O6 0.608079 0.922165 0.561478
O O7 0.616760 0.619978 0.075742
O O8 0.183869 0.737960 0.757900
O O9 0.175927 0.912725 0.715280
O O10 0.229627 0.035298 0.426994
O O11 0.331460 0.375843 0.322089
O O12 0.464781 0.243890 0.944581
O O13 0.295570 0.979326 0.939766
O O14 0.000000 0.500000 0.500000
O O15 0.892529 0.455511 0.984243
O O16 0.000013 0.838311 0.939597
O O17 0.320292 0.652597 0.455758
#
# Coordination Sequence:
#
# PCOD8031346 Si02
#       8
#     2   2   2   2   2   2   2   2
#     4  12  25  46  77 104 141 195 238 287 361 417
#     4  12  23  44  71 109 153 183 226 288 365 444
#     4  12  26  44  71 107 147 186 231 290 367 434
#     4  11  22  43  70  98 144 185 233 300 350 416
#     4  12  26  50  74 103 138 191 255 295 337 415
#     4  12  25  49  74 101 140 195 244 293 345 420
#     4  11  24  41  67 109 143 181 236 291 357 427
#     4  12  26  42  71 104 144 186 233 296 363 411
#
# _framework density 22.494834999999998
#
# number of rings (size 3 to 8) (size 9 to 14) (size 15 to 20)
#    0.000    0.250    6.250    2.625    1.750    2.500 
#    0.000    0.625    0.000    0.000    0.000    0.000 
#    0.000    0.000    0.000    0.000    0.000    0.000 
#
# Total GULP energy -198473.417524 kJ/mol
# GULP energy per Si atom -12404.588595 kJ/mol
# Density = 2.244364 g / cm^3
# Si number density = 22.494835 Si / 1000 Ang^3
#
#
#
# Elastic Constant Matrix: (Units=GPa)
#
#
# Indices 1 2 3 4 5 6 
#
# 1 123.0082 22.8446 41.6693 -7.5317 18.2536 -13.6408
# 2 22.8446 126.3820 32.4815 4.8525 18.1582 8.2148
# 3 41.6693 32.4815 71.1324 3.9190 16.5797 -6.2145
# 4 -7.5317 4.8525 3.9190 46.1766 -1.0441 4.7877
# 5 18.2536 18.1582 16.5797 -1.0441 34.4275 -4.5042
# 6 -13.6408 8.2148 -6.2145 4.7877 -4.5042 42.2996
#
#
#
# Elastic Compliance Matrix: (Units=1/GPa)
#
#
# Indices 1 2 3 4 5 6 
#
# 1 0.010804 -0.000409 -0.005464 0.001977 -0.002524 0.002268
# 2 -0.000409 0.009610 -0.003541 -0.000562 -0.003534 -0.002831
# 3 -0.005464 -0.003541 0.020296 -0.002525 -0.004867 0.001675
# 4 0.001977 -0.000562 -0.002525 0.022487 0.000875 -0.002076
# 5 -0.002524 -0.003534 -0.004867 0.000875 0.034983 0.002783
# 6 0.002268 -0.002831 0.001675 -0.002076 0.002783 0.025700
#
#
# Mechanical properties :
#
#
# Convention : Reuss Voigt Hill
#
# Bulk Modulus (GPa) = 45.70321 57.16815 51.43568
# Shear Modulus (GPa) = 33.33278 39.48256 36.40767
#
# Velocity S-wave (km/s) = 3.85359 4.19404 4.02741
# Velocity P-wave (km/s) = 6.33731 6.99445 6.67397
#
# Compressibility (1/GPa) = 0.02188030
#
# Stress axis : x y z
#
# Youngs Moduli (GPa) = 92.56083 104.05878 49.27019
#
# Poissons Ratio (x) = 0.04257 0.26923
# Poissons Ratio (y) = 0.03787 0.17448
# Poissons Ratio (z) = 0.50579 0.36850
#
# Static dielectric constant tensor:
#      x y z
#    x 4.290900 0.015640 0.139390 
#    y 0.015640 4.481350 0.035020 
#    z 0.139390 0.035020 4.030590 
# 
# 
# High freq. dielectric constant tensor:
#      x y z
#    x 1.892220 -0.004270 0.010430 
#    y -0.004270 1.905180 0.011670 
#    z 0.010430 0.011670 1.876960 
# 
# From -- ./inp_files/357079.got.cif
#   From: 2010.06.25/outbox.cif.g09.slc.cpg/sg2_179_cif.got.tgz:357079.got - 2010.06.27 13:26:56.
