data_PCOD8031690
_publ_section_title
;
Structure prediction by ZEFSAII (Michael W. Deem and Ramdas Pophale) SiO2 
 PCOD8031690
Probable space group: P -1
;
_chemical_formula_sum "Si O2"
_cell_formula_units_Z 16
_cell_length_a 11.233259
_cell_length_b 18.630045
_cell_length_c 8.574755
_cell_angle_alpha 81.094276
_cell_angle_beta 129.240171
_cell_angle_gamma 138.462340
_cell_volume 722.728117
_symmetry_space_group_name_H-M "P -1"
_symmetry_group_IT_number 2
_symmetry_cell_setting 'triclinic'
loop_
_space_group_symop_operation_xyz
x,y,z
-x,-y,-z
loop_
_atom_site_type_symbol
_atom_site_label
_atom_site_fract_x
_atom_site_fract_y
_atom_site_fract_z
Si Si1 0.365422 0.372799 0.497074
Si Si2 0.753051 0.640570 0.260298
Si Si3 0.843835 0.138720 0.941925
Si Si4 0.621283 0.157280 0.264114
Si Si5 0.414883 0.828662 0.426235
Si Si6 0.334699 0.650901 0.237538
Si Si7 0.705651 0.864348 0.202884
Si Si8 0.024026 0.132180 0.804206
O O1 0.500000 0.500000 0.500000
O O2 0.400765 0.387906 0.706669
O O3 0.523482 0.364443 0.565368
O O4 0.027233 0.230951 0.216473
O O5 0.028291 0.701621 0.523133
O O6 0.901931 0.761668 0.242857
O O7 0.500000 0.500000 0.000000
O O8 0.822092 0.204111 0.800197
O O9 0.012099 0.143457 0.977512
O O10 0.527088 0.981970 0.787358
O O11 0.569734 0.179876 0.374238
O O12 0.457603 0.128272 0.991053
O O13 0.354324 0.726279 0.342166
O O14 0.708914 0.977157 0.543195
O O15 0.485732 0.729455 0.171394
O O16 0.000000 0.500000 0.000000
O O17 0.757773 0.840880 0.092305
O O18 0.000000 0.000000 0.500000
#
# Coordination Sequence:
#
# PCOD8031690 Si02
#       8
#     2   2   2   2   2   2   2   2
#     4  12  28  46  72 102 139 191 239 291 367 431
#     4  12  26  47  72 103 145 188 243 296 353 435
#     4  11  23  44  74 107 140 183 243 297 354 425
#     4  11  26  43  75 109 137 192 240 290 365 424
#     4  11  23  45  72 104 148 181 236 299 361 422
#     4  12  28  46  68 103 149 189 231 302 365 423
#     4  12  26  47  71 108 146 187 243 301 357 428
#     4  11  22  45  72 101 144 187 235 299 354 424
#
# _framework density 22.138339999999999
#
# number of rings (size 3 to 8) (size 9 to 14) (size 15 to 20)
#    0.000    0.500    5.000    3.000    7.000    1.500 
#    0.000    1.250    0.000    0.000    0.000    0.000 
#    0.000    0.000    0.000    0.000    0.000    0.000 
#
# Total GULP energy -198300.657569 kJ/mol
# GULP energy per Si atom -12393.791098 kJ/mol
# Density = 2.208795 g / cm^3
# Si number density = 22.138340 Si / 1000 Ang^3
#
#
#
# Elastic Constant Matrix: (Units=GPa)
#
#
# Indices 1 2 3 4 5 6 
#
# 1 93.6671 36.8808 41.2223 16.7083 -3.8918 -17.0607
# 2 36.8808 118.6091 55.7845 17.7967 3.6462 -15.7304
# 3 41.2223 55.7845 154.9240 17.5720 -0.8254 -11.3393
# 4 16.7083 17.7967 17.5720 43.1611 -5.1756 4.4230
# 5 -3.8918 3.6462 -0.8254 -5.1756 37.8783 3.9102
# 6 -17.0607 -15.7304 -11.3393 4.4230 3.9102 38.9235
#
#
#
# Elastic Compliance Matrix: (Units=1/GPa)
#
#
# Indices 1 2 3 4 5 6 
#
# 1 0.014160 -0.002087 -0.002158 -0.004212 0.000500 0.005163
# 2 -0.002087 0.011505 -0.002965 -0.003349 -0.002203 0.003473
# 3 -0.002158 -0.002965 0.008281 -0.001355 0.000016 0.000421
# 4 -0.004212 -0.003349 -0.001355 0.028003 0.004432 -0.007221
# 5 0.000500 -0.002203 0.000016 0.004432 0.027678 -0.003950
# 6 0.005163 0.003473 0.000421 -0.007221 -0.003950 0.030698
#
#
# Mechanical properties :
#
#
# Convention : Reuss Voigt Hill
#
# Bulk Modulus (GPa) = 51.21260 70.55282 60.88271
# Shear Modulus (GPa) = 35.39722 39.54674 37.47198
#
# Velocity S-wave (km/s) = 4.00298 4.23110 4.11862
# Velocity P-wave (km/s) = 6.67445 7.47047 7.08365
#
# Compressibility (1/GPa) = 0.01952644
#
# Stress axis : x y z
#
# Youngs Moduli (GPa) = 70.62202 86.91603 120.75495
#
# Poissons Ratio (x) = 0.18137 0.26060
# Poissons Ratio (y) = 0.14737 0.35807
# Poissons Ratio (z) = 0.15241 0.25773
#
# Static dielectric constant tensor:
#      x y z
#    x 4.427770 0.451080 -0.233600 
#    y 0.451080 4.274700 -0.259020 
#    z -0.233600 -0.259020 4.136930 
# 
# 
# High freq. dielectric constant tensor:
#      x y z
#    x 1.880000 -0.000190 -0.004130 
#    y -0.000190 1.872640 0.008450 
#    z -0.004130 0.008450 1.865910 
# 
# From -- ./inp_files/190164.got.cif
#   From: 2010.06.25/outbox.cif.g09.slc.cpg/sg2_96_cif.got.tgz:190164.got - 2010.06.27 13:26:56.
