data_PCOD8031396
_publ_section_title
;
Structure prediction by ZEFSAII (Michael W. Deem and Ramdas Pophale) SiO2 
 PCOD8031396
Probable space group: P -1
;
_chemical_formula_sum "Si O2"
_cell_formula_units_Z 16
_cell_length_a 11.726022
_cell_length_b 14.905602
_cell_length_c 11.699505
_cell_angle_alpha 28.810356
_cell_angle_beta 119.752608
_cell_angle_gamma 101.572167
_cell_volume 708.907776
_symmetry_space_group_name_H-M "P -1"
_symmetry_group_IT_number 2
_symmetry_cell_setting 'triclinic'
loop_
_space_group_symop_operation_xyz
x,y,z
-x,-y,-z
loop_
_atom_site_type_symbol
_atom_site_label
_atom_site_fract_x
_atom_site_fract_y
_atom_site_fract_z
Si Si1 0.145007 0.990698 0.640152
Si Si2 0.797529 0.500700 0.465323
Si Si3 0.307587 0.838974 0.578452
Si Si4 0.953465 0.438592 0.380325
Si Si5 0.039187 0.992694 0.828642
Si Si6 0.256337 0.206873 0.302628
Si Si7 0.479777 0.347339 0.317201
Si Si8 0.488956 0.566013 0.289508
O O1 0.128684 0.013333 0.742565
O O2 0.151464 0.191061 0.365761
O O3 0.310940 0.760549 0.949257
O O4 0.000000 0.000000 0.500000
O O5 0.833601 0.555501 0.297053
O O6 0.608760 0.645172 0.236061
O O7 0.890528 0.556452 0.539149
O O8 0.852195 0.244053 0.791212
O O9 0.369174 0.812994 0.508918
O O10 0.118369 0.983389 0.320529
O O11 0.347645 0.987158 0.510790
O O12 0.377880 0.596727 0.936789
O O13 0.004851 0.183171 0.688426
O O14 0.858813 0.566198 0.077911
O O15 0.381587 0.235478 0.398568
O O16 0.536265 0.356492 0.463023
O O17 0.500000 0.500000 0.500000
#
# Coordination Sequence:
#
# PCOD8031396 Si02
#       8
#     2   2   2   2   2   2   2   2
#     4  12  25  47  73 100 144 190 234 293 353 423
#     4  11  25  47  69 100 146 185 237 297 355 424
#     4  11  22  43  73 103 147 178 240 302 359 416
#     4  11  25  43  73 107 136 189 240 295 355 424
#     4  12  22  46  69 100 137 195 237 282 361 422
#     4  12  24  44  72 109 142 181 243 301 355 427
#     4  11  25  43  71 107 137 193 236 299 363 424
#     4  12  26  49  73 101 147 193 237 291 359 427
#
# _framework density 22.569929999999999
#
# number of rings (size 3 to 8) (size 9 to 14) (size 15 to 20)
#    0.000    0.500    6.250    1.500    1.750    2.500 
#    2.250    1.250    0.000    0.000    0.000    0.000 
#    0.000    0.000    0.000    0.000    0.000    0.000 
#
# Total GULP energy -198447.418235 kJ/mol
# GULP energy per Si atom -12402.963640 kJ/mol
# Density = 2.251856 g / cm^3
# Si number density = 22.569930 Si / 1000 Ang^3
#
#
#
# Elastic Constant Matrix: (Units=GPa)
#
#
# Indices 1 2 3 4 5 6 
#
# 1 155.0961 53.5326 23.2919 16.7625 6.3919 9.3503
# 2 53.5326 114.9583 2.8119 5.5481 -1.5638 10.7780
# 3 23.2919 2.8119 68.0356 5.8611 -0.3889 10.3596
# 4 16.7625 5.5481 5.8611 25.1328 -0.5888 -8.8294
# 5 6.3919 -1.5638 -0.3889 -0.5888 38.8762 0.8807
# 6 9.3503 10.7780 10.3596 -8.8294 0.8807 38.7628
#
#
#
# Elastic Compliance Matrix: (Units=1/GPa)
#
#
# Indices 1 2 3 4 5 6 
#
# 1 0.008754 -0.003642 -0.002159 -0.005152 -0.001648 -0.001658
# 2 -0.003642 0.010691 0.001330 -0.001180 0.001086 -0.002743
# 3 -0.002159 0.001330 0.016595 -0.004586 0.000626 -0.005343
# 4 -0.005152 -0.001180 -0.004586 0.049518 0.001185 0.014048
# 5 -0.001648 0.001086 0.000626 0.001185 0.026070 -0.000394
# 6 -0.001658 -0.002743 -0.005343 0.014048 -0.000394 0.031597
#
#
# Mechanical properties :
#
#
# Convention : Reuss Voigt Hill
#
# Bulk Modulus (GPa) = 36.90360 55.26254 46.08307
# Shear Modulus (GPa) = 31.01761 37.78461 34.40111
#
# Velocity S-wave (km/s) = 3.71116 4.09603 3.90834
# Velocity P-wave (km/s) = 5.89491 6.84895 6.38976
#
# Compressibility (1/GPa) = 0.02709763
#
# Stress axis : x y z
#
# Youngs Moduli (GPa) = 114.23939 93.53633 60.26039
#
# Poissons Ratio (x) = 0.34064 0.13013
# Poissons Ratio (y) = 0.41604 -0.08017
# Poissons Ratio (z) = 0.24669 -0.12444
#
# Static dielectric constant tensor:
#      x y z
#    x 4.382670 -0.075940 0.011750 
#    y -0.075940 4.122810 -0.011050 
#    z 0.011750 -0.011050 3.914860 
# 
# 
# High freq. dielectric constant tensor:
#      x y z
#    x 1.902990 0.000530 -0.000410 
#    y 0.000530 1.891410 0.006210 
#    z -0.000410 0.006210 1.880070 
# 
# From -- ./inp_files/283200.got.cif
#   From: 2010.06.25/outbox.cif.g09.slc.cpg/sg2_142_cif.got.tgz:283200.got - 2010.06.27 13:26:56.
