data_PCOD8031225
_publ_section_title
;
Structure prediction by ZEFSAII (Michael W. Deem and Ramdas Pophale) SiO2 
 PCOD8031225
Probable space group: P -1
;
_chemical_formula_sum "Si O2"
_cell_formula_units_Z 16
_cell_length_a 8.847601
_cell_length_b 9.253244
_cell_length_c 21.222473
_cell_angle_alpha 124.154037
_cell_angle_beta 148.883301
_cell_angle_gamma 58.037315
_cell_volume 738.194110
_symmetry_space_group_name_H-M "P -1"
_symmetry_group_IT_number 2
_symmetry_cell_setting 'triclinic'
loop_
_space_group_symop_operation_xyz
x,y,z
-x,-y,-z
loop_
_atom_site_type_symbol
_atom_site_label
_atom_site_fract_x
_atom_site_fract_y
_atom_site_fract_z
Si Si1 0.818245 0.641523 0.927693
Si Si2 0.812104 0.037017 0.503605
Si Si3 0.797705 0.474851 0.743785
Si Si4 0.220282 0.165199 0.786512
Si Si5 0.342336 0.192412 0.511118
Si Si6 0.784998 0.086102 0.893791
Si Si7 0.249713 0.205919 0.287117
Si Si8 0.812930 0.175059 0.230752
O O1 0.788058 0.589127 0.831351
O O2 0.488815 0.695539 0.848565
O O3 0.000000 0.500000 0.000000
O O4 0.026086 0.793156 0.049432
O O5 0.525631 0.179859 0.426982
O O6 0.982628 0.121118 0.640414
O O7 0.734827 0.844740 0.452246
O O8 0.000000 0.000000 0.500000
O O9 0.535144 0.352728 0.617233
O O10 0.778098 0.602507 0.707428
O O11 0.107586 0.351209 0.823648
O O12 0.517403 0.191042 0.862098
O O13 0.260704 0.016399 0.819014
O O14 0.045641 0.249223 0.379520
O O15 0.500000 0.000000 0.500000
O O16 0.665687 0.941666 0.771453
O O17 0.000000 0.000000 0.000000
O O18 0.951946 0.171686 0.209368
#
# Coordination Sequence:
#
# PCOD8031225 Si02
#       8
#     2   2   2   2   2   2   2   2
#     4  12  31  48  67 100 140 184 246 286 334 403
#     4  11  22  42  73 105 135 180 223 271 352 426
#     4  12  26  46  70 105 141 175 229 293 339 412
#     4  11  23  44  75  99 138 183 225 277 351 417
#     4  11  22  45  71 103 140 176 221 277 353 424
#     4  12  25  49  68  95 137 186 231 282 341 405
#     4  12  25  43  73 106 137 177 230 286 349 406
#     4  11  24  48  71 101 139 185 225 285 352 412
#
# _framework density 21.674515
#
# number of rings (size 3 to 8) (size 9 to 14) (size 15 to 20)
#    0.000    0.500    7.500    0.000    7.000    4.500 
#    0.000    0.000    0.000    0.000    0.000    0.000 
#    0.000    0.000    0.000    0.000    0.000    0.000 
#
# Total GULP energy -198356.648908 kJ/mol
# GULP energy per Si atom -12397.290557 kJ/mol
# Density = 2.162518 g / cm^3
# Si number density = 21.674515 Si / 1000 Ang^3
#
#
#
# Elastic Constant Matrix: (Units=GPa)
#
#
# Indices 1 2 3 4 5 6 
#
# 1 129.3677 39.0848 17.5688 -7.1082 25.6442 7.7944
# 2 39.0848 113.6662 39.1911 -15.7367 12.6648 13.3508
# 3 17.5688 39.1911 79.8788 -16.3819 23.3085 7.7548
# 4 -7.1082 -15.7367 -16.3819 44.2035 -4.2991 1.7743
# 5 25.6442 12.6648 23.3085 -4.2991 37.8652 -10.6384
# 6 7.7944 13.3508 7.7548 1.7743 -10.6384 41.5119
#
#
#
# Elastic Compliance Matrix: (Units=1/GPa)
#
#
# Indices 1 2 3 4 5 6 
#
# 1 0.010141 -0.002756 0.001956 0.000732 -0.008044 -0.003476
# 2 -0.002756 0.011903 -0.004627 0.002207 0.000291 -0.002466
# 3 0.001956 -0.004627 0.019812 0.004979 -0.013138 -0.006160
# 4 0.000732 0.002207 0.004979 0.025277 -0.002405 -0.003474
# 5 -0.008044 0.000291 -0.013138 -0.002405 0.043848 0.015211
# 6 -0.003476 -0.002466 -0.006160 -0.003474 0.015211 0.030733
#
#
# Mechanical properties :
#
#
# Convention : Reuss Voigt Hill
#
# Bulk Modulus (GPa) = 32.25419 57.17802 44.71610
# Shear Modulus (GPa) = 30.69358 39.85400 35.27379
#
# Velocity S-wave (km/s) = 3.76721 4.29272 4.03852
# Velocity P-wave (km/s) = 5.81687 7.14195 6.51320
#
# Compressibility (1/GPa) = 0.03100373
#
# Stress axis : x y z
#
# Youngs Moduli (GPa) = 98.60979 84.00954 50.47549
#
# Poissons Ratio (x) = 0.23151 -0.09875
# Poissons Ratio (y) = 0.27174 0.23354
# Poissons Ratio (z) = -0.19292 0.38870
#
# Static dielectric constant tensor:
#      x y z
#    x 4.378210 0.124840 0.253600 
#    y 0.124840 3.934170 -0.209880 
#    z 0.253600 -0.209880 3.926470 
# 
# 
# High freq. dielectric constant tensor:
#      x y z
#    x 1.871520 0.010350 0.009250 
#    y 0.010350 1.844970 -0.014440 
#    z 0.009250 -0.014440 1.853130 
# 
# From -- ./inp_files/588088.got.cif
#   From: 2010.06.25/outbox.cif.g09.slc.cpg/sg2_295_cif.got.tgz:588088.got - 2010.06.27 13:26:56.
