data_PCOD8031466
_publ_section_title
;
Structure prediction by ZEFSAII (Michael W. Deem and Ramdas Pophale) SiO2 
 PCOD8031466
Probable space group: P -1
;
_chemical_formula_sum "Si O2"
_cell_formula_units_Z 16
_cell_length_a 22.660792
_cell_length_b 9.031525
_cell_length_c 18.875774
_cell_angle_alpha 55.970902
_cell_angle_beta 15.892272
_cell_angle_gamma 48.291455
_cell_volume 726.247230
_symmetry_space_group_name_H-M "P -1"
_symmetry_group_IT_number 2
_symmetry_cell_setting 'triclinic'
loop_
_space_group_symop_operation_xyz
x,y,z
-x,-y,-z
loop_
_atom_site_type_symbol
_atom_site_label
_atom_site_fract_x
_atom_site_fract_y
_atom_site_fract_z
Si Si1 0.478264 0.957840 0.677576
Si Si2 0.109551 0.351415 0.236433
Si Si3 0.518491 0.665840 0.387572
Si Si4 0.081284 0.857911 0.722737
Si Si5 0.915189 0.493712 0.276064
Si Si6 0.004574 0.289940 0.638713
Si Si7 0.792026 0.313364 0.730244
Si Si8 0.444657 0.924011 0.894364
O O1 0.555313 0.129675 0.532915
O O2 0.684684 0.738407 0.456936
O O3 0.459699 0.930317 0.790824
O O4 0.195229 0.055133 0.943366
O O5 0.900512 0.482505 0.380764
O O6 0.184048 0.506764 0.145948
O O7 0.991063 0.262237 0.451438
O O8 0.370318 0.151014 0.953048
O O9 0.500000 0.500000 0.500000
O O10 0.314317 0.750005 0.537411
O O11 0.811396 0.550079 0.051904
O O12 0.139058 0.675709 0.648089
O O13 0.045012 0.067115 0.672722
O O14 0.897772 0.366143 0.663256
O O15 0.281703 0.263828 0.336299
O O16 0.785091 0.105406 0.811320
O O17 0.500000 0.500000 0.000000
#
# Coordination Sequence:
#
# PCOD8031466 Si02
#       8
#     2   2   2   2   2   2   2   2
#     4  11  22  44  68 100 140 171 226 279 327 405
#     4  12  23  42  67  95 134 178 225 277 330 389
#     4  11  25  47  71 102 141 171 219 282 336 412
#     4  11  23  43  71 101 131 183 226 267 342 401
#     4  11  23  44  70 101 136 183 222 273 340 402
#     4  12  24  43  67  94 135 182 224 274 332 392
#     4  12  25  44  62  95 139 177 226 282 327 379
#     4  12  23  45  63  94 134 177 224 280 327 393
#
# _framework density 22.031065000000002
#
# number of rings (size 3 to 8) (size 9 to 14) (size 15 to 20)
#    0.000    0.500    7.500    0.750    0.000    6.000 
#    2.250    1.250    0.000    0.000    0.000    0.000 
#    0.000    0.000    0.000    0.000    0.000    0.000 
#
# Total GULP energy -198356.542880 kJ/mol
# GULP energy per Si atom -12397.283930 kJ/mol
# Density = 2.198092 g / cm^3
# Si number density = 22.031065 Si / 1000 Ang^3
#
#
#
# Elastic Constant Matrix: (Units=GPa)
#
#
# Indices 1 2 3 4 5 6 
#
# 1 44.4267 22.8707 34.1345 -6.5081 -4.5856 13.8850
# 2 22.8707 127.6086 41.8846 -6.4370 10.5751 17.2513
# 3 34.1345 41.8846 82.7201 5.3151 -9.4598 13.5564
# 4 -6.5081 -6.4370 5.3151 44.4294 6.5871 5.8399
# 5 -4.5856 10.5751 -9.4598 6.5871 25.3842 0.4050
# 6 13.8850 17.2513 13.5564 5.8399 0.4050 37.3699
#
#
#
# Elastic Compliance Matrix: (Units=1/GPa)
#
#
# Indices 1 2 3 4 5 6 
#
# 1 0.038273 -0.000180 -0.014664 0.008760 -0.000587 -0.010181
# 2 -0.000180 0.011239 -0.006233 0.003982 -0.008016 -0.003396
# 3 -0.014664 -0.006233 0.022776 -0.007457 0.010353 0.001117
# 4 0.008760 0.003982 -0.007457 0.027596 -0.009912 -0.006593
# 5 -0.000587 -0.008016 0.010353 -0.009912 0.049039 0.001181
# 6 -0.010181 -0.003396 0.001117 -0.006593 0.001181 0.032722
#
#
# Mechanical properties :
#
#
# Convention : Reuss Voigt Hill
#
# Bulk Modulus (GPa) = 33.18381 50.28169 41.73275
# Shear Modulus (GPa) = 21.38196 31.82773 26.60484
#
# Velocity S-wave (km/s) = 3.11872 3.80501 3.47883
# Velocity P-wave (km/s) = 5.29751 6.49437 5.92623
#
# Compressibility (1/GPa) = 0.03013517
#
# Stress axis : x y z
#
# Youngs Moduli (GPa) = 26.12837 88.97848 43.90600
#
# Poissons Ratio (x) = 0.01598 0.64383
# Poissons Ratio (y) = 0.00469 0.27365
# Poissons Ratio (z) = 0.38314 0.55457
#
# Static dielectric constant tensor:
#      x y z
#    x 4.082430 0.068590 -0.304270 
#    y 0.068590 4.407730 -0.050480 
#    z -0.304270 -0.050480 4.070650 
# 
# 
# High freq. dielectric constant tensor:
#      x y z
#    x 1.852780 0.012070 -0.016130 
#    y 0.012070 1.889810 0.005040 
#    z -0.016130 0.005040 1.861670 
# 
# From -- ./inp_files/577296.got.cif
#   From: 2010.06.25/outbox.cif.g09.slc.cpg/sg2_289_cif.got.tgz:577296.got - 2010.06.27 13:26:56.
