data_PCOD8031397
_publ_section_title
;
Structure prediction by ZEFSAII (Michael W. Deem and Ramdas Pophale) SiO2 
 PCOD8031397
Probable space group: P -1
;
_chemical_formula_sum "Si O2"
_cell_formula_units_Z 16
_cell_length_a 18.126517
_cell_length_b 12.274563
_cell_length_c 10.025682
_cell_angle_alpha 141.048855
_cell_angle_beta 35.262092
_cell_angle_gamma 143.708742
_cell_volume 714.063776
_symmetry_space_group_name_H-M "P -1"
_symmetry_group_IT_number 2
_symmetry_cell_setting 'triclinic'
loop_
_space_group_symop_operation_xyz
x,y,z
-x,-y,-z
loop_
_atom_site_type_symbol
_atom_site_label
_atom_site_fract_x
_atom_site_fract_y
_atom_site_fract_z
Si Si1 0.296342 0.648536 0.950031
Si Si2 0.846125 0.713754 0.678581
Si Si3 0.812119 0.012918 0.853520
Si Si4 0.818411 0.037593 0.573318
Si Si5 0.092719 0.392831 0.784481
Si Si6 0.476345 0.024205 0.710091
Si Si7 0.577339 0.775741 0.498481
Si Si8 0.641659 0.463903 0.977042
O O1 0.201137 0.475994 0.825524
O O2 0.463053 0.717620 0.732041
O O3 0.257895 0.824755 0.167682
O O4 0.269901 0.560552 0.053564
O O5 0.824218 0.584970 0.455822
O O6 0.756982 0.575409 0.798113
O O7 0.013816 0.831510 0.588321
O O8 0.780253 0.857398 0.870968
O O9 0.799821 0.929064 0.640586
O O10 0.979082 0.170391 0.775627
O O11 0.696447 0.095886 0.119300
O O12 0.737374 0.877551 0.425540
O O13 0.000000 0.500000 0.000000
O O14 0.526222 0.250239 0.890846
O O15 0.500000 0.000000 0.500000
O O16 0.561796 0.934197 0.580130
O O17 0.559874 0.588841 0.260270
#
# Coordination Sequence:
#
# PCOD8031397 Si02
#       8
#     2   2   2   2   2   2   2   2
#     4  12  24  46  74 106 145 188 244 298 350 434
#     4  11  27  46  68 107 150 186 237 298 357 428
#     4  11  24  45  73 102 141 190 242 292 352 427
#     4  11  22  46  75 101 140 195 240 292 357 422
#     4  11  22  43  73 104 132 189 244 287 348 422
#     4  12  27  47  74 102 146 191 237 299 360 430
#     4  12  26  49  73 105 147 190 242 298 358 426
#     4  12  30  46  70 114 144 190 237 294 373 419
#
# _framework density 22.406963000000001
#
# number of rings (size 3 to 8) (size 9 to 14) (size 15 to 20)
#    0.000    0.500    5.000    3.750    8.750    2.000 
#    2.250    0.000    0.000    0.000    0.000    0.000 
#    0.000    0.000    0.000    0.000    0.000    0.000 
#
# Total GULP energy -198419.245286 kJ/mol
# GULP energy per Si atom -12401.202830 kJ/mol
# Density = 2.235596 g / cm^3
# Si number density = 22.406963 Si / 1000 Ang^3
#
#
#
# Elastic Constant Matrix: (Units=GPa)
#
#
# Indices 1 2 3 4 5 6 
#
# 1 126.6396 56.8863 39.3801 -4.1469 18.7661 0.0722
# 2 56.8863 93.4963 46.3551 -3.0769 15.4769 -17.3060
# 3 39.3801 46.3551 103.5421 5.8368 8.3237 0.2599
# 4 -4.1469 -3.0769 5.8368 45.6401 -2.2968 9.3658
# 5 18.7661 15.4769 8.3237 -2.2968 40.0824 -2.8434
# 6 0.0722 -17.3060 0.2599 9.3658 -2.8434 36.2501
#
#
#
# Elastic Compliance Matrix: (Units=1/GPa)
#
#
# Indices 1 2 3 4 5 6 
#
# 1 0.011790 -0.006703 -0.001325 0.001427 -0.002845 -0.003806
# 2 -0.006703 0.020041 -0.006201 -0.000561 -0.002666 0.009561
# 3 -0.001325 -0.006201 0.013037 -0.001667 0.000026 -0.002618
# 4 0.001427 -0.000561 -0.001667 0.023544 0.000799 -0.006279
# 5 -0.002845 -0.002666 0.000026 0.000799 0.027398 0.000675
# 6 -0.003806 0.009561 -0.002618 -0.006279 0.000675 0.033852
#
#
# Mechanical properties :
#
#
# Convention : Reuss Voigt Hill
#
# Bulk Modulus (GPa) = 60.94202 67.65789 64.29996
# Shear Modulus (GPa) = 30.56420 36.46494 33.51457
#
# Velocity S-wave (km/s) = 3.69731 4.03847 3.87165
# Velocity P-wave (km/s) = 6.74416 7.21154 6.98176
#
# Compressibility (1/GPa) = 0.01640904
#
# Stress axis : x y z
#
# Youngs Moduli (GPa) = 84.81837 49.89812 76.70751
#
# Poissons Ratio (x) = 0.33446 0.10167
# Poissons Ratio (y) = 0.56852 0.47565
# Poissons Ratio (z) = 0.11242 0.30941
#
# Static dielectric constant tensor:
#      x y z
#    x 3.754650 -1.016590 -0.251010 
#    y -1.016590 2.003320 -0.350570 
#    z -0.251010 -0.350570 3.969430 
# 
# 
# High freq. dielectric constant tensor:
#      x y z
#    x 1.900810 -0.002550 -0.006170 
#    y -0.002550 1.880130 0.006330 
#    z -0.006170 0.006330 1.885510 
# 
# From -- ./inp_files/308450.got.cif
#   From: 2010.06.25/outbox.cif.g09.slc.cpg/sg2_155_cif.got.tgz:308450.got - 2010.06.27 13:26:56.
