data_PCOD8031557
_publ_section_title
;
Structure prediction by ZEFSAII (Michael W. Deem and Ramdas Pophale) SiO2 
 PCOD8031557
Probable space group: P -1
;
_chemical_formula_sum "Si O2"
_cell_formula_units_Z 16
_cell_length_a 18.113916
_cell_length_b 12.668487
_cell_length_c 9.031195
_cell_angle_alpha 149.164538
_cell_angle_beta 46.965366
_cell_angle_gamma 134.829869
_cell_volume 736.236073
_symmetry_space_group_name_H-M "P -1"
_symmetry_group_IT_number 2
_symmetry_cell_setting 'triclinic'
loop_
_space_group_symop_operation_xyz
x,y,z
-x,-y,-z
loop_
_atom_site_type_symbol
_atom_site_label
_atom_site_fract_x
_atom_site_fract_y
_atom_site_fract_z
Si Si1 0.831308 0.749664 0.295057
Si Si2 0.095343 0.414681 0.716149
Si Si3 0.670653 0.321586 0.368731
Si Si4 0.043738 0.901627 0.689229
Si Si5 0.658741 0.962519 0.754584
Si Si6 0.407865 0.779665 0.323068
Si Si7 0.498962 0.456184 0.622301
Si Si8 0.766354 0.263180 0.714081
O O1 0.887139 0.735865 0.357019
O O2 0.909826 0.922222 0.288462
O O3 0.730324 0.826739 0.558684
O O4 0.793047 0.521052 0.987607
O O5 0.203439 0.603127 0.750452
O O6 0.057555 0.279931 0.457438
O O7 0.000000 0.500000 0.000000
O O8 0.647304 0.336079 0.591141
O O9 0.616661 0.480967 0.551171
O O10 0.618944 0.070424 0.080414
O O11 0.127320 0.799929 0.526871
O O12 0.000000 0.000000 0.000000
O O13 0.718686 0.171611 0.827161
O O14 0.568801 0.799402 0.578246
O O15 0.316997 0.838473 0.424868
O O16 0.500000 0.000000 0.500000
O O17 0.450785 0.612529 0.970165
O O18 0.500000 0.500000 0.500000
#
# Coordination Sequence:
#
# PCOD8031557 Si02
#       8
#     2   2   2   2   2   2   2   2
#     4  11  22  45  73  97 137 190 240 290 360 424
#     4  12  24  47  70 103 142 187 245 299 356 423
#     4  12  26  42  70 109 143 184 243 302 358 429
#     4  11  27  41  70 104 139 185 241 304 360 421
#     4  11  22  44  72 101 132 184 241 287 348 441
#     4  12  27  46  69 107 151 186 231 303 366 428
#     4  12  24  44  74 102 143 194 237 288 365 440
#     4  11  23  46  70  98 139 188 237 290 358 434
#
# _framework density 21.732158999999999
#
# number of rings (size 3 to 8) (size 9 to 14) (size 15 to 20)
#    0.000    0.500    3.750    4.875    1.750    3.500 
#    0.000    0.000    0.000    0.000    0.000    0.000 
#    0.000    0.000    0.000    0.000    0.000    0.000 
#
# Total GULP energy -198404.287870 kJ/mol
# GULP energy per Si atom -12400.267992 kJ/mol
# Density = 2.168270 g / cm^3
# Si number density = 21.732159 Si / 1000 Ang^3
#
#
#
# Elastic Constant Matrix: (Units=GPa)
#
#
# Indices 1 2 3 4 5 6 
#
# 1 181.3978 44.5336 67.5024 -7.5520 -2.6670 -2.5609
# 2 44.5336 80.4449 52.6315 -7.4822 -5.9574 2.0163
# 3 67.5024 52.6315 155.8766 -11.1241 13.9829 -3.1618
# 4 -7.5520 -7.4822 -11.1241 38.4422 -0.0818 6.1426
# 5 -2.6670 -5.9574 13.9829 -0.0818 43.2982 5.4820
# 6 -2.5609 2.0163 -3.1618 6.1426 5.4820 36.5429
#
#
#
# Elastic Compliance Matrix: (Units=1/GPa)
#
#
# Indices 1 2 3 4 5 6 
#
# 1 0.006949 -0.002269 -0.002296 0.000220 0.000826 0.000253
# 2 -0.002269 0.017721 -0.005307 0.001886 0.004341 -0.002564
# 3 -0.002296 -0.005307 0.009682 0.001083 -0.004176 0.001414
# 4 0.000220 0.001886 0.001083 0.027489 0.000571 -0.004701
# 5 0.000826 0.004341 -0.004176 0.000571 0.025662 -0.004488
# 6 0.000253 -0.002564 0.001414 -0.004701 -0.004488 0.029110
#
#
# Mechanical properties :
#
#
# Convention : Reuss Voigt Hill
#
# Bulk Modulus (GPa) = 68.46443 83.00603 75.73523
# Shear Modulus (GPa) = 35.40363 40.52678 37.96520
#
# Velocity S-wave (km/s) = 4.04058 4.32305 4.18420
# Velocity P-wave (km/s) = 7.30346 7.94961 7.63337
#
# Compressibility (1/GPa) = 0.01460612
#
# Stress axis : x y z
#
# Youngs Moduli (GPa) = 143.89956 56.43110 103.28065
#
# Poissons Ratio (x) = 0.12806 0.23717
# Poissons Ratio (y) = 0.32655 0.54815
# Poissons Ratio (z) = 0.33045 0.29950
#
# Static dielectric constant tensor:
#      x y z
#    x 4.064540 0.175160 0.068160 
#    y 0.175160 3.692860 0.020420 
#    z 0.068160 0.020420 4.037470 
# 
# 
# High freq. dielectric constant tensor:
#      x y z
#    x 1.872740 0.003480 -0.001990 
#    y 0.003480 1.851700 0.003000 
#    z -0.001990 0.003000 1.864140 
# 
# From -- ./inp_files/124691.got.cif
#   From: 2010.06.25/outbox.cif.g09.slc.cpg/sg2_63_cif.got.tgz:124691.got - 2010.06.27 13:26:56.
