data_PCOD8031797
_publ_section_title
;
Structure prediction by ZEFSAII (Michael W. Deem and Ramdas Pophale) SiO2 
 PCOD8031797
Probable space group: P -1
;
_chemical_formula_sum "Si O2"
_cell_formula_units_Z 14
_cell_length_a 13.590150
_cell_length_b 25.117137
_cell_length_c 14.819398
_cell_angle_alpha 20.039488
_cell_angle_beta 150.464048
_cell_angle_gamma 158.300826
_cell_volume 640.733961
_symmetry_space_group_name_H-M "P -1"
_symmetry_group_IT_number 2
_symmetry_cell_setting 'triclinic'
loop_
_space_group_symop_operation_xyz
x,y,z
-x,-y,-z
loop_
_atom_site_type_symbol
_atom_site_label
_atom_site_fract_x
_atom_site_fract_y
_atom_site_fract_z
Si Si1 0.529006 0.676939 0.841620
Si Si2 0.107908 0.641038 0.948311
Si Si3 0.136995 0.422751 0.477148
Si Si4 0.938098 0.041737 0.286639
Si Si5 0.379251 0.397176 0.322154
Si Si6 0.575038 0.062169 0.564371
Si Si7 0.016766 0.431052 0.720169
O O1 0.817607 0.857903 0.745818
O O2 0.443246 0.765564 0.702761
O O3 0.327040 0.557614 0.786756
O O4 0.513730 0.513793 0.148892
O O5 0.890312 0.647051 0.803801
O O6 0.382576 0.869421 0.783134
O O7 0.185838 0.552270 0.223362
O O8 0.000000 0.500000 0.000000
O O9 0.407746 0.465578 0.645253
O O10 0.885095 0.177682 0.648374
O O11 0.102170 0.510291 0.397824
O O12 0.864256 0.186860 0.998018
O O13 0.000000 0.000000 0.500000
O O14 0.692542 0.822214 0.395850
O O15 0.500000 0.000000 0.500000
O O16 0.000000 0.500000 0.500000
#
# Coordination Sequence:
#
# PCOD8031797 Si02
#       7
#     2   2   2   2   2   2   2
#     4  11  23  43  67  98 146 179 236 295 350 419
#     4  12  23  47  73 100 140 180 235 298 357 426
#     4  11  26  44  69 104 140 178 239 289 349 428
#     4  12  24  41  69  99 139 198 240 281 358 422
#     4  12  25  45  70 106 140 183 241 293 351 427
#     4  11  22  46  73  97 138 186 222 292 367 412
#     4  11  24  43  66 101 146 188 233 297 349 417
#
# _framework density 21.849941999999999
#
# number of rings (size 3 to 8) (size 9 to 14) (size 15 to 20)
#    0.000    0.571    7.143    1.286    2.000    4.571 
#    0.000    1.429    0.000    0.000    0.000    0.000 
#    0.000    0.000    0.000    0.000    0.000    0.000 
#
# Total GULP energy -173614.627771 kJ/mol
# GULP energy per Si atom -12401.044841 kJ/mol
# Density = 2.180021 g / cm^3
# Si number density = 21.849942 Si / 1000 Ang^3
#
#
#
# Elastic Constant Matrix: (Units=GPa)
#
#
# Indices 1 2 3 4 5 6 
#
# 1 69.8048 28.1632 33.8810 -1.0481 -29.7505 -16.4967
# 2 28.1632 168.0498 65.6801 -7.5004 -27.0068 -5.5336
# 3 33.8810 65.6801 139.8443 -6.2901 -35.7377 -6.9960
# 4 -1.0481 -7.5004 -6.2901 45.9346 -5.3351 -5.8222
# 5 -29.7505 -27.0068 -35.7377 -5.3351 40.9841 -4.5364
# 6 -16.4967 -5.5336 -6.9960 -5.8222 -4.5364 38.3911
#
#
#
# Elastic Compliance Matrix: (Units=1/GPa)
#
#
# Indices 1 2 3 4 5 6 
#
# 1 0.027550 -0.000383 0.000184 0.005105 0.022256 0.015221
# 2 -0.000383 0.007578 -0.002685 0.001288 0.002647 0.000947
# 3 0.000184 -0.002685 0.010774 0.002399 0.008405 0.003012
# 4 0.005105 0.001288 0.002399 0.024663 0.010723 0.007824
# 5 0.022256 0.002647 0.008405 0.010723 0.053170 0.019385
# 6 0.015221 0.000947 0.003012 0.007824 0.019385 0.036751
#
#
# Mechanical properties :
#
#
# Convention : Reuss Voigt Hill
#
# Bulk Modulus (GPa) = 24.91666 70.34971 47.63319
# Shear Modulus (GPa) = 27.83494 41.72694 34.78094
#
# Velocity S-wave (km/s) = 3.57306 4.37476 3.99408
# Velocity P-wave (km/s) = 5.33392 7.60162 6.56640
#
# Compressibility (1/GPa) = 0.04013379
#
# Stress axis : x y z
#
# Youngs Moduli (GPa) = 36.29769 131.95827 92.82013
#
# Poissons Ratio (x) = 0.05057 -0.01707
# Poissons Ratio (y) = 0.01391 0.24918
# Poissons Ratio (z) = -0.00667 0.35425
#
# Static dielectric constant tensor:
#      x y z
#    x 3.967410 -0.008230 -0.078700 
#    y -0.008230 4.258100 -0.188250 
#    z -0.078700 -0.188250 4.130100 
# 
# 
# High freq. dielectric constant tensor:
#      x y z
#    x 1.862950 -0.003810 -0.011920 
#    y -0.003810 1.867390 -0.013330 
#    z -0.011920 -0.013330 1.861650 
# 
# From -- ./inp_files/432545.got.cif
#   From: 2010.06.25/outbox.cif.g09.slc.cpg/sg2_217_cif.got.tgz:432545.got - 2010.06.27 13:26:56.
