data_PCOD8031949
_publ_section_title
;
Structure prediction by ZEFSAII (Michael W. Deem and Ramdas Pophale) SiO2 
 PCOD8031949
Probable space group: P -1
;
_chemical_formula_sum "Si O2"
_cell_formula_units_Z 16
_cell_length_a 9.112240
_cell_length_b 15.207856
_cell_length_c 9.193917
_cell_angle_alpha 95.661498
_cell_angle_beta 77.416910
_cell_angle_gamma 141.928032
_cell_volume 761.147820
_symmetry_space_group_name_H-M "P -1"
_symmetry_group_IT_number 2
_symmetry_cell_setting 'triclinic'
loop_
_space_group_symop_operation_xyz
x,y,z
-x,-y,-z
loop_
_atom_site_type_symbol
_atom_site_label
_atom_site_fract_x
_atom_site_fract_y
_atom_site_fract_z
Si Si1 0.433211 0.365983 0.820951
Si Si2 0.195421 0.684811 0.106583
Si Si3 0.916030 0.951338 0.171512
Si Si4 0.898032 0.501767 0.663151
Si Si5 0.476181 0.077497 0.704972
Si Si6 0.446440 0.210855 0.204750
Si Si7 0.336041 0.518800 0.890455
Si Si8 0.329809 0.820857 0.641638
O O1 0.189094 0.196528 0.819160
O O2 0.628414 0.414065 0.675115
O O3 0.384341 0.444374 0.803992
O O4 0.537154 0.406656 0.969167
O O5 0.107265 0.563140 0.205593
O O6 0.309998 0.813958 0.204072
O O7 0.958053 0.606202 0.055245
O O8 0.413206 0.758942 0.963652
O O9 0.716361 0.932442 0.250039
O O10 0.153523 0.073222 0.239243
O O11 0.000000 0.000000 0.000000
O O12 0.000000 0.500000 0.500000
O O13 0.053969 0.660582 0.693614
O O14 0.606973 0.139181 0.532850
O O15 0.349312 0.924099 0.735865
O O16 0.542360 0.355850 0.229487
O O17 0.497965 0.174105 0.326209
#
# Coordination Sequence:
#
# PCOD8031949 Si02
#       8
#     2   2   2   2   2   2   2   2
#     4  11  24  41  62 100 131 169 211 271 324 379
#     4  12  22  43  66  97 130 167 224 269 309 390
#     4  12  22  42  65  92 137 171 208 266 330 380
#     4  12  21  42  71  90 127 179 211 259 327 381
#     4  11  25  46  64  96 132 169 216 266 323 396
#     4  12  24  41  66 101 128 173 217 268 325 380
#     4  11  23  39  65  96 132 158 218 276 313 371
#     4  11  26  42  69  95 128 172 217 264 326 385
#
# _framework density 21.020883000000001
#
# number of rings (size 3 to 8) (size 9 to 14) (size 15 to 20)
#    0.000    0.500    7.500    1.125    3.500    2.000 
#    0.000    0.625    0.000    0.000    0.000    0.000 
#    0.000    0.000    0.000    0.000    0.000    0.000 
#
# Total GULP energy -198380.825248 kJ/mol
# GULP energy per Si atom -12398.801578 kJ/mol
# Density = 2.097304 g / cm^3
# Si number density = 21.020883 Si / 1000 Ang^3
#
#
#
# Elastic Constant Matrix: (Units=GPa)
#
#
# Indices 1 2 3 4 5 6 
#
# 1 96.9060 49.4409 5.0849 6.6146 -11.2827 -8.6215
# 2 49.4409 182.3167 18.6916 7.1272 -6.4825 -11.1756
# 3 5.0849 18.6916 38.9255 -0.1396 -10.4613 -4.8235
# 4 6.6146 7.1272 -0.1396 20.8116 1.4225 -5.4471
# 5 -11.2827 -6.4825 -10.4613 1.4225 30.8310 2.1786
# 6 -8.6215 -11.1756 -4.8235 -5.4471 2.1786 47.4854
#
#
#
# Elastic Compliance Matrix: (Units=1/GPa)
#
#
# Indices 1 2 3 4 5 6 
#
# 1 0.012723 -0.003233 0.001214 -0.002936 0.004444 0.001132
# 2 -0.003233 0.006715 -0.002935 -0.001081 -0.000760 0.000606
# 3 0.001214 -0.002935 0.029840 0.000727 0.009763 0.002196
# 4 -0.002936 -0.001081 0.000727 0.051007 -0.003784 0.005311
# 5 0.004444 -0.000760 0.009763 -0.003784 0.037426 -0.000531
# 6 0.001132 0.000606 0.002196 0.005311 -0.000531 0.022264
#
#
# Mechanical properties :
#
#
# Convention : Reuss Voigt Hill
#
# Bulk Modulus (GPa) = 25.39956 51.62034 38.50995
# Shear Modulus (GPa) = 27.32150 36.15431 31.73791
#
# Velocity S-wave (km/s) = 3.60909 4.15170 3.88987
# Velocity P-wave (km/s) = 5.42924 6.89870 6.20760
#
# Compressibility (1/GPa) = 0.03937076
#
# Stress axis : x y z
#
# Youngs Moduli (GPa) = 78.59551 148.92214 33.51251
#
# Poissons Ratio (x) = 0.48141 -0.04069
# Poissons Ratio (y) = 0.25407 0.09836
# Poissons Ratio (z) = -0.09543 0.43711
#
# Static dielectric constant tensor:
#      x y z
#    x 3.865410 -0.232280 -0.029470 
#    y -0.232280 4.078630 -0.043630 
#    z -0.029470 -0.043630 3.589750 
# 
# 
# High freq. dielectric constant tensor:
#      x y z
#    x 1.820780 -0.002540 -0.005230 
#    y -0.002540 1.849800 -0.001940 
#    z -0.005230 -0.001940 1.806620 
# 
# From -- ./inp_files/207720.got.cif
#   From: 2010.06.25/outbox.cif.g09.slc.cpg/sg2_104_cif.got.tgz:207720.got - 2010.06.27 13:26:56.
