data_PCOD8031140
_publ_section_title
;
Structure prediction by ZEFSAII (Michael W. Deem and Ramdas Pophale) SiO2 
 PCOD8031140
Probable space group: P -1
;
_chemical_formula_sum "Si O2"
_cell_formula_units_Z 16
_cell_length_a 15.477858
_cell_length_b 9.466212
_cell_length_c 11.330135
_cell_angle_alpha 80.836752
_cell_angle_beta 79.946032
_cell_angle_gamma 26.888401
_cell_volume 739.213867
_symmetry_space_group_name_H-M "P -1"
_symmetry_group_IT_number 2
_symmetry_cell_setting 'triclinic'
loop_
_space_group_symop_operation_xyz
x,y,z
-x,-y,-z
loop_
_atom_site_type_symbol
_atom_site_label
_atom_site_fract_x
_atom_site_fract_y
_atom_site_fract_z
Si Si1 0.167469 0.646974 0.989896
Si Si2 0.064320 0.269487 0.086288
Si Si3 0.411215 0.198013 0.608877
Si Si4 0.562525 0.206262 0.858350
Si Si5 0.282069 0.294048 0.221170
Si Si6 0.414865 0.521360 0.615998
Si Si7 0.945127 0.459130 0.351294
Si Si8 0.914659 0.797002 0.398143
O O1 0.353926 0.453857 0.916760
O O2 0.072668 0.662132 0.928441
O O3 0.229657 0.501608 0.122637
O O4 0.000000 0.000000 0.000000
O O5 0.053946 0.312710 0.222524
O O6 0.299705 0.907942 0.063999
O O7 0.000000 0.500000 0.000000
O O8 0.416120 0.361845 0.582507
O O9 0.191061 0.478844 0.632700
O O10 0.500000 0.000000 0.500000
O O11 0.514097 0.980178 0.727388
O O12 0.533319 0.349699 0.732267
O O13 0.697012 0.875263 0.842214
O O14 0.128757 0.500672 0.335432
O O15 0.500000 0.500000 0.500000
O O16 0.204394 0.888826 0.648406
O O17 0.829146 0.775974 0.361986
O O18 0.090537 0.219231 0.457016
#
# Coordination Sequence:
#
# PCOD8031140 Si02
#       8
#     2   2   2   2   2   2   2   2
#     4  12  27  48  70 102 144 181 233 299 345 405
#     4  12  24  43  72 103 133 188 241 276 345 428
#     4  11  23  42  65 100 136 180 231 279 346 423
#     4  11  24  45  72 100 139 183 232 286 351 419
#     4  11  22  44  70  98 135 182 226 281 355 412
#     4  11  24  41  66  99 139 178 223 289 350 399
#     4  11  23  41  68 101 136 179 231 281 345 424
#     4  11  22  42  69  96 142 175 223 290 348 412
#
# _framework density 21.644615000000002
#
# number of rings (size 3 to 8) (size 9 to 14) (size 15 to 20)
#    0.000    0.750    3.750    4.125    5.250    1.000 
#    6.750    0.000    0.000    0.000    0.000    0.000 
#    0.000    0.000    0.000    0.000    0.000    0.000 
#
# Total GULP energy -198268.702719 kJ/mol
# GULP energy per Si atom -12391.793920 kJ/mol
# Density = 2.159535 g / cm^3
# Si number density = 21.644615 Si / 1000 Ang^3
#
#
#
# Elastic Constant Matrix: (Units=GPa)
#
#
# Indices 1 2 3 4 5 6 
#
# 1 124.7902 46.5720 46.1452 -11.5380 -0.4518 -21.7847
# 2 46.5720 126.2951 41.8208 -13.8266 -6.9517 5.8384
# 3 46.1452 41.8208 132.7652 -16.6374 -11.3105 -1.8746
# 4 -11.5380 -13.8266 -16.6374 38.2896 -0.9159 -8.4370
# 5 -0.4518 -6.9517 -11.3105 -0.9159 31.9612 3.1828
# 6 -21.7847 5.8384 -1.8746 -8.4370 3.1828 40.3962
#
#
#
# Elastic Compliance Matrix: (Units=1/GPa)
#
#
# Indices 1 2 3 4 5 6 
#
# 1 0.011976 -0.003687 -0.002750 0.002705 -0.002286 0.007609
# 2 -0.003687 0.010226 -0.001679 0.001136 0.001955 -0.003461
# 3 -0.002750 -0.001679 0.009616 0.002714 0.003124 -0.000473
# 4 0.002705 0.001136 0.002714 0.030234 0.001352 0.007628
# 5 -0.002286 0.001955 0.003124 0.001352 0.033194 -0.003703
# 6 0.007609 -0.003461 -0.000473 0.007628 -0.003703 0.031221
#
#
# Mechanical properties :
#
#
# Convention : Reuss Voigt Hill
#
# Bulk Modulus (GPa) = 64.16111 72.54740 68.35425
# Shear Modulus (GPa) = 33.80753 38.75022 36.27888
#
# Velocity S-wave (km/s) = 3.95642 4.23578 4.09848
# Velocity P-wave (km/s) = 7.11185 7.58371 7.35157
#
# Compressibility (1/GPa) = 0.01558577
#
# Stress axis : x y z
#
# Youngs Moduli (GPa) = 83.49761 97.79192 103.99001
#
# Poissons Ratio (x) = 0.36060 0.28592
# Poissons Ratio (y) = 0.30789 0.17465
# Poissons Ratio (z) = 0.22958 0.16424
#
# Static dielectric constant tensor:
#      x y z
#    x 4.667240 0.145790 0.433590 
#    y 0.145790 4.092510 -0.043520 
#    z 0.433590 -0.043520 4.062240 
# 
# 
# High freq. dielectric constant tensor:
#      x y z
#    x 1.850660 -0.014040 -0.003100 
#    y -0.014040 1.852610 -0.005700 
#    z -0.003100 -0.005700 1.860800 
# 
# From -- ./inp_files/447150.got.cif
#   From: 2010.06.25/outbox.cif.g09.slc.cpg/sg2_224_cif.got.tgz:447150.got - 2010.06.27 13:26:56.
