data_PCOD8031999
_publ_section_title
;
Structure prediction by ZEFSAII (Michael W. Deem and Ramdas Pophale) SiO2 
 PCOD8031999
Probable space group: P -1
;
_chemical_formula_sum "Si O2"
_cell_formula_units_Z 14
_cell_length_a 19.166990
_cell_length_b 16.588005
_cell_length_c 7.376350
_cell_angle_alpha 54.423660
_cell_angle_beta 46.444264
_cell_angle_gamma 21.295245
_cell_volume 600.878801
_symmetry_space_group_name_H-M "P -1"
_symmetry_group_IT_number 2
_symmetry_cell_setting 'triclinic'
loop_
_space_group_symop_operation_xyz
x,y,z
-x,-y,-z
loop_
_atom_site_type_symbol
_atom_site_label
_atom_site_fract_x
_atom_site_fract_y
_atom_site_fract_z
Si Si1 0.836798 0.254427 0.803626
Si Si2 0.510779 0.542228 0.695529
Si Si3 0.163558 0.365814 0.547365
Si Si4 0.734898 0.049403 0.233013
Si Si5 0.905947 0.134665 0.308892
Si Si6 0.640992 0.002870 0.136135
Si Si7 0.074024 0.232289 0.413810
O O1 0.684267 0.349597 0.793246
O O2 0.879223 0.331189 0.616156
O O3 0.688015 0.356047 0.109569
O O4 0.072582 0.976597 0.730687
O O5 0.429171 0.727413 0.654199
O O6 0.654414 0.406661 0.430951
O O7 0.202947 0.228478 0.764642
O O8 0.000000 0.500000 0.500000
O O9 0.048010 0.549065 0.654135
O O10 0.395536 0.192383 0.281432
O O11 0.620552 0.109611 0.180907
O O12 0.799165 0.900904 0.448771
O O13 0.956778 0.900033 0.970579
O O14 0.000000 0.000000 0.500000
O O15 0.754078 0.937859 0.836030
#
# Coordination Sequence:
#
# PCOD8031999 Si02
#       7
#     2   2   2   2   2   2   2
#     4   9  19  35  58  90 131 174 225 270 318 391
#     4   9  18  36  61  91 132 181 219 269 327 376
#     4  11  25  50  73 101 132 171 226 276 338 421
#     4  11  23  40  64 101 134 173 230 271 323 408
#     4   9  18  35  61  90 133 181 223 270 322 383
#     4  11  25  47  73  98 138 175 214 283 343 395
#     4  12  25  43  68 101 134 176 223 279 340 398
#
# _framework density 23.299209999999999
#
# number of rings (size 3 to 8) (size 9 to 14) (size 15 to 20)
#    0.000    1.714    1.429    3.857    0.000    5.143 
#    5.143    1.429    0.000    0.000    0.000    0.000 
#    0.000    0.000    0.000    0.000    0.000    0.000 
#
# Total GULP energy -173506.628804 kJ/mol
# GULP energy per Si atom -12393.330629 kJ/mol
# Density = 2.324618 g / cm^3
# Si number density = 23.299210 Si / 1000 Ang^3
#
#
#
# Elastic Constant Matrix: (Units=GPa)
#
#
# Indices 1 2 3 4 5 6 
#
# 1 104.6975 39.3326 50.5132 16.2966 -7.7541 6.6987
# 2 39.3326 100.4802 53.9899 19.3203 6.5057 16.4550
# 3 50.5132 53.9899 133.2406 14.5469 13.5103 9.0952
# 4 16.2966 19.3203 14.5469 39.6973 3.8383 7.7126
# 5 -7.7541 6.5057 13.5103 3.8383 39.8666 0.6507
# 6 6.6987 16.4550 9.0952 7.7126 0.6507 41.6626
#
#
#
# Elastic Compliance Matrix: (Units=1/GPa)
#
#
# Indices 1 2 3 4 5 6 
#
# 1 0.013408 -0.002798 -0.004110 -0.003166 0.004756 0.000358
# 2 -0.002798 0.014638 -0.004103 -0.003635 -0.001131 -0.003745
# 3 -0.004110 -0.004103 0.011128 0.000001 -0.003900 -0.000087
# 4 -0.003166 -0.003635 0.000001 0.029191 -0.002778 -0.003416
# 5 0.004756 -0.001131 -0.003900 -0.002778 0.027772 0.000614
# 6 0.000358 -0.003745 -0.000087 -0.003416 0.000614 0.026066
#
#
# Mechanical properties :
#
#
# Convention : Reuss Voigt Hill
#
# Bulk Modulus (GPa) = 58.31024 69.56551 63.93788
# Shear Modulus (GPa) = 33.34630 37.21747 35.28189
#
# Velocity S-wave (km/s) = 3.78725 4.00105 3.89562
# Velocity P-wave (km/s) = 6.64871 7.16008 6.90913
#
# Compressibility (1/GPa) = 0.01714965
#
# Stress axis : x y z
#
# Youngs Moduli (GPa) = 74.58446 68.31700 89.86711
#
# Poissons Ratio (x) = 0.19113 0.36940
# Poissons Ratio (y) = 0.20866 0.36877
# Poissons Ratio (z) = 0.30658 0.28034
#
# Static dielectric constant tensor:
#      x y z
#    x 4.374630 0.152230 0.261050 
#    y 0.152230 4.569520 0.442540 
#    z 0.261050 0.442540 4.762220 
# 
# 
# High freq. dielectric constant tensor:
#      x y z
#    x 1.928420 -0.001810 0.013690 
#    y -0.001810 1.937940 0.009730 
#    z 0.013690 0.009730 1.923270 
# 
# From -- ./inp_files/348304.got.cif
#   From: 2010.06.25/outbox.cif.g09.slc.cpg/sg2_175_cif.got.tgz:348304.got - 2010.06.27 13:26:56.
