data_PCOD8031180
_publ_section_title
;
Structure prediction by ZEFSAII (Michael W. Deem and Ramdas Pophale) SiO2 
 PCOD8031180
Probable space group: P -1
;
_chemical_formula_sum "Si O2"
_cell_formula_units_Z 16
_cell_length_a 26.402312
_cell_length_b 13.915021
_cell_length_c 11.144990
_cell_angle_alpha 147.132889
_cell_angle_beta 25.867589
_cell_angle_gamma 144.717957
_cell_volume 937.245918
_symmetry_space_group_name_H-M "P -1"
_symmetry_group_IT_number 2
_symmetry_cell_setting 'triclinic'
loop_
_space_group_symop_operation_xyz
x,y,z
-x,-y,-z
loop_
_atom_site_type_symbol
_atom_site_label
_atom_site_fract_x
_atom_site_fract_y
_atom_site_fract_z
Si Si1 0.245487 0.572466 0.752375
Si Si2 0.059645 0.837398 0.228768
Si Si3 0.022978 0.650417 0.864778
Si Si4 0.878383 0.664389 0.629551
Si Si5 0.335689 0.476081 0.226310
Si Si6 0.000309 0.987255 0.127213
Si Si7 0.232049 0.960854 0.192196
Si Si8 0.406094 0.326031 0.146649
O O1 0.260354 0.580073 0.582585
O O2 0.344312 0.476244 0.496948
O O3 0.116360 0.446896 0.927892
O O4 0.263942 0.776980 0.980637
O O5 0.975747 0.691372 0.343326
O O6 0.185770 0.923515 0.115153
O O7 0.000000 0.000000 0.500000
O O8 0.080188 0.743418 0.963575
O O9 0.099557 0.504698 0.515515
O O10 0.037074 0.802430 0.890905
O O11 0.744911 0.622602 0.815704
O O12 0.898531 0.842568 0.856662
O O13 0.380403 0.327638 0.058513
O O14 0.451856 0.620304 0.074595
O O15 0.869597 0.987750 0.456146
O O16 0.000000 0.000000 0.000000
O O17 0.351161 0.126724 0.111518
#
# Coordination Sequence:
#
# PCOD8031180 Si02
#       8
#     2   2   2   2   2   2   2   2
#     4  10  17  31  49  79 105 135 171 194 258 318
#     4  11  16  27  49  79 104 131 162 199 260 323
#     4  12  19  32  54  79 107 137 167 217 266 321
#     4  11  20  33  52  80 106 139 167 211 271 313
#     4   9  18  34  48  76 118 135 165 207 245 323
#     4  11  24  37  51  77 105 136 180 224 265 306
#     4  11  19  31  52  73 103 140 168 209 259 307
#     4   9  19  33  47  76 114 141 166 201 249 311
#
# _framework density 17.071293000000001
#
# number of rings (size 3 to 8) (size 9 to 14) (size 15 to 20)
#    0.750    0.750    7.500    1.875    0.000    1.000 
#    0.000    0.000    0.000    0.750    0.000    1.750 
#    0.000    0.000    0.000    0.000    0.000    0.000 
#
# Total GULP energy -198308.814918 kJ/mol
# GULP energy per Si atom -12394.300932 kJ/mol
# Density = 1.703244 g / cm^3
# Si number density = 17.071293 Si / 1000 Ang^3
#
#
#
# Elastic Constant Matrix: (Units=GPa)
#
#
# Indices 1 2 3 4 5 6 
#
# 1 74.0060 47.6433 24.1426 -0.6426 0.3986 -2.4815
# 2 47.6433 120.3628 40.4473 9.3842 -3.9176 5.5023
# 3 24.1426 40.4473 38.3345 12.8100 -8.8597 -1.2821
# 4 -0.6426 9.3842 12.8100 25.0471 -6.3679 -13.4141
# 5 0.3986 -3.9176 -8.8597 -6.3679 18.0211 0.9633
# 6 -2.4815 5.5023 -1.2821 -13.4141 0.9633 24.2333
#
#
#
# Elastic Compliance Matrix: (Units=1/GPa)
#
#
# Indices 1 2 3 4 5 6 
#
# 1 0.022209 -0.006308 -0.012615 0.014478 -0.003547 0.011194
# 2 -0.006308 0.015305 -0.011673 -0.004674 -0.003539 -0.007185
# 3 -0.012615 -0.011673 0.059448 -0.028191 0.017637 -0.011802
# 4 0.014478 -0.004674 -0.028191 0.085146 0.012342 0.047693
# 5 -0.003547 -0.003539 0.017637 0.012342 0.067536 0.005521
# 6 0.011194 -0.007185 -0.011802 0.047693 0.005521 0.069600
#
#
# Mechanical properties :
#
#
# Convention : Reuss Voigt Hill
#
# Bulk Modulus (GPa) = 27.95440 50.79663 39.37551
# Shear Modulus (GPa) = 12.74347 21.49166 17.11756
#
# Velocity S-wave (km/s) = 2.73515 3.55200 3.17000
# Velocity P-wave (km/s) = 5.13667 6.82953 6.04267
#
# Compressibility (1/GPa) = 0.03577254
#
# Stress axis : x y z
#
# Youngs Moduli (GPa) = 45.02774 65.33718 16.82129
#
# Poissons Ratio (x) = 0.41213 0.21219
# Poissons Ratio (y) = 0.28402 0.19635
# Poissons Ratio (z) = 0.56801 0.76265
#
# Static dielectric constant tensor:
#      x y z
#    x 2.965250 -0.005930 -0.141270 
#    y -0.005930 3.262050 0.220650 
#    z -0.141270 0.220650 3.095520 
# 
# 
# High freq. dielectric constant tensor:
#      x y z
#    x 1.616110 -0.000450 -0.023540 
#    y -0.000450 1.662740 0.018250 
#    z -0.023540 0.018250 1.637320 
# 
# From -- ./inp_files/451519.got.cif
#   From: 2010.06.25/outbox.cif.g09.slc.cpg/sg2_226_cif.got.tgz:451519.got - 2010.06.27 13:26:56.
