data_PCOD8031831
_publ_section_title
;
Structure prediction by ZEFSAII (Michael W. Deem and Ramdas Pophale) SiO2 
 PCOD8031831
Probable space group: P -1
;
_chemical_formula_sum "Si O2"
_cell_formula_units_Z 14
_cell_length_a 12.678445
_cell_length_b 15.456052
_cell_length_c 9.366470
_cell_angle_alpha 125.077444
_cell_angle_beta 29.384785
_cell_angle_gamma 135.395814
_cell_volume 626.820735
_symmetry_space_group_name_H-M "P -1"
_symmetry_group_IT_number 2
_symmetry_cell_setting 'triclinic'
loop_
_space_group_symop_operation_xyz
x,y,z
-x,-y,-z
loop_
_atom_site_type_symbol
_atom_site_label
_atom_site_fract_x
_atom_site_fract_y
_atom_site_fract_z
Si Si1 0.613157 0.924689 0.447854
Si Si2 0.857821 0.673223 0.509047
Si Si3 0.904905 0.243801 0.147623
Si Si4 0.921166 0.811700 0.845946
Si Si5 0.791447 0.430149 0.299128
Si Si6 0.328383 0.274295 0.489774
Si Si7 0.573672 0.136382 0.079351
O O1 0.358642 0.886532 0.622612
O O2 0.467860 0.849597 0.691766
O O3 0.746336 0.859761 0.155739
O O4 0.800325 0.068275 0.398972
O O5 0.806919 0.734747 0.763186
O O6 0.799151 0.536893 0.490677
O O7 0.663346 0.650127 0.588582
O O8 0.143566 0.762057 0.201504
O O9 0.857967 0.351567 0.253532
O O10 0.062045 0.278556 0.143464
O O11 0.049795 0.211266 0.827374
O O12 0.529082 0.356804 0.453108
O O13 0.000000 0.500000 0.000000
O O14 0.379392 0.169424 0.267547
O O15 0.500000 0.000000 0.000000
#
# Coordination Sequence:
#
# PCOD8031831 Si02
#       7
#     2   2   2   2   2   2   2
#     4  11  22  47  68  98 141 184 227 270 346 411
#     4  12  26  43  70 107 136 172 237 284 331 402
#     4  12  23  44  72  96 136 188 225 271 343 410
#     4  11  26  44  68 101 141 184 220 281 348 400
#     4  12  23  43  73 101 132 180 235 282 335 400
#     4  12  23  44  73  96 137 180 225 282 345 397
#     4  12  23  44  70 106 134 172 233 283 327 412
#
# _framework density 22.334934000000001
#
# number of rings (size 3 to 8) (size 9 to 14) (size 15 to 20)
#    0.000    0.286    8.571    0.857    0.000    2.286 
#    5.143    2.857    0.000    0.000    0.000    0.000 
#    0.000    0.000    0.000    0.000    0.000    0.000 
#
# Total GULP energy -173462.894084 kJ/mol
# GULP energy per Si atom -12390.206720 kJ/mol
# Density = 2.228410 g / cm^3
# Si number density = 22.334934 Si / 1000 Ang^3
#
#
#
# Elastic Constant Matrix: (Units=GPa)
#
#
# Indices 1 2 3 4 5 6 
#
# 1 102.9607 31.1715 30.7021 13.1323 0.0773 3.1283
# 2 31.1715 137.5931 44.0903 27.1693 -9.0880 10.6084
# 3 30.7021 44.0903 90.9448 9.9604 -4.0784 6.1656
# 4 13.1323 27.1693 9.9604 35.9382 1.9726 0.5417
# 5 0.0773 -9.0880 -4.0784 1.9726 36.3243 4.4190
# 6 3.1283 10.6084 6.1656 0.5417 4.4190 27.4282
#
#
#
# Elastic Compliance Matrix: (Units=1/GPa)
#
#
# Indices 1 2 3 4 5 6 
#
# 1 0.011262 -0.001149 -0.003004 -0.002385 -0.000515 -0.000035
# 2 -0.001149 0.010442 -0.003584 -0.006593 0.002991 -0.003454
# 3 -0.003004 -0.003584 0.013898 -0.000068 0.000860 -0.001532
# 4 -0.002385 -0.006593 -0.000068 0.033869 -0.003830 0.002786
# 5 -0.000515 0.002991 0.000860 -0.003830 0.029306 -0.005937
# 6 -0.000035 -0.003454 -0.001532 0.002786 -0.005937 0.039044
#
#
# Mechanical properties :
#
#
# Convention : Reuss Voigt Hill
#
# Bulk Modulus (GPa) = 49.68576 60.38072 55.03324
# Shear Modulus (GPa) = 31.24899 34.97379 33.11139
#
# Velocity S-wave (km/s) = 3.74452 3.96141 3.85449
# Velocity P-wave (km/s) = 6.40229 6.92940 6.67105
#
# Compressibility (1/GPa) = 0.02012649
#
# Stress axis : x y z
#
# Youngs Moduli (GPa) = 88.79540 95.76363 71.95527
#
# Poissons Ratio (x) = 0.11003 0.21618
# Poissons Ratio (y) = 0.10203 0.25790
# Poissons Ratio (z) = 0.26677 0.34324
#
# Static dielectric constant tensor:
#      x y z
#    x 4.240160 -0.025830 -0.230820 
#    y -0.025830 4.382520 -0.063240 
#    z -0.230820 -0.063240 4.375030 
# 
# 
# High freq. dielectric constant tensor:
#      x y z
#    x 1.879240 -0.010640 -0.011970 
#    y -0.010640 1.878420 -0.001770 
#    z -0.011970 -0.001770 1.889330 
# 
# From -- ./inp_files/273968.got.cif
#   From: 2010.06.25/outbox.cif.g09.slc.cpg/sg2_137_cif.got.tgz:273968.got - 2010.06.27 13:26:56.
