data_PCOD8031736
_publ_section_title
;
Structure prediction by ZEFSAII (Michael W. Deem and Ramdas Pophale) SiO2 
 PCOD8031736
Probable space group: P -1
;
_chemical_formula_sum "Si O2"
_cell_formula_units_Z 16
_cell_length_a 11.158915
_cell_length_b 6.519489
_cell_length_c 14.545790
_cell_angle_alpha 74.113292
_cell_angle_beta 131.458394
_cell_angle_gamma 82.629407
_cell_volume 688.868332
_symmetry_space_group_name_H-M "P -1"
_symmetry_group_IT_number 2
_symmetry_cell_setting 'triclinic'
loop_
_space_group_symop_operation_xyz
x,y,z
-x,-y,-z
loop_
_atom_site_type_symbol
_atom_site_label
_atom_site_fract_x
_atom_site_fract_y
_atom_site_fract_z
Si Si1 0.508306 0.083854 0.237718
Si Si2 0.695820 0.411860 0.007121
Si Si3 0.141123 0.327513 0.841044
Si Si4 0.618241 0.698419 0.183045
Si Si5 0.780454 0.343606 0.595030
Si Si6 0.595030 0.221308 0.673090
Si Si7 0.164383 0.928669 0.027799
Si Si8 0.823056 0.184538 0.433601
O O1 0.383474 0.348248 0.118037
O O2 0.697820 0.059150 0.365027
O O3 0.526663 0.896262 0.189242
O O4 0.423383 0.023393 0.293513
O O5 0.535976 0.332902 0.953139
O O6 0.851346 0.208923 0.053086
O O7 0.804473 0.451876 0.142842
O O8 0.270385 0.199351 0.836600
O O9 0.935198 0.412958 0.700803
O O10 0.187113 0.160182 0.975397
O O11 0.753322 0.449075 0.325819
O O12 0.735300 0.190510 0.667560
O O13 0.599713 0.574829 0.462955
O O14 0.846652 0.195234 0.553980
O O15 0.670246 0.255602 0.806209
O O16 0.000000 0.000000 0.000000
O O17 0.000000 0.000000 0.500000
#
# Coordination Sequence:
#
# PCOD8031736 Si02
#       8
#     2   2   2   2   2   2   2   2
#     4  11  22  45  76  98 135 197 229 288 364 409
#     4  11  24  44  72 103 138 181 242 283 358 426
#     4  12  26  43  72 107 140 191 229 290 364 411
#     4  11  24  45  70 103 148 181 239 297 346 427
#     4  11  25  45  71 107 143 183 237 300 343 423
#     4  11  22  48  74  96 142 186 235 290 356 411
#     4  12  25  50  70 101 143 184 235 304 348 421
#     4  11  25  43  68 106 146 187 237 289 354 430
#
# _framework density 23.226496999999998
#
# number of rings (size 3 to 8) (size 9 to 14) (size 15 to 20)
#    0.000    0.750    5.000    1.875    1.750    7.000 
#    0.000    0.000    0.000    0.000    0.000    0.000 
#    0.000    0.000    0.000    0.000    0.000    0.000 
#
# Total GULP energy -198234.021272 kJ/mol
# GULP energy per Si atom -12389.626330 kJ/mol
# Density = 2.317363 g / cm^3
# Si number density = 23.226497 Si / 1000 Ang^3
#
#
#
# Elastic Constant Matrix: (Units=GPa)
#
#
# Indices 1 2 3 4 5 6 
#
# 1 176.8873 34.0257 42.2450 6.6406 5.8130 11.9064
# 2 34.0257 66.9588 19.3641 11.6560 16.2005 6.5986
# 3 42.2450 19.3641 95.0144 23.0390 12.2287 6.9599
# 4 6.6406 11.6560 23.0390 35.8296 7.5409 5.2872
# 5 5.8130 16.2005 12.2287 7.5409 45.5682 0.0266
# 6 11.9064 6.5986 6.9599 5.2872 0.0266 40.4583
#
#
#
# Elastic Compliance Matrix: (Units=1/GPa)
#
#
# Indices 1 2 3 4 5 6 
#
# 1 0.006913 -0.003007 -0.002836 0.001561 0.000691 -0.001260
# 2 -0.003007 0.018810 -0.000786 -0.003672 -0.005484 -0.001564
# 3 -0.002836 -0.000786 0.014118 -0.007842 -0.001849 -0.000440
# 4 0.001561 -0.003672 -0.007842 0.034848 -0.002554 -0.003064
# 5 0.000691 -0.005484 -0.001849 -0.002554 0.024725 0.001327
# 6 -0.001260 -0.001564 -0.000440 -0.003064 0.001327 0.025818
#
#
# Mechanical properties :
#
#
# Convention : Reuss Voigt Hill
#
# Bulk Modulus (GPa) = 37.61813 58.90334 48.26074
# Shear Modulus (GPa) = 33.93299 40.58626 37.25963
#
# Velocity S-wave (km/s) = 3.82640 4.18474 4.00957
# Velocity P-wave (km/s) = 5.97939 6.98318 6.50069
#
# Compressibility (1/GPa) = 0.02658293
#
# Stress axis : x y z
#
# Youngs Moduli (GPa) = 144.66430 53.16261 70.83399
#
# Poissons Ratio (x) = 0.15988 0.20086
# Poissons Ratio (y) = 0.43505 0.05566
# Poissons Ratio (z) = 0.41022 0.04177
#
# Static dielectric constant tensor:
#      x y z
#    x 4.545160 0.349230 0.003170 
#    y 0.349230 4.418280 0.328510 
#    z 0.003170 0.328510 4.508830 
# 
# 
# High freq. dielectric constant tensor:
#      x y z
#    x 1.939750 0.011480 0.006550 
#    y 0.011480 1.903990 0.002540 
#    z 0.006550 0.002540 1.927070 
# 
# From -- ./inp_files/510903.got.cif
#   From: 2010.06.25/outbox.cif.g09.slc.cpg/sg2_256_cif.got.tgz:510903.got - 2010.06.27 13:26:56.
