data_PCOD8031747
_publ_section_title
;
Structure prediction by ZEFSAII (Michael W. Deem and Ramdas Pophale) SiO2 
 PCOD8031747
Probable space group: P -1
;
_chemical_formula_sum "Si O2"
_cell_formula_units_Z 16
_cell_length_a 15.104774
_cell_length_b 9.207810
_cell_length_c 12.459256
_cell_angle_alpha 132.345587
_cell_angle_beta 38.166846
_cell_angle_gamma 113.305346
_cell_volume 756.631601
_symmetry_space_group_name_H-M "P -1"
_symmetry_group_IT_number 2
_symmetry_cell_setting 'triclinic'
loop_
_space_group_symop_operation_xyz
x,y,z
-x,-y,-z
loop_
_atom_site_type_symbol
_atom_site_label
_atom_site_fract_x
_atom_site_fract_y
_atom_site_fract_z
Si Si1 0.640100 0.053603 0.849316
Si Si2 0.323739 0.084188 0.485306
Si Si3 0.400605 0.105994 0.746736
Si Si4 0.881843 0.185224 0.437527
Si Si5 0.373381 0.546340 0.054631
Si Si6 0.935180 0.820853 0.934770
Si Si7 0.111266 0.459720 0.973238
Si Si8 0.902007 0.085410 0.738205
O O1 0.594093 0.289955 0.975380
O O2 0.751943 0.021528 0.827427
O O3 0.709391 0.910379 0.608433
O O4 0.500000 0.000000 0.000000
O O5 0.268111 0.307812 0.704134
O O6 0.502750 0.988985 0.286676
O O7 0.233397 0.938942 0.555164
O O8 0.500000 0.000000 0.500000
O O9 0.374749 0.349442 0.885767
O O10 0.236914 0.073634 0.886213
O O11 0.791651 0.369120 0.692502
O O12 0.956396 0.281954 0.319270
O O13 0.018951 0.020543 0.283149
O O14 0.500000 0.500000 0.000000
O O15 0.951675 0.647202 0.922662
O O16 0.000000 0.000000 0.000000
O O17 0.137089 0.668491 0.094317
O O18 0.000000 0.500000 0.000000
O O19 0.000000 0.000000 0.500000
#
# Coordination Sequence:
#
# PCOD8031747 Si02
#       8
#     2   2   2   2   2   2   2   2
#     4  11  25  45  67  99 136 176 231 281 335 407
#     4  11  22  46  66  96 141 180 220 280 349 403
#     4  12  24  43  72  98 138 183 223 277 349 406
#     4  11  23  44  70  99 140 173 238 284 332 403
#     4  11  23  45  70  95 137 187 220 277 353 404
#     4  12  25  43  69 108 137 174 235 288 331 408
#     4  12  23  45  73  98 136 185 221 275 355 406
#     4  12  23  45  71  94 136 187 223 276 348 404
#
# _framework density 21.146353999999999
#
# number of rings (size 3 to 8) (size 9 to 14) (size 15 to 20)
#    0.000    0.500    8.750    0.750    1.750    0.500 
#    4.500    1.875    0.000    0.000    0.000    0.000 
#    0.000    0.000    0.000    0.000    0.000    0.000 
#
# Total GULP energy -198385.106769 kJ/mol
# GULP energy per Si atom -12399.069173 kJ/mol
# Density = 2.109822 g / cm^3
# Si number density = 21.146354 Si / 1000 Ang^3
#
#
#
# Elastic Constant Matrix: (Units=GPa)
#
#
# Indices 1 2 3 4 5 6 
#
# 1 127.7519 54.6031 42.0849 -5.1160 -19.5660 12.2263
# 2 54.6031 103.7099 79.9578 -9.0895 2.0326 3.1888
# 3 42.0849 79.9578 147.0353 9.5518 6.9915 16.5947
# 4 -5.1160 -9.0895 9.5518 43.2630 9.3037 1.0793
# 5 -19.5660 2.0326 6.9915 9.3037 44.8332 3.0176
# 6 12.2263 3.1888 16.5947 1.0793 3.0176 40.2803
#
#
#
# Elastic Compliance Matrix: (Units=1/GPa)
#
#
# Indices 1 2 3 4 5 6 
#
# 1 0.011701 -0.006646 0.000480 -0.001285 0.005844 -0.003627
# 2 -0.006646 0.022123 -0.010946 0.007013 -0.003981 0.004886
# 3 0.000480 -0.010946 0.013478 -0.005097 -0.000022 -0.004694
# 4 -0.001285 0.007013 -0.005097 0.026756 -0.005747 0.001648
# 5 0.005844 -0.003981 -0.000022 -0.005747 0.026452 -0.003277
# 6 -0.003627 0.004886 -0.004694 0.001648 -0.003277 0.027675
#
#
# Mechanical properties :
#
#
# Convention : Reuss Voigt Hill
#
# Bulk Modulus (GPa) = 76.46622 81.30984 78.88803
# Shear Modulus (GPa) = 29.98172 39.13205 34.55689
#
# Velocity S-wave (km/s) = 3.76948 4.30645 4.04688
# Velocity P-wave (km/s) = 7.42861 7.95373 7.69565
#
# Compressibility (1/GPa) = 0.01307767
#
# Stress axis : x y z
#
# Youngs Moduli (GPa) = 85.46403 45.20200 74.19543
#
# Poissons Ratio (x) = 0.30042 -0.03562
# Poissons Ratio (y) = 0.56801 0.81213
# Poissons Ratio (z) = -0.04103 0.49477
#
# Static dielectric constant tensor:
#      x y z
#    x 4.884310 0.105100 0.862180 
#    y 0.105100 3.711240 -0.149120 
#    z 0.862180 -0.149120 4.366880 
# 
# 
# High freq. dielectric constant tensor:
#      x y z
#    x 1.853210 0.003720 0.001860 
#    y 0.003720 1.803990 0.007630 
#    z 0.001860 0.007630 1.835590 
# 
# From -- ./inp_files/448154.got.cif
#   From: 2010.06.25/outbox.cif.g09.slc.cpg/sg2_225_cif.got.tgz:448154.got - 2010.06.27 13:26:56.
