data_PCOD8031974
_publ_section_title
;
Structure prediction by ZEFSAII (Michael W. Deem and Ramdas Pophale) SiO2 
 PCOD8031974
Probable space group: P -1
;
_chemical_formula_sum "Si O2"
_cell_formula_units_Z 16
_cell_length_a 8.834139
_cell_length_b 14.296505
_cell_length_c 19.363164
_cell_angle_alpha 158.550131
_cell_angle_beta 75.135197
_cell_angle_gamma 115.282318
_cell_volume 731.475504
_symmetry_space_group_name_H-M "P -1"
_symmetry_group_IT_number 2
_symmetry_cell_setting 'triclinic'
loop_
_space_group_symop_operation_xyz
x,y,z
-x,-y,-z
loop_
_atom_site_type_symbol
_atom_site_label
_atom_site_fract_x
_atom_site_fract_y
_atom_site_fract_z
Si Si1 0.612263 0.337422 0.370405
Si Si2 0.665760 0.021502 0.267264
Si Si3 0.001812 0.795088 0.918146
Si Si4 0.009207 0.277016 0.489733
Si Si5 0.879413 0.866050 0.490965
Si Si6 0.653128 0.148732 0.026439
Si Si7 0.424571 0.022207 0.419728
Si Si8 0.641202 0.504402 0.837026
O O1 0.500000 0.500000 0.500000
O O2 0.690489 0.292517 0.402068
O O3 0.781117 0.516976 0.420726
O O4 0.457183 0.999282 0.132552
O O5 0.548952 0.006606 0.335967
O O6 0.866221 0.093802 0.319261
O O7 0.568328 0.697338 0.016661
O O8 0.851852 0.746476 0.958577
O O9 0.944268 0.480759 0.673316
O O10 0.197457 0.943406 0.036891
O O11 0.000000 0.000000 0.000000
O O12 0.997766 0.051620 0.396828
O O13 0.752434 0.505201 0.252948
O O14 0.756500 0.010853 0.615671
O O15 0.000000 0.000000 0.500000
O O16 0.500000 0.000000 0.000000
O O17 0.523302 0.336915 0.667204
O O18 0.359888 0.740635 0.282768
#
# Coordination Sequence:
#
# PCOD8031974 Si02
#       8
#     2   2   2   2   2   2   2   2
#     4  12  26  43  67 103 140 186 233 290 355 416
#     4  12  26  44  69 104 143 179 234 291 350 421
#     4  11  23  39  70  97 131 177 229 281 348 410
#     4  11  24  45  64 102 143 180 229 293 350 412
#     4  11  24  45  75 103 140 187 234 291 353 418
#     4  11  24  43  69  99 136 179 237 286 345 418
#     4  11  24  46  74  95 139 182 236 287 345 421
#     4  11  25  44  71 102 134 186 233 285 355 413
#
# _framework density 21.873597
#
# number of rings (size 3 to 8) (size 9 to 14) (size 15 to 20)
#    0.000    0.750    3.750    4.500    7.000    0.000 
#    2.250    0.625    0.000    0.000    0.000    0.000 
#    0.000    0.000    0.000    0.000    0.000    0.000 
#
# Total GULP energy -198396.434251 kJ/mol
# GULP energy per Si atom -12399.777141 kJ/mol
# Density = 2.182381 g / cm^3
# Si number density = 21.873597 Si / 1000 Ang^3
#
#
#
# Elastic Constant Matrix: (Units=GPa)
#
#
# Indices 1 2 3 4 5 6 
#
# 1 139.3304 60.5398 34.3962 3.6283 -9.9308 -17.2584
# 2 60.5398 135.2744 46.3830 13.1476 5.0784 -13.1818
# 3 34.3962 46.3830 85.2776 -9.5470 -6.2961 3.3097
# 4 3.6283 13.1476 -9.5470 39.7637 0.8645 -0.4258
# 5 -9.9308 5.0784 -6.2961 0.8645 30.0577 3.2029
# 6 -17.2584 -13.1818 3.3097 -0.4258 3.2029 33.1289
#
#
#
# Elastic Compliance Matrix: (Units=1/GPa)
#
#
# Indices 1 2 3 4 5 6 
#
# 1 0.009855 -0.003431 -0.002061 -0.000286 0.003020 0.003679
# 2 -0.003431 0.012164 -0.006313 -0.005077 -0.004800 0.004082
# 3 -0.002061 -0.006313 0.017238 0.006258 0.004419 -0.005654
# 4 -0.000286 -0.005077 0.006258 0.028295 0.001535 -0.002579
# 5 0.003020 -0.004800 0.004419 0.001535 0.036416 -0.004279
# 6 0.003679 0.004082 -0.005654 -0.002579 -0.004279 0.034671
#
#
# Mechanical properties :
#
#
# Convention : Reuss Voigt Hill
#
# Bulk Modulus (GPa) = 63.91102 71.39117 67.65110
# Shear Modulus (GPa) = 29.85712 35.16095 32.50904
#
# Velocity S-wave (km/s) = 3.69858 4.01367 3.85934
# Velocity P-wave (km/s) = 6.89355 7.36127 7.13125
#
# Compressibility (1/GPa) = 0.01564675
#
# Stress axis : x y z
#
# Youngs Moduli (GPa) = 101.47018 82.20955 58.01235
#
# Poissons Ratio (x) = 0.28207 0.11954
# Poissons Ratio (y) = 0.34815 0.36625
# Poissons Ratio (z) = 0.20909 0.51902
#
# Static dielectric constant tensor:
#      x y z
#    x 4.251780 -0.149040 0.068080 
#    y -0.149040 4.127960 -0.071350 
#    z 0.068080 -0.071350 3.501660 
# 
# 
# High freq. dielectric constant tensor:
#      x y z
#    x 1.878270 -0.006040 -0.005350 
#    y -0.006040 1.870960 0.000440 
#    z -0.005350 0.000440 1.846950 
# 
# From -- ./inp_files/347539.got.cif
#   From: 2010.06.25/outbox.cif.g09.slc.cpg/sg2_174_cif.got.tgz:347539.got - 2010.06.27 13:26:56.
