data_PCOD8031421
_publ_section_title
;
Structure prediction by ZEFSAII (Michael W. Deem and Ramdas Pophale) SiO2 
 PCOD8031421
Probable space group: P -1
;
_chemical_formula_sum "Si O2"
_cell_formula_units_Z 16
_cell_length_a 9.161531
_cell_length_b 14.273596
_cell_length_c 11.403238
_cell_angle_alpha 149.703945
_cell_angle_beta 74.865742
_cell_angle_gamma 96.349954
_cell_volume 705.685983
_symmetry_space_group_name_H-M "P -1"
_symmetry_group_IT_number 2
_symmetry_cell_setting 'triclinic'
loop_
_space_group_symop_operation_xyz
x,y,z
-x,-y,-z
loop_
_atom_site_type_symbol
_atom_site_label
_atom_site_fract_x
_atom_site_fract_y
_atom_site_fract_z
Si Si1 0.316016 0.112652 0.454700
Si Si2 0.855415 0.364448 0.694893
Si Si3 0.671699 0.489311 0.499619
Si Si4 0.161383 0.875879 0.785985
Si Si5 0.839660 0.527886 0.271851
Si Si6 0.411904 0.287051 0.854621
Si Si7 0.764437 0.224390 0.788425
Si Si8 0.626202 0.860319 0.060721
O O1 0.223343 0.268171 0.554517
O O2 0.397361 0.208530 0.643317
O O3 0.199969 0.992987 0.406198
O O4 0.446993 0.970339 0.196070
O O5 0.877058 0.220214 0.427922
O O6 0.882782 0.243429 0.679663
O O7 0.973798 0.503648 0.807205
O O8 0.681811 0.494705 0.878813
O O9 0.500000 0.500000 0.500000
O O10 0.750075 0.280824 0.309316
O O11 0.782423 0.536471 0.426152
O O12 0.660561 0.646272 0.772388
O O13 0.266991 0.021488 0.895753
O O14 0.000000 0.000000 0.000000
O O15 0.783940 0.360409 0.038102
O O16 0.588290 0.284696 0.844494
O O17 0.346063 0.157644 0.823793
#
# Coordination Sequence:
#
# PCOD8031421 Si02
#       8
#     2   2   2   2   2   2   2   2
#     4  11  24  43  70 106 136 177 236 284 344 419
#     4  12  25  45  71 100 139 185 225 288 353 407
#     4  12  27  48  73 102 143 187 235 291 348 412
#     4  12  28  46  73 102 138 186 239 286 350 417
#     4  12  28  43  67 102 146 182 228 288 349 412
#     4  11  22  43  75 100 137 179 234 285 345 416
#     4  11  24  44  71 102 136 182 231 285 347 416
#     4  11  24  44  73 102 132 183 235 289 339 413
#
# _framework density 22.672974
#
# number of rings (size 3 to 8) (size 9 to 14) (size 15 to 20)
#    0.000    0.500    2.500    6.750    3.500    6.500 
#    0.000    0.000    0.000    0.000    0.000    0.000 
#    0.000    0.000    0.000    0.000    0.000    0.000 
#
# Total GULP energy -198453.027942 kJ/mol
# GULP energy per Si atom -12403.314246 kJ/mol
# Density = 2.262137 g / cm^3
# Si number density = 22.672974 Si / 1000 Ang^3
#
#
#
# Elastic Constant Matrix: (Units=GPa)
#
#
# Indices 1 2 3 4 5 6 
#
# 1 58.1710 38.7925 18.9690 9.3458 -10.2791 13.7967
# 2 38.7925 120.4469 31.6680 -3.5569 -3.4178 12.7083
# 3 18.9690 31.6680 111.8394 4.5150 -10.8258 0.4012
# 4 9.3458 -3.5569 4.5150 40.0471 5.8736 -3.1924
# 5 -10.2791 -3.4178 -10.8258 5.8736 11.3118 13.1897
# 6 13.7967 12.7083 0.4012 -3.1924 13.1897 36.5004
#
#
#
# Elastic Compliance Matrix: (Units=1/GPa)
#
#
# Indices 1 2 3 4 5 6 
#
# 1 -0.083986 0.011282 -0.022118 0.079268 -0.304221 0.144926
# 2 0.011282 0.008249 0.001253 -0.011642 0.051003 -0.026599
# 3 -0.022118 0.001253 0.006218 0.015101 -0.055835 0.029353
# 4 0.079268 -0.011642 0.015101 -0.040666 0.239575 -0.116204
# 5 -0.304221 0.051003 -0.055835 0.239575 -0.845050 0.424166
# 6 0.144926 -0.026599 0.029353 -0.116204 0.424166 -0.181884
#
#
# Mechanical properties :
#
#
# Convention : Reuss Voigt Hill
#
# Bulk Modulus (GPa) = -11.27603 52.14627 20.43512
# Shear Modulus (GPa) = -4.35725 30.97370 13.30823
#
# Velocity S-wave (km/s) = -1.38779 3.70010 2.42536
# Velocity P-wave (km/s) = 2.74810 6.42678 4.10801
#
# Compressibility (1/GPa) = -0.08868368
#
# Stress axis : x y z
#
# Youngs Moduli (GPa) = -11.90677 121.22195 160.81636
#
# Poissons Ratio (x) = -1.36760 3.55687
# Poissons Ratio (y) = 0.13433 -0.20152
# Poissons Ratio (z) = -0.26335 -0.15190
#
# Static dielectric constant tensor:
#      x y z
#    x 4.128990 0.096860 -0.079070 
#    y 0.096860 4.519790 0.008320 
#    z -0.079070 0.008320 4.171560 
# 
# 
# High freq. dielectric constant tensor:
#      x y z
#    x 1.890390 0.007450 -0.001980 
#    y 0.007450 1.916390 0.002060 
#    z -0.001980 0.002060 1.903810 
# 
# From -- ./inp_files/399942.got.cif
#   From: 2010.06.25/outbox.cif.g09.slc.cpg/sg2_200_cif.got.tgz:399942.got - 2010.06.27 13:26:56.
