data_PCOD8031962
_publ_section_title
;
Structure prediction by ZEFSAII (Michael W. Deem and Ramdas Pophale) SiO2 
 PCOD8031962
Probable space group: P -1
;
_chemical_formula_sum "Si O2"
_cell_formula_units_Z 16
_cell_length_a 5.646771
_cell_length_b 11.387389
_cell_length_c 10.590554
_cell_angle_alpha 96.373772
_cell_angle_beta 91.545459
_cell_angle_gamma 97.513927
_cell_volume 670.377694
_symmetry_space_group_name_H-M "P -1"
_symmetry_group_IT_number 2
_symmetry_cell_setting 'triclinic'
loop_
_space_group_symop_operation_xyz
x,y,z
-x,-y,-z
loop_
_atom_site_type_symbol
_atom_site_label
_atom_site_fract_x
_atom_site_fract_y
_atom_site_fract_z
Si Si1 0.152335 0.722115 0.244182
Si Si2 0.623839 0.489329 0.832775
Si Si3 0.317373 0.529629 0.605267
Si Si4 0.981542 0.302337 0.498987
Si Si5 0.263549 0.050440 0.953077
Si Si6 0.729493 0.684722 0.036360
Si Si7 0.484902 0.068851 0.706276
Si Si8 0.217502 0.088451 0.457282
O O1 0.214751 0.588627 0.255434
O O2 0.117014 0.776000 0.389920
O O3 0.361827 0.820084 0.203679
O O4 0.927391 0.712434 0.149223
O O5 0.432391 0.541704 0.747227
O O6 0.509199 0.391943 0.921616
O O7 0.796670 0.598893 0.913095
O O8 0.500000 0.500000 0.500000
O O9 0.216290 0.655211 0.592182
O O10 0.114942 0.418012 0.584360
O O11 0.138094 0.213251 0.418332
O O12 0.312880 0.189658 0.006911
O O13 0.268002 0.027089 0.797166
O O14 0.500000 0.000000 0.000000
O O15 0.000000 0.000000 0.000000
O O16 0.395190 0.119852 0.580886
O O17 0.645064 0.964083 0.664175
O O18 0.000000 0.000000 0.500000
#
# Coordination Sequence:
#
# PCOD8031962 Si02
#       8
#     2   2   2   2   2   2   2   2
#     4  12  20  42  75 102 141 192 249 306 380 450
#     4  11  23  43  71 106 138 187 252 310 370 439
#     4  11  23  42  65 101 148 189 233 296 389 458
#     4  11  23  39  67 106 144 192 233 304 379 461
#     4  12  28  52  76 108 152 209 254 312 396 468
#     4  11  25  45  73 102 139 188 259 314 362 448
#     4  11  25  44  75 108 142 196 254 316 378 463
#     4  11  24  43  73 112 142 186 254 314 373 447
#
# _framework density 23.867141
#
# number of rings (size 3 to 8) (size 9 to 14) (size 15 to 20)
#    0.000    0.750    5.000    2.625    1.750    0.000 
#    4.500    0.000    0.000    0.000    0.000    0.000 
#    0.000    0.000    0.000    0.000    0.000    0.000 
#
# Total GULP energy -198266.988694 kJ/mol
# GULP energy per Si atom -12391.686793 kJ/mol
# Density = 2.381282 g / cm^3
# Si number density = 23.867141 Si / 1000 Ang^3
#
#
#
# Elastic Constant Matrix: (Units=GPa)
#
#
# Indices 1 2 3 4 5 6 
#
# 1 107.6644 66.8429 20.6547 1.0675 -12.7917 -18.1908
# 2 66.8429 151.6312 56.1468 12.0897 0.6362 -32.2996
# 3 20.6547 56.1468 77.3180 7.9643 -17.5150 -8.5586
# 4 1.0675 12.0897 7.9643 34.8268 -3.7611 -2.6658
# 5 -12.7917 0.6362 -17.5150 -3.7611 41.6846 -4.2170
# 6 -18.1908 -32.2996 -8.5586 -2.6658 -4.2170 55.1428
#
#
#
# Elastic Compliance Matrix: (Units=1/GPa)
#
#
# Indices 1 2 3 4 5 6 
#
# 1 0.014105 -0.007084 0.002651 0.002170 0.005895 0.001471
# 2 -0.007084 0.014162 -0.009017 -0.002988 -0.006048 0.003952
# 3 0.002651 -0.009017 0.020988 -0.000742 0.009658 -0.000447
# 4 0.002170 -0.002988 -0.000742 0.030240 0.003184 0.000556
# 5 0.005895 -0.006048 0.009658 0.003184 0.030477 0.002385
# 6 0.001471 0.003952 -0.000447 0.000556 0.002385 0.021075
#
#
# Mechanical properties :
#
#
# Convention : Reuss Voigt Hill
#
# Bulk Modulus (GPa) = 44.73181 69.32247 57.02714
# Shear Modulus (GPa) = 30.23014 39.19545 34.71279
#
# Velocity S-wave (km/s) = 3.56279 4.05685 3.81782
# Velocity P-wave (km/s) = 5.97556 7.14508 6.58633
#
# Compressibility (1/GPa) = 0.02235545
#
# Stress axis : x y z
#
# Youngs Moduli (GPa) = 70.89755 70.61266 47.64658
#
# Poissons Ratio (x) = 0.50020 -0.12630
# Poissons Ratio (y) = 0.50222 0.42961
# Poissons Ratio (z) = -0.18794 0.63668
#
# Static dielectric constant tensor:
#      x y z
#    x 3.993650 -0.443200 -0.058380 
#    y -0.443200 4.466640 0.146000 
#    z -0.058380 0.146000 4.300630 
# 
# 
# High freq. dielectric constant tensor:
#      x y z
#    x 1.951040 -0.009440 -0.007250 
#    y -0.009440 1.951840 0.006570 
#    z -0.007250 0.006570 1.936090 
# 
# From -- ./inp_files/363197.got.cif
#   From: 2010.06.25/outbox.cif.g09.slc.cpg/sg2_182_cif.got.tgz:363197.got - 2010.06.27 13:26:56.
