data_PCOD8031198
_publ_section_title
;
Structure prediction by ZEFSAII (Michael W. Deem and Ramdas Pophale) SiO2 
 PCOD8031198
Probable space group: P -1
;
_chemical_formula_sum "Si O2"
_cell_formula_units_Z 16
_cell_length_a 8.939012
_cell_length_b 14.419574
_cell_length_c 10.490517
_cell_angle_alpha 41.583600
_cell_angle_beta 120.190403
_cell_angle_gamma 125.541318
_cell_volume 724.440849
_symmetry_space_group_name_H-M "P -1"
_symmetry_group_IT_number 2
_symmetry_cell_setting 'triclinic'
loop_
_space_group_symop_operation_xyz
x,y,z
-x,-y,-z
loop_
_atom_site_type_symbol
_atom_site_label
_atom_site_fract_x
_atom_site_fract_y
_atom_site_fract_z
Si Si1 0.465964 0.197500 0.495083
Si Si2 0.697155 0.513262 0.622430
Si Si3 0.312875 0.331815 0.086561
Si Si4 0.840404 0.354710 0.640145
Si Si5 0.762622 0.135788 0.280254
Si Si6 0.361721 0.594524 0.006219
Si Si7 0.870250 0.826114 0.445887
Si Si8 0.079620 0.862237 0.922471
O O1 0.468756 0.294313 0.272351
O O2 0.674752 0.269901 0.561190
O O3 0.313284 0.221541 0.497163
O O4 0.409571 0.021530 0.619051
O O5 0.500000 0.500000 0.500000
O O6 0.765790 0.403370 0.685102
O O7 0.694174 0.471025 0.811498
O O8 0.845970 0.682342 0.495639
O O9 0.261840 0.467978 0.986577
O O10 0.133133 0.186910 0.156572
O O11 0.415997 0.368671 0.955112
O O12 0.000000 0.500000 0.500000
O O13 0.912587 0.225485 0.854421
O O14 0.803090 0.167320 0.114563
O O15 0.944547 0.127027 0.437302
O O16 0.701878 0.263856 0.185664
O O17 0.864030 0.960109 0.213705
#
# Coordination Sequence:
#
# PCOD8031198 Si02
#       8
#     2   2   2   2   2   2   2   2
#     4  11  22  46  67  99 144 179 224 283 345 399
#     4  12  24  45  67  97 138 183 230 275 343 417
#     4  11  23  43  69  99 144 175 226 289 342 395
#     4  12  29  45  69 102 140 182 229 284 339 409
#     4  11  22  42  72 104 131 178 238 285 331 408
#     4  11  25  39  69 103 133 182 231 280 341 401
#     4  11  22  42  72 101 135 179 230 284 341 402
#     4  11  23  43  67 100 137 180 226 278 344 402
#
# _framework density 22.085999000000001
#
# number of rings (size 3 to 8) (size 9 to 14) (size 15 to 20)
#    0.000    0.750    6.250    0.750    7.000    4.500 
#    2.250    0.625    0.000    0.000    0.000    0.000 
#    0.000    0.000    0.000    0.000    0.000    0.000 
#
# Total GULP energy -198306.438832 kJ/mol
# GULP energy per Si atom -12394.152427 kJ/mol
# Density = 2.203573 g / cm^3
# Si number density = 22.085999 Si / 1000 Ang^3
#
#
#
# Elastic Constant Matrix: (Units=GPa)
#
#
# Indices 1 2 3 4 5 6 
#
# 1 69.9164 32.6594 27.6135 -8.8232 -0.2029 9.2392
# 2 32.6594 128.9096 58.5158 -8.7851 3.9889 27.5754
# 3 27.6135 58.5158 126.3636 -14.9398 8.1515 2.3175
# 4 -8.8232 -8.7851 -14.9398 31.1273 3.8701 2.0699
# 5 -0.2029 3.9889 8.1515 3.8701 26.3764 -4.1767
# 6 9.2392 27.5754 2.3175 2.0699 -4.1767 32.9712
#
#
#
# Elastic Compliance Matrix: (Units=1/GPa)
#
#
# Indices 1 2 3 4 5 6 
#
# 1 0.017113 -0.002593 -0.002126 0.003239 0.000287 -0.002644
# 2 -0.002593 0.013016 -0.004944 0.001529 -0.002300 -0.010199
# 3 -0.002126 -0.004944 0.011192 0.003485 -0.002703 0.003383
# 4 0.003239 0.001529 0.003485 0.036462 -0.007532 -0.005675
# 5 0.000287 -0.002300 -0.002703 -0.007532 0.041431 0.007754
# 6 -0.002644 -0.010199 0.003383 -0.005675 0.007754 0.040701
#
#
# Mechanical properties :
#
#
# Convention : Reuss Voigt Hill
#
# Bulk Modulus (GPa) = 45.46704 62.52968 53.99836
# Shear Modulus (GPa) = 26.79919 31.85505 29.32712
#
# Velocity S-wave (km/s) = 3.48717 3.80191 3.64794
# Velocity P-wave (km/s) = 6.07000 6.90261 6.49965
#
# Compressibility (1/GPa) = 0.02199395
#
# Stress axis : x y z
#
# Youngs Moduli (GPa) = 58.43632 76.82964 89.34799
#
# Poissons Ratio (x) = 0.19922 0.18994
# Poissons Ratio (y) = 0.15153 0.44177
# Poissons Ratio (z) = 0.12423 0.37988
#
# Static dielectric constant tensor:
#      x y z
#    x 3.885590 0.013300 0.012800 
#    y 0.013300 4.095530 -0.268900 
#    z 0.012800 -0.268900 4.025800 
# 
# 
# High freq. dielectric constant tensor:
#      x y z
#    x 1.859970 0.009590 -0.002530 
#    y 0.009590 1.869770 -0.023100 
#    z -0.002530 -0.023100 1.876240 
# 
# From -- ./inp_files/398475.got.cif
#   From: 2010.06.25/outbox.cif.g09.slc.cpg/sg2_200_cif.got.tgz:398475.got - 2010.06.27 13:26:56.
