data_PCOD8031262
_publ_section_title
;
Structure prediction by ZEFSAII (Michael W. Deem and Ramdas Pophale) SiO2 
 PCOD8031262
Probable space group: P -1
;
_chemical_formula_sum "Si O2"
_cell_formula_units_Z 16
_cell_length_a 16.932791
_cell_length_b 9.067733
_cell_length_c 5.386159
_cell_angle_alpha 85.249567
_cell_angle_beta 97.304140
_cell_angle_gamma 130.118104
_cell_volume 627.290623
_symmetry_space_group_name_H-M "P -1"
_symmetry_group_IT_number 2
_symmetry_cell_setting 'triclinic'
loop_
_space_group_symop_operation_xyz
x,y,z
-x,-y,-z
loop_
_atom_site_type_symbol
_atom_site_label
_atom_site_fract_x
_atom_site_fract_y
_atom_site_fract_z
Si Si1 0.167638 0.770260 0.590099
Si Si2 0.677610 0.179484 0.743713
Si Si3 0.998008 0.220243 0.349162
Si Si4 0.444087 0.685275 0.392436
Si Si5 0.868233 0.514931 0.020922
Si Si6 0.367638 0.105808 0.872513
Si Si7 0.371819 0.446540 0.883382
Si Si8 0.132105 0.197036 0.766313
O O1 0.235286 0.801433 0.381953
O O2 0.079627 0.787926 0.486722
O O3 0.108574 0.558339 0.718849
O O4 0.245545 0.942544 0.792956
O O5 0.608078 0.218857 0.572217
O O6 0.746140 0.350061 0.947330
O O7 0.603271 0.973156 0.882017
O O8 0.087714 0.226995 0.501549
O O9 0.925196 0.026231 0.178990
O O10 0.051646 0.417786 0.183352
O O11 0.565924 0.857564 0.353322
O O12 0.437333 0.578976 0.651653
O O13 0.395298 0.556560 0.137367
O O14 0.888635 0.714724 0.031762
O O15 0.399156 0.306264 0.951299
O O16 0.254041 0.320063 0.764479
#
# Coordination Sequence:
#
# PCOD8031262 Si02
#       8
#     2   2   2   2   2   2   2   2
#     4  11  25  44  68 100 148 184 243 297 364 432
#     4  11  26  46  72 103 147 194 241 305 364 445
#     4  11  24  43  68 103 135 190 240 302 363 437
#     4  12  27  48  81 108 148 197 247 303 370 443
#     4  11  22  43  66 100 135 188 238 298 362 438
#     4  11  27  46  73 111 144 192 242 305 369 435
#     4  12  26  49  77 112 149 193 244 312 366 438
#     4  11  24  43  70 100 141 185 244 298 369 431
#
# _framework density 25.506516999999999
#
# number of rings (size 3 to 8) (size 9 to 14) (size 15 to 20)
#    0.000    0.750    2.500    4.125    5.250    4.500 
#    2.250    0.000    0.000    0.000    0.000    0.000 
#    0.000    0.000    0.000    0.000    0.000    0.000 
#
# Total GULP energy -198319.438929 kJ/mol
# GULP energy per Si atom -12394.964933 kJ/mol
# Density = 2.544846 g / cm^3
# Si number density = 25.506517 Si / 1000 Ang^3
#
#
#
# Elastic Constant Matrix: (Units=GPa)
#
#
# Indices 1 2 3 4 5 6 
#
# 1 105.7103 37.2875 13.0054 -17.4577 -6.0656 -10.7852
# 2 37.2875 106.1930 33.7859 -31.5879 -0.9081 -3.8014
# 3 13.0054 33.7859 103.9005 -28.3169 -4.6022 -4.0878
# 4 -17.4577 -31.5879 -28.3169 39.5276 2.3992 -3.1408
# 5 -6.0656 -0.9081 -4.6022 2.3992 31.9641 -2.7216
# 6 -10.7852 -3.8014 -4.0878 -3.1408 -2.7216 40.7238
#
#
#
# Elastic Compliance Matrix: (Units=1/GPa)
#
#
# Indices 1 2 3 4 5 6 
#
# 1 0.011468 -0.003177 0.000674 0.003128 0.002220 0.003198
# 2 -0.003177 0.013590 -0.001767 0.008318 -0.001026 0.000823
# 3 0.000674 -0.001767 0.012389 0.007829 0.001441 0.001957
# 4 0.003128 0.008318 0.007829 0.039398 -0.000541 0.005393
# 5 0.002220 -0.001026 0.001441 -0.000541 0.032159 0.002744
# 6 0.003198 0.000823 0.001957 0.005393 0.002744 0.026275
#
#
# Mechanical properties :
#
#
# Convention : Reuss Voigt Hill
#
# Bulk Modulus (GPa) = 34.59402 53.77350 44.18376
# Shear Modulus (GPa) = 32.58280 37.89144 35.23712
#
# Velocity S-wave (km/s) = 3.57799 3.85848 3.72088
# Velocity P-wave (km/s) = 5.53730 6.40144 5.98499
#
# Compressibility (1/GPa) = 0.02890673
#
# Stress axis : x y z
#
# Youngs Moduli (GPa) = 87.20004 73.58474 80.71385
#
# Poissons Ratio (x) = 0.23380 -0.05444
# Poissons Ratio (y) = 0.27706 0.14265
# Poissons Ratio (z) = -0.05881 0.13005
#
# Static dielectric constant tensor:
#      x y z
#    x 4.673590 0.042570 -0.006970 
#    y 0.042570 5.062940 0.057860 
#    z -0.006970 0.057860 4.152490 
# 
# 
# High freq. dielectric constant tensor:
#      x y z
#    x 2.026280 0.006030 -0.003990 
#    y 0.006030 2.043990 0.002490 
#    z -0.003990 0.002490 1.997980 
# 
# From -- ./inp_files/98037.got.cif
#   From: 2010.06.25/outbox.cif.g09.slc.cpg/sg2_50_cif.got.tgz:98037.got - 2010.06.27 13:26:56.
