data_PCOD8031048
_publ_section_title
;
Structure prediction by ZEFSAII (Michael W. Deem and Ramdas Pophale) SiO2 
 PCOD8031048
Probable space group: P -1
;
_chemical_formula_sum "Si O2"
_cell_formula_units_Z 14
_cell_length_a 9.080957
_cell_length_b 15.825321
_cell_length_c 13.425257
_cell_angle_alpha 27.831399
_cell_angle_beta 116.859820
_cell_angle_gamma 130.175066
_cell_volume 649.028528
_symmetry_space_group_name_H-M "P -1"
_symmetry_group_IT_number 2
_symmetry_cell_setting 'triclinic'
loop_
_space_group_symop_operation_xyz
x,y,z
-x,-y,-z
loop_
_atom_site_type_symbol
_atom_site_label
_atom_site_fract_x
_atom_site_fract_y
_atom_site_fract_z
Si Si1 0.204772 0.513305 0.210316
Si Si2 0.530441 0.221072 0.806033
Si Si3 0.122785 0.404228 0.598867
Si Si4 0.256120 0.712232 0.641858
Si Si5 0.140438 0.160473 0.687700
Si Si6 0.480308 0.771265 0.846042
Si Si7 0.796845 0.680695 0.082428
O O1 0.341728 0.710478 0.125056
O O2 0.234539 0.321058 0.451340
O O3 0.962091 0.387957 0.271458
O O4 0.284354 0.631964 0.004037
O O5 0.651962 0.391838 0.576021
O O6 0.314990 0.185685 0.784711
O O7 0.500000 0.000000 0.000000
O O8 0.026776 0.237718 0.645334
O O9 0.153190 0.281500 0.824568
O O10 0.000000 0.500000 0.500000
O O11 0.403234 0.726885 0.756032
O O12 0.222007 0.538338 0.729074
O O13 0.367025 0.959664 0.368797
O O14 0.989293 0.913225 0.852564
O O15 0.593540 0.655443 0.018690
#
# Coordination Sequence:
#
# PCOD8031048 Si02
#       7
#     2   2   2   2   2   2   2
#     4  11  22  44  68  91 134 173 213 268 338 380
#     4  11  23  38  60  96 135 168 218 263 318 406
#     4  11  23  37  63  97 131 173 215 260 326 397
#     4  11  25  46  66 100 126 170 230 278 327 387
#     4  11  22  42  62  97 137 172 214 266 322 403
#     4  11  25  45  70  93 131 172 225 282 327 381
#     4  12  23  42  69  94 137 172 218 270 330 388
#
# _framework density 21.570699999999999
#
# number of rings (size 3 to 8) (size 9 to 14) (size 15 to 20)
#    0.000    0.857    1.429    8.143    2.000    0.000 
#    2.571    0.714    0.000    0.000    0.000    0.000 
#    0.000    0.000    0.000    0.000    0.000    0.000 
#
# Total GULP energy -173503.783950 kJ/mol
# GULP energy per Si atom -12393.127425 kJ/mol
# Density = 2.152160 g / cm^3
# Si number density = 21.570700 Si / 1000 Ang^3
#
#
#
# Elastic Constant Matrix: (Units=GPa)
#
#
# Indices 1 2 3 4 5 6 
#
# 1 87.9611 11.9383 19.3742 -4.7453 -1.9041 7.4351
# 2 11.9383 70.4262 23.0067 -14.6560 -2.1927 5.5560
# 3 19.3742 23.0067 96.6160 -7.3953 -9.8982 -12.2440
# 4 -4.7453 -14.6560 -7.3953 43.9407 1.2032 6.7783
# 5 -1.9041 -2.1927 -9.8982 1.2032 38.0925 2.5593
# 6 7.4351 5.5560 -12.2440 6.7783 2.5593 32.4038
#
#
#
# Elastic Compliance Matrix: (Units=1/GPa)
#
#
# Indices 1 2 3 4 5 6 
#
# 1 0.012478 -0.000616 -0.002762 0.001304 0.000104 -0.004082
# 2 -0.000616 0.017377 -0.004280 0.005886 0.000054 -0.005691
# 3 -0.002762 -0.004280 0.012925 -0.000572 0.002578 0.006168
# 4 0.001304 0.005886 -0.000572 0.025836 -0.000096 -0.006922
# 5 0.000104 0.000054 0.002578 -0.000096 0.027012 -0.001172
# 6 -0.004082 -0.005691 0.006168 -0.006922 -0.001172 0.036644
#
#
# Mechanical properties :
#
#
# Convention : Reuss Voigt Hill
#
# Bulk Modulus (GPa) = 36.41077 40.40463 38.40770
# Shear Modulus (GPa) = 31.89926 36.26632 34.08279
#
# Velocity S-wave (km/s) = 3.84972 4.10479 3.97930
# Velocity P-wave (km/s) = 6.05614 6.42165 6.24157
#
# Compressibility (1/GPa) = 0.02746440
#
# Stress axis : x y z
#
# Youngs Moduli (GPa) = 80.13840 57.54678 77.36852
#
# Poissons Ratio (x) = 0.03546 0.21373
# Poissons Ratio (y) = 0.04938 0.33110
# Poissons Ratio (z) = 0.22138 0.24627
#
# Static dielectric constant tensor:
#      x y z
#    x 4.165200 0.325520 0.310040 
#    y 0.325520 3.914730 0.179740 
#    z 0.310040 0.179740 4.492150 
# 
# 
# High freq. dielectric constant tensor:
#      x y z
#    x 1.833200 0.018550 0.005060 
#    y 0.018550 1.844370 -0.005170 
#    z 0.005060 -0.005170 1.868860 
# 
# From -- ./inp_files/313203.got.cif
#   From: 2010.06.25/outbox.cif.g09.slc.cpg/sg2_157_cif.got.tgz:313203.got - 2010.06.27 13:26:56.
