data_PCOD8031626
_publ_section_title
;
Structure prediction by ZEFSAII (Michael W. Deem and Ramdas Pophale) SiO2 
 PCOD8031626
Probable space group: P -1
;
_chemical_formula_sum "Si O2"
_cell_formula_units_Z 14
_cell_length_a 13.080834
_cell_length_b 15.786414
_cell_length_c 9.547054
_cell_angle_alpha 127.936619
_cell_angle_beta 134.321043
_cell_angle_gamma 27.827853
_cell_volume 658.395587
_symmetry_space_group_name_H-M "P -1"
_symmetry_group_IT_number 2
_symmetry_cell_setting 'triclinic'
loop_
_space_group_symop_operation_xyz
x,y,z
-x,-y,-z
loop_
_atom_site_type_symbol
_atom_site_label
_atom_site_fract_x
_atom_site_fract_y
_atom_site_fract_z
Si Si1 0.806777 0.942903 0.883346
Si Si2 0.323243 0.629307 0.083991
Si Si3 0.850783 0.083999 0.297913
Si Si4 0.117099 0.310515 0.931061
Si Si5 0.489216 0.973237 0.746329
Si Si6 0.766443 0.069915 0.680846
Si Si7 0.385985 0.481059 0.276316
O O1 0.601098 0.977270 0.731855
O O2 0.758714 0.056273 0.827029
O O3 0.069206 0.736232 0.891852
O O4 0.846094 0.970702 0.104400
O O5 0.325948 0.753414 0.256421
O O6 0.406993 0.506015 0.164689
O O7 0.500000 0.500000 0.000000
O O8 0.567023 0.270822 0.248876
O O9 0.000000 0.000000 0.500000
O O10 0.969221 0.095852 0.310317
O O11 0.888255 0.371985 0.792074
O O12 0.269603 0.176991 0.807261
O O13 0.298093 0.189904 0.111364
O O14 0.000000 0.500000 0.000000
O O15 0.400371 0.916364 0.538498
O O16 0.500000 0.500000 0.500000
#
# Coordination Sequence:
#
# PCOD8031626 Si02
#       7
#     2   2   2   2   2   2   2
#     4  11  22  45  65  93 134 180 223 273 342 401
#     4  11  23  41  65  97 133 171 223 281 330 395
#     4  11  24  40  71  98 128 176 229 281 340 398
#     4  11  26  43  69 100 140 178 223 286 340 400
#     4  11  25  45  68  98 142 178 227 277 341 410
#     4  11  24  42  69  97 133 185 219 272 347 405
#     4  12  23  40  65 100 130 166 226 281 331 396
#
# _framework density 21.263811
#
# number of rings (size 3 to 8) (size 9 to 14) (size 15 to 20)
#    0.000    0.857    1.429    7.286    8.000    0.000 
#    0.000    0.714    0.000    0.000    0.000    0.000 
#    0.000    0.000    0.000    0.000    0.000    0.000 
#
# Total GULP energy -173469.033304 kJ/mol
# GULP energy per Si atom -12390.645236 kJ/mol
# Density = 2.121541 g / cm^3
# Si number density = 21.263811 Si / 1000 Ang^3
#
#
#
# Elastic Constant Matrix: (Units=GPa)
#
#
# Indices 1 2 3 4 5 6 
#
# 1 123.2036 45.1747 35.7238 -3.7714 10.0753 -22.1384
# 2 45.1747 135.2861 34.8905 -11.4991 3.8965 -21.6805
# 3 35.7238 34.8905 99.1589 -6.5460 15.4250 -14.0129
# 4 -3.7714 -11.4991 -6.5460 28.5943 3.4437 -0.1425
# 5 10.0753 3.8965 15.4250 3.4437 36.4811 -7.5949
# 6 -22.1384 -21.6805 -14.0129 -0.1425 -7.5949 40.8884
#
#
#
# Elastic Compliance Matrix: (Units=1/GPa)
#
#
# Indices 1 2 3 4 5 6 
#
# 1 0.010304 -0.002273 -0.002281 0.000052 -0.000932 0.003419
# 2 -0.002273 0.009405 -0.001970 0.002945 0.000855 0.003250
# 3 -0.002281 -0.001970 0.012621 0.002340 -0.004462 0.001226
# 4 0.000052 0.002945 0.002340 0.037247 -0.004483 0.001689
# 5 -0.000932 0.000855 -0.004462 -0.004483 0.030744 0.004115
# 6 0.003419 0.003250 0.001226 0.001689 0.004115 0.029222
#
#
# Mechanical properties :
#
#
# Convention : Reuss Voigt Hill
#
# Bulk Modulus (GPa) = 51.85896 65.46961 58.66429
# Shear Modulus (GPa) = 33.55306 37.31671 35.43489
#
# Velocity S-wave (km/s) = 3.97664 4.19375 4.08664
# Velocity P-wave (km/s) = 6.74731 7.36926 7.06514
#
# Compressibility (1/GPa) = 0.01928307
#
# Stress axis : x y z
#
# Youngs Moduli (GPa) = 97.05360 106.32218 79.23104
#
# Poissons Ratio (x) = 0.24169 0.18070
# Poissons Ratio (y) = 0.22062 0.15606
# Poissons Ratio (z) = 0.22135 0.20942
#
# Static dielectric constant tensor:
#      x y z
#    x 4.096790 -0.101110 0.040560 
#    y -0.101110 3.456840 -0.117640 
#    z 0.040560 -0.117640 3.843870 
# 
# 
# High freq. dielectric constant tensor:
#      x y z
#    x 1.849030 -0.013530 0.000450 
#    y -0.013530 1.835640 -0.006310 
#    z 0.000450 -0.006310 1.835800 
# 
# From -- ./inp_files/188501.got.cif
#   From: 2010.06.25/outbox.cif.g09.slc.cpg/sg2_95_cif.got.tgz:188501.got - 2010.06.27 13:26:56.
