data_PCOD8031987
_publ_section_title
;
Structure prediction by ZEFSAII (Michael W. Deem and Ramdas Pophale) SiO2 
 PCOD8031987
Probable space group: P -1
;
_chemical_formula_sum "Si O2"
_cell_formula_units_Z 14
_cell_length_a 9.612809
_cell_length_b 28.259043
_cell_length_c 12.433831
_cell_angle_alpha 153.171945
_cell_angle_beta 144.566519
_cell_angle_gamma 28.455724
_cell_volume 719.118858
_symmetry_space_group_name_H-M "P -1"
_symmetry_group_IT_number 2
_symmetry_cell_setting 'triclinic'
loop_
_space_group_symop_operation_xyz
x,y,z
-x,-y,-z
loop_
_atom_site_type_symbol
_atom_site_label
_atom_site_fract_x
_atom_site_fract_y
_atom_site_fract_z
Si Si1 0.032501 0.387875 0.525053
Si Si2 0.361133 0.333411 0.070457
Si Si3 0.107092 0.707290 0.558168
Si Si4 0.813402 0.838674 0.301579
Si Si5 0.426578 0.629856 0.167057
Si Si6 0.194900 0.043878 0.258004
Si Si7 0.494158 0.572602 0.846631
O O1 0.354373 0.337024 0.577872
O O2 0.906244 0.526342 0.776533
O O3 0.060065 0.295571 0.449303
O O4 0.822310 0.399055 0.321276
O O5 0.634294 0.281643 0.217394
O O6 0.447599 0.342106 0.020436
O O7 0.262494 0.238914 0.824944
O O8 0.246574 0.578775 0.312973
O O9 0.871987 0.832444 0.596766
O O10 0.874200 0.920985 0.587041
O O11 0.093525 0.746661 0.217280
O O12 0.542934 0.930409 0.236105
O O13 0.500000 0.500000 0.000000
O O14 0.484994 0.615212 0.047487
O O15 0.000000 0.000000 0.000000
#
# Coordination Sequence:
#
# PCOD8031987 Si02
#       7
#     2   2   2   2   2   2   2
#     4   9  20  36  57  90 123 148 186 235 292 347
#     4   9  17  38  61  89 116 144 198 242 277 345
#     4   9  18  37  63  87 112 156 199 233 278 340
#     4  11  24  38  58  91 116 145 200 242 280 344
#     4  12  23  36  57  92 124 150 179 236 306 350
#     4  11  23  40  61  82 112 159 199 240 279 330
#     4   9  21  36  62  91 117 149 184 240 296 341
#
# _framework density 19.46827
#
# number of rings (size 3 to 8) (size 9 to 14) (size 15 to 20)
#    0.000    2.000    2.857    2.571    2.000    2.857 
#    0.000    0.714    0.000    2.571    0.000    0.000 
#    0.000    0.000    0.000    0.000    0.000    0.000 
#
# Total GULP energy -173587.369606 kJ/mol
# GULP energy per Si atom -12399.097829 kJ/mol
# Density = 1.942396 g / cm^3
# Si number density = 19.468270 Si / 1000 Ang^3
#
#
#
# Elastic Constant Matrix: (Units=GPa)
#
#
# Indices 1 2 3 4 5 6 
#
# 1 73.7256 46.5834 20.8372 -1.7428 9.7186 -9.6055
# 2 46.5834 141.9241 27.9557 6.2032 9.9686 -3.6595
# 3 20.8372 27.9557 64.2861 -9.9948 9.3780 -5.8765
# 4 -1.7428 6.2032 -9.9948 23.8321 -1.3588 2.4959
# 5 9.7186 9.9686 9.3780 -1.3588 27.6546 -2.2222
# 6 -9.6055 -3.6595 -5.8765 2.4959 -2.2222 32.8985
#
#
#
# Elastic Compliance Matrix: (Units=1/GPa)
#
#
# Indices 1 2 3 4 5 6 
#
# 1 0.018678 -0.005293 -0.002739 0.000977 -0.003352 0.004075
# 2 -0.005293 0.009604 -0.003052 -0.004134 -0.000831 -0.000765
# 3 -0.002739 -0.003052 0.019832 0.008521 -0.004125 0.001478
# 4 0.000977 -0.004134 0.008521 0.046933 0.000387 -0.002187
# 5 -0.003352 -0.000831 -0.004125 0.000387 0.039121 0.000805
# 6 0.004075 -0.000765 0.001478 -0.002187 0.000805 0.031986
#
#
# Mechanical properties :
#
#
# Convention : Reuss Voigt Hill
#
# Bulk Modulus (GPa) = 38.54202 52.29870 45.42036
# Shear Modulus (GPa) = 25.38444 29.18101 27.28273
#
# Velocity S-wave (km/s) = 3.61486 3.87576 3.74758
# Velocity P-wave (km/s) = 6.10436 6.85205 6.48899
#
# Compressibility (1/GPa) = 0.02594571
#
# Stress axis : x y z
#
# Youngs Moduli (GPa) = 53.53760 104.12291 50.42289
#
# Poissons Ratio (x) = 0.55117 0.13811
# Poissons Ratio (y) = 0.28340 0.15389
# Poissons Ratio (z) = 0.14664 0.31779
#
# Static dielectric constant tensor:
#      x y z
#    x 3.412270 0.008190 0.163290 
#    y 0.008190 3.752560 -0.123440 
#    z 0.163290 -0.123440 3.515530 
# 
# 
# High freq. dielectric constant tensor:
#      x y z
#    x 1.738370 0.007580 0.015120 
#    y 0.007580 1.768820 -0.019140 
#    z 0.015120 -0.019140 1.753400 
# 
# From -- ./inp_files/255727.got.cif
#   From: 2010.06.25/outbox.cif.g09.slc.cpg/sg2_128_cif.got.tgz:255727.got - 2010.06.27 13:26:56.
