data_PCOD8031234
_publ_section_title
;
Structure prediction by ZEFSAII (Michael W. Deem and Ramdas Pophale) SiO2 
 PCOD8031234
Probable space group: P -1
;
_chemical_formula_sum "Si O2"
_cell_formula_units_Z 16
_cell_length_a 9.220511
_cell_length_b 15.074187
_cell_length_c 14.265097
_cell_angle_alpha 151.611501
_cell_angle_beta 90.424350
_cell_angle_gamma 71.721520
_cell_volume 719.584123
_symmetry_space_group_name_H-M "P -1"
_symmetry_group_IT_number 2
_symmetry_cell_setting 'triclinic'
loop_
_space_group_symop_operation_xyz
x,y,z
-x,-y,-z
loop_
_atom_site_type_symbol
_atom_site_label
_atom_site_fract_x
_atom_site_fract_y
_atom_site_fract_z
Si Si1 0.776439 0.374100 0.095196
Si Si2 0.102420 0.510892 0.613725
Si Si3 0.649243 0.171192 0.495100
Si Si4 0.121938 0.670752 0.315069
Si Si5 0.199779 0.075515 0.310697
Si Si6 0.021751 0.270593 0.819532
Si Si7 0.699978 0.752220 0.801881
Si Si8 0.381669 0.164162 0.914689
O O1 0.821374 0.455678 0.262821
O O2 0.565232 0.594489 0.261191
O O3 0.797052 0.145675 0.919382
O O4 0.922199 0.302740 0.947334
O O5 0.234137 0.450445 0.466851
O O6 0.881522 0.742666 0.805858
O O7 0.121133 0.268727 0.404399
O O8 0.767927 0.261835 0.562549
O O9 0.651881 0.032621 0.274507
O O10 0.755451 0.971216 0.394093
O O11 0.078209 0.769625 0.300159
O O12 0.242467 0.380011 0.041638
O O13 0.924005 0.785597 0.469013
O O14 0.407307 0.971159 0.243197
O O15 0.000000 0.500000 0.000000
O O16 0.661400 0.707567 0.864512
O O17 0.500000 0.000000 0.000000
#
# Coordination Sequence:
#
# PCOD8031234 Si02
#       8
#     2   2   2   2   2   2   2   2
#     4  12  26  44  71 103 136 179 233 280 340 404
#     4  11  24  44  69 103 139 178 222 285 341 406
#     4  12  25  43  70  99 137 182 228 283 335 403
#     4  12  26  45  66 101 139 183 232 281 340 398
#     4  12  24  43  72  97 137 181 226 280 336 404
#     4  12  26  44  68  99 142 185 226 285 342 399
#     4  11  22  42  74 101 137 178 224 275 345 411
#     4  12  24  45  72  99 135 185 227 279 344 404
#
# _framework density 22.235066
#
# number of rings (size 3 to 8) (size 9 to 14) (size 15 to 20)
#    0.000    0.250    7.500    1.875    0.000    2.000 
#    0.000    4.375    0.000    0.000    0.000    0.000 
#    0.000    0.000    0.000    0.000    0.000    0.000 
#
# Total GULP energy -198237.810359 kJ/mol
# GULP energy per Si atom -12389.863147 kJ/mol
# Density = 2.218446 g / cm^3
# Si number density = 22.235066 Si / 1000 Ang^3
#
#
#
# Elastic Constant Matrix: (Units=GPa)
#
#
# Indices 1 2 3 4 5 6 
#
# 1 116.8145 39.6693 61.8219 -6.4958 -10.9004 -10.4913
# 2 39.6693 85.1701 32.3750 -6.5805 3.4400 -20.9689
# 3 61.8219 32.3750 101.1383 10.4300 -13.6667 -10.2107
# 4 -6.4958 -6.5805 10.4300 45.7191 -0.6293 -1.2005
# 5 -10.9004 3.4400 -13.6667 -0.6293 46.6840 15.9448
# 6 -10.4913 -20.9689 -10.2107 -1.2005 15.9448 33.4484
#
#
#
# Elastic Compliance Matrix: (Units=1/GPa)
#
#
# Indices 1 2 3 4 5 6 
#
# 1 0.014118 -0.003724 -0.007634 0.003210 0.001697 -0.000930
# 2 -0.003724 0.018760 -0.003786 0.003276 -0.007859 0.013301
# 3 -0.007634 -0.003786 0.016677 -0.005426 0.003896 -0.001729
# 4 0.003210 0.003276 -0.005426 0.024095 -0.001828 0.003141
# 5 0.001697 -0.007859 0.003896 -0.001828 0.029419 -0.017295
# 6 -0.000930 0.013301 -0.001729 0.003141 -0.017295 0.045773
#
#
# Mechanical properties :
#
#
# Convention : Reuss Voigt Hill
#
# Bulk Modulus (GPa) = 51.89785 63.42837 57.66311
# Shear Modulus (GPa) = 26.94659 36.45408 31.70033
#
# Velocity S-wave (km/s) = 3.48501 4.05345 3.77993
# Velocity P-wave (km/s) = 6.29165 7.10602 6.71120
#
# Compressibility (1/GPa) = 0.01926862
#
# Stress axis : x y z
#
# Youngs Moduli (GPa) = 70.82914 53.30518 59.96252
#
# Poissons Ratio (x) = 0.19849 0.45774
# Poissons Ratio (y) = 0.26374 0.22702
# Poissons Ratio (z) = 0.54069 0.20181
#
# Static dielectric constant tensor:
#      x y z
#    x 4.052350 -0.183310 -0.083960 
#    y -0.183310 4.243880 0.174970 
#    z -0.083960 0.174970 4.380230 
# 
# 
# High freq. dielectric constant tensor:
#      x y z
#    x 1.872570 -0.022990 -0.014860 
#    y -0.022990 1.869530 0.008090 
#    z -0.014860 0.008090 1.890380 
# 
# From -- ./inp_files/505794.got.cif
#   From: 2010.06.25/outbox.cif.g09.slc.cpg/sg2_253_cif.got.tgz:505794.got - 2010.06.27 13:26:56.
