data_PCOD8031576
_publ_section_title
;
Structure prediction by ZEFSAII (Michael W. Deem and Ramdas Pophale) SiO2 
 PCOD8031576
Probable space group: P -1
;
_chemical_formula_sum "Si O2"
_cell_formula_units_Z 16
_cell_length_a 11.244749
_cell_length_b 15.602998
_cell_length_c 8.571810
_cell_angle_alpha 46.705113
_cell_angle_beta 44.645487
_cell_angle_gamma 72.407679
_cell_volume 716.746146
_symmetry_space_group_name_H-M "P -1"
_symmetry_group_IT_number 2
_symmetry_cell_setting 'triclinic'
loop_
_space_group_symop_operation_xyz
x,y,z
-x,-y,-z
loop_
_atom_site_type_symbol
_atom_site_label
_atom_site_fract_x
_atom_site_fract_y
_atom_site_fract_z
Si Si1 0.785496 0.919953 0.182044
Si Si2 0.104223 0.988541 0.566594
Si Si3 0.267621 0.828309 0.096987
Si Si4 0.354564 0.203820 0.234239
Si Si5 0.545128 0.483986 0.658810
Si Si6 0.670015 0.131203 0.661136
Si Si7 0.543999 0.297949 0.371571
Si Si8 0.819250 0.410515 0.691698
O O1 0.786953 0.845620 0.430945
O O2 0.620549 0.833764 0.338365
O O3 0.975750 0.943888 0.891411
O O4 0.758397 0.048334 0.100658
O O5 0.197881 0.887444 0.571620
O O6 0.254534 0.129219 0.268322
O O7 0.000000 0.000000 0.500000
O O8 0.230705 0.830043 0.314121
O O9 0.130269 0.700133 0.303823
O O10 0.466502 0.829567 0.868251
O O11 0.390915 0.350655 0.008437
O O12 0.500000 0.500000 0.500000
O O13 0.523887 0.593446 0.645422
O O14 0.740464 0.478174 0.542524
O O15 0.641147 0.257999 0.474903
O O16 0.500000 0.000000 0.000000
O O17 0.663120 0.347602 0.044257
O O18 0.000000 0.500000 0.500000
#
# Coordination Sequence:
#
# PCOD8031576 Si02
#       8
#     2   2   2   2   2   2   2   2
#     4  12  24  41  71 106 143 180 237 308 369 434
#     4  12  25  42  66 111 144 182 236 305 373 433
#     4  11  22  44  73 102 144 188 242 289 377 432
#     4  11  24  44  68 100 145 188 239 297 361 442
#     4  11  26  48  76 102 142 202 248 294 368 448
#     4  12  23  43  73 104 146 187 236 303 372 445
#     4  12  24  46  72 102 140 194 243 295 369 440
#     4  11  27  49  73 108 146 193 250 307 356 434
#
# _framework density 22.323104000000001
#
# number of rings (size 3 to 8) (size 9 to 14) (size 15 to 20)
#    0.000    0.500    6.250    2.625    3.500    2.000 
#    0.000    1.250    0.000    0.000    0.000    0.000 
#    0.000    0.000    0.000    0.000    0.000    0.000 
#
# Total GULP energy -198278.156076 kJ/mol
# GULP energy per Si atom -12392.384755 kJ/mol
# Density = 2.227230 g / cm^3
# Si number density = 22.323104 Si / 1000 Ang^3
#
#
#
# Elastic Constant Matrix: (Units=GPa)
#
#
# Indices 1 2 3 4 5 6 
#
# 1 116.4713 39.8691 42.7104 -23.9281 2.8851 15.0593
# 2 39.8691 179.1556 64.9142 -22.7857 -4.3366 6.6922
# 3 42.7104 64.9142 97.1692 -5.4527 0.2937 -5.2338
# 4 -23.9281 -22.7857 -5.4527 37.4446 2.8914 -3.4174
# 5 2.8851 -4.3366 0.2937 2.8914 41.6653 -10.8581
# 6 15.0593 6.6922 -5.2338 -3.4174 -10.8581 42.0719
#
#
#
# Elastic Compliance Matrix: (Units=1/GPa)
#
#
# Indices 1 2 3 4 5 6 
#
# 1 0.012855 0.000269 -0.005709 0.007260 -0.002752 -0.005475
# 2 0.000269 0.008054 -0.005358 0.004130 0.000135 -0.001674
# 3 -0.005709 -0.005358 0.016408 -0.004169 0.001297 0.004933
# 4 0.007260 0.004130 -0.004169 0.033305 -0.002823 -0.001797
# 5 -0.002752 0.000135 0.001297 -0.002823 0.026401 0.007710
# 6 -0.005475 -0.001674 0.004933 -0.001797 0.007710 0.028452
#
#
# Mechanical properties :
#
#
# Convention : Reuss Voigt Hill
#
# Bulk Modulus (GPa) = 63.60851 76.42040 70.01445
# Shear Modulus (GPa) = 32.82742 40.58987 36.70865
#
# Velocity S-wave (km/s) = 3.83895 4.26877 4.05955
# Velocity P-wave (km/s) = 6.94308 7.65536 7.30790
#
# Compressibility (1/GPa) = 0.01572117
#
# Stress axis : x y z
#
# Youngs Moduli (GPa) = 77.79169 124.15958 60.94609
#
# Poissons Ratio (x) = -0.03342 0.34796
# Poissons Ratio (y) = -0.02094 0.32653
# Poissons Ratio (z) = 0.44414 0.66522
#
# Static dielectric constant tensor:
#      x y z
#    x 4.276850 0.191630 -0.000860 
#    y 0.191630 4.025710 -0.340050 
#    z -0.000860 -0.340050 4.005300 
# 
# 
# High freq. dielectric constant tensor:
#      x y z
#    x 1.891750 0.014320 0.007360 
#    y 0.014320 1.897520 -0.004630 
#    z 0.007360 -0.004630 1.862820 
# 
# From -- ./inp_files/271748.got.cif
#   From: 2010.06.25/outbox.cif.g09.slc.cpg/sg2_136_cif.got.tgz:271748.got - 2010.06.27 13:26:56.
