data_PCOD8031164
_publ_section_title
;
Structure prediction by ZEFSAII (Michael W. Deem and Ramdas Pophale) SiO2 
 PCOD8031164
Probable space group: P -1
;
_chemical_formula_sum "Si O2"
_cell_formula_units_Z 14
_cell_length_a 10.107930
_cell_length_b 13.908548
_cell_length_c 8.702606
_cell_angle_alpha 125.494665
_cell_angle_beta 57.980076
_cell_angle_gamma 146.396620
_cell_volume 548.330803
_symmetry_space_group_name_H-M "P -1"
_symmetry_group_IT_number 2
_symmetry_cell_setting 'triclinic'
loop_
_space_group_symop_operation_xyz
x,y,z
-x,-y,-z
loop_
_atom_site_type_symbol
_atom_site_label
_atom_site_fract_x
_atom_site_fract_y
_atom_site_fract_z
Si Si1 0.704714 0.770211 0.210124
Si Si2 0.012558 0.165803 0.364347
Si Si3 0.953790 0.214095 0.748768
Si Si4 0.701807 0.838192 0.613062
Si Si5 0.275346 0.544486 0.047119
Si Si6 0.967070 0.231679 0.134208
Si Si7 0.453909 0.851394 0.018448
O O1 0.606297 0.730111 0.409106
O O2 0.497230 0.619196 0.076092
O O3 0.911376 0.787814 0.084951
O O4 0.809838 0.953538 0.251318
O O5 0.239416 0.230817 0.364451
O O6 0.085209 0.275360 0.266988
O O7 0.919916 0.211873 0.584228
O O8 0.731428 0.150168 0.915253
O O9 0.935518 0.058734 0.638168
O O10 0.209420 0.417363 0.829043
O O11 0.502964 0.803983 0.790551
O O12 0.047788 0.407437 0.181919
O O13 0.320417 0.698693 0.091758
O O14 0.684449 0.044408 0.135246
#
# Coordination Sequence:
#
# PCOD8031164 Si02
#       7
#     2   2   2   2   2   2   2
#     4  11  22  42  70 106 137 172 234 287 333 406
#     4  11  22  44  73 100 137 181 230 279 343 404
#     4  11  25  46  70 103 138 182 231 278 341 415
#     4  11  23  44  75 101 133 186 228 280 343 406
#     4  12  25  44  68 104 141 178 231 283 335 411
#     4  12  24  43  73 104 137 183 224 285 347 396
#     4  12  25  46  72  99 142 184 225 279 346 408
#
# _framework density 25.532032999999998
#
# number of rings (size 3 to 8) (size 9 to 14) (size 15 to 20)
#    0.000    0.571    4.286    5.143    0.000    1.714 
#    0.000    4.286    0.000    0.000    0.000    0.000 
#    0.000    0.000    0.000    0.000    0.000    0.000 
#
# Total GULP energy -173467.154142 kJ/mol
# GULP energy per Si atom -12390.511010 kJ/mol
# Density = 2.547392 g / cm^3
# Si number density = 25.532033 Si / 1000 Ang^3
#
#
#
# Elastic Constant Matrix: (Units=GPa)
#
#
# Indices 1 2 3 4 5 6 
#
# 1 68.4857 38.6450 23.5927 4.3724 2.9579 0.4426
# 2 38.6450 134.5914 14.1885 1.8654 11.3818 -8.2710
# 3 23.5927 14.1885 101.3919 -18.5177 7.3411 7.8287
# 4 4.3724 1.8654 -18.5177 28.9846 -5.4852 22.3659
# 5 2.9579 11.3818 7.3411 -5.4852 42.0360 -10.0044
# 6 0.4426 -8.2710 7.8287 22.3659 -10.0044 52.0720
#
#
#
# Elastic Compliance Matrix: (Units=1/GPa)
#
#
# Indices 1 2 3 4 5 6 
#
# 1 0.019983 -0.004736 -0.006195 -0.009940 0.000712 0.004416
# 2 -0.004736 0.009187 -0.000671 -0.002415 -0.001807 0.002290
# 3 -0.006195 -0.000671 0.015983 0.019429 -0.002315 -0.011247
# 4 -0.009940 -0.002415 0.019429 0.076322 -0.000680 -0.036133
# 5 0.000712 -0.001807 -0.002315 -0.000680 0.025807 0.005305
# 6 0.004416 0.002290 -0.011247 -0.036133 0.005305 0.037760
#
#
# Mechanical properties :
#
#
# Convention : Reuss Voigt Hill
#
# Bulk Modulus (GPa) = 45.55789 50.81352 48.18570
# Shear Modulus (GPa) = 23.19517 39.82135 31.50826
#
# Velocity S-wave (km/s) = 3.01736 3.95354 3.51674
# Velocity P-wave (km/s) = 5.47918 6.38637 5.95009
#
# Compressibility (1/GPa) = 0.02195010
#
# Stress axis : x y z
#
# Youngs Moduli (GPa) = 50.04147 108.84435 62.56826
#
# Poissons Ratio (x) = 0.51546 0.38762
# Poissons Ratio (y) = 0.23699 0.04197
# Poissons Ratio (z) = 0.31001 0.07300
#
# Static dielectric constant tensor:
#      x y z
#    x 4.386230 -0.219090 0.217450 
#    y -0.219090 4.722630 -0.001880 
#    z 0.217450 -0.001880 4.802140 
# 
# 
# High freq. dielectric constant tensor:
#      x y z
#    x 2.015250 -0.012920 0.030550 
#    y -0.012920 2.016230 0.000520 
#    z 0.030550 0.000520 2.022860 
# 
# From -- ./inp_files/270832.got.cif
#   From: 2010.06.25/outbox.cif.g09.slc.cpg/sg2_136_cif.got.tgz:270832.got - 2010.06.27 13:26:56.
