data_PCOD8031754
_publ_section_title
;
Structure prediction by ZEFSAII (Michael W. Deem and Ramdas Pophale) SiO2 
 PCOD8031754
Probable space group: P -1
;
_chemical_formula_sum "Si O2"
_cell_formula_units_Z 16
_cell_length_a 6.214905
_cell_length_b 7.826235
_cell_length_c 19.927297
_cell_angle_alpha 65.768527
_cell_angle_beta 49.079505
_cell_angle_gamma 72.527439
_cell_volume 667.162486
_symmetry_space_group_name_H-M "P -1"
_symmetry_group_IT_number 2
_symmetry_cell_setting 'triclinic'
loop_
_space_group_symop_operation_xyz
x,y,z
-x,-y,-z
loop_
_atom_site_type_symbol
_atom_site_label
_atom_site_fract_x
_atom_site_fract_y
_atom_site_fract_z
Si Si1 0.167446 0.738793 0.374082
Si Si2 0.287020 0.504475 0.897903
Si Si3 0.221651 0.897166 0.596293
Si Si4 0.814910 0.411609 0.457035
Si Si5 0.169000 0.786244 0.769026
Si Si6 0.486453 0.203023 0.104392
Si Si7 0.354519 0.805876 0.069037
Si Si8 0.715859 0.911318 0.201113
O O1 0.138321 0.686932 0.465700
O O2 0.494683 0.748297 0.283183
O O3 0.026870 0.583497 0.380448
O O4 0.021655 0.946019 0.361340
O O5 0.221774 0.578722 0.824100
O O6 0.507796 0.638363 0.866335
O O7 0.455680 0.303787 0.895426
O O8 0.000000 0.500000 0.000000
O O9 0.119386 0.747351 0.586869
O O10 0.288092 0.781016 0.669782
O O11 0.500000 0.000000 0.500000
O O12 0.500000 0.500000 0.500000
O O13 0.837341 0.849282 0.832292
O O14 0.334450 0.939686 0.752366
O O15 0.666660 0.017219 0.123017
O O16 0.624183 0.284672 0.995108
O O17 0.029302 0.815283 0.156484
O O18 0.500000 0.000000 0.000000
#
# Coordination Sequence:
#
# PCOD8031754 Si02
#       8
#     2   2   2   2   2   2   2   2
#     4  11  25  48  77 108 155 194 246 320 378 449
#     4  11  24  45  72 100 148 193 244 317 370 444
#     4  12  24  49  82 103 149 208 243 304 393 446
#     4  11  25  49  74 115 148 191 255 313 377 463
#     4  11  24  46  72 108 144 195 256 304 374 461
#     4  11  22  46  69 102 144 191 250 301 372 449
#     4  12  23  45  73 103 143 199 247 303 381 439
#     4  11  24  44  72 107 146 195 251 310 369 451
#
# _framework density 23.982165999999999
#
# number of rings (size 3 to 8) (size 9 to 14) (size 15 to 20)
#    0.000    0.750    5.000    2.625    0.000    0.000 
#    2.250    2.500    0.000    0.000    0.000    0.000 
#    0.000    0.000    0.000    0.000    0.000    0.000 
#
# Total GULP energy -198443.230740 kJ/mol
# GULP energy per Si atom -12402.701921 kJ/mol
# Density = 2.392758 g / cm^3
# Si number density = 23.982166 Si / 1000 Ang^3
#
#
#
# Elastic Constant Matrix: (Units=GPa)
#
#
# Indices 1 2 3 4 5 6 
#
# 1 129.0538 62.3348 65.4378 -13.6579 -4.0328 -5.2444
# 2 62.3348 128.4254 52.4527 -14.7764 -3.9903 -5.1021
# 3 65.4378 52.4527 148.6889 -10.4907 -4.4511 -3.9983
# 4 -13.6579 -14.7764 -10.4907 31.2538 -2.6347 1.9033
# 5 -4.0328 -3.9903 -4.4511 -2.6347 59.3704 -2.9330
# 6 -5.2444 -5.1021 -3.9983 1.9033 -2.9330 58.2080
#
#
#
# Elastic Compliance Matrix: (Units=1/GPa)
#
#
# Indices 1 2 3 4 5 6 
#
# 1 0.011732 -0.003960 -0.003599 0.002053 0.000372 0.000414
# 2 -0.003960 0.010815 -0.001852 0.002776 0.000462 0.000396
# 3 -0.003599 -0.001852 0.009019 0.000600 0.000340 0.000130
# 4 0.002053 0.002776 0.000600 0.034600 0.001878 -0.000567
# 5 0.000372 0.000462 0.000340 0.001878 0.017053 0.000895
# 6 0.000414 0.000396 0.000130 -0.000567 0.000895 0.017324
#
#
# Mechanical properties :
#
#
# Convention : Reuss Voigt Hill
#
# Bulk Modulus (GPa) = 78.47449 85.17983 81.82716
# Shear Modulus (GPa) = 40.44882 44.82928 42.63905
#
# Velocity S-wave (km/s) = 4.11130 4.32820 4.22115
# Velocity P-wave (km/s) = 7.43842 7.78286 7.61259
#
# Compressibility (1/GPa) = 0.01274300
#
# Stress axis : x y z
#
# Youngs Moduli (GPa) = 85.23451 92.46687 110.88076
#
# Poissons Ratio (x) = 0.36621 0.39908
# Poissons Ratio (y) = 0.33756 0.20533
# Poissons Ratio (z) = 0.30677 0.17123
#
# Static dielectric constant tensor:
#      x y z
#    x 4.805300 0.082740 0.303980 
#    y 0.082740 4.344180 -0.142400 
#    z 0.303980 -0.142400 4.464110 
# 
# 
# High freq. dielectric constant tensor:
#      x y z
#    x 1.969650 -0.000320 0.001350 
#    y -0.000320 1.946440 -0.014200 
#    z 0.001350 -0.014200 1.948580 
# 
# From -- ./inp_files/582314.got.cif
#   From: 2010.06.25/outbox.cif.g09.slc.cpg/sg2_292_cif.got.tgz:582314.got - 2010.06.27 13:26:56.
