data_PCOD8031510
_publ_section_title
;
Structure prediction by ZEFSAII (Michael W. Deem and Ramdas Pophale) SiO2 
 PCOD8031510
Probable space group: P -1
;
_chemical_formula_sum "Si O2"
_cell_formula_units_Z 14
_cell_length_a 10.902312
_cell_length_b 11.297271
_cell_length_c 6.951607
_cell_angle_alpha 63.841324
_cell_angle_beta 72.654012
_cell_angle_gamma 49.820906
_cell_volume 587.047638
_symmetry_space_group_name_H-M "P -1"
_symmetry_group_IT_number 2
_symmetry_cell_setting 'triclinic'
loop_
_space_group_symop_operation_xyz
x,y,z
-x,-y,-z
loop_
_atom_site_type_symbol
_atom_site_label
_atom_site_fract_x
_atom_site_fract_y
_atom_site_fract_z
Si Si1 0.895703 0.654553 0.236009
Si Si2 0.649176 0.207846 0.788728
Si Si3 0.231573 0.354450 0.322045
Si Si4 0.387852 0.181860 0.009844
Si Si5 0.112122 0.057342 0.875127
Si Si6 0.828518 0.115873 0.389112
Si Si7 0.314036 0.604721 0.051705
O O1 0.758216 0.702392 0.423960
O O2 0.974574 0.749087 0.189730
O O3 0.039659 0.461003 0.286346
O O4 0.795725 0.715491 0.044923
O O5 0.687163 0.196846 0.553319
O O6 0.462993 0.279750 0.850082
O O7 0.708064 0.302851 0.803010
O O8 0.746255 0.027868 0.971977
O O9 0.355013 0.194362 0.246609
O O10 0.274811 0.479238 0.192946
O O11 0.500000 0.000000 0.000000
O O12 0.182340 0.003758 0.663195
O O13 0.000000 0.000000 0.000000
O O14 0.796503 0.265017 0.162843
O O15 0.000000 0.000000 0.500000
O O16 0.500000 0.500000 0.000000
#
# Coordination Sequence:
#
# PCOD8031510 Si02
#       7
#     2   2   2   2   2   2   2
#     4  11  26  46  72 101 142 194 238 289 364 432
#     4  11  24  43  68 108 140 183 240 296 360 416
#     4  11  27  49  68 102 146 194 237 293 363 429
#     4  12  26  45  71 103 148 186 237 295 357 439
#     4  11  22  44  70 103 144 177 238 302 352 415
#     4  11  25  41  72 108 137 186 241 299 357 426
#     4  11  25  47  71 102 150 184 235 305 354 424
#
# _framework density 23.84815
#
# number of rings (size 3 to 8) (size 9 to 14) (size 15 to 20)
#    0.000    0.857    4.286    2.143    4.000    2.286 
#    2.571    0.000    0.000    0.000    0.000    0.000 
#    0.000    0.000    0.000    0.000    0.000    0.000 
#
# Total GULP energy -173452.448568 kJ/mol
# GULP energy per Si atom -12389.460612 kJ/mol
# Density = 2.379387 g / cm^3
# Si number density = 23.848150 Si / 1000 Ang^3
#
#
#
# Elastic Constant Matrix: (Units=GPa)
#
#
# Indices 1 2 3 4 5 6 
#
# 1 82.5580 5.9270 26.2314 -1.9688 -4.3187 2.0187
# 2 5.9270 91.4022 27.3367 19.6176 0.0936 -0.8457
# 3 26.2314 27.3367 116.9522 30.1823 -9.1761 16.1707
# 4 -1.9688 19.6176 30.1823 50.4816 -7.9430 -1.2745
# 5 -4.3187 0.0936 -9.1761 -7.9430 33.0683 3.8069
# 6 2.0187 -0.8457 16.1707 -1.2745 3.8069 24.2995
#
#
#
# Elastic Compliance Matrix: (Units=1/GPa)
#
#
# Indices 1 2 3 4 5 6 
#
# 1 0.013476 -0.000403 -0.003851 0.003225 0.001307 0.001394
# 2 -0.000403 0.012476 -0.002299 -0.003730 -0.001863 0.002094
# 3 -0.003851 -0.002299 0.013257 -0.007014 0.002574 -0.009354
# 4 0.003225 -0.003730 -0.007014 0.026372 0.004246 0.004988
# 5 0.001307 -0.001863 0.002574 0.004246 0.032936 -0.006824
# 6 0.001394 0.002094 -0.009354 0.004988 -0.006824 0.048666
#
#
# Mechanical properties :
#
#
# Convention : Reuss Voigt Hill
#
# Bulk Modulus (GPa) = 38.30837 45.54474 41.92655
# Shear Modulus (GPa) = 29.58749 36.99769 33.29259
#
# Velocity S-wave (km/s) = 3.52612 3.94304 3.74039
# Velocity P-wave (km/s) = 5.71633 6.31422 6.02270
#
# Compressibility (1/GPa) = 0.02610396
#
# Stress axis : x y z
#
# Youngs Moduli (GPa) = 74.20367 80.15294 75.43152
#
# Poissons Ratio (x) = 0.03229 0.29049
# Poissons Ratio (y) = 0.02989 0.17341
# Poissons Ratio (z) = 0.28576 0.18427
#
# Static dielectric constant tensor:
#      x y z
#    x 4.012940 -0.090260 0.265680 
#    y -0.090260 4.618850 0.281780 
#    z 0.265680 0.281780 4.504250 
# 
# 
# High freq. dielectric constant tensor:
#      x y z
#    x 1.945270 -0.007890 -0.001220 
#    y -0.007890 1.948510 0.019100 
#    z -0.001220 0.019100 1.943240 
# 
# From -- ./inp_files/68944.got.cif
#   From: 2010.06.25/outbox.cif.g09.slc.cpg/sg2_35_cif.got.tgz:68944.got - 2010.06.27 13:26:56.
