data_PCOD8031119
_publ_section_title
;
Structure prediction by ZEFSAII (Michael W. Deem and Ramdas Pophale) SiO2 
 PCOD8031119
Probable space group: P -1
;
_chemical_formula_sum "Si O2"
_cell_formula_units_Z 16
_cell_length_a 12.483519
_cell_length_b 8.141781
_cell_length_c 10.563561
_cell_angle_alpha 116.037059
_cell_angle_beta 127.207334
_cell_angle_gamma 63.543053
_cell_volume 743.606003
_symmetry_space_group_name_H-M "P -1"
_symmetry_group_IT_number 2
_symmetry_cell_setting 'triclinic'
loop_
_space_group_symop_operation_xyz
x,y,z
-x,-y,-z
loop_
_atom_site_type_symbol
_atom_site_label
_atom_site_fract_x
_atom_site_fract_y
_atom_site_fract_z
Si Si1 0.889703 0.127049 0.813754
Si Si2 0.149253 0.530757 0.901883
Si Si3 0.487723 0.998080 0.140520
Si Si4 0.138365 0.263811 0.253607
Si Si5 0.632379 0.240384 0.503002
Si Si6 0.176362 0.191162 0.986097
Si Si7 0.615968 0.597499 0.454700
Si Si8 0.616814 0.580629 0.165046
O O1 0.782292 0.124021 0.620649
O O2 0.041303 0.105207 0.849799
O O3 0.892993 0.941887 0.836654
O O4 0.841264 0.310697 0.932270
O O5 0.187445 0.322783 0.919889
O O6 0.246411 0.522849 0.847960
O O7 0.997136 0.578707 0.744588
O O8 0.557464 0.150814 0.308132
O O9 0.574675 0.805663 0.199482
O O10 0.322197 0.034200 0.058680
O O11 0.500000 0.000000 0.000000
O O12 0.274934 0.272162 0.429950
O O13 0.156561 0.320498 0.140380
O O14 0.659887 0.431999 0.532337
O O15 0.534714 0.275260 0.569982
O O16 0.622751 0.514203 0.291680
O O17 0.500000 0.500000 0.000000
#
# Coordination Sequence:
#
# PCOD8031119 Si02
#       8
#     2   2   2   2   2   2   2   2
#     4  11  24  41  71 100 129 172 225 269 323 383
#     4  11  23  42  65  96 137 172 217 267 328 388
#     4  12  25  44  68 100 133 169 220 266 331 388
#     4  11  23  41  69 100 128 172 222 274 321 384
#     4  11  24  44  69  97 128 173 223 269 319 393
#     4  11  22  42  68  96 131 176 214 271 316 391
#     4  11  24  43  69  95 131 172 221 269 327 386
#     4  12  27  40  65  97 135 175 212 271 332 387
#
# _framework density 21.516773000000001
#
# number of rings (size 3 to 8) (size 9 to 14) (size 15 to 20)
#    0.000    0.750    2.500    6.750    7.000    1.500 
#    0.000    0.625    0.000    0.000    0.000    0.000 
#    0.000    0.000    0.000    0.000    0.000    0.000 
#
# Total GULP energy -198329.227440 kJ/mol
# GULP energy per Si atom -12395.576715 kJ/mol
# Density = 2.146780 g / cm^3
# Si number density = 21.516773 Si / 1000 Ang^3
#
#
#
# Elastic Constant Matrix: (Units=GPa)
#
#
# Indices 1 2 3 4 5 6 
#
# 1 152.9586 18.2697 61.5160 -7.7437 5.0459 -15.3771
# 2 18.2697 57.2985 3.5933 -2.4212 8.3557 -7.0692
# 3 61.5160 3.5933 118.9536 -6.3624 13.3019 -2.4217
# 4 -7.7437 -2.4212 -6.3624 33.3621 -0.0369 8.0267
# 5 5.0459 8.3557 13.3019 -0.0369 39.3224 -8.3460
# 6 -15.3771 -7.0692 -2.4217 8.0267 -8.3460 33.1114
#
#
#
# Elastic Compliance Matrix: (Units=1/GPa)
#
#
# Indices 1 2 3 4 5 6 
#
# 1 0.009045 -0.002373 -0.004717 0.000126 0.001736 0.003756
# 2 -0.002373 0.018941 0.001137 0.000566 -0.003689 0.001958
# 3 -0.004717 0.001137 0.011301 0.001753 -0.004000 -0.002554
# 4 0.000126 0.000566 0.001753 0.032335 -0.002427 -0.008143
# 5 0.001736 -0.003689 -0.004000 -0.002427 0.028959 0.007614
# 6 0.003756 0.001958 -0.002554 -0.008143 0.007614 0.036070
#
#
# Mechanical properties :
#
#
# Convention : Reuss Voigt Hill
#
# Bulk Modulus (GPa) = 36.51958 55.10765 45.81361
# Shear Modulus (GPa) = 31.70956 37.54797 34.62876
#
# Velocity S-wave (km/s) = 3.84306 4.18192 4.01607
# Velocity P-wave (km/s) = 6.05819 6.99893 6.54548
#
# Compressibility (1/GPa) = 0.02738257
#
# Stress axis : x y z
#
# Youngs Moduli (GPa) = 110.56142 52.79522 88.49153
#
# Poissons Ratio (x) = 0.12526 0.41739
# Poissons Ratio (y) = 0.26232 -0.10066
# Poissons Ratio (z) = 0.52149 -0.06005
#
# Static dielectric constant tensor:
#      x y z
#    x 4.046890 -0.076190 0.274270 
#    y -0.076190 3.580930 -0.090910 
#    z 0.274270 -0.090910 3.849610 
# 
# 
# High freq. dielectric constant tensor:
#      x y z
#    x 1.854270 0.005690 0.016420 
#    y 0.005690 1.842630 -0.011970 
#    z 0.016420 -0.011970 1.844210 
# 
# From -- ./inp_files/418286.got.cif
#   From: 2010.06.25/outbox.cif.g09.slc.cpg/sg2_210_cif.got.tgz:418286.got - 2010.06.27 13:26:56.
