data_PCOD8031186
_publ_section_title
;
Structure prediction by ZEFSAII (Michael W. Deem and Ramdas Pophale) SiO2 
 PCOD8031186
Probable space group: P -1
;
_chemical_formula_sum "Si O2"
_cell_formula_units_Z 12
_cell_length_a 13.308470
_cell_length_b 9.932771
_cell_length_c 5.317965
_cell_angle_alpha 82.172269
_cell_angle_beta 49.460089
_cell_angle_gamma 81.020759
_cell_volume 527.120571
_symmetry_space_group_name_H-M "P -1"
_symmetry_group_IT_number 2
_symmetry_cell_setting 'triclinic'
loop_
_space_group_symop_operation_xyz
x,y,z
-x,-y,-z
loop_
_atom_site_type_symbol
_atom_site_label
_atom_site_fract_x
_atom_site_fract_y
_atom_site_fract_z
Si Si1 0.018047 0.880751 0.701647
Si Si2 0.260370 0.049972 0.755429
Si Si3 0.483915 0.589075 0.254088
Si Si4 0.297357 0.202420 0.180141
Si Si5 0.772999 0.226022 0.272855
Si Si6 0.013265 0.340621 0.565537
O O1 0.164110 0.874824 0.584599
O O2 0.004692 0.731009 0.651775
O O3 0.000000 0.000000 0.500000
O O4 0.894894 0.914680 0.082133
O O5 0.341050 0.108282 0.376036
O O6 0.289805 0.884148 0.780754
O O7 0.292380 0.114801 0.954988
O O8 0.500000 0.500000 0.500000
O O9 0.336246 0.663107 0.471180
O O10 0.500000 0.500000 0.000000
O O11 0.590677 0.696763 0.064421
O O12 0.159121 0.291161 0.446257
O O13 0.895274 0.301806 0.948512
O O14 0.000000 0.500000 0.500000
#
# Coordination Sequence:
#
# PCOD8031186 Si02
#       6
#     2   2   2   2   2   2
#     4  11  22  42  71 109 144 183 240 305 368 425
#     4  11  23  43  74 107 142 181 242 302 368 420
#     4  12  30  51  72 100 151 199 243 295 367 438
#     4  11  25  46  69 105 147 184 237 309 351 430
#     4  12  25  43  76 103 142 194 242 298 369 437
#     4  11  24  40  69 104 144 188 246 296 362 434
#
# _framework density 22.765191000000002
#
# number of rings (size 3 to 8) (size 9 to 14) (size 15 to 20)
#    0.000    0.667    3.333    4.500    4.667    3.333 
#    0.000    0.000    0.000    0.000    0.000    0.000 
#    0.000    0.000    0.000    0.000    0.000    0.000 
#
# Total GULP energy -148744.779374 kJ/mol
# GULP energy per Si atom -12395.398281 kJ/mol
# Density = 2.271338 g / cm^3
# Si number density = 22.765191 Si / 1000 Ang^3
#
#
#
# Elastic Constant Matrix: (Units=GPa)
#
#
# Indices 1 2 3 4 5 6 
#
# 1 83.7290 44.3401 51.4287 3.1209 6.5492 -6.9225
# 2 44.3401 161.2317 62.1643 1.8177 8.0344 0.9144
# 3 51.4287 62.1643 144.0302 -6.2616 -1.5918 -9.5268
# 4 3.1209 1.8177 -6.2616 54.6357 -1.5307 -3.1034
# 5 6.5492 8.0344 -1.5918 -1.5307 44.6464 -6.1272
# 6 -6.9225 0.9144 -9.5268 -3.1034 -6.1272 24.6009
#
#
#
# Elastic Compliance Matrix: (Units=1/GPa)
#
#
# Indices 1 2 3 4 5 6 
#
# 1 0.016636 -0.002663 -0.004715 -0.001322 -0.001855 0.002325
# 2 -0.002663 0.008097 -0.002758 -0.000623 -0.001540 -0.002581
# 3 -0.004715 -0.002758 0.010146 0.001778 0.002084 0.003448
# 4 -0.001322 -0.000623 0.001778 0.018818 0.001436 0.003071
# 5 -0.001855 -0.001540 0.002084 0.001436 0.023962 0.006491
# 6 0.002325 -0.002581 0.003448 0.003071 0.006491 0.044739
#
#
# Mechanical properties :
#
#
# Convention : Reuss Voigt Hill
#
# Bulk Modulus (GPa) = 68.46821 78.31747 73.39284
# Shear Modulus (GPa) = 33.88943 40.18044 37.03494
#
# Velocity S-wave (km/s) = 3.86249 4.20574 4.03777
# Velocity P-wave (km/s) = 7.07339 7.61980 7.35167
#
# Compressibility (1/GPa) = 0.01460532
#
# Stress axis : x y z
#
# Youngs Moduli (GPa) = 60.10932 123.50903 98.56511
#
# Poissons Ratio (x) = 0.32891 0.46475
# Poissons Ratio (y) = 0.16007 0.27189
# Poissons Ratio (z) = 0.28342 0.34070
#
# Static dielectric constant tensor:
#      x y z
#    x 4.307000 0.159180 -0.393680 
#    y 0.159180 4.337700 -0.048660 
#    z -0.393680 -0.048660 4.293910 
# 
# 
# High freq. dielectric constant tensor:
#      x y z
#    x 1.889170 0.010950 0.003880 
#    y 0.010950 1.915240 -0.002790 
#    z 0.003880 -0.002790 1.908420 
# 
# From -- ./inp_files/40060.got.cif
#   From: 2010.06.25/outbox.cif.g09.slc.cpg/sg2_21_cif.got.tgz:40060.got - 2010.06.27 13:26:56.
