data_PCOD8031716
_publ_section_title
;
Structure prediction by ZEFSAII (Michael W. Deem and Ramdas Pophale) SiO2 
 PCOD8031716
Probable space group: P -1
;
_chemical_formula_sum "Si O2"
_cell_formula_units_Z 16
_cell_length_a 9.457278
_cell_length_b 19.651185
_cell_length_c 19.407837
_cell_angle_alpha 155.931941
_cell_angle_beta 27.994300
_cell_angle_gamma 144.737977
_cell_volume 689.448058
_symmetry_space_group_name_H-M "P -1"
_symmetry_group_IT_number 2
_symmetry_cell_setting 'triclinic'
loop_
_space_group_symop_operation_xyz
x,y,z
-x,-y,-z
loop_
_atom_site_type_symbol
_atom_site_label
_atom_site_fract_x
_atom_site_fract_y
_atom_site_fract_z
Si Si1 0.471089 0.598530 0.405889
Si Si2 0.535446 0.876979 0.808498
Si Si3 0.031351 0.348672 0.642590
Si Si4 0.382463 0.944542 0.204470
Si Si5 0.846092 0.693782 0.801449
Si Si6 0.506692 0.090190 0.652880
Si Si7 0.760886 0.832753 0.405132
Si Si8 0.947924 0.664725 0.880738
O O1 0.719341 0.592398 0.353533
O O2 0.314928 0.415037 0.290982
O O3 0.610323 0.650001 0.318210
O O4 0.204084 0.721983 0.656326
O O5 0.842806 0.778386 0.586016
O O6 0.290550 0.723461 0.772808
O O7 0.533059 0.991396 0.847879
O O8 0.500000 0.000000 0.000000
O O9 0.753366 0.243673 0.699885
O O10 0.912455 0.510110 0.805150
O O11 0.089656 0.811262 0.209117
O O12 0.244138 0.092650 0.445400
O O13 0.682033 0.868562 0.036235
O O14 0.802938 0.612041 0.820440
O O15 0.500000 0.000000 0.500000
O O16 0.550423 0.944613 0.554020
O O17 0.190408 0.171910 0.875810
#
# Coordination Sequence:
#
# PCOD8031716 Si02
#       8
#     2   2   2   2   2   2   2   2
#     4  11  26  45  72 103 141 187 231 296 355 422
#     4  12  26  44  73 106 138 190 238 291 358 422
#     4  12  25  50  69 101 149 189 236 289 358 432
#     4  11  23  45  72  99 138 181 240 295 346 420
#     4  11  26  44  70 109 139 180 240 292 357 418
#     4  12  27  47  71 107 142 188 241 296 355 423
#     4  11  22  45  73  96 139 184 238 292 349 414
#     4  12  27  45  71 104 144 192 232 296 360 420
#
# _framework density 23.206970999999999
#
# number of rings (size 3 to 8) (size 9 to 14) (size 15 to 20)
#    0.000    0.500    5.000    2.250    5.250    2.500 
#    0.000    0.000    0.000    0.000    0.000    0.000 
#    0.000    0.000    0.000    0.000    0.000    0.000 
#
# Total GULP energy -198342.992961 kJ/mol
# GULP energy per Si atom -12396.437060 kJ/mol
# Density = 2.315415 g / cm^3
# Si number density = 23.206971 Si / 1000 Ang^3
#
#
#
# Elastic Constant Matrix: (Units=GPa)
#
#
# Indices 1 2 3 4 5 6 
#
# 1 110.1565 25.6293 15.3008 10.6021 1.1746 -18.6776
# 2 25.6293 76.7800 -11.1364 -9.6179 -2.7665 -15.0485
# 3 15.3008 -11.1364 55.4066 -1.5307 -9.6979 -11.6562
# 4 10.6021 -9.6179 -1.5307 25.2687 1.0222 -1.6222
# 5 1.1746 -2.7665 -9.6979 1.0222 42.1181 2.7076
# 6 -18.6776 -15.0485 -11.6562 -1.6222 2.7076 38.5382
#
#
#
# Elastic Compliance Matrix: (Units=1/GPa)
#
#
# Indices 1 2 3 4 5 6 
#
# 1 0.011947 -0.005096 -0.004317 -0.006999 -0.001641 0.002315
# 2 -0.005096 0.018552 0.007349 0.010016 0.002343 0.007254
# 3 -0.004317 0.007349 0.023462 0.006312 0.005353 0.007763
# 4 -0.006999 0.010016 0.006312 0.046949 0.000888 0.004342
# 5 -0.001641 0.002343 0.005353 0.000888 0.025153 0.000009
# 6 0.002315 0.007254 0.007763 0.004342 0.000009 0.032433
#
#
# Mechanical properties :
#
#
# Convention : Reuss Voigt Hill
#
# Bulk Modulus (GPa) = 20.06686 33.54782 26.80734
# Shear Modulus (GPa) = 27.89627 35.35495 31.62561
#
# Velocity S-wave (km/s) = 3.47084 3.90739 3.69557
# Velocity P-wave (km/s) = 4.97273 5.90290 5.45767
#
# Compressibility (1/GPa) = 0.04983341
#
# Stress axis : x y z
#
# Youngs Moduli (GPa) = 83.70316 53.90216 42.62150
#
# Poissons Ratio (x) = 0.27470 0.18400
# Poissons Ratio (y) = 0.42657 -0.31323
# Poissons Ratio (z) = 0.36135 -0.39614
#
# Static dielectric constant tensor:
#      x y z
#    x 5.008960 -0.047190 0.247810 
#    y -0.047190 4.479540 -0.350450 
#    z 0.247810 -0.350450 4.333990 
# 
# 
# High freq. dielectric constant tensor:
#      x y z
#    x 1.911980 -0.004800 -0.004420 
#    y -0.004800 1.926240 -0.013660 
#    z -0.004420 -0.013660 1.920190 
# 
# From -- ./inp_files/562045.got.cif
#   From: 2010.06.25/outbox.cif.g09.slc.cpg/sg2_282_cif.got.tgz:562045.got - 2010.06.27 13:26:56.
