data_PCOD8031750
_publ_section_title
;
Structure prediction by ZEFSAII (Michael W. Deem and Ramdas Pophale) SiO2 
 PCOD8031750
Probable space group: P -1
;
_chemical_formula_sum "Si O2"
_cell_formula_units_Z 14
_cell_length_a 8.983342
_cell_length_b 11.263191
_cell_length_c 9.586713
_cell_angle_alpha 96.134608
_cell_angle_beta 44.058119
_cell_angle_gamma 102.095272
_cell_volume 658.183357
_symmetry_space_group_name_H-M "P -1"
_symmetry_group_IT_number 2
_symmetry_cell_setting 'triclinic'
loop_
_space_group_symop_operation_xyz
x,y,z
-x,-y,-z
loop_
_atom_site_type_symbol
_atom_site_label
_atom_site_fract_x
_atom_site_fract_y
_atom_site_fract_z
Si Si1 0.022955 0.368670 0.423690
Si Si2 0.429363 0.275273 0.195309
Si Si3 0.789289 0.980994 0.730692
Si Si4 0.598959 0.205265 0.796503
Si Si5 0.665851 0.463105 0.272250
Si Si6 0.063836 0.357928 0.086510
Si Si7 0.865029 0.898834 0.979130
O O1 0.202510 0.319143 0.386778
O O2 0.135931 0.379933 0.199026
O O3 0.000000 0.500000 0.500000
O O4 0.789965 0.277286 0.579633
O O5 0.385094 0.130188 0.231288
O O6 0.589449 0.346605 0.210608
O O7 0.527436 0.295745 0.973354
O O8 0.677073 0.098130 0.818689
O O9 0.872986 0.947125 0.821716
O O10 0.000000 0.000000 0.500000
O O11 0.395804 0.149541 0.823561
O O12 0.500000 0.500000 0.500000
O O13 0.860734 0.424743 0.220042
O O14 0.743213 0.582112 0.139920
O O15 0.010982 0.212337 0.086837
O O16 0.000000 0.000000 0.000000
#
# Coordination Sequence:
#
# PCOD8031750 Si02
#       7
#     2   2   2   2   2   2   2
#     4  12  24  42  70 100 132 173 227 278 331 401
#     4  11  23  42  68  99 126 176 226 272 333 402
#     4  11  22  46  68 100 133 173 228 273 337 409
#     4  11  24  44  72  98 137 177 219 282 340 403
#     4  11  27  44  67  94 136 183 220 277 338 400
#     4  11  25  46  62  99 138 165 231 275 330 407
#     4  11  25  43  69  99 134 176 222 283 335 397
#
# _framework density 21.270668000000001
#
# number of rings (size 3 to 8) (size 9 to 14) (size 15 to 20)
#    0.000    0.857    4.286    3.429    8.000    3.429 
#    0.000    1.429    0.000    0.000    0.000    0.000 
#    0.000    0.000    0.000    0.000    0.000    0.000 
#
# Total GULP energy -173475.676720 kJ/mol
# GULP energy per Si atom -12391.119766 kJ/mol
# Density = 2.122225 g / cm^3
# Si number density = 21.270668 Si / 1000 Ang^3
#
#
#
# Elastic Constant Matrix: (Units=GPa)
#
#
# Indices 1 2 3 4 5 6 
#
# 1 47.6496 37.0963 23.7957 -10.5155 1.6218 6.1663
# 2 37.0963 142.9753 53.3859 5.6511 12.7429 -3.1374
# 3 23.7957 53.3859 115.5844 -1.2891 -7.2391 -8.8146
# 4 -10.5155 5.6511 -1.2891 33.7700 0.2207 6.1748
# 5 1.6218 12.7429 -7.2391 0.2207 31.9153 7.8271
# 6 6.1663 -3.1374 -8.8146 6.1748 7.8271 35.1537
#
#
#
# Elastic Compliance Matrix: (Units=1/GPa)
#
#
# Indices 1 2 3 4 5 6 
#
# 1 0.033629 -0.008527 -0.003432 0.013700 0.003445 -0.010694
# 2 -0.008527 0.011380 -0.003633 -0.005363 -0.005840 0.003843
# 3 -0.003432 -0.003633 0.011443 -0.000491 0.003629 0.002425
# 4 0.013700 -0.005363 -0.000491 0.036605 0.003590 -0.010234
# 5 0.003445 -0.005840 0.003629 0.003590 0.036488 -0.008970
# 6 -0.010694 0.003843 0.002425 -0.010234 -0.008970 0.035068
#
#
# Mechanical properties :
#
#
# Convention : Reuss Voigt Hill
#
# Bulk Modulus (GPa) = 39.57596 59.41836 49.49716
# Shear Modulus (GPa) = 24.48339 32.96321 28.72330
#
# Velocity S-wave (km/s) = 3.39638 3.94090 3.67873
# Velocity P-wave (km/s) = 5.83325 6.97873 6.43154
#
# Compressibility (1/GPa) = 0.02526786
#
# Stress axis : x y z
#
# Youngs Moduli (GPa) = 29.73615 87.87291 87.38934
#
# Poissons Ratio (x) = 0.74931 0.29990
# Poissons Ratio (y) = 0.25357 0.31750
# Poissons Ratio (z) = 0.10205 0.31926
#
# Static dielectric constant tensor:
#      x y z
#    x 3.961210 -0.229460 -0.230050 
#    y -0.229460 4.173280 -0.026240 
#    z -0.230050 -0.026240 3.990800 
# 
# 
# High freq. dielectric constant tensor:
#      x y z
#    x 1.826820 -0.011330 -0.015790 
#    y -0.011330 1.849150 0.000630 
#    z -0.015790 0.000630 1.841000 
# 
# From -- ./inp_files/188198.got.cif
#   From: 2010.06.25/outbox.cif.g09.slc.cpg/sg2_95_cif.got.tgz:188198.got - 2010.06.27 13:26:56.
