data_PCOD8031441
_publ_section_title
;
Structure prediction by ZEFSAII (Michael W. Deem and Ramdas Pophale) SiO2 
 PCOD8031441
Probable space group: P -1
;
_chemical_formula_sum "Si O2"
_cell_formula_units_Z 16
_cell_length_a 14.682937
_cell_length_b 8.257755
_cell_length_c 12.561581
_cell_angle_alpha 86.508319
_cell_angle_beta 100.752373
_cell_angle_gamma 149.896215
_cell_volume 734.735310
_symmetry_space_group_name_H-M "P -1"
_symmetry_group_IT_number 2
_symmetry_cell_setting 'triclinic'
loop_
_space_group_symop_operation_xyz
x,y,z
-x,-y,-z
loop_
_atom_site_type_symbol
_atom_site_label
_atom_site_fract_x
_atom_site_fract_y
_atom_site_fract_z
Si Si1 0.173680 0.537893 0.769373
Si Si2 0.238359 0.245603 0.290925
Si Si3 0.544707 0.257193 0.502923
Si Si4 0.208465 0.359766 0.057778
Si Si5 0.408410 0.434366 0.681137
Si Si6 0.818940 0.314032 0.011548
Si Si7 0.421120 0.621764 0.890291
Si Si8 0.204526 0.828653 0.578773
O O1 0.343600 0.675549 0.828374
O O2 0.237649 0.732386 0.671578
O O3 0.156313 0.639360 0.857793
O O4 0.974351 0.142649 0.725409
O O5 0.286837 0.440632 0.390847
O O6 0.267794 0.392586 0.184958
O O7 0.387110 0.326117 0.313385
O O8 0.605968 0.419631 0.394475
O O9 0.500000 0.000000 0.500000
O O10 0.352336 0.048949 0.506285
O O11 0.224223 0.576040 0.050320
O O12 0.328912 0.447507 0.991789
O O13 0.000000 0.000000 0.000000
O O14 0.378202 0.421838 0.799989
O O15 0.236125 0.051371 0.631325
O O16 0.641995 0.943098 0.947709
O O17 0.000000 0.500000 0.000000
O O18 0.000000 0.500000 0.500000
#
# Coordination Sequence:
#
# PCOD8031441 Si02
#       8
#     2   2   2   2   2   2   2   2
#     4  11  22  44  64  98 132 181 219 280 331 390
#     4  11  23  44  69  94 139 175 221 279 331 397
#     4  11  25  44  68  97 129 177 221 277 338 394
#     4  11  23  44  66  99 135 178 220 273 336 390
#     4  11  25  43  66 101 130 175 225 274 337 398
#     4  11  25  42  65  98 137 178 224 270 330 406
#     4  11  25  41  69  97 139 175 225 270 333 406
#     4  11  24  43  68  94 131 172 227 279 334 392
#
# _framework density 21.77655
#
# number of rings (size 3 to 8) (size 9 to 14) (size 15 to 20)
#    0.000    1.000    2.500    6.000    8.750    2.500 
#    0.000    2.500    0.000    0.000    0.000    0.000 
#    0.000    0.000    0.000    0.000    0.000    0.000 
#
# Total GULP energy -198379.798165 kJ/mol
# GULP energy per Si atom -12398.737385 kJ/mol
# Density = 2.172699 g / cm^3
# Si number density = 21.776550 Si / 1000 Ang^3
#
#
#
# Elastic Constant Matrix: (Units=GPa)
#
#
# Indices 1 2 3 4 5 6 
#
# 1 75.9064 31.6805 30.8540 12.8409 -17.2865 1.5593
# 2 31.6805 122.2043 48.3614 19.8344 -4.0976 6.5720
# 3 30.8540 48.3614 114.1345 12.1459 -5.3251 -2.6911
# 4 12.8409 19.8344 12.1459 49.4238 -8.5194 7.2155
# 5 -17.2865 -4.0976 -5.3251 -8.5194 43.3619 0.3509
# 6 1.5593 6.5720 -2.6911 7.2155 0.3509 40.1740
#
#
#
# Elastic Compliance Matrix: (Units=1/GPa)
#
#
# Indices 1 2 3 4 5 6 
#
# 1 0.017183 -0.002798 -0.003023 -0.001553 0.005911 -0.000184
# 2 -0.002798 0.010821 -0.003624 -0.002702 -0.001057 -0.001410
# 3 -0.003023 -0.003624 0.011223 -0.000812 -0.000342 0.001611
# 4 -0.001553 -0.002702 -0.000812 0.023084 0.003591 -0.003730
# 5 0.005911 -0.001057 -0.000342 0.003591 0.025990 -0.000951
# 6 -0.000184 -0.001410 0.001611 -0.003730 -0.000951 0.025916
#
#
# Mechanical properties :
#
#
# Convention : Reuss Voigt Hill
#
# Bulk Modulus (GPa) = 49.17011 59.33746 54.25379
# Shear Modulus (GPa) = 35.74343 40.01521 37.87932
#
# Velocity S-wave (km/s) = 4.05578 4.29130 4.17520
# Velocity P-wave (km/s) = 6.67539 7.20147 6.94342
#
# Compressibility (1/GPa) = 0.02033756
#
# Stress axis : x y z
#
# Youngs Moduli (GPa) = 58.19604 92.40924 89.10462
#
# Poissons Ratio (x) = 0.25858 0.26935
# Poissons Ratio (y) = 0.16285 0.32291
# Poissons Ratio (z) = 0.17592 0.33488
#
# Static dielectric constant tensor:
#      x y z
#    x 3.817390 0.002850 -0.120330 
#    y 0.002850 3.980110 0.024890 
#    z -0.120330 0.024890 4.310480 
# 
# 
# High freq. dielectric constant tensor:
#      x y z
#    x 1.847150 -0.001630 -0.000810 
#    y -0.001630 1.864630 0.004270 
#    z -0.000810 0.004270 1.875040 
# 
# From -- ./inp_files/447526.got.cif
#   From: 2010.06.25/outbox.cif.g09.slc.cpg/sg2_224_cif.got.tgz:447526.got - 2010.06.27 13:26:56.
