data_PCOD8031291
_publ_section_title
;
Structure prediction by ZEFSAII (Michael W. Deem and Ramdas Pophale) SiO2 
 PCOD8031291
Probable space group: P -1
;
_chemical_formula_sum "Si O2"
_cell_formula_units_Z 10
_cell_length_a 14.766321
_cell_length_b 11.823177
_cell_length_c 11.995524
_cell_angle_alpha 133.777281
_cell_angle_beta 150.199982
_cell_angle_gamma 28.840931
_cell_volume 481.261770
_symmetry_space_group_name_H-M "P -1"
_symmetry_group_IT_number 2
_symmetry_cell_setting 'triclinic'
loop_
_space_group_symop_operation_xyz
x,y,z
-x,-y,-z
loop_
_atom_site_type_symbol
_atom_site_label
_atom_site_fract_x
_atom_site_fract_y
_atom_site_fract_z
Si Si1 0.797452 0.500211 0.645596
Si Si2 0.668041 0.677005 0.166014
Si Si3 0.593123 0.839354 0.852321
Si Si4 0.670584 0.244449 0.327986
Si Si5 0.304597 0.264358 0.521802
O O1 0.680308 0.721573 0.743519
O O2 0.635876 0.446785 0.469543
O O3 0.728574 0.576904 0.495464
O O4 0.137327 0.263087 0.865813
O O5 0.565013 0.749590 0.234499
O O6 0.992397 0.403649 0.314657
O O7 0.635394 0.871739 0.209198
O O8 0.474066 0.681233 0.896507
O O9 0.468565 0.777231 0.745374
O O10 0.000000 0.000000 0.500000
O O11 0.500000 0.000000 0.500000
#
# Coordination Sequence:
#
# PCOD8031291 Si02
#       5
#     2   2   2   2   2
#     4  11  23  41  70  95 133 175 217 276 322 387
#     4  11  23  42  71  95 131 177 216 269 330 391
#     4  11  22  43  68  97 131 174 221 268 331 384
#     4  12  23  39  67 104 130 163 225 276 323 387
#     4  11  23  44  68  93 133 180 218 260 333 393
#
# _framework density 20.778713
#
# number of rings (size 3 to 8) (size 9 to 14) (size 15 to 20)
#    0.000    0.800    6.000    2.400    0.000    0.800 
#    3.600    1.000    0.000    0.000    0.000    0.000 
#    0.000    0.000    0.000    0.000    0.000    0.000 
#
# Total GULP energy -124012.562274 kJ/mol
# GULP energy per Si atom -12401.256227 kJ/mol
# Density = 2.073142 g / cm^3
# Si number density = 20.778713 Si / 1000 Ang^3
#
#
#
# Elastic Constant Matrix: (Units=GPa)
#
#
# Indices 1 2 3 4 5 6 
#
# 1 114.5002 25.4955 50.0975 10.4569 -12.1525 1.5915
# 2 25.4955 95.8651 35.5390 -4.1417 -2.0440 -3.9382
# 3 50.0975 35.5390 116.9743 5.0440 -4.0065 6.9935
# 4 10.4569 -4.1417 5.0440 29.2860 2.3811 10.7411
# 5 -12.1525 -2.0440 -4.0065 2.3811 35.4498 1.3030
# 6 1.5915 -3.9382 6.9935 10.7411 1.3030 33.1811
#
#
#
# Elastic Compliance Matrix: (Units=1/GPa)
#
#
# Indices 1 2 3 4 5 6 
#
# 1 0.011763 -0.001581 -0.004324 -0.004522 0.003702 0.001478
# 2 -0.001581 0.012203 -0.003233 0.002344 -0.000415 0.001463
# 3 -0.004324 -0.003233 0.011527 0.000086 -0.000275 -0.002623
# 4 -0.004522 0.002344 0.000086 0.041020 -0.003695 -0.012656
# 5 0.003702 -0.000415 -0.000275 -0.003695 0.029676 -0.000138
# 6 0.001478 0.001463 -0.002623 -0.012656 -0.000138 0.034896
#
#
# Mechanical properties :
#
#
# Convention : Reuss Voigt Hill
#
# Bulk Modulus (GPa) = 58.08500 61.06706 59.57603
# Shear Modulus (GPa) = 30.28480 33.99721 32.14100
#
# Velocity S-wave (km/s) = 3.82185 4.04933 3.93723
# Velocity P-wave (km/s) = 6.89131 7.16351 7.02873
#
# Compressibility (1/GPa) = 0.01721615
#
# Stress axis : x y z
#
# Youngs Moduli (GPa) = 85.01306 81.94746 86.75495
#
# Poissons Ratio (x) = 0.12957 0.37513
# Poissons Ratio (y) = 0.13441 0.28049
# Poissons Ratio (z) = 0.36760 0.26495
#
# Static dielectric constant tensor:
#      x y z
#    x 6.107790 -0.583720 0.509590 
#    y -0.583720 4.002690 -0.091580 
#    z 0.509590 -0.091580 4.223250 
# 
# 
# High freq. dielectric constant tensor:
#      x y z
#    x 1.814810 -0.011300 -0.020060 
#    y -0.011300 1.818460 -0.001380 
#    z -0.020060 -0.001380 1.811880 
# 
# From -- ./inp_files/16295.got.cif
#   From: 2010.06.25/outbox.cif.g09.slc.cpg/sg2_9_cif.got.tgz:16295.got - 2010.06.27 13:26:56.
