data_PCOD8031661
_publ_section_title
;
Structure prediction by ZEFSAII (Michael W. Deem and Ramdas Pophale) SiO2 
 PCOD8031661
Probable space group: P -1
;
_chemical_formula_sum "Si O2"
_cell_formula_units_Z 16
_cell_length_a 15.473284
_cell_length_b 9.357811
_cell_length_c 18.241696
_cell_angle_alpha 38.378985
_cell_angle_beta 141.954162
_cell_angle_gamma 150.432620
_cell_volume 759.530073
_symmetry_space_group_name_H-M "P -1"
_symmetry_group_IT_number 2
_symmetry_cell_setting 'triclinic'
loop_
_space_group_symop_operation_xyz
x,y,z
-x,-y,-z
loop_
_atom_site_type_symbol
_atom_site_label
_atom_site_fract_x
_atom_site_fract_y
_atom_site_fract_z
Si Si1 0.766496 0.230833 0.769112
Si Si2 0.179694 0.492416 0.959631
Si Si3 0.439932 0.448134 0.065072
Si Si4 0.710991 0.216768 0.579734
Si Si5 0.332769 0.144723 0.816336
Si Si6 0.033019 0.114653 0.558702
Si Si7 0.697905 0.690970 0.762732
Si Si8 0.690965 0.627884 0.612620
O O1 0.730989 0.330278 0.629986
O O2 0.729961 0.395403 0.735728
O O3 0.972090 0.345478 0.862576
O O4 0.612995 0.867440 0.821479
O O5 0.322393 0.858274 0.917917
O O6 0.264451 0.425915 0.976995
O O7 0.174099 0.352221 0.090353
O O8 0.617637 0.725336 0.119712
O O9 0.500000 0.500000 0.000000
O O10 0.847586 0.521614 0.499587
O O11 0.500000 0.000000 0.500000
O O12 0.776258 0.023959 0.704546
O O13 0.132847 0.020858 0.708483
O O14 0.484196 0.416542 0.753206
O O15 0.000000 0.000000 0.500000
O O16 0.838796 0.939415 0.540588
O O17 0.707131 0.706825 0.676029
O O18 0.500000 0.500000 0.500000
#
# Coordination Sequence:
#
# PCOD8031661 Si02
#       8
#     2   2   2   2   2   2   2   2
#     4  12  24  45  68  98 136 184 223 285 341 414
#     4  11  24  45  70  99 137 183 229 271 352 415
#     4  11  25  42  67 104 138 172 223 283 343 409
#     4  12  22  44  72  94 135 185 228 279 344 410
#     4  11  22  45  69  98 138 183 226 276 345 419
#     4  12  23  44  71 100 131 184 235 280 342 408
#     4  11  24  41  69  99 138 180 221 286 343 407
#     4  12  27  44  67 103 137 178 237 286 340 401
#
# _framework density 21.065657999999999
#
# number of rings (size 3 to 8) (size 9 to 14) (size 15 to 20)
#    0.000    0.500    6.250    3.375    3.500    2.000 
#    0.000    0.000    0.000    0.000    0.000    0.000 
#    0.000    0.000    0.000    0.000    0.000    0.000 
#
# Total GULP energy -198354.024098 kJ/mol
# GULP energy per Si atom -12397.126506 kJ/mol
# Density = 2.101771 g / cm^3
# Si number density = 21.065658 Si / 1000 Ang^3
#
#
#
# Elastic Constant Matrix: (Units=GPa)
#
#
# Indices 1 2 3 4 5 6 
#
# 1 108.2347 38.7127 43.4841 2.3793 -27.7700 6.0866
# 2 38.7127 118.1786 47.8360 -13.8980 -1.5948 5.5242
# 3 43.4841 47.8360 112.7348 3.1717 -3.4595 9.2717
# 4 2.3793 -13.8980 3.1717 61.7791 -4.7345 7.6432
# 5 -27.7700 -1.5948 -3.4595 -4.7345 40.3154 2.7857
# 6 6.0866 5.5242 9.2717 7.6432 2.7857 28.4770
#
#
#
# Elastic Compliance Matrix: (Units=1/GPa)
#
#
# Indices 1 2 3 4 5 6 
#
# 1 0.014434 -0.002941 -0.003842 -0.000008 0.009648 -0.002205
# 2 -0.002941 0.011283 -0.003699 0.002847 -0.001495 -0.000974
# 3 -0.003842 -0.003699 0.012057 -0.001205 -0.001769 -0.001890
# 4 -0.000008 0.002847 -0.001205 0.017714 0.002440 -0.005151
# 5 0.009648 -0.001495 -0.001769 0.002440 0.031869 -0.004968
# 6 -0.002205 -0.000974 -0.001890 -0.005151 -0.004968 0.038260
#
#
# Mechanical properties :
#
#
# Convention : Reuss Voigt Hill
#
# Bulk Modulus (GPa) = 59.48843 66.57930 63.03386
# Shear Modulus (GPa) = 32.85499 40.05533 36.45516
#
# Velocity S-wave (km/s) = 3.95352 4.36529 4.16450
# Velocity P-wave (km/s) = 7.01008 7.55526 7.28777
#
# Compressibility (1/GPa) = 0.01680999
#
# Stress axis : x y z
#
# Youngs Moduli (GPa) = 69.27992 88.63227 82.93938
#
# Poissons Ratio (x) = 0.26065 0.31866
# Poissons Ratio (y) = 0.20374 0.30679
# Poissons Ratio (z) = 0.26618 0.32785
#
# Static dielectric constant tensor:
#      x y z
#    x 3.766200 -0.091210 0.017880 
#    y -0.091210 3.990350 -0.196550 
#    z 0.017880 -0.196550 3.980340 
# 
# 
# High freq. dielectric constant tensor:
#      x y z
#    x 1.809630 -0.009260 -0.000870 
#    y -0.009260 1.847140 -0.005190 
#    z -0.000870 -0.005190 1.839480 
# 
# From -- ./inp_files/184806.got.cif
#   From: 2010.06.25/outbox.cif.g09.slc.cpg/sg2_93_cif.got.tgz:184806.got - 2010.06.27 13:26:56.
