data_PCOD8031258
_publ_section_title
;
Structure prediction by ZEFSAII (Michael W. Deem and Ramdas Pophale) SiO2 
 PCOD8031258
Probable space group: P -1
;
_chemical_formula_sum "Si O2"
_cell_formula_units_Z 14
_cell_length_a 8.025865
_cell_length_b 9.306855
_cell_length_c 11.119239
_cell_angle_alpha 58.454513
_cell_angle_beta 58.707036
_cell_angle_gamma 77.616484
_cell_volume 602.975522
_symmetry_space_group_name_H-M "P -1"
_symmetry_group_IT_number 2
_symmetry_cell_setting 'triclinic'
loop_
_space_group_symop_operation_xyz
x,y,z
-x,-y,-z
loop_
_atom_site_type_symbol
_atom_site_label
_atom_site_fract_x
_atom_site_fract_y
_atom_site_fract_z
Si Si1 0.507786 0.325644 0.134837
Si Si2 0.002345 0.681373 0.350141
Si Si3 0.293550 0.244529 0.779061
Si Si4 0.657686 0.091714 0.988147
Si Si5 0.793773 0.466302 0.156654
Si Si6 0.258526 0.138064 0.475022
Si Si7 0.384794 0.800407 0.501928
O O1 0.676423 0.344257 0.161392
O O2 0.300252 0.283076 0.295624
O O3 0.500000 0.500000 0.000000
O O4 0.542572 0.171999 0.103059
O O5 0.213907 0.754084 0.191764
O O6 0.000000 0.500000 0.500000
O O7 0.853464 0.676036 0.295095
O O8 0.944594 0.825349 0.402737
O O9 0.296167 0.358087 0.850493
O O10 0.516746 0.242022 0.645199
O O11 0.219131 0.053916 0.933524
O O12 0.500000 0.000000 0.000000
O O13 0.772173 0.355262 0.335811
O O14 0.000000 0.500000 0.000000
O O15 0.429148 0.157724 0.501124
O O16 0.252788 0.959800 0.485803
#
# Coordination Sequence:
#
# PCOD8031258 Si02
#       7
#     2   2   2   2   2   2   2
#     4  11  22  43  65  92 136 178 219 275 343 405
#     4  11  25  44  71 102 142 183 230 284 348 412
#     4  11  23  44  70 101 135 185 229 284 340 413
#     4  12  26  44  70 105 141 179 232 285 348 413
#     4  11  24  37  65 101 134 170 226 279 338 407
#     4   9  19  38  65  92 124 174 222 273 332 401
#     4   9  19  38  64  94 127 171 223 272 339 403
#
# _framework density 23.21819
#
# number of rings (size 3 to 8) (size 9 to 14) (size 15 to 20)
#    0.000    1.429    1.429    3.429    4.000    3.429 
#    0.000    0.714    0.000    0.000    0.000    0.000 
#    0.000    0.000    0.000    0.000    0.000    0.000 
#
# Total GULP energy -173433.340581 kJ/mol
# GULP energy per Si atom -12388.095756 kJ/mol
# Density = 2.316534 g / cm^3
# Si number density = 23.218190 Si / 1000 Ang^3
#
#
#
# Elastic Constant Matrix: (Units=GPa)
#
#
# Indices 1 2 3 4 5 6 
#
# 1 49.1867 20.1671 16.1017 0.3729 8.0629 3.8565
# 2 20.1671 142.5620 36.9045 16.0234 9.7960 6.5419
# 3 16.1017 36.9045 145.2452 -3.1359 -7.9633 -2.0440
# 4 0.3729 16.0234 -3.1359 59.1708 -9.3905 9.3376
# 5 8.0629 9.7960 -7.9633 -9.3905 33.3182 -3.7665
# 6 3.8565 6.5419 -2.0440 9.3376 -3.7665 31.8384
#
#
#
# Elastic Compliance Matrix: (Units=1/GPa)
#
#
# Indices 1 2 3 4 5 6 
#
# 1 0.023211 -0.002080 -0.002421 -0.000157 -0.005990 -0.003202
# 2 -0.002080 0.008476 -0.002187 -0.002747 -0.003425 -0.001229
# 3 -0.002421 -0.002187 0.007959 0.001411 0.003673 0.001274
# 4 -0.000157 -0.002747 0.001411 0.019373 0.006159 -0.004279
# 5 -0.005990 -0.003425 0.003673 0.006159 0.035543 0.004063
# 6 -0.003202 -0.001229 0.001274 -0.004279 0.004063 0.033867
#
#
# Mechanical properties :
#
#
# Convention : Reuss Voigt Hill
#
# Bulk Modulus (GPa) = 38.07084 53.70451 45.88767
# Shear Modulus (GPa) = 33.20911 42.45351 37.83131
#
# Velocity S-wave (km/s) = 3.78604 4.28069 4.04094
# Velocity P-wave (km/s) = 5.96194 6.90021 6.44817
#
# Compressibility (1/GPa) = 0.02626682
#
# Stress axis : x y z
#
# Youngs Moduli (GPa) = 43.08392 117.98687 125.64616
#
# Poissons Ratio (x) = 0.24547 0.30423
# Poissons Ratio (y) = 0.08964 0.27482
# Poissons Ratio (z) = 0.10432 0.25806
#
# Static dielectric constant tensor:
#      x y z
#    x 3.850280 -0.422000 0.354300 
#    y -0.422000 5.429140 -0.756080 
#    z 0.354300 -0.756080 5.132040 
# 
# 
# High freq. dielectric constant tensor:
#      x y z
#    x 1.872360 0.004750 0.009990 
#    y 0.004750 1.937280 0.002720 
#    z 0.009990 0.002720 1.943340 
# 
# From -- ./inp_files/381195.got.cif
#   From: 2010.06.25/outbox.cif.g09.slc.cpg/sg2_191_cif.got.tgz:381195.got - 2010.06.27 13:26:56.
