data_PCOD8031153
_publ_section_title
;
Structure prediction by ZEFSAII (Michael W. Deem and Ramdas Pophale) SiO2 
 PCOD8031153
Probable space group: P -1
;
_chemical_formula_sum "Si O2"
_cell_formula_units_Z 16
_cell_length_a 8.744424
_cell_length_b 18.535021
_cell_length_c 12.398779
_cell_angle_alpha 131.164784
_cell_angle_beta 39.958487
_cell_angle_gamma 99.818856
_cell_volume 702.486253
_symmetry_space_group_name_H-M "P -1"
_symmetry_group_IT_number 2
_symmetry_cell_setting 'triclinic'
loop_
_space_group_symop_operation_xyz
x,y,z
-x,-y,-z
loop_
_atom_site_type_symbol
_atom_site_label
_atom_site_fract_x
_atom_site_fract_y
_atom_site_fract_z
Si Si1 0.714998 0.288224 0.348566
Si Si2 0.695080 0.964163 0.106197
Si Si3 0.794047 0.033041 0.745721
Si Si4 0.367026 0.577092 0.856619
Si Si5 0.148303 0.840861 0.555384
Si Si6 0.168803 0.629136 0.256847
Si Si7 0.344000 0.245083 0.652995
Si Si8 0.452696 0.314193 0.293081
O O1 0.615218 0.419151 0.579476
O O2 0.475152 0.274646 0.514242
O O3 0.663644 0.305319 0.264916
O O4 0.098626 0.159986 0.043903
O O5 0.481336 0.965495 0.136638
O O6 0.463535 0.102462 0.429916
O O7 0.958161 0.940927 0.860194
O O8 0.638465 0.168303 0.014951
O O9 0.000000 0.000000 0.500000
O O10 0.061467 0.918583 0.570953
O O11 0.565849 0.608844 0.723627
O O12 0.225523 0.644405 0.116889
O O13 0.050785 0.639459 0.015158
O O14 0.060430 0.753223 0.504126
O O15 0.530507 0.751300 0.294312
O O16 0.905801 0.616805 0.401401
O O17 0.500000 0.500000 0.000000
#
# Coordination Sequence:
#
# PCOD8031153 Si02
#       8
#     2   2   2   2   2   2   2   2
#     4  11  24  45  70 101 142 182 231 292 348 411
#     4  11  22  42  70 101 133 181 236 282 346 418
#     4  12  25  43  67 103 144 180 229 294 351 413
#     4  12  27  47  71 105 141 185 236 287 347 420
#     4  11  23  41  69 100 135 181 231 286 349 411
#     4  12  26  46  71 101 142 188 233 284 349 418
#     4  11  22  42  74 102 135 179 237 287 345 412
#     4  12  26  46  72 101 143 185 230 290 348 412
#
# _framework density 22.776246
#
# number of rings (size 3 to 8) (size 9 to 14) (size 15 to 20)
#    0.000    0.500    2.500    7.875    1.750    1.500 
#    2.250    2.500    0.000    0.000    0.000    0.000 
#    0.000    0.000    0.000    0.000    0.000    0.000 
#
# Total GULP energy -198425.756595 kJ/mol
# GULP energy per Si atom -12401.609787 kJ/mol
# Density = 2.272441 g / cm^3
# Si number density = 22.776246 Si / 1000 Ang^3
#
#
#
# Elastic Constant Matrix: (Units=GPa)
#
#
# Indices 1 2 3 4 5 6 
#
# 1 110.1286 31.9498 23.8250 -3.0718 -7.6942 -18.0097
# 2 31.9498 119.0610 45.7016 0.7909 -7.7193 -15.3830
# 3 23.8250 45.7016 51.2369 5.8590 -0.5722 -10.9467
# 4 -3.0718 0.7909 5.8590 39.5594 -5.0442 9.9852
# 5 -7.6942 -7.7193 -0.5722 -5.0442 30.6588 12.0681
# 6 -18.0097 -15.3830 -10.9467 9.9852 12.0681 36.4843
#
#
#
# Elastic Compliance Matrix: (Units=1/GPa)
#
#
# Indices 1 2 3 4 5 6 
#
# 1 0.010768 -0.001088 -0.003409 0.000697 0.001202 0.003245
# 2 -0.001088 0.013312 -0.011501 0.001714 0.003094 0.000132
# 3 -0.003409 -0.011501 0.034033 -0.008222 -0.007821 0.008517
# 4 0.000697 0.001714 -0.008222 0.031349 0.010967 -0.013608
# 5 0.001202 0.003094 -0.007821 0.010967 0.042210 -0.017413
# 6 0.003245 0.000132 0.008517 -0.013608 -0.017413 0.041106
#
#
# Mechanical properties :
#
#
# Convention : Reuss Voigt Hill
#
# Bulk Modulus (GPa) = 38.29023 53.70880 45.99951
# Shear Modulus (GPa) = 23.42124 33.27047 28.34586
#
# Velocity S-wave (km/s) = 3.21022 3.82613 3.53163
# Velocity P-wave (km/s) = 5.53070 6.56896 6.07206
#
# Compressibility (1/GPa) = 0.02611633
#
# Stress axis : x y z
#
# Youngs Moduli (GPa) = 92.87072 75.11972 29.38285
#
# Poissons Ratio (x) = 0.08175 0.10017
# Poissons Ratio (y) = 0.10107 0.33793
# Poissons Ratio (z) = 0.31661 0.86395
#
# Static dielectric constant tensor:
#      x y z
#    x 3.608810 -0.177000 1.010550 
#    y -0.177000 4.069220 0.371610 
#    z 1.010550 0.371610 2.936900 
# 
# 
# High freq. dielectric constant tensor:
#      x y z
#    x 1.914650 -0.007000 -0.000050 
#    y -0.007000 1.893150 0.013030 
#    z -0.000050 0.013030 1.896780 
# 
# From -- ./inp_files/190782.got.cif
#   From: 2010.06.25/outbox.cif.g09.slc.cpg/sg2_96_cif.got.tgz:190782.got - 2010.06.27 13:26:56.
