data_PCOD8031889
_publ_section_title
;
Structure prediction by ZEFSAII (Michael W. Deem and Ramdas Pophale) SiO2 
 PCOD8031889
Probable space group: P -1
;
_chemical_formula_sum "Si O2"
_cell_formula_units_Z 14
_cell_length_a 15.929185
_cell_length_b 15.101414
_cell_length_c 14.894890
_cell_angle_alpha 20.261924
_cell_angle_beta 144.285213
_cell_angle_gamma 144.331359
_cell_volume 701.181221
_symmetry_space_group_name_H-M "P -1"
_symmetry_group_IT_number 2
_symmetry_cell_setting 'triclinic'
loop_
_space_group_symop_operation_xyz
x,y,z
-x,-y,-z
loop_
_atom_site_type_symbol
_atom_site_label
_atom_site_fract_x
_atom_site_fract_y
_atom_site_fract_z
Si Si1 0.716464 0.704280 0.109639
Si Si2 0.116069 0.771569 0.741654
Si Si3 0.080146 0.415994 0.735182
Si Si4 0.075643 0.967885 0.895171
Si Si5 0.078389 0.818159 0.854377
Si Si6 0.531478 0.104417 0.527268
Si Si7 0.221295 0.884539 0.540030
O O1 0.807880 0.747830 0.053254
O O2 0.618080 0.408711 0.313862
O O3 0.830722 0.756670 0.243640
O O4 0.621155 0.919626 0.830487
O O5 0.185667 0.825620 0.852501
O O6 0.233421 0.793990 0.740702
O O7 0.020904 0.980992 0.442977
O O8 0.015662 0.477496 0.931534
O O9 0.186855 0.646702 0.665370
O O10 0.000000 0.500000 0.500000
O O11 0.946825 0.250742 0.837975
O O12 0.160694 0.900217 0.943984
O O13 0.909843 0.969092 0.720823
O O14 0.500000 0.000000 0.500000
O O15 0.377357 0.085425 0.462607
#
# Coordination Sequence:
#
# PCOD8031889 Si02
#       7
#     2   2   2   2   2   2   2
#     4  12  26  40  57  82 124 156 196 234 293 342
#     4   9  18  34  55  89 113 145 182 251 289 343
#     4  12  22  37  58  90 118 155 196 248 282 346
#     4  11  23  38  62  88 116 155 196 246 291 349
#     4   9  18  33  58  85 118 138 189 240 304 332
#     4  12  26  41  56  82 120 164 193 239 283 349
#     4  11  23  37  63  84 119 152 205 235 295 336
#
# _framework density 19.966308000000001
#
# number of rings (size 3 to 8) (size 9 to 14) (size 15 to 20)
#    0.000    1.143    4.286    2.571    2.000    0.000 
#    0.000    0.000    0.000    1.714    0.000    0.000 
#    0.000    0.000    0.000    0.000    0.000    0.000 
#
# Total GULP energy -173443.023574 kJ/mol
# GULP energy per Si atom -12388.787398 kJ/mol
# Density = 1.992086 g / cm^3
# Si number density = 19.966308 Si / 1000 Ang^3
#
#
#
# Elastic Constant Matrix: (Units=GPa)
#
#
# Indices 1 2 3 4 5 6 
#
# 1 146.5133 72.1561 19.2276 7.5189 -31.3564 -36.2356
# 2 72.1561 98.7675 28.9727 -16.0816 -16.8224 -14.5256
# 3 19.2276 28.9727 90.9848 -13.7729 -10.3727 -1.0706
# 4 7.5189 -16.0816 -13.7729 28.3522 1.2791 3.5973
# 5 -31.3564 -16.8224 -10.3727 1.2791 30.6649 2.7071
# 6 -36.2356 -14.5256 -1.0706 3.5973 2.7071 40.4758
#
#
#
# Elastic Compliance Matrix: (Units=1/GPa)
#
#
# Indices 1 2 3 4 5 6 
#
# 1 0.020235 -0.012788 -0.000917 -0.015420 0.012772 0.014018
# 2 -0.012788 0.021464 -0.002133 0.015265 -0.002217 -0.005010
# 3 -0.000917 -0.002133 0.012917 0.005447 0.002199 -0.001876
# 4 -0.015420 0.015265 0.005447 0.052539 -0.006647 -0.012407
# 5 0.012772 -0.002217 0.002199 -0.006647 0.044743 0.008294
# 6 0.014018 -0.005010 -0.001876 -0.012407 0.008294 0.035956
#
#
# Mechanical properties :
#
#
# Convention : Reuss Voigt Hill
#
# Bulk Modulus (GPa) = 43.59366 64.10870 53.85118
# Shear Modulus (GPa) = 22.00920 34.29254 28.15087
#
# Velocity S-wave (km/s) = 3.32372 4.14879 3.75896
# Velocity P-wave (km/s) = 6.05066 7.42483 6.77269
#
# Compressibility (1/GPa) = 0.02293912
#
# Stress axis : x y z
#
# Youngs Moduli (GPa) = 49.41868 46.58973 77.41573
#
# Poissons Ratio (x) = 0.59578 0.07102
# Poissons Ratio (y) = 0.63196 0.16516
# Poissons Ratio (z) = 0.04534 0.09939
#
# Static dielectric constant tensor:
#      x y z
#    x 4.583810 -0.420780 -0.152900 
#    y -0.420780 3.694100 -0.006750 
#    z -0.152900 -0.006750 3.677310 
# 
# 
# High freq. dielectric constant tensor:
#      x y z
#    x 1.784960 -0.031070 -0.011540 
#    y -0.031070 1.753530 -0.019400 
#    z -0.011540 -0.019400 1.783970 
# 
# From -- ./inp_files/34353.got.cif
#   From: 2010.06.25/outbox.cif.g09.slc.cpg/sg2_18_cif.got.tgz:34353.got - 2010.06.27 13:26:56.
