data_PCOD8031205
_publ_section_title
;
Structure prediction by ZEFSAII (Michael W. Deem and Ramdas Pophale) SiO2 
 PCOD8031205
Probable space group: P -1
;
_chemical_formula_sum "Si O2"
_cell_formula_units_Z 14
_cell_length_a 9.109487
_cell_length_b 15.986890
_cell_length_c 15.345669
_cell_angle_alpha 38.339953
_cell_angle_beta 143.359874
_cell_angle_gamma 149.941908
_cell_volume 637.133560
_symmetry_space_group_name_H-M "P -1"
_symmetry_group_IT_number 2
_symmetry_cell_setting 'triclinic'
loop_
_space_group_symop_operation_xyz
x,y,z
-x,-y,-z
loop_
_atom_site_type_symbol
_atom_site_label
_atom_site_fract_x
_atom_site_fract_y
_atom_site_fract_z
Si Si1 0.265532 0.889627 0.401010
Si Si2 0.926159 0.008577 0.054473
Si Si3 0.699010 0.504819 0.510659
Si Si4 0.303492 0.010963 0.632393
Si Si5 0.232517 0.705791 0.033433
Si Si6 0.764331 0.233109 0.819732
Si Si7 0.138432 0.366878 0.244096
O O1 0.438337 0.872869 0.416218
O O2 0.979256 0.699245 0.455394
O O3 0.500000 0.000000 0.500000
O O4 0.135140 0.991041 0.231991
O O5 0.553961 0.843558 0.021402
O O6 0.016958 0.199789 0.951936
O O7 0.000000 0.000000 0.000000
O O8 0.500000 0.500000 0.500000
O O9 0.858307 0.416299 0.683746
O O10 0.461151 0.400299 0.399651
O O11 0.450985 0.077182 0.744881
O O12 0.000000 0.000000 0.500000
O O13 0.168763 0.813295 0.712110
O O14 0.288850 0.794531 0.080135
O O15 0.166690 0.525634 0.166393
O O16 0.925936 0.654986 0.873733
#
# Coordination Sequence:
#
# PCOD8031205 Si02
#       7
#     2   2   2   2   2   2   2
#     4  12  28  48  76 104 149 198 245 300 374 439
#     4  12  24  47  70 106 150 190 240 308 367 435
#     4  12  24  47  77 110 148 196 246 306 366 443
#     4  12  26  44  74 108 144 190 250 307 363 434
#     4  11  24  41  74 105 142 200 247 296 369 439
#     4  12  25  44  76 108 148 188 253 296 372 434
#     4  11  22  42  72 106 143 188 250 297 365 430
#
# _framework density 21.973416
#
# number of rings (size 3 to 8) (size 9 to 14) (size 15 to 20)
#    0.000    0.286    7.143    1.286    2.000    0.571 
#    2.571    0.714    0.000    0.000    0.000    0.000 
#    0.000    0.000    0.000    0.000    0.000    0.000 
#
# Total GULP energy -173474.252287 kJ/mol
# GULP energy per Si atom -12391.018020 kJ/mol
# Density = 2.192340 g / cm^3
# Si number density = 21.973416 Si / 1000 Ang^3
#
#
#
# Elastic Constant Matrix: (Units=GPa)
#
#
# Indices 1 2 3 4 5 6 
#
# 1 152.1079 67.1549 74.7491 -0.7916 -9.1535 -7.9371
# 2 67.1549 105.5063 63.2955 10.2085 -20.8657 -8.1272
# 3 74.7491 63.2955 183.9216 1.9572 6.2953 -5.2741
# 4 -0.7916 10.2085 1.9572 53.1973 -11.7453 -4.2256
# 5 -9.1535 -20.8657 6.2953 -11.7453 35.9420 -0.5068
# 6 -7.9371 -8.1272 -5.2741 -4.2256 -0.5068 31.8544
#
#
#
# Elastic Compliance Matrix: (Units=1/GPa)
#
#
# Indices 1 2 3 4 5 6 
#
# 1 0.009995 -0.004856 -0.002397 0.001388 0.000614 0.001049
# 2 -0.004856 0.017172 -0.004168 -0.000990 0.009174 0.002496
# 3 -0.002397 -0.004168 0.007996 -0.000591 -0.004631 -0.000489
# 4 0.001388 -0.000990 -0.000591 0.020736 0.006698 0.002852
# 5 0.000614 0.009174 -0.004631 0.006698 0.036350 0.003194
# 6 0.001049 0.002496 -0.000489 0.002852 0.003194 0.032639
#
#
# Mechanical properties :
#
#
# Convention : Reuss Voigt Hill
#
# Bulk Modulus (GPa) = 81.15688 94.65944 87.90816
# Shear Modulus (GPa) = 32.93037 39.95451 36.44244
#
# Velocity S-wave (km/s) = 3.87543 4.26879 4.07686
# Velocity P-wave (km/s) = 7.55246 8.21397 7.89015
#
# Compressibility (1/GPa) = 0.01232181
#
# Stress axis : x y z
#
# Youngs Moduli (GPa) = 100.05184 58.23576 125.05807
#
# Poissons Ratio (x) = 0.28279 0.29973
# Poissons Ratio (y) = 0.48584 0.52123
# Poissons Ratio (z) = 0.23979 0.24272
#
# Static dielectric constant tensor:
#      x y z
#    x 3.789320 -0.149160 0.036950 
#    y -0.149160 4.196260 -0.084520 
#    z 0.036950 -0.084520 4.686100 
# 
# 
# High freq. dielectric constant tensor:
#      x y z
#    x 1.838150 -0.017180 -0.009560 
#    y -0.017180 1.869320 -0.003060 
#    z -0.009560 -0.003060 1.899420 
# 
# From -- ./inp_files/505330.got.cif
#   From: 2010.06.25/outbox.cif.g09.slc.cpg/sg2_253_cif.got.tgz:505330.got - 2010.06.27 13:26:56.
