data_PCOD8031096
_publ_section_title
;
Structure prediction by ZEFSAII (Michael W. Deem and Ramdas Pophale) SiO2 
 PCOD8031096
Probable space group: P -1
;
_chemical_formula_sum "Si O2"
_cell_formula_units_Z 14
_cell_length_a 13.888958
_cell_length_b 11.458459
_cell_length_c 22.413397
_cell_angle_alpha 31.021357
_cell_angle_beta 158.344728
_cell_angle_gamma 148.313274
_cell_volume 649.975241
_symmetry_space_group_name_H-M "P -1"
_symmetry_group_IT_number 2
_symmetry_cell_setting 'triclinic'
loop_
_space_group_symop_operation_xyz
x,y,z
-x,-y,-z
loop_
_atom_site_type_symbol
_atom_site_label
_atom_site_fract_x
_atom_site_fract_y
_atom_site_fract_z
Si Si1 0.671083 0.466589 0.939526
Si Si2 0.084286 0.242040 0.408795
Si Si3 0.818423 0.603337 0.393232
Si Si4 0.331473 0.642287 0.462888
Si Si5 0.019194 0.007728 0.078907
Si Si6 0.505082 0.313468 0.034580
Si Si7 0.919924 0.841771 0.687547
O O1 0.490891 0.459829 0.780172
O O2 0.857196 0.729296 0.942637
O O3 0.459430 0.388078 0.907797
O O4 0.861813 0.297815 0.110728
O O5 0.300389 0.444476 0.480584
O O6 0.206332 0.208073 0.429849
O O7 0.810161 0.307119 0.210741
O O8 0.000000 0.000000 0.500000
O O9 0.822543 0.485503 0.511515
O O10 0.000000 0.500000 0.500000
O O11 0.937137 0.883553 0.342139
O O12 0.651487 0.757042 0.611548
O O13 0.196919 0.842555 0.276684
O O14 0.000000 0.000000 0.000000
O O15 0.718944 0.927864 0.970745
O O16 0.500000 0.500000 0.000000
#
# Coordination Sequence:
#
# PCOD8031096 Si02
#       7
#     2   2   2   2   2   2   2
#     4  11  26  44  68 103 134 180 231 277 339 407
#     4  11  23  41  70  99 134 176 219 283 342 390
#     4  12  27  47  71  97 139 185 231 278 336 415
#     4  12  26  44  70 103 139 180 228 281 345 403
#     4  12  24  40  69 100 135 175 227 282 336 403
#     4  11  22  42  67  96 136 177 219 276 342 393
#     4  11  26  46  70 100 139 177 231 285 339 406
#
# _framework density 21.539283000000001
#
# number of rings (size 3 to 8) (size 9 to 14) (size 15 to 20)
#    0.000    0.571    4.286    3.429    4.000    4.000 
#    0.000    0.000    0.000    0.000    0.000    0.000 
#    0.000    0.000    0.000    0.000    0.000    0.000 
#
# Total GULP energy -173625.056526 kJ/mol
# GULP energy per Si atom -12401.789752 kJ/mol
# Density = 2.149026 g / cm^3
# Si number density = 21.539283 Si / 1000 Ang^3
#
#
#
# Elastic Constant Matrix: (Units=GPa)
#
#
# Indices 1 2 3 4 5 6 
#
# 1 68.3798 58.5592 24.9872 1.7598 2.0099 -4.8906
# 2 58.5592 177.1562 53.3921 -7.0546 2.8495 5.5317
# 3 24.9872 53.3921 98.7183 -8.0630 -3.5796 -6.0603
# 4 1.7598 -7.0546 -8.0630 43.1227 1.3165 6.1035
# 5 2.0099 2.8495 -3.5796 1.3165 31.1229 3.7399
# 6 -4.8906 5.5317 -6.0603 6.1035 3.7399 37.8236
#
#
#
# Elastic Compliance Matrix: (Units=1/GPa)
#
#
# Indices 1 2 3 4 5 6 
#
# 1 0.021496 -0.006781 -0.001806 -0.002860 -0.001344 0.004076
# 2 -0.006781 0.009021 -0.003231 0.001576 -0.000475 -0.002921
# 3 -0.001806 -0.003231 0.012635 0.001598 0.001576 0.001850
# 4 -0.002860 0.001576 0.001598 0.024476 -0.000299 -0.004264
# 5 -0.001344 -0.000475 0.001576 -0.000299 0.032821 -0.003049
# 6 0.004076 -0.002921 0.001850 -0.004264 -0.003049 0.028679
#
#
# Mechanical properties :
#
#
# Convention : Reuss Voigt Hill
#
# Bulk Modulus (GPa) = 51.23415 68.68125 59.95770
# Shear Modulus (GPa) = 31.39355 36.23490 33.81423
#
# Velocity S-wave (km/s) = 3.82187 4.10600 3.96648
# Velocity P-wave (km/s) = 6.58130 7.37799 6.99100
#
# Compressibility (1/GPa) = 0.01951823
#
# Stress axis : x y z
#
# Youngs Moduli (GPa) = 46.52130 110.84669 79.14254
#
# Poissons Ratio (x) = 0.75163 0.14290
# Poissons Ratio (y) = 0.31545 0.25569
# Poissons Ratio (z) = 0.08400 0.35812
#
# Static dielectric constant tensor:
#      x y z
#    x 4.792430 -0.502120 0.278280 
#    y -0.502120 4.533540 -0.308680 
#    z 0.278280 -0.308680 4.020980 
# 
# 
# High freq. dielectric constant tensor:
#      x y z
#    x 1.852640 0.005210 -0.000890 
#    y 0.005210 1.862390 -0.001560 
#    z -0.000890 -0.001560 1.851800 
# 
# From -- ./inp_files/278457.got.cif
#   From: 2010.06.25/outbox.cif.g09.slc.cpg/sg2_140_cif.got.tgz:278457.got - 2010.06.27 13:26:56.
