data_PCOD8031944
_publ_section_title
;
Structure prediction by ZEFSAII (Michael W. Deem and Ramdas Pophale) SiO2 
 PCOD8031944
Probable space group: P -1
;
_chemical_formula_sum "Si O2"
_cell_formula_units_Z 16
_cell_length_a 15.697104
_cell_length_b 14.052491
_cell_length_c 13.615538
_cell_angle_alpha 20.787678
_cell_angle_beta 135.246723
_cell_angle_gamma 126.322656
_cell_volume 719.005121
_symmetry_space_group_name_H-M "P -1"
_symmetry_group_IT_number 2
_symmetry_cell_setting 'triclinic'
loop_
_space_group_symop_operation_xyz
x,y,z
-x,-y,-z
loop_
_atom_site_type_symbol
_atom_site_label
_atom_site_fract_x
_atom_site_fract_y
_atom_site_fract_z
Si Si1 0.241251 0.376976 0.851559
Si Si2 0.858590 0.549362 0.712269
Si Si3 0.678133 0.191692 0.623259
Si Si4 0.184857 0.950739 0.943679
Si Si5 0.608559 0.641321 0.823508
Si Si6 0.756748 0.031507 0.512278
Si Si7 0.951942 0.099806 0.755790
Si Si8 0.910912 0.850941 0.631810
O O1 0.274200 0.549789 0.620685
O O2 0.109590 0.560065 0.617890
O O3 0.362014 0.306589 0.089851
O O4 0.224970 0.088610 0.074054
O O5 0.813879 0.745539 0.583099
O O6 0.824738 0.746581 0.399859
O O7 0.805517 0.282151 0.909423
O O8 0.008232 0.421331 0.978306
O O9 0.536918 0.212966 0.456897
O O10 0.689436 0.160900 0.780238
O O11 0.063829 0.992606 0.873649
O O12 0.696036 0.776626 0.697198
O O13 0.641339 0.312300 0.149431
O O14 0.837878 0.990713 0.720332
O O15 0.834878 0.059072 0.451960
O O16 0.000000 0.000000 0.000000
O O17 0.000000 0.000000 0.500000
#
# Coordination Sequence:
#
# PCOD8031944 Si02
#       8
#     2   2   2   2   2   2   2   2
#     4  11  23  39  64  90 124 178 225 268 301 362
#     4  11  24  40  65  98 127 161 206 258 322 394
#     4  12  24  43  63  87 127 182 222 261 307 366
#     4  12  25  40  63  95 135 170 205 261 319 397
#     4  11  25  42  63  91 127 170 229 267 301 362
#     4  11  25  41  67  96 127 165 210 270 320 375
#     4  11  23  40  59  98 139 168 206 254 332 379
#     4  11  23  42  72  99 129 161 205 265 330 390
#
# _framework density 22.252970999999999
#
# number of rings (size 3 to 8) (size 9 to 14) (size 15 to 20)
#    0.000    0.750    3.750    3.750    7.000    1.500 
#    0.000    0.000    0.000    4.500    0.000    0.000 
#    0.000    0.000    0.000    0.000    0.000    0.000 
#
# Total GULP energy -198294.528428 kJ/mol
# GULP energy per Si atom -12393.408027 kJ/mol
# Density = 2.220232 g / cm^3
# Si number density = 22.252971 Si / 1000 Ang^3
#
#
#
# Elastic Constant Matrix: (Units=GPa)
#
#
# Indices 1 2 3 4 5 6 
#
# 1 55.2544 13.0258 21.9401 -3.3236 -8.6484 -8.9371
# 2 13.0258 97.3700 43.7439 2.2829 8.3603 -18.8779
# 3 21.9401 43.7439 106.1505 8.3613 -12.0613 -0.5209
# 4 -3.3236 2.2829 8.3613 28.1291 -3.8555 -2.2948
# 5 -8.6484 8.3603 -12.0613 -3.8555 29.1637 -1.8100
# 6 -8.9371 -18.8779 -0.5209 -2.2948 -1.8100 31.9223
#
#
#
# Elastic Compliance Matrix: (Units=1/GPa)
#
#
# Indices 1 2 3 4 5 6 
#
# 1 0.022167 -0.000528 -0.004046 0.005242 0.006152 0.006553
# 2 -0.000528 0.015892 -0.007246 0.000545 -0.007093 0.008769
# 3 -0.004046 -0.007246 0.014184 -0.003710 0.005936 -0.005116
# 4 0.005242 0.000545 -0.003710 0.038335 0.005229 0.004782
# 5 0.006152 -0.007093 0.005936 0.005229 0.041314 0.000343
# 6 0.006553 0.008769 -0.005116 0.004782 0.000343 0.038626
#
#
# Mechanical properties :
#
#
# Convention : Reuss Voigt Hill
#
# Bulk Modulus (GPa) = 34.96014 46.24383 40.60198
# Shear Modulus (GPa) = 24.54665 29.84736 27.19701
#
# Velocity S-wave (km/s) = 3.32486 3.66632 3.49975
# Velocity P-wave (km/s) = 5.52123 6.22484 5.88356
#
# Compressibility (1/GPa) = 0.02860400
#
# Stress axis : x y z
#
# Youngs Moduli (GPa) = 45.11160 62.92346 70.50067
#
# Poissons Ratio (x) = 0.03325 0.28523
# Poissons Ratio (y) = 0.02384 0.51083
# Poissons Ratio (z) = 0.18251 0.45592
#
# Static dielectric constant tensor:
#      x y z
#    x 3.665300 -0.352270 -0.114980 
#    y -0.352270 4.304360 0.048420 
#    z -0.114980 0.048420 4.213820 
# 
# 
# High freq. dielectric constant tensor:
#      x y z
#    x 1.832730 -0.016110 -0.018340 
#    y -0.016110 1.884800 -0.004990 
#    z -0.018340 -0.004990 1.892230 
# 
# From -- ./inp_files/523454.got.cif
#   From: 2010.06.25/outbox.cif.g09.slc.cpg/sg2_262_cif.got.tgz:523454.got - 2010.06.27 13:26:56.
