data_PCOD8031367
_publ_section_title
;
Structure prediction by ZEFSAII (Michael W. Deem and Ramdas Pophale) SiO2 
 PCOD8031367
Probable space group: P -1
;
_chemical_formula_sum "Si O2"
_cell_formula_units_Z 14
_cell_length_a 12.565115
_cell_length_b 22.990469
_cell_length_c 23.318841
_cell_angle_alpha 162.244673
_cell_angle_beta 26.106908
_cell_angle_gamma 161.345042
_cell_volume 656.434409
_symmetry_space_group_name_H-M "P -1"
_symmetry_group_IT_number 2
_symmetry_cell_setting 'triclinic'
loop_
_space_group_symop_operation_xyz
x,y,z
-x,-y,-z
loop_
_atom_site_type_symbol
_atom_site_label
_atom_site_fract_x
_atom_site_fract_y
_atom_site_fract_z
Si Si1 0.874383 0.135122 0.954561
Si Si2 0.237169 0.698754 0.122395
Si Si3 0.201782 0.222450 0.533058
Si Si4 0.283729 0.745792 0.632831
Si Si5 0.297629 0.371195 0.418837
Si Si6 0.087752 0.477773 0.281281
Si Si7 0.781644 0.696529 0.173199
O O1 0.080736 0.284521 0.937664
O O2 0.894680 0.928977 0.769469
O O3 0.046646 0.327747 0.104952
O O4 0.500000 0.000000 0.000000
O O5 0.068853 0.777195 0.313198
O O6 0.585463 0.978512 0.194449
O O7 0.321509 0.559756 0.988842
O O8 0.000000 0.500000 0.000000
O O9 0.412422 0.242857 0.502429
O O10 0.442678 0.477168 0.616009
O O11 0.056505 0.962416 0.324944
O O12 0.000000 0.500000 0.500000
O O13 0.154717 0.714621 0.730266
O O14 0.500000 0.500000 0.500000
O O15 0.998710 0.357441 0.542622
O O16 0.467217 0.667319 0.295749
#
# Coordination Sequence:
#
# PCOD8031367 Si02
#       7
#     2   2   2   2   2   2   2
#     4  12  23  43  72 101 140 177 233 283 345 420
#     4  12  27  43  74 102 135 191 233 281 353 408
#     4  11  24  45  69 100 141 178 236 285 345 419
#     4  11  25  48  72 100 141 185 233 290 347 409
#     4  11  22  43  71  99 132 190 220 278 357 410
#     4  11  27  43  68 103 138 176 233 293 339 412
#     4  12  26  45  68 106 141 180 230 292 348 414
#
# _framework density 21.327341000000001
#
# number of rings (size 3 to 8) (size 9 to 14) (size 15 to 20)
#    0.000    0.571    4.286    3.429    4.000    4.571 
#    0.000    0.000    0.000    0.000    0.000    0.000 
#    0.000    0.000    0.000    0.000    0.000    0.000 
#
# Total GULP energy -173635.667655 kJ/mol
# GULP energy per Si atom -12402.547690 kJ/mol
# Density = 2.127880 g / cm^3
# Si number density = 21.327341 Si / 1000 Ang^3
#
#
#
# Elastic Constant Matrix: (Units=GPa)
#
#
# Indices 1 2 3 4 5 6 
#
# 1 132.7502 56.4964 64.3885 7.3808 -18.2826 -0.3189
# 2 56.4964 92.9356 44.1357 2.7635 -18.0044 3.0185
# 3 64.3885 44.1357 126.4193 6.8210 -5.1367 -12.2278
# 4 7.3808 2.7635 6.8210 43.9116 0.7365 -5.3721
# 5 -18.2826 -18.0044 -5.1367 0.7365 45.8920 2.3792
# 6 -0.3189 3.0185 -12.2278 -5.3721 2.3792 42.9917
#
#
#
# Elastic Compliance Matrix: (Units=1/GPa)
#
#
# Indices 1 2 3 4 5 6 
#
# 1 0.012110 -0.004661 -0.004481 -0.001230 0.002574 -0.001154
# 2 -0.004661 0.016040 -0.003277 -0.000073 0.004191 -0.002334
# 3 -0.004481 -0.003277 0.011623 -0.000377 -0.001949 0.003563
# 4 -0.001230 -0.000073 -0.000377 0.023413 -0.001086 0.002874
# 5 0.002574 0.004191 -0.001949 -0.001086 0.024379 -0.002314
# 6 -0.001154 -0.002334 0.003563 0.002874 -0.002314 0.024916
#
#
# Mechanical properties :
#
#
# Convention : Reuss Voigt Hill
#
# Bulk Modulus (GPa) = 66.96465 75.79404 71.37935
# Shear Modulus (GPa) = 35.13710 39.03133 37.08421
#
# Velocity S-wave (km/s) = 4.06336 4.28262 4.17443
# Velocity P-wave (km/s) = 7.31308 7.75048 7.53496
#
# Compressibility (1/GPa) = 0.01493325
#
# Stress axis : x y z
#
# Youngs Moduli (GPa) = 82.57349 62.34376 86.03777
#
# Poissons Ratio (x) = 0.29059 0.38558
# Poissons Ratio (y) = 0.38488 0.28199
# Poissons Ratio (z) = 0.37005 0.20433
#
# Static dielectric constant tensor:
#      x y z
#    x 4.128550 -0.171570 -0.324260 
#    y -0.171570 3.935080 -0.314880 
#    z -0.324260 -0.314880 2.913120 
# 
# 
# High freq. dielectric constant tensor:
#      x y z
#    x 1.853500 -0.007550 -0.003460 
#    y -0.007550 1.843880 -0.002130 
#    z -0.003460 -0.002130 1.842410 
# 
# From -- ./inp_files/398674.got.cif
#   From: 2010.06.25/outbox.cif.g09.slc.cpg/sg2_200_cif.got.tgz:398674.got - 2010.06.27 13:26:56.
