data_PCOD8031624
_publ_section_title
;
Structure prediction by ZEFSAII (Michael W. Deem and Ramdas Pophale) SiO2 
 PCOD8031624
Probable space group: P -1
;
_chemical_formula_sum "Si O2"
_cell_formula_units_Z 16
_cell_length_a 9.802090
_cell_length_b 9.318817
_cell_length_c 11.302323
_cell_angle_alpha 80.650625
_cell_angle_beta 88.855540
_cell_angle_gamma 134.928062
_cell_volume 707.687804
_symmetry_space_group_name_H-M "P -1"
_symmetry_group_IT_number 2
_symmetry_cell_setting 'triclinic'
loop_
_space_group_symop_operation_xyz
x,y,z
-x,-y,-z
loop_
_atom_site_type_symbol
_atom_site_label
_atom_site_fract_x
_atom_site_fract_y
_atom_site_fract_z
Si Si1 0.540942 0.876388 0.952831
Si Si2 0.745074 0.943336 0.709150
Si Si3 0.763722 0.624760 0.723605
Si Si4 0.131703 0.995229 0.927162
Si Si5 0.518520 0.186404 0.482628
Si Si6 0.146170 0.349595 0.542008
Si Si7 0.351819 0.248118 0.673699
Si Si8 0.874241 0.539164 0.959316
O O1 0.671232 0.980628 0.817821
O O2 0.338409 0.642350 0.953163
O O3 0.500000 0.000000 0.000000
O O4 0.650026 0.856517 0.046148
O O5 0.792888 0.809839 0.753948
O O6 0.576490 0.814594 0.630921
O O7 0.937657 0.178176 0.632124
O O8 0.888164 0.699792 0.590921
O O9 0.533989 0.426776 0.729968
O O10 0.843363 0.560114 0.819265
O O11 0.005868 0.758565 0.988361
O O12 0.160541 0.061847 0.780846
O O13 0.000000 0.000000 0.000000
O O14 0.746430 0.414377 0.460609
O O15 0.400685 0.146471 0.606234
O O16 0.500000 0.000000 0.500000
O O17 0.299511 0.343611 0.579432
O O18 0.000000 0.500000 0.000000
#
# Coordination Sequence:
#
# PCOD8031624 Si02
#       8
#     2   2   2   2   2   2   2   2
#     4  12  28  50  68 105 153 195 248 304 369 436
#     4  12  26  45  78 106 145 195 251 300 366 452
#     4  11  22  44  79 108 145 191 248 307 366 442
#     4  12  27  46  75 111 146 195 254 304 366 443
#     4  11  26  44  70 112 149 191 236 301 375 438
#     4  11  23  47  75 112 144 184 243 304 366 442
#     4  11  22  46  77 105 151 187 239 310 364 436
#     4  12  27  47  75 104 144 203 247 303 375 433
#
# _framework density 22.608841000000002
#
# number of rings (size 3 to 8) (size 9 to 14) (size 15 to 20)
#    0.000    0.500    5.000    3.375    5.250    2.500 
#    2.250    0.000    0.000    0.000    0.000    0.000 
#    0.000    0.000    0.000    0.000    0.000    0.000 
#
# Total GULP energy -198322.971145 kJ/mol
# GULP energy per Si atom -12395.185697 kJ/mol
# Density = 2.255738 g / cm^3
# Si number density = 22.608841 Si / 1000 Ang^3
#
#
#
# Elastic Constant Matrix: (Units=GPa)
#
#
# Indices 1 2 3 4 5 6 
#
# 1 121.0151 53.5686 74.0781 1.0664 4.6600 -6.9187
# 2 53.5686 123.8547 47.5929 -9.6700 -19.0733 -13.2297
# 3 74.0781 47.5929 150.9814 -6.0880 -20.5102 -4.5192
# 4 1.0664 -9.6700 -6.0880 35.1243 4.8160 0.2745
# 5 4.6600 -19.0733 -20.5102 4.8160 51.7378 2.0611
# 6 -6.9187 -13.2297 -4.5192 0.2745 2.0611 43.7031
#
#
#
# Elastic Compliance Matrix: (Units=1/GPa)
#
#
# Indices 1 2 3 4 5 6 
#
# 1 0.014597 -0.004787 -0.006467 -0.002137 -0.005463 0.000464
# 2 -0.004787 0.011442 -0.000522 0.002624 0.004101 0.002442
# 3 -0.006467 -0.000522 0.010614 0.001279 0.004491 -0.000304
# 4 -0.002137 0.002624 0.001279 0.029628 -0.001109 0.000454
# 5 -0.005463 0.004101 0.004491 -0.001109 0.023225 -0.000247
# 6 0.000464 0.002442 -0.000304 0.000454 -0.000247 0.023672
#
#
# Mechanical properties :
#
#
# Convention : Reuss Voigt Hill
#
# Bulk Modulus (GPa) = 76.33594 82.92559 79.63076
# Shear Modulus (GPa) = 35.43663 40.82050 38.12856
#
# Velocity S-wave (km/s) = 3.96331 4.25374 4.11109
# Velocity P-wave (km/s) = 7.40141 7.80280 7.60475
#
# Compressibility (1/GPa) = 0.01309999
#
# Stress axis : x y z
#
# Youngs Moduli (GPa) = 68.50737 87.39601 94.21831
#
# Poissons Ratio (x) = 0.41834 0.60935
# Poissons Ratio (y) = 0.32792 0.04921
# Poissons Ratio (z) = 0.44306 0.04565
#
# Static dielectric constant tensor:
#      x y z
#    x 4.031760 0.211080 0.091900 
#    y 0.211080 4.242570 0.040070 
#    z 0.091900 0.040070 4.142170 
# 
# 
# High freq. dielectric constant tensor:
#      x y z
#    x 1.890380 0.014960 0.008150 
#    y 0.014960 1.908040 -0.003170 
#    z 0.008150 -0.003170 1.895800 
# 
# From -- ./inp_files/188156.got.cif
#   From: 2010.06.25/outbox.cif.g09.slc.cpg/sg2_95_cif.got.tgz:188156.got - 2010.06.27 13:26:56.
