data_PCOD8031912
_publ_section_title
;
Structure prediction by ZEFSAII (Michael W. Deem and Ramdas Pophale) SiO2 
 PCOD8031912
Probable space group: P -1
;
_chemical_formula_sum "Si O2"
_cell_formula_units_Z 16
_cell_length_a 8.059279
_cell_length_b 8.577694
_cell_length_c 16.453357
_cell_angle_alpha 74.354705
_cell_angle_beta 126.245376
_cell_angle_gamma 131.818802
_cell_volume 668.801817
_symmetry_space_group_name_H-M "P -1"
_symmetry_group_IT_number 2
_symmetry_cell_setting 'triclinic'
loop_
_space_group_symop_operation_xyz
x,y,z
-x,-y,-z
loop_
_atom_site_type_symbol
_atom_site_label
_atom_site_fract_x
_atom_site_fract_y
_atom_site_fract_z
Si Si1 0.202044 0.534117 0.886526
Si Si2 0.035078 0.254775 0.174682
Si Si3 0.389379 0.088131 0.518075
Si Si4 0.999133 0.358156 0.456294
Si Si5 0.094013 0.091027 0.702824
Si Si6 0.468197 0.375107 0.632998
Si Si7 0.043747 0.648935 0.317555
Si Si8 0.223596 0.247660 0.052626
O O1 0.478713 0.673842 0.892498
O O2 0.161247 0.688540 0.896553
O O3 0.947820 0.361002 0.776836
O O4 0.194557 0.397709 0.973343
O O5 0.863717 0.017339 0.197700
O O6 0.265504 0.411415 0.283607
O O7 0.173990 0.270795 0.128740
O O8 0.212168 0.082931 0.398076
O O9 0.541113 0.299642 0.589010
O O10 0.684007 0.155936 0.573905
O O11 0.221348 0.891460 0.558144
O O12 0.000000 0.500000 0.500000
O O13 0.293013 0.429360 0.536175
O O14 0.931199 0.414953 0.344586
O O15 0.152500 0.301214 0.725801
O O16 0.309159 0.181812 0.680118
O O17 0.000000 0.000000 0.000000
#
# Coordination Sequence:
#
# PCOD8031912 Si02
#       8
#     2   2   2   2   2   2   2   2
#     4  11  27  48  74 107 134 175 232 287 351 427
#     4  12  26  46  75 103 141 181 226 290 352 411
#     4  11  24  39  62  95 142 188 232 275 334 393
#     4  11  23  38  64  95 139 191 231 281 326 393
#     4  11  24  39  63 101 140 186 234 277 329 406
#     4  11  24  42  62  99 143 185 233 282 335 402
#     4  12  23  41  66  98 136 180 234 281 337 405
#     4  11  27  52  78 102 136 174 223 293 364 425
#
# _framework density 23.923378
#
# number of rings (size 3 to 8) (size 9 to 14) (size 15 to 20)
#    0.000    0.750    3.750    4.500    5.250    4.500 
#    0.000    0.000    0.000    0.000    0.000    0.000 
#    0.000    0.000    0.000    0.000    0.000    0.000 
#
# Total GULP energy -198268.378969 kJ/mol
# GULP energy per Si atom -12391.773686 kJ/mol
# Density = 2.386893 g / cm^3
# Si number density = 23.923378 Si / 1000 Ang^3
#
#
#
# Elastic Constant Matrix: (Units=GPa)
#
#
# Indices 1 2 3 4 5 6 
#
# 1 84.7314 27.1302 9.8655 -23.0467 5.4050 1.4851
# 2 27.1302 98.8601 35.7162 -28.3611 11.8085 -7.6875
# 3 9.8655 35.7162 70.2015 -27.3598 0.9740 -3.1898
# 4 -23.0467 -28.3611 -27.3598 48.0209 -0.3949 0.1771
# 5 5.4050 11.8085 0.9740 -0.3949 36.9177 -1.7297
# 6 1.4851 -7.6875 -3.1898 0.1771 -1.7297 24.6087
#
#
#
# Elastic Compliance Matrix: (Units=1/GPa)
#
#
# Indices 1 2 3 4 5 6 
#
# 1 0.014280 -0.002741 0.001761 0.006233 -0.001270 -0.001624
# 2 -0.002741 0.014775 -0.005186 0.004409 -0.003963 0.003798
# 3 0.001761 -0.005186 0.020311 0.009359 0.001008 0.000910
# 4 0.006233 0.004409 0.009359 0.031728 -0.002144 0.001835
# 5 -0.001270 -0.003963 0.001008 -0.002144 0.028537 0.000991
# 6 -0.001624 0.003798 0.000910 0.001835 0.000991 0.042095
#
#
# Mechanical properties :
#
#
# Convention : Reuss Voigt Hill
#
# Bulk Modulus (GPa) = 27.00323 44.35743 35.68033
# Shear Modulus (GPa) = 28.34445 33.98155 31.16300
#
# Velocity S-wave (km/s) = 3.44583 3.77295 3.61309
# Velocity P-wave (km/s) = 5.20995 6.12878 5.68795
#
# Compressibility (1/GPa) = 0.03703261
#
# Stress axis : x y z
#
# Youngs Moduli (GPa) = 70.03016 67.68320 49.23555
#
# Poissons Ratio (x) = 0.18555 -0.08671
# Poissons Ratio (y) = 0.19199 0.25532
# Poissons Ratio (z) = -0.12333 0.35098
#
# Static dielectric constant tensor:
#      x y z
#    x 4.705760 0.148260 -0.261490 
#    y 0.148260 5.872620 -1.358000 
#    z -0.261490 -1.358000 5.370580 
# 
# 
# High freq. dielectric constant tensor:
#      x y z
#    x 1.969260 -0.014250 -0.004180 
#    y -0.014250 1.956060 -0.008460 
#    z -0.004180 -0.008460 1.940180 
# 
# From -- ./inp_files/556160.got.cif
#   From: 2010.06.25/outbox.cif.g09.slc.cpg/sg2_279_cif.got.tgz:556160.got - 2010.06.27 13:26:56.
