data_PCOD8031637
_publ_section_title
;
Structure prediction by ZEFSAII (Michael W. Deem and Ramdas Pophale) SiO2 
 PCOD8031637
Probable space group: P -1
;
_chemical_formula_sum "Si O2"
_cell_formula_units_Z 12
_cell_length_a 11.430357
_cell_length_b 9.982368
_cell_length_c 12.242939
_cell_angle_alpha 141.567891
_cell_angle_beta 40.317525
_cell_angle_gamma 118.152147
_cell_volume 533.787330
_symmetry_space_group_name_H-M "P -1"
_symmetry_group_IT_number 2
_symmetry_cell_setting 'triclinic'
loop_
_space_group_symop_operation_xyz
x,y,z
-x,-y,-z
loop_
_atom_site_type_symbol
_atom_site_label
_atom_site_fract_x
_atom_site_fract_y
_atom_site_fract_z
Si Si1 0.031205 0.254390 0.369951
Si Si2 0.091427 0.456826 0.664020
Si Si3 0.670215 0.816991 0.488430
Si Si4 0.280051 0.200520 0.809193
Si Si5 0.378524 0.745759 0.277099
Si Si6 0.251875 0.872458 0.800967
O O1 0.139072 0.260591 0.412523
O O2 0.000000 0.500000 0.500000
O O3 0.826024 0.226593 0.512685
O O4 0.159240 0.045531 0.075237
O O5 0.175898 0.345298 0.646658
O O6 0.166881 0.666988 0.716477
O O7 0.861230 0.554330 0.895405
O O8 0.757576 0.802116 0.294622
O O9 0.474727 0.756875 0.595989
O O10 0.631259 0.086542 0.713186
O O11 0.500518 0.177342 0.663473
O O12 0.217848 0.008678 0.797942
O O13 0.500000 0.500000 0.000000
#
# Coordination Sequence:
#
# PCOD8031637 Si02
#       6
#     2   2   2   2   2   2
#     4  12  25  42  73 102 133 180 232 278 334 407
#     4  12  25  45  70 103 140 173 227 286 343 394
#     4  11  26  44  68 103 136 179 223 283 346 391
#     4  11  23  44  72  96 132 186 229 270 335 411
#     4  11  22  45  67  97 135 176 230 275 327 413
#     4  11  24  46  69 101 136 185 226 274 336 409
#
# _framework density 22.480864
#
# number of rings (size 3 to 8) (size 9 to 14) (size 15 to 20)
#    0.000    0.667    3.333    5.500    4.667    1.333 
#    3.000    0.000    0.000    0.000    0.000    0.000 
#    0.000    0.000    0.000    0.000    0.000    0.000 
#
# Total GULP energy -148752.010320 kJ/mol
# GULP energy per Si atom -12396.000860 kJ/mol
# Density = 2.242970 g / cm^3
# Si number density = 22.480864 Si / 1000 Ang^3
#
#
#
# Elastic Constant Matrix: (Units=GPa)
#
#
# Indices 1 2 3 4 5 6 
#
# 1 133.4957 75.6792 47.5102 -6.0073 1.0476 -15.3021
# 2 75.6792 125.4903 48.3194 -4.6200 -1.0410 3.2211
# 3 47.5102 48.3194 103.6904 -7.2405 13.9431 -0.6243
# 4 -6.0073 -4.6200 -7.2405 32.6129 1.1092 1.7807
# 5 1.0476 -1.0410 13.9431 1.1092 47.1917 4.3539
# 6 -15.3021 3.2211 -0.6243 1.7807 4.3539 42.2545
#
#
#
# Elastic Compliance Matrix: (Units=1/GPa)
#
#
# Indices 1 2 3 4 5 6 
#
# 1 0.012971 -0.006925 -0.002626 0.000548 -0.000156 0.005179
# 2 -0.006925 0.013574 -0.003416 0.000034 0.001811 -0.003781
# 3 -0.002626 -0.003416 0.013111 0.002087 -0.003923 -0.000180
# 4 0.000548 0.000034 0.002087 0.031328 -0.001276 -0.000962
# 5 -0.000156 0.001811 -0.003923 -0.001276 0.022656 -0.002533
# 6 0.005179 -0.003781 -0.000180 -0.000962 -0.002533 0.026129
#
#
# Mechanical properties :
#
#
# Convention : Reuss Voigt Hill
#
# Bulk Modulus (GPa) = 72.87679 78.41043 75.64361
# Shear Modulus (GPa) = 33.27189 37.15634 35.21411
#
# Velocity S-wave (km/s) = 3.85126 4.06987 3.96208
# Velocity P-wave (km/s) = 7.22938 7.55246 7.39268
#
# Compressibility (1/GPa) = 0.01372179
#
# Stress axis : x y z
#
# Youngs Moduli (GPa) = 77.09549 73.67067 76.27090
#
# Poissons Ratio (x) = 0.51020 0.20025
# Poissons Ratio (y) = 0.53392 0.26055
# Poissons Ratio (z) = 0.20242 0.25167
#
# Static dielectric constant tensor:
#      x y z
#    x 4.251380 0.226770 0.077420 
#    y 0.226770 4.258970 0.053890 
#    z 0.077420 0.053890 4.399680 
# 
# 
# High freq. dielectric constant tensor:
#      x y z
#    x 1.885350 0.013880 -0.000900 
#    y 0.013880 1.889740 -0.002200 
#    z -0.000900 -0.002200 1.902330 
# 
# From -- ./inp_files/159719.got.cif
#   From: 2010.06.25/outbox.cif.g09.slc.cpg/sg2_80_cif.got.tgz:159719.got - 2010.06.27 13:26:56.
