data_PCOD8031442
_publ_section_title
;
Structure prediction by ZEFSAII (Michael W. Deem and Ramdas Pophale) SiO2 
 PCOD8031442
Probable space group: P -1
;
_chemical_formula_sum "Si O2"
_cell_formula_units_Z 16
_cell_length_a 14.568929
_cell_length_b 13.026498
_cell_length_c 8.702866
_cell_angle_alpha 63.803663
_cell_angle_beta 120.522937
_cell_angle_gamma 151.016430
_cell_volume 689.401230
_symmetry_space_group_name_H-M "P -1"
_symmetry_group_IT_number 2
_symmetry_cell_setting 'triclinic'
loop_
_space_group_symop_operation_xyz
x,y,z
-x,-y,-z
loop_
_atom_site_type_symbol
_atom_site_label
_atom_site_fract_x
_atom_site_fract_y
_atom_site_fract_z
Si Si1 0.855796 0.180722 0.861242
Si Si2 0.610011 0.474933 0.941902
Si Si3 0.824682 0.423499 0.936823
Si Si4 0.757776 0.703812 0.229283
Si Si5 0.914843 0.665387 0.601272
Si Si6 0.841937 0.265737 0.468356
Si Si7 0.023339 0.140302 0.187068
Si Si8 0.462354 0.859264 0.881607
O O1 0.794785 0.145279 0.656740
O O2 0.694100 0.095760 0.893597
O O3 0.079107 0.421071 0.937466
O O4 0.867364 0.055517 0.988018
O O5 0.407988 0.358788 0.810423
O O6 0.748571 0.624423 0.813193
O O7 0.724864 0.636305 0.073045
O O8 0.568166 0.304717 0.057811
O O9 0.780162 0.456733 0.725222
O O10 0.000000 0.500000 0.000000
O O11 0.619283 0.185131 0.985102
O O12 0.764279 0.595794 0.409335
O O13 0.971844 0.959285 0.259331
O O14 0.079516 0.743942 0.594852
O O15 0.023319 0.849257 0.690491
O O16 0.650948 0.163929 0.321803
O O17 0.000000 0.500000 0.500000
#
# Coordination Sequence:
#
# PCOD8031442 Si02
#       8
#     2   2   2   2   2   2   2   2
#     4  11  23  39  67  94 127 171 216 265 318 384
#     4  11  23  42  69  95 124 178 216 269 325 381
#     4  11  22  44  65  93 133 175 208 262 331 388
#     4  11  24  42  66  94 131 167 228 266 316 389
#     4  11  23  40  68  99 128 175 213 264 334 382
#     4  12  22  42  69  96 133 169 216 273 318 386
#     4  11  22  44  66  91 137 170 213 270 329 383
#     4  12  22  41  68  94 132 166 217 263 324 384
#
# _framework density 23.208545000000001
#
# number of rings (size 3 to 8) (size 9 to 14) (size 15 to 20)
#    0.000    0.750    6.250    2.625    0.000    1.000 
#    0.000    0.000    2.750    0.000    0.000    0.000 
#    0.000    0.000    0.000    0.000    0.000    0.000 
#
# Total GULP energy -198288.037552 kJ/mol
# GULP energy per Si atom -12393.002347 kJ/mol
# Density = 2.315572 g / cm^3
# Si number density = 23.208545 Si / 1000 Ang^3
#
#
#
# Elastic Constant Matrix: (Units=GPa)
#
#
# Indices 1 2 3 4 5 6 
#
# 1 96.2275 6.1503 26.3884 -5.3087 -1.1903 17.3025
# 2 6.1503 65.0617 22.5933 -9.6727 -1.6239 21.2195
# 3 26.3884 22.5933 115.7315 -11.1973 9.9994 17.1483
# 4 -5.3087 -9.6727 -11.1973 21.1850 10.0755 -2.0287
# 5 -1.1903 -1.6239 9.9994 10.0755 44.1850 -0.0165
# 6 17.3025 21.2195 17.1483 -2.0287 -0.0165 34.7115
#
#
#
# Elastic Compliance Matrix: (Units=1/GPa)
#
#
# Indices 1 2 3 4 5 6 
#
# 1 0.012030 0.001837 -0.002055 0.002005 0.000397 -0.005987
# 2 0.001837 0.021095 -0.001845 0.008232 -0.000639 -0.012419
# 3 -0.002055 -0.001845 0.010805 0.005949 -0.003926 -0.002840
# 4 0.002005 0.008232 0.005949 0.061200 -0.014947 -0.005401
# 5 0.000397 -0.000639 -0.003926 -0.014947 0.026917 0.001272
# 6 -0.005987 -0.012419 -0.002840 -0.005401 0.001272 0.040473
#
#
# Mechanical properties :
#
#
# Convention : Reuss Voigt Hill
#
# Bulk Modulus (GPa) = 25.12291 43.03164 34.07728
# Shear Modulus (GPa) = 26.32763 34.80889 30.56826
#
# Velocity S-wave (km/s) = 3.37173 3.87697 3.63314
# Velocity P-wave (km/s) = 5.09965 6.21472 5.68459
#
# Compressibility (1/GPa) = 0.03980430
#
# Stress axis : x y z
#
# Youngs Moduli (GPa) = 83.12416 47.40365 92.54957
#
# Poissons Ratio (x) = -0.08708 0.19018
# Poissons Ratio (y) = -0.15270 0.17078
# Poissons Ratio (z) = 0.17081 0.08747
#
# Static dielectric constant tensor:
#      x y z
#    x 4.343090 0.045450 0.110430 
#    y 0.045450 4.371000 -0.351890 
#    z 0.110430 -0.351890 4.484800 
# 
# 
# High freq. dielectric constant tensor:
#      x y z
#    x 1.938210 0.004070 0.006700 
#    y 0.004070 1.899570 -0.013370 
#    z 0.006700 -0.013370 1.918570 
# 
# From -- ./inp_files/312851.got.cif
#   From: 2010.06.25/outbox.cif.g09.slc.cpg/sg2_157_cif.got.tgz:312851.got - 2010.06.27 13:26:56.
