data_PCOD8031321
_publ_section_title
;
Structure prediction by ZEFSAII (Michael W. Deem and Ramdas Pophale) SiO2 
 PCOD8031321
Probable space group: P -1
;
_chemical_formula_sum "Si O2"
_cell_formula_units_Z 16
_cell_length_a 12.739504
_cell_length_b 9.666555
_cell_length_c 18.063098
_cell_angle_alpha 80.534803
_cell_angle_beta 38.438131
_cell_angle_gamma 50.670351
_cell_volume 773.842968
_symmetry_space_group_name_H-M "P -1"
_symmetry_group_IT_number 2
_symmetry_cell_setting 'triclinic'
loop_
_space_group_symop_operation_xyz
x,y,z
-x,-y,-z
loop_
_atom_site_type_symbol
_atom_site_label
_atom_site_fract_x
_atom_site_fract_y
_atom_site_fract_z
Si Si1 0.450897 0.877241 0.116726
Si Si2 0.281945 0.902444 0.361554
Si Si3 0.725378 0.790272 0.616369
Si Si4 0.372617 0.432368 0.085743
Si Si5 0.195055 0.575679 0.606263
Si Si6 0.746505 0.777225 0.438969
Si Si7 0.310963 0.007587 0.957907
Si Si8 0.644802 0.483376 0.311966
O O1 0.462228 0.785245 0.195534
O O2 0.611622 0.918324 0.034154
O O3 0.627381 0.658586 0.981515
O O4 0.113456 0.128351 0.252528
O O5 0.499089 0.703654 0.323739
O O6 0.154563 0.142045 0.429742
O O7 0.000000 0.000000 0.500000
O O8 0.614928 0.874447 0.585614
O O9 0.000000 0.500000 0.500000
O O10 0.445350 0.939126 0.808374
O O11 0.034780 0.678751 0.279369
O O12 0.565737 0.222504 0.059337
O O13 0.500000 0.500000 0.000000
O O14 0.145214 0.454902 0.614128
O O15 0.436612 0.488330 0.428717
O O16 0.316956 0.481734 0.630180
O O17 0.500000 0.000000 0.500000
O O18 0.958867 0.229923 0.124247
#
# Coordination Sequence:
#
# PCOD8031321 Si02
#       8
#     2   2   2   2   2   2   2   2
#     4  11  22  43  71  93 131 176 226 256 342 397
#     4  11  24  40  67  98 129 174 221 276 319 390
#     4  11  24  44  69  93 135 185 215 261 341 401
#     4  12  26  41  66 102 134 170 217 284 330 388
#     4  11  22  43  69  98 130 185 217 269 330 406
#     4  12  26  43  68  98 140 174 223 269 339 401
#     4  11  23  45  70  96 131 179 222 276 325 402
#     4  11  24  39  70  99 134 160 236 278 324 380
#
# _framework density 20.676030000000001
#
# number of rings (size 3 to 8) (size 9 to 14) (size 15 to 20)
#    0.000    0.750    5.000    2.625    3.500    3.000 
#    0.000    0.625    0.000    0.000    0.000    0.000 
#    0.000    0.000    0.000    0.000    0.000    0.000 
#
# Total GULP energy -198494.333115 kJ/mol
# GULP energy per Si atom -12405.895820 kJ/mol
# Density = 2.062897 g / cm^3
# Si number density = 20.676030 Si / 1000 Ang^3
#
#
#
# Elastic Constant Matrix: (Units=GPa)
#
#
# Indices 1 2 3 4 5 6 
#
# 1 75.9272 44.8825 36.6974 -12.7216 14.2270 -10.4142
# 2 44.8825 133.3148 59.0767 -13.8862 -1.0912 -10.8130
# 3 36.6974 59.0767 132.8242 -4.0455 -6.2055 -0.6455
# 4 -12.7216 -13.8862 -4.0455 32.9440 -1.0425 -5.8631
# 5 14.2270 -1.0912 -6.2055 -1.0425 41.3260 -3.1978
# 6 -10.4142 -10.8130 -0.6455 -5.8631 -3.1978 40.9013
#
#
#
# Elastic Compliance Matrix: (Units=1/GPa)
#
#
# Indices 1 2 3 4 5 6 
#
# 1 0.020592 -0.004247 -0.003930 0.006228 -0.007295 0.004381
# 2 -0.004247 0.011023 -0.003557 0.003031 0.001475 0.002327
# 3 -0.003930 -0.003557 0.010248 -0.002008 0.002603 -0.001864
# 4 0.006228 0.003031 -0.002008 0.035062 -0.000915 0.007310
# 5 -0.007295 0.001475 0.002603 -0.000915 0.027160 0.000566
# 6 0.004381 0.002327 -0.001864 0.007310 0.000566 0.027242
#
#
# Mechanical properties :
#
#
# Convention : Reuss Voigt Hill
#
# Bulk Modulus (GPa) = 54.36168 69.26437 61.81302
# Shear Modulus (GPa) = 31.06993 36.46155 33.76574
#
# Velocity S-wave (km/s) = 3.88068 4.20392 4.04553
# Velocity P-wave (km/s) = 6.81386 7.55887 7.19602
#
# Compressibility (1/GPa) = 0.01839531
#
# Stress axis : x y z
#
# Youngs Moduli (GPa) = 48.56348 90.71552 97.57853
#
# Poissons Ratio (x) = 0.38523 0.38351
# Poissons Ratio (y) = 0.20623 0.34710
# Poissons Ratio (z) = 0.19087 0.32269
#
# Static dielectric constant tensor:
#      x y z
#    x 3.749600 -0.082620 0.099570 
#    y -0.082620 3.984510 -0.067270 
#    z 0.099570 -0.067270 3.872640 
# 
# 
# High freq. dielectric constant tensor:
#      x y z
#    x 1.804030 -0.008910 0.003390 
#    y -0.008910 1.820420 -0.013690 
#    z 0.003390 -0.013690 1.817280 
# 
# From -- ./inp_files/317919.got.cif
#   From: 2010.06.25/outbox.cif.g09.slc.cpg/sg2_159_cif.got.tgz:317919.got - 2010.06.27 13:26:56.
