data_PCOD8031070
_publ_section_title
;
Structure prediction by ZEFSAII (Michael W. Deem and Ramdas Pophale) SiO2 
 PCOD8031070
Probable space group: P -1
;
_chemical_formula_sum "Si O2"
_cell_formula_units_Z 16
_cell_length_a 8.667431
_cell_length_b 16.386035
_cell_length_c 8.342147
_cell_angle_alpha 140.309508
_cell_angle_beta 102.326406
_cell_angle_gamma 70.233165
_cell_volume 709.912530
_symmetry_space_group_name_H-M "P -1"
_symmetry_group_IT_number 2
_symmetry_cell_setting 'triclinic'
loop_
_space_group_symop_operation_xyz
x,y,z
-x,-y,-z
loop_
_atom_site_type_symbol
_atom_site_label
_atom_site_fract_x
_atom_site_fract_y
_atom_site_fract_z
Si Si1 0.874434 0.055093 0.832880
Si Si2 0.157632 0.832638 0.655424
Si Si3 0.762909 0.572599 0.425945
Si Si4 0.315558 0.689010 0.976622
Si Si5 0.060234 0.569995 0.267588
Si Si6 0.665460 0.657218 0.875072
Si Si7 0.638208 0.888317 0.446270
Si Si8 0.476470 0.727047 0.387039
O O1 0.773650 0.947346 0.641889
O O2 0.062643 0.963067 0.727012
O O3 0.847523 0.137087 0.113453
O O4 0.817317 0.165182 0.846792
O O5 0.076987 0.711592 0.426498
O O6 0.347045 0.797305 0.597929
O O7 0.779294 0.420257 0.250035
O O8 0.717865 0.664708 0.713188
O O9 0.617741 0.610046 0.320527
O O10 0.932239 0.586606 0.411565
O O11 0.469484 0.675370 0.869706
O O12 0.382890 0.668128 0.140583
O O13 0.238151 0.482915 0.235568
O O14 0.000000 0.500000 0.000000
O O15 0.714796 0.773410 0.159475
O O16 0.559542 0.833735 0.495676
O O17 0.500000 0.000000 0.500000
#
# Coordination Sequence:
#
# PCOD8031070 Si02
#       8
#     2   2   2   2   2   2   2   2
#     4  11  23  45  65  92 143 176 219 274 331 393
#     4  11  25  43  66 100 133 178 222 275 330 392
#     4  12  24  41  68 102 131 172 227 275 331 390
#     4  11  22  42  65  96 134 174 214 275 333 398
#     4  12  24  45  68  98 138 176 223 277 330 391
#     4  11  23  41  68  97 132 174 219 279 332 391
#     4  11  23  47  67  97 131 174 223 271 336 396
#     4  11  23  41  68  97 128 175 224 271 333 394
#
# _framework density 22.537989
#
# number of rings (size 3 to 8) (size 9 to 14) (size 15 to 20)
#    0.000    0.750    2.500    7.125    0.000    1.000 
#    6.750    0.000    0.000    0.000    0.000    0.000 
#    0.000    0.000    0.000    0.000    0.000    0.000 
#
# Total GULP energy -198446.808553 kJ/mol
# GULP energy per Si atom -12402.925535 kJ/mol
# Density = 2.248669 g / cm^3
# Si number density = 22.537989 Si / 1000 Ang^3
#
#
#
# Elastic Constant Matrix: (Units=GPa)
#
#
# Indices 1 2 3 4 5 6 
#
# 1 66.2211 21.2892 30.4670 15.8994 -2.0514 4.0118
# 2 21.2892 102.1165 37.3539 18.3895 -4.2169 -8.2414
# 3 30.4670 37.3539 115.9083 12.6564 8.0898 9.2873
# 4 15.8994 18.3895 12.6564 34.9125 -6.3796 -4.5264
# 5 -2.0514 -4.2169 8.0898 -6.3796 34.3817 1.1467
# 6 4.0118 -8.2414 9.2873 -4.5264 1.1467 38.2120
#
#
#
# Elastic Compliance Matrix: (Units=1/GPa)
#
#
# Indices 1 2 3 4 5 6 
#
# 1 0.019047 -0.001597 -0.003621 -0.006701 0.000625 -0.002277
# 2 -0.001597 0.012427 -0.003519 -0.003865 0.001433 0.003202
# 3 -0.003621 -0.003519 0.011406 -0.001700 -0.003539 -0.003246
# 4 -0.006701 -0.003865 -0.001700 0.036021 0.006064 0.004368
# 5 0.000625 0.001433 -0.003539 0.006064 0.031227 0.000885
# 6 -0.002277 0.003202 -0.003246 0.004368 0.000885 0.028379
#
#
# Mechanical properties :
#
#
# Convention : Reuss Voigt Hill
#
# Bulk Modulus (GPa) = 39.36471 51.38514 45.37492
# Shear Modulus (GPa) = 30.40420 34.51029 32.45725
#
# Velocity S-wave (km/s) = 3.67689 3.91731 3.79900
# Velocity P-wave (km/s) = 5.96069 6.58098 6.27850
#
# Compressibility (1/GPa) = 0.02540347
#
# Stress axis : x y z
#
# Youngs Moduli (GPa) = 52.50274 80.47076 87.67117
#
# Poissons Ratio (x) = 0.12855 0.31748
# Poissons Ratio (y) = 0.08387 0.30856
# Poissons Ratio (z) = 0.19012 0.28322
#
# Static dielectric constant tensor:
#      x y z
#    x 4.104790 -0.225190 0.030760 
#    y -0.225190 4.082780 0.121170 
#    z 0.030760 0.121170 4.471210 
# 
# 
# High freq. dielectric constant tensor:
#      x y z
#    x 1.882770 -0.014770 -0.002860 
#    y -0.014770 1.898320 0.002430 
#    z -0.002860 0.002430 1.896760 
# 
# From -- ./inp_files/209456.got.cif
#   From: 2010.06.25/outbox.cif.g09.slc.cpg/sg2_105_cif.got.tgz:209456.got - 2010.06.27 13:26:56.
