data_PCOD8031893
_publ_section_title
;
Structure prediction by ZEFSAII (Michael W. Deem and Ramdas Pophale) SiO2 
 PCOD8031893
Probable space group: P -1
;
_chemical_formula_sum "Si O2"
_cell_formula_units_Z 16
_cell_length_a 17.784928
_cell_length_b 11.357946
_cell_length_c 7.741596
_cell_angle_alpha 77.214457
_cell_angle_beta 41.753132
_cell_angle_gamma 45.747206
_cell_volume 580.789412
_symmetry_space_group_name_H-M "P -1"
_symmetry_group_IT_number 2
_symmetry_cell_setting 'triclinic'
loop_
_space_group_symop_operation_xyz
x,y,z
-x,-y,-z
loop_
_atom_site_type_symbol
_atom_site_label
_atom_site_fract_x
_atom_site_fract_y
_atom_site_fract_z
Si Si1 0.870259 0.711558 0.858621
Si Si2 0.200941 0.885982 0.737880
Si Si3 0.784465 0.215084 0.877447
Si Si4 0.484587 0.911712 0.880343
Si Si5 0.669692 0.983450 0.459730
Si Si6 0.625031 0.472668 0.621469
Si Si7 0.682945 0.642449 0.277485
Si Si8 0.276152 0.486394 0.227182
O O1 0.094420 0.553997 0.502845
O O2 0.866377 0.568069 0.932957
O O3 0.742238 0.865475 0.859564
O O4 0.785034 0.839768 0.139655
O O5 0.201487 0.029680 0.655050
O O6 0.358596 0.682413 0.409203
O O7 0.247267 0.827619 0.877558
O O8 0.000000 0.000000 0.000000
O O9 0.743649 0.395521 0.927839
O O10 0.613098 0.303027 0.022555
O O11 0.000000 0.000000 0.500000
O O12 0.588649 0.775543 0.571657
O O13 0.525790 0.771631 0.002955
O O14 0.607228 0.928035 0.714726
O O15 0.463624 0.225341 0.677023
O O16 0.730241 0.461367 0.294443
O O17 0.741459 0.403882 0.617605
#
# Coordination Sequence:
#
# PCOD8031893 Si02
#       8
#     2   2   2   2   2   2   2   2
#     4   9  17  34  58  95 127 162 213 275 323 372
#     4  12  25  41  65  99 131 178 224 268 327 391
#     4  12  26  43  65  93 138 180 216 273 328 391
#     4   8  18  33  57  92 122 162 212 270 323 367
#     4   9  16  33  58  86 126 162 213 271 313 372
#     4  11  23  42  65 100 130 176 223 265 330 395
#     4   8  16  31  61  90 123 163 215 276 319 370
#     4  11  23  37  66  98 133 167 211 270 335 398
#
# _framework density 27.54871
#
# number of rings (size 3 to 8) (size 9 to 14) (size 15 to 20)
#    0.000    2.000    1.250    4.500    3.500    5.500 
#    0.000    0.000    0.000    3.750    0.000    0.000 
#    0.000    0.000    0.000    0.000    0.000    0.000 
#
# Total GULP energy -198227.051976 kJ/mol
# GULP energy per Si atom -12389.190749 kJ/mol
# Density = 2.748601 g / cm^3
# Si number density = 27.548710 Si / 1000 Ang^3
#
#
#
# Elastic Constant Matrix: (Units=GPa)
#
#
# Indices 1 2 3 4 5 6 
#
# 1 96.7826 25.6439 33.6605 -6.4039 -30.5899 17.1099
# 2 25.6439 134.0749 20.0758 -21.7449 -7.3705 20.7171
# 3 33.6605 20.0758 90.3055 -3.6266 -35.2541 -6.4968
# 4 -6.4039 -21.7449 -3.6266 39.9464 2.0531 -7.5556
# 5 -30.5899 -7.3705 -35.2541 2.0531 43.3435 -4.1916
# 6 17.1099 20.7171 -6.4968 -7.5556 -4.1916 39.0821
#
#
#
# Elastic Compliance Matrix: (Units=1/GPa)
#
#
# Indices 1 2 3 4 5 6 
#
# 1 0.014993 -0.001162 -0.002765 0.000075 0.007592 -0.005579
# 2 -0.001162 0.009244 -0.002506 0.003910 -0.001883 -0.004254
# 3 -0.002765 -0.002506 0.018351 0.000524 0.013211 0.007108
# 4 0.000075 0.003910 0.000524 0.027854 0.000152 0.003383
# 5 0.007592 -0.001883 0.013211 0.000152 0.039245 0.004109
# 6 -0.005579 -0.004254 0.007108 0.003383 0.004109 0.032561
#
#
# Mechanical properties :
#
#
# Convention : Reuss Voigt Hill
#
# Bulk Modulus (GPa) = 33.64502 53.32482 43.48492
# Shear Modulus (GPa) = 30.29935 40.59326 35.44630
#
# Velocity S-wave (km/s) = 3.31999 3.84279 3.59092
# Velocity P-wave (km/s) = 5.18998 6.25204 5.74560
#
# Compressibility (1/GPa) = 0.02972208
#
# Stress axis : x y z
#
# Youngs Moduli (GPa) = 66.69984 108.17765 54.49280
#
# Poissons Ratio (x) = 0.12572 0.15065
# Poissons Ratio (y) = 0.07752 0.13656
# Poissons Ratio (z) = 0.18439 0.27110
#
# Static dielectric constant tensor:
#      x y z
#    x 4.993920 0.137430 -0.297990 
#    y 0.137430 6.008380 -0.357030 
#    z -0.297990 -0.357030 4.715970 
# 
# 
# High freq. dielectric constant tensor:
#      x y z
#    x 2.123590 0.011780 -0.007870 
#    y 0.011780 2.118680 -0.023890 
#    z -0.007870 -0.023890 2.097910 
# 
# From -- ./inp_files/333203.got.cif
#   From: 2010.06.25/outbox.cif.g09.slc.cpg/sg2_167_cif.got.tgz:333203.got - 2010.06.27 13:26:56.
