data_PCOD8031639
_publ_section_title
;
Structure prediction by ZEFSAII (Michael W. Deem and Ramdas Pophale) SiO2 
 PCOD8031639
Probable space group: P -1
;
_chemical_formula_sum "Si O2"
_cell_formula_units_Z 16
_cell_length_a 15.038480
_cell_length_b 8.990683
_cell_length_c 9.281930
_cell_angle_alpha 67.390319
_cell_angle_beta 37.362837
_cell_angle_gamma 65.999301
_cell_volume 691.499978
_symmetry_space_group_name_H-M "P -1"
_symmetry_group_IT_number 2
_symmetry_cell_setting 'triclinic'
loop_
_space_group_symop_operation_xyz
x,y,z
-x,-y,-z
loop_
_atom_site_type_symbol
_atom_site_label
_atom_site_fract_x
_atom_site_fract_y
_atom_site_fract_z
Si Si1 0.222256 0.167861 0.560155
Si Si2 0.977517 0.506331 0.355734
Si Si3 0.719320 0.146676 0.221053
Si Si4 0.864096 0.262212 0.413174
Si Si5 0.177565 0.054498 0.080486
Si Si6 0.384443 0.245714 0.575493
Si Si7 0.781557 0.456795 0.174016
Si Si8 0.327326 0.997054 0.211511
O O1 0.074202 0.306793 0.701914
O O2 0.355137 0.242267 0.441565
O O3 0.199020 0.993081 0.722226
O O4 0.255627 0.138026 0.360745
O O5 0.862434 0.386403 0.504770
O O6 0.000000 0.500000 0.500000
O O7 0.125208 0.443235 0.090537
O O8 0.543647 0.137087 0.446391
O O9 0.721128 0.329237 0.197953
O O10 0.794811 0.120702 0.974276
O O11 0.882189 0.361014 0.207011
O O12 0.714486 0.181967 0.633078
O O13 0.002338 0.112126 0.309291
O O14 0.268237 0.049801 0.111307
O O15 0.246307 0.168574 0.839263
O O16 0.358847 0.426048 0.613060
O O17 0.500000 0.000000 0.000000
#
# Coordination Sequence:
#
# PCOD8031639 Si02
#       8
#     2   2   2   2   2   2   2   2
#     4  11  23  44  70  99 137 184 236 289 347 429
#     4  12  27  46  70 104 144 185 236 296 358 424
#     4  11  24  41  70 105 138 188 242 289 350 429
#     4  12  25  47  71 104 141 190 242 289 358 429
#     4  11  24  42  72 100 142 187 237 296 356 414
#     4  11  22  45  68 100 145 188 234 291 355 423
#     4  12  24  44  72 101 145 183 238 293 354 419
#     4  12  26  46  71 105 148 182 232 303 365 421
#
# _framework density 23.138107999999999
#
# number of rings (size 3 to 8) (size 9 to 14) (size 15 to 20)
#    0.000    0.500    3.750    6.375    3.500    1.000 
#    0.000    0.625    0.000    0.000    0.000    0.000 
#    0.000    0.000    0.000    0.000    0.000    0.000 
#
# Total GULP energy -198332.046777 kJ/mol
# GULP energy per Si atom -12395.752924 kJ/mol
# Density = 2.308544 g / cm^3
# Si number density = 23.138108 Si / 1000 Ang^3
#
#
#
# Elastic Constant Matrix: (Units=GPa)
#
#
# Indices 1 2 3 4 5 6 
#
# 1 123.2734 26.3706 41.2080 0.7455 26.8040 15.4674
# 2 26.3706 93.3387 19.7084 3.7739 12.7703 22.3675
# 3 41.2080 19.7084 73.3457 -3.1811 5.8464 7.0087
# 4 0.7455 3.7739 -3.1811 30.2692 12.4858 2.9827
# 5 26.8040 12.7703 5.8464 12.4858 35.6159 6.1864
# 6 15.4674 22.3675 7.0087 2.9827 6.1864 53.1407
#
#
#
# Elastic Compliance Matrix: (Units=1/GPa)
#
#
# Indices 1 2 3 4 5 6 
#
# 1 0.012286 -0.000794 -0.005704 0.002983 -0.008787 -0.001634
# 2 -0.000794 0.012921 -0.002381 -0.000252 -0.002765 -0.004558
# 3 -0.005704 -0.002381 0.017399 0.001542 0.001736 0.000079
# 4 0.002983 -0.000252 0.001542 0.039965 -0.016188 -0.001324
# 5 -0.008787 -0.002765 0.001736 -0.016188 0.041139 -0.000388
# 6 -0.001634 -0.004558 0.000079 -0.001324 -0.000388 0.021321
#
#
# Mechanical properties :
#
#
# Convention : Reuss Voigt Hill
#
# Bulk Modulus (GPa) = 40.24126 51.61466 45.92796
# Shear Modulus (GPa) = 29.22751 37.31656 33.27204
#
# Velocity S-wave (km/s) = 3.55798 4.02029 3.79618
# Velocity P-wave (km/s) = 5.85734 6.62616 6.25358
#
# Compressibility (1/GPa) = 0.02485012
#
# Stress axis : x y z
#
# Youngs Moduli (GPa) = 81.39301 77.39134 57.47355
#
# Poissons Ratio (x) = 0.06141 0.32780
# Poissons Ratio (y) = 0.06459 0.13686
# Poissons Ratio (z) = 0.46423 0.18429
#
# Static dielectric constant tensor:
#      x y z
#    x 4.322870 0.413970 0.222000 
#    y 0.413970 4.456300 0.346440 
#    z 0.222000 0.346440 4.064660 
# 
# 
# High freq. dielectric constant tensor:
#      x y z
#    x 1.927640 0.023250 0.012650 
#    y 0.023250 1.925280 0.017080 
#    z 0.012650 0.017080 1.888970 
# 
# From -- ./inp_files/206471.got.cif
#   From: 2010.06.25/outbox.cif.g09.slc.cpg/sg2_104_cif.got.tgz:206471.got - 2010.06.27 13:26:56.
