data_PCOD8031948
_publ_section_title
;
Structure prediction by ZEFSAII (Michael W. Deem and Ramdas Pophale) SiO2 
 PCOD8031948
Probable space group: P -1
;
_chemical_formula_sum "Si O2"
_cell_formula_units_Z 14
_cell_length_a 13.507818
_cell_length_b 14.206641
_cell_length_c 12.156535
_cell_angle_alpha 111.878079
_cell_angle_beta 119.322844
_cell_angle_gamma 20.244032
_cell_volume 673.994762
_symmetry_space_group_name_H-M "P -1"
_symmetry_group_IT_number 2
_symmetry_cell_setting 'triclinic'
loop_
_space_group_symop_operation_xyz
x,y,z
-x,-y,-z
loop_
_atom_site_type_symbol
_atom_site_label
_atom_site_fract_x
_atom_site_fract_y
_atom_site_fract_z
Si Si1 0.354242 0.703045 0.219985
Si Si2 0.765695 0.874806 0.714465
Si Si3 0.755884 0.671514 0.537578
Si Si4 0.499227 0.269928 0.870373
Si Si5 0.325128 0.770467 0.837423
Si Si6 0.207031 0.579177 0.478436
Si Si7 0.261228 0.868064 0.600067
O O1 0.300484 0.821178 0.137784
O O2 0.433383 0.524322 0.143356
O O3 0.639493 0.505380 0.364261
O O4 0.032796 0.970823 0.231701
O O5 0.729513 0.782947 0.662713
O O6 0.132595 0.598350 0.788299
O O7 0.592428 0.057097 0.587297
O O8 0.595675 0.072871 0.810825
O O9 0.870414 0.475028 0.574993
O O10 0.000000 0.500000 0.500000
O O11 0.585046 0.218520 0.020761
O O12 0.368267 0.785375 0.748700
O O13 0.428361 0.418736 0.425118
O O14 0.872213 0.913269 0.419777
O O15 0.000000 0.000000 0.500000
#
# Coordination Sequence:
#
# PCOD8031948 Si02
#       7
#     2   2   2   2   2   2   2
#     4  12  21  38  62  93 127 167 207 263 314 375
#     4  11  23  39  65  92 128 154 201 261 334 371
#     4  11  24  42  68 100 127 156 208 276 333 368
#     4  12  24  40  61  96 127 171 205 256 325 380
#     4  12  25  40  61  86 136 173 212 251 304 379
#     4  12  24  38  70  92 129 160 214 264 321 363
#     4  12  24  42  61  92 129 178 211 255 296 372
#
# _framework density 20.771675999999999
#
# number of rings (size 3 to 8) (size 9 to 14) (size 15 to 20)
#    0.000    0.286    5.714    3.857    6.000    0.000 
#    0.000    0.000    0.000    5.143    0.000    0.000 
#    0.000    0.000    0.000    0.000    0.000    0.000 
#
# Total GULP energy -173691.050587 kJ/mol
# GULP energy per Si atom -12406.503613 kJ/mol
# Density = 2.072440 g / cm^3
# Si number density = 20.771676 Si / 1000 Ang^3
#
#
#
# Elastic Constant Matrix: (Units=GPa)
#
#
# Indices 1 2 3 4 5 6 
#
# 1 66.9385 15.8505 32.5608 8.9913 -1.7994 18.8300
# 2 15.8505 96.3629 20.9898 11.5762 3.3572 16.4100
# 3 32.5608 20.9898 110.2382 27.1763 -1.9845 12.2487
# 4 8.9913 11.5762 27.1763 38.2870 -3.0469 7.6473
# 5 -1.7994 3.3572 -1.9845 -3.0469 20.8660 2.8905
# 6 18.8300 16.4100 12.2487 7.6473 2.8905 44.8180
#
#
#
# Elastic Compliance Matrix: (Units=1/GPa)
#
#
# Indices 1 2 3 4 5 6 
#
# 1 0.019457 -0.001168 -0.004939 0.000822 0.002443 -0.006695
# 2 -0.001168 0.011626 -0.001068 -0.002039 -0.001955 -0.003000
# 3 -0.004939 -0.001068 0.012542 -0.007502 -0.000203 0.000331
# 4 0.000822 -0.002039 -0.007502 0.032962 0.004983 -0.003494
# 5 0.002443 -0.001955 -0.000203 0.004983 0.049756 -0.004315
# 6 -0.006695 -0.003000 0.000331 -0.003494 -0.004315 0.027008
#
#
# Mechanical properties :
#
#
# Convention : Reuss Voigt Hill
#
# Bulk Modulus (GPa) = 34.15856 45.81576 39.98716
# Shear Modulus (GPa) = 28.17541 34.40342 31.28942
#
# Velocity S-wave (km/s) = 3.68698 4.07414 3.88538
# Velocity P-wave (km/s) = 5.88265 6.65103 6.27860
#
# Compressibility (1/GPa) = 0.02927524
#
# Stress axis : x y z
#
# Youngs Moduli (GPa) = 51.39570 86.01272 79.72927
#
# Poissons Ratio (x) = 0.10049 0.39379
# Poissons Ratio (y) = 0.06005 0.08513
# Poissons Ratio (z) = 0.25385 0.09183
#
# Static dielectric constant tensor:
#      x y z
#    x 3.568280 0.113580 0.058610 
#    y 0.113580 4.108120 0.083150 
#    z 0.058610 0.083150 3.709500 
# 
# 
# High freq. dielectric constant tensor:
#      x y z
#    x 1.787310 0.004060 0.007540 
#    y 0.004060 1.841350 0.006370 
#    z 0.007540 0.006370 1.798250 
# 
# From -- ./inp_files/67054.got.cif
#   From: 2010.06.25/outbox.cif.g09.slc.cpg/sg2_34_cif.got.tgz:67054.got - 2010.06.27 13:26:56.
