data_PCOD8031398
_publ_section_title
;
Structure prediction by ZEFSAII (Michael W. Deem and Ramdas Pophale) SiO2 
 PCOD8031398
Probable space group: P -1
;
_chemical_formula_sum "Si O2"
_cell_formula_units_Z 16
_cell_length_a 28.996764
_cell_length_b 13.193073
_cell_length_c 9.663608
_cell_angle_alpha 35.970041
_cell_angle_beta 154.933151
_cell_angle_gamma 154.199800
_cell_volume 681.311643
_symmetry_space_group_name_H-M "P -1"
_symmetry_group_IT_number 2
_symmetry_cell_setting 'triclinic'
loop_
_space_group_symop_operation_xyz
x,y,z
-x,-y,-z
loop_
_atom_site_type_symbol
_atom_site_label
_atom_site_fract_x
_atom_site_fract_y
_atom_site_fract_z
Si Si1 0.414515 0.381575 0.759270
Si Si2 0.885779 0.361190 0.222641
Si Si3 0.554383 0.966755 0.821762
Si Si4 0.481246 0.645341 0.381280
Si Si5 0.154352 0.015709 0.627785
Si Si6 0.780674 0.074891 0.821367
Si Si7 0.303361 0.654844 0.674635
Si Si8 0.921007 0.722930 0.722705
O O1 0.429707 0.548779 0.503805
O O2 0.244898 0.188504 0.554564
O O3 0.500000 0.500000 0.000000
O O4 0.476631 0.270246 0.991233
O O5 0.000000 0.500000 0.500000
O O6 0.930238 0.240603 0.383658
O O7 0.888601 0.534684 0.947235
O O8 0.727640 0.182999 0.066463
O O9 0.446622 0.908462 0.717780
O O10 0.500000 0.000000 0.500000
O O11 0.500000 0.500000 0.500000
O O12 0.641257 0.903460 0.531488
O O13 0.354866 0.627865 0.988720
O O14 0.060767 0.074610 0.371041
O O15 0.255426 0.044676 0.993630
O O16 0.813015 0.314650 0.649988
O O17 0.924685 0.133000 0.093207
O O18 0.216896 0.423163 0.599088
#
# Coordination Sequence:
#
# PCOD8031398 Si02
#       8
#     2   2   2   2   2   2   2   2
#     4  11  22  43  73 105 147 185 251 308 365 447
#     4  11  27  47  72 110 150 192 249 309 374 445
#     4  11  22  43  76 103 142 190 247 299 369 446
#     4  12  26  45  72 112 150 190 250 316 375 443
#     4  11  24  47  76 108 143 201 253 300 372 454
#     4  12  26  47  72 109 151 195 256 304 377 457
#     4  12  24  46  73 108 148 200 247 311 376 440
#     4  12  26  49  76 104 154 200 247 307 385 446
#
# _framework density 23.484112
#
# number of rings (size 3 to 8) (size 9 to 14) (size 15 to 20)
#    0.000    0.500    5.000    3.375    1.750    0.500 
#    2.250    0.000    0.000    0.000    0.000    0.000 
#    0.000    0.000    0.000    0.000    0.000    0.000 
#
# Total GULP energy -198324.229945 kJ/mol
# GULP energy per Si atom -12395.264372 kJ/mol
# Density = 2.343066 g / cm^3
# Si number density = 23.484112 Si / 1000 Ang^3
#
#
#
# Elastic Constant Matrix: (Units=GPa)
#
#
# Indices 1 2 3 4 5 6 
#
# 1 103.8118 38.2431 66.9191 -2.7566 -2.7495 -3.6629
# 2 38.2431 95.4006 62.3879 2.4245 -4.0792 -13.7070
# 3 66.9191 62.3879 146.9202 0.9011 -15.9091 2.0228
# 4 -2.7566 2.4245 0.9011 45.8441 -1.9441 -2.4409
# 5 -2.7495 -4.0792 -15.9091 -1.9441 48.0113 -7.0794
# 6 -3.6629 -13.7070 2.0228 -2.4409 -7.0794 44.4488
#
#
#
# Elastic Compliance Matrix: (Units=1/GPa)
#
#
# Indices 1 2 3 4 5 6 
#
# 1 0.014042 -0.001835 -0.005753 0.001047 -0.001107 0.000734
# 2 -0.001835 0.015842 -0.005959 -0.000567 -0.000024 0.004970
# 3 -0.005753 -0.005959 0.012303 -0.000280 0.002871 -0.002430
# 4 0.001047 -0.000567 -0.000280 0.022023 0.001001 0.001293
# 5 -0.001107 -0.000024 0.002871 0.001001 0.022252 0.003370
# 6 0.000734 0.004970 -0.002430 0.001293 0.003370 0.024809
#
#
# Mechanical properties :
#
#
# Convention : Reuss Voigt Hill
#
# Bulk Modulus (GPa) = 66.25479 75.69253 70.97366
# Shear Modulus (GPa) = 34.86857 39.56634 37.21746
#
# Velocity S-wave (km/s) = 3.85746 4.10910 3.98526
# Velocity P-wave (km/s) = 6.93641 7.40367 7.17384
#
# Compressibility (1/GPa) = 0.01509325
#
# Stress axis : x y z
#
# Youngs Moduli (GPa) = 71.21685 63.12289 81.28014
#
# Poissons Ratio (x) = 0.11584 0.46759
# Poissons Ratio (y) = 0.13070 0.48433
# Poissons Ratio (z) = 0.40970 0.37613
#
# Static dielectric constant tensor:
#      x y z
#    x 4.533280 0.347810 -0.125940 
#    y 0.347810 5.196690 -0.452650 
#    z -0.125940 -0.452650 4.349860 
# 
# 
# High freq. dielectric constant tensor:
#      x y z
#    x 1.933200 -0.000200 0.001220 
#    y -0.000200 1.934700 -0.014190 
#    z 0.001220 -0.014190 1.929730 
# 
# From -- ./inp_files/357052.got.cif
#   From: 2010.06.25/outbox.cif.g09.slc.cpg/sg2_179_cif.got.tgz:357052.got - 2010.06.27 13:26:56.
