data_PCOD8031128
_publ_section_title
;
Structure prediction by ZEFSAII (Michael W. Deem and Ramdas Pophale) SiO2 
 PCOD8031128
Probable space group: P -1
;
_chemical_formula_sum "Si O2"
_cell_formula_units_Z 16
_cell_length_a 16.526295
_cell_length_b 8.870709
_cell_length_c 6.687724
_cell_angle_alpha 86.509593
_cell_angle_beta 92.202159
_cell_angle_gamma 135.339448
_cell_volume 687.847306
_symmetry_space_group_name_H-M "P -1"
_symmetry_group_IT_number 2
_symmetry_cell_setting 'triclinic'
loop_
_space_group_symop_operation_xyz
x,y,z
-x,-y,-z
loop_
_atom_site_type_symbol
_atom_site_label
_atom_site_fract_x
_atom_site_fract_y
_atom_site_fract_z
Si Si1 0.984132 0.249898 0.016094
Si Si2 0.107627 0.083355 0.639723
Si Si3 0.488467 0.554485 0.208516
Si Si4 0.295836 0.806336 0.455257
Si Si5 0.581623 0.213558 0.866351
Si Si6 0.316109 0.184581 0.495368
Si Si7 0.225555 0.506906 0.823762
Si Si8 0.064561 0.584725 0.293262
O O1 0.977780 0.375508 0.164990
O O2 0.111335 0.399728 0.935830
O O3 0.937018 0.037683 0.138832
O O4 0.911701 0.216410 0.818775
O O5 0.182958 0.056479 0.533045
O O6 0.196860 0.334398 0.680004
O O7 0.000000 0.000000 0.500000
O O8 0.491784 0.739180 0.205475
O O9 0.365166 0.332676 0.293530
O O10 0.600734 0.648323 0.332213
O O11 0.500000 0.500000 0.000000
O O12 0.386929 0.832850 0.331323
O O13 0.277231 0.710531 0.679533
O O14 0.181737 0.648600 0.322423
O O15 0.328739 0.023141 0.475588
O O16 0.685172 0.412724 0.998633
O O17 0.500000 0.000000 0.000000
O O18 0.000000 0.500000 0.500000
#
# Coordination Sequence:
#
# PCOD8031128 Si02
#       8
#     2   2   2   2   2   2   2   2
#     4  11  25  42  69 103 144 196 246 286 361 438
#     4  12  28  47  73 109 155 195 242 300 371 439
#     4  11  25  50  75 100 144 188 247 306 368 425
#     4  12  25  44  73 105 147 182 240 303 364 429
#     4  12  27  46  76 108 142 191 243 307 372 429
#     4  11  27  46  73 106 140 193 243 303 364 439
#     4  12  26  46  70 106 148 187 245 301 359 441
#     4  11  22  42  69 101 144 189 235 296 351 430
#
# _framework density 23.260977
#
# number of rings (size 3 to 8) (size 9 to 14) (size 15 to 20)
#    0.000    0.500    2.500    4.875    5.250    7.000 
#    0.000    0.000    0.000    0.000    0.000    0.000 
#    0.000    0.000    0.000    0.000    0.000    0.000 
#
# Total GULP energy -198355.156560 kJ/mol
# GULP energy per Si atom -12397.197285 kJ/mol
# Density = 2.320803 g / cm^3
# Si number density = 23.260977 Si / 1000 Ang^3
#
#
#
# Elastic Constant Matrix: (Units=GPa)
#
#
# Indices 1 2 3 4 5 6 
#
# 1 128.4262 24.0792 52.9884 -9.2982 -19.4063 -2.7631
# 2 24.0792 91.3217 36.5267 -17.1596 -18.3219 -19.5317
# 3 52.9884 36.5267 136.3186 -22.6019 -14.0225 -3.5969
# 4 -9.2982 -17.1596 -22.6019 55.8161 0.2135 0.8274
# 5 -19.4063 -18.3219 -14.0225 0.2135 42.6350 -3.5577
# 6 -2.7631 -19.5317 -3.5969 0.8274 -3.5577 34.7815
#
#
#
# Elastic Compliance Matrix: (Units=1/GPa)
#
#
# Indices 1 2 3 4 5 6 
#
# 1 0.009737 -0.000486 -0.003295 0.000119 0.003179 0.000482
# 2 -0.000486 0.016132 -0.002599 0.003662 0.006617 0.009341
# 3 -0.003295 -0.002599 0.009783 0.002622 0.000528 -0.000718
# 4 0.000119 0.003662 0.002622 0.020082 0.002567 0.002122
# 5 0.003179 0.006617 0.000528 0.002567 0.028480 0.006875
# 6 0.000482 0.009341 -0.000718 0.002122 0.006875 0.034613
#
#
# Mechanical properties :
#
#
# Convention : Reuss Voigt Hill
#
# Bulk Modulus (GPa) = 43.68559 64.80614 54.24587
# Shear Modulus (GPa) = 35.91488 42.81132 39.36310
#
# Velocity S-wave (km/s) = 3.93364 4.29473 4.11814
# Velocity P-wave (km/s) = 6.28114 7.24665 6.78110
#
# Compressibility (1/GPa) = 0.02289084
#
# Stress axis : x y z
#
# Youngs Moduli (GPa) = 102.70558 61.98948 102.21686
#
# Poissons Ratio (x) = 0.03013 0.33681
# Poissons Ratio (y) = 0.04993 0.26568
# Poissons Ratio (z) = 0.33842 0.16112
#
# Static dielectric constant tensor:
#      x y z
#    x 4.742580 0.272930 0.222490 
#    y 0.272930 4.463830 -0.004990 
#    z 0.222490 -0.004990 4.618150 
# 
# 
# High freq. dielectric constant tensor:
#      x y z
#    x 1.925780 -0.004010 -0.000440 
#    y -0.004010 1.921300 -0.003800 
#    z -0.000440 -0.003800 1.939910 
# 
# From -- ./inp_files/106742.got.cif
#   From: 2010.06.25/outbox.cif.g09.slc.cpg/sg2_54_cif.got.tgz:106742.got - 2010.06.27 13:26:56.
