data_PCOD8031011
_publ_section_title
;
Structure prediction by ZEFSAII (Michael W. Deem and Ramdas Pophale) SiO2 
 PCOD8031011
Probable space group: P -1
;
_chemical_formula_sum "Si O2"
_cell_formula_units_Z 12
_cell_length_a 12.866487
_cell_length_b 9.878567
_cell_length_c 8.640702
_cell_angle_alpha 80.585015
_cell_angle_beta 130.070700
_cell_angle_gamma 131.538831
_cell_volume 558.677184
_symmetry_space_group_name_H-M "P -1"
_symmetry_group_IT_number 2
_symmetry_cell_setting 'triclinic'
loop_
_space_group_symop_operation_xyz
x,y,z
-x,-y,-z
loop_
_atom_site_type_symbol
_atom_site_label
_atom_site_fract_x
_atom_site_fract_y
_atom_site_fract_z
Si Si1 0.987904 0.417445 0.167272
Si Si2 0.211707 0.495219 0.863114
Si Si3 0.455436 0.392664 0.639723
Si Si4 0.825956 0.017155 0.976728
Si Si5 0.074339 0.945005 0.282677
Si Si6 0.375217 0.608441 0.667260
O O1 0.859644 0.409811 0.167122
O O2 0.212643 0.567366 0.417741
O O3 0.879378 0.190718 0.093328
O O4 0.000000 0.500000 0.000000
O O5 0.348200 0.617849 0.820669
O O6 0.017945 0.255325 0.678786
O O7 0.337133 0.514202 0.115519
O O8 0.500000 0.500000 0.500000
O O9 0.364516 0.436994 0.661296
O O10 0.296451 0.149845 0.516910
O O11 0.919534 0.097297 0.881415
O O12 0.587431 0.825129 0.774049
O O13 0.923637 0.959093 0.165208
#
# Coordination Sequence:
#
# PCOD8031011 Si02
#       6
#     2   2   2   2   2   2
#     4  12  26  46  70  98 136 182 225 275 337 403
#     4  12  27  44  67 106 139 171 223 286 337 389
#     4  12  22  42  73 100 129 181 229 269 324 407
#     4  11  23  42  72 100 132 178 228 272 332 403
#     4  11  22  41  72 102 131 176 228 273 329 402
#     4  12  26  44  70 101 141 172 223 285 337 390
#
# _framework density 21.479308
#
# number of rings (size 3 to 8) (size 9 to 14) (size 15 to 20)
#    0.000    0.333    6.667    3.000    0.000    4.667 
#    0.000    0.000    0.000    0.000    0.000    0.000 
#    0.000    0.000    0.000    0.000    0.000    0.000 
#
# Total GULP energy -148884.355050 kJ/mol
# GULP energy per Si atom -12407.029587 kJ/mol
# Density = 2.143042 g / cm^3
# Si number density = 21.479308 Si / 1000 Ang^3
#
#
#
# Elastic Constant Matrix: (Units=GPa)
#
#
# Indices 1 2 3 4 5 6 
#
# 1 140.5982 50.1569 32.0208 9.5462 8.5573 -29.4514
# 2 50.1569 75.1631 45.3449 4.3599 2.4385 -15.3752
# 3 32.0208 45.3449 115.3138 18.2431 15.3472 -2.6054
# 4 9.5462 4.3599 18.2431 20.4380 -1.2196 -0.9764
# 5 8.5573 2.4385 15.3472 -1.2196 31.1063 2.6014
# 6 -29.4514 -15.3752 -2.6054 -0.9764 2.6014 36.1749
#
#
#
# Elastic Compliance Matrix: (Units=1/GPa)
#
#
# Indices 1 2 3 4 5 6 
#
# 1 0.011004 -0.005995 0.000607 -0.004301 -0.003577 0.006596
# 2 -0.005995 0.022961 -0.008795 0.006193 0.004087 0.004118
# 3 0.000607 -0.008795 0.014775 -0.012113 -0.007075 -0.001998
# 4 -0.004301 0.006193 -0.012113 0.060937 0.009126 -0.000754
# 5 -0.003577 0.004087 -0.007075 0.009126 0.037003 -0.004099
# 6 0.006596 0.004118 -0.001998 -0.000754 -0.004099 0.034894
#
#
# Mechanical properties :
#
#
# Convention : Reuss Voigt Hill
#
# Bulk Modulus (GPa) = 49.07959 65.12446 57.10202
# Shear Modulus (GPa) = 23.07006 31.11403 27.09205
#
# Velocity S-wave (km/s) = 3.28084 3.81012 3.55534
# Velocity P-wave (km/s) = 6.10338 7.05276 6.59518
#
# Compressibility (1/GPa) = 0.02037507
#
# Stress axis : x y z
#
# Youngs Moduli (GPa) = 90.87501 43.55161 67.68346
#
# Poissons Ratio (x) = 0.26108 -0.04110
# Poissons Ratio (y) = 0.54476 0.59528
# Poissons Ratio (z) = -0.05518 0.38304
#
# Static dielectric constant tensor:
#      x y z
#    x 4.100800 -0.227050 0.005170 
#    y -0.227050 3.800760 0.179650 
#    z 0.005170 0.179650 3.907760 
# 
# 
# High freq. dielectric constant tensor:
#      x y z
#    x 1.857320 -0.006050 0.003820 
#    y -0.006050 1.836890 0.014940 
#    z 0.003820 0.014940 1.843180 
# 
# From -- ./inp_files/148649.got.cif
#   From: 2010.06.25/outbox.cif.g09.slc.cpg/sg2_75_cif.got.tgz:148649.got - 2010.06.27 13:26:56.
