data_PCOD8031810
_publ_section_title
;
Structure prediction by ZEFSAII (Michael W. Deem and Ramdas Pophale) SiO2 
 PCOD8031810
Probable space group: P -1
;
_chemical_formula_sum "Si O2"
_cell_formula_units_Z 16
_cell_length_a 9.031640
_cell_length_b 9.676079
_cell_length_c 14.679798
_cell_angle_alpha 99.966017
_cell_angle_beta 108.466167
_cell_angle_gamma 133.662613
_cell_volume 722.709630
_symmetry_space_group_name_H-M "P -1"
_symmetry_group_IT_number 2
_symmetry_cell_setting 'triclinic'
loop_
_space_group_symop_operation_xyz
x,y,z
-x,-y,-z
loop_
_atom_site_type_symbol
_atom_site_label
_atom_site_fract_x
_atom_site_fract_y
_atom_site_fract_z
Si Si1 0.838384 0.024891 0.991124
Si Si2 0.551651 0.374058 0.000171
Si Si3 0.684130 0.345512 0.636248
Si Si4 0.048556 0.669495 0.589579
Si Si5 0.971132 0.274429 0.734647
Si Si6 0.230377 0.557076 0.133977
Si Si7 0.627801 0.031710 0.793860
Si Si8 0.908798 0.081746 0.527203
O O1 0.985078 0.278349 0.051962
O O2 0.639603 0.917408 0.858441
O O3 0.688938 0.889093 0.039904
O O4 0.000000 0.000000 0.000000
O O5 0.790337 0.514850 0.129448
O O6 0.500000 0.500000 0.000000
O O7 0.577346 0.347562 0.897912
O O8 0.853633 0.326168 0.668374
O O9 0.657378 0.392195 0.737503
O O10 0.389323 0.114533 0.521580
O O11 0.838451 0.547756 0.614690
O O12 0.000000 0.500000 0.500000
O O13 0.335087 0.872659 0.711069
O O14 0.017816 0.774252 0.527874
O O15 0.741221 0.042144 0.725171
O O16 0.062670 0.235504 0.667259
O O17 0.185561 0.693578 0.126062
O O18 0.000000 0.000000 0.500000
#
# Coordination Sequence:
#
# PCOD8031810 Si02
#       8
#     2   2   2   2   2   2   2   2
#     4  12  25  44  67 105 144 189 237 293 361 425
#     4  12  26  44  70 103 149 191 232 298 365 426
#     4  11  25  46  73 105 141 188 239 292 353 435
#     4  12  24  47  75 103 139 191 246 289 360 435
#     4  11  22  46  74  97 143 191 235 293 358 427
#     4  11  25  45  70 100 148 185 244 290 353 429
#     4  11  24  45  73 105 138 192 242 298 352 427
#     4  12  27  46  73 107 144 182 237 307 363 419
#
# _framework density 22.138905999999999
#
# number of rings (size 3 to 8) (size 9 to 14) (size 15 to 20)
#    0.000    0.500    6.250    2.250    5.250    1.000 
#    2.250    0.000    0.000    0.000    0.000    0.000 
#    0.000    0.000    0.000    0.000    0.000    0.000 
#
# Total GULP energy -198250.372471 kJ/mol
# GULP energy per Si atom -12390.648279 kJ/mol
# Density = 2.208852 g / cm^3
# Si number density = 22.138906 Si / 1000 Ang^3
#
#
#
# Elastic Constant Matrix: (Units=GPa)
#
#
# Indices 1 2 3 4 5 6 
#
# 1 108.5738 60.6124 49.4221 -12.0349 -23.8254 1.3379
# 2 60.6124 182.8796 44.2656 -23.9258 -11.4082 21.2476
# 3 49.4221 44.2656 85.4733 -14.8551 -25.5579 4.1188
# 4 -12.0349 -23.9258 -14.8551 37.6119 9.3611 -7.1887
# 5 -23.8254 -11.4082 -25.5579 9.3611 32.7186 -11.1892
# 6 1.3379 21.2476 4.1188 -7.1887 -11.1892 49.7641
#
#
#
# Elastic Compliance Matrix: (Units=1/GPa)
#
#
# Indices 1 2 3 4 5 6 
#
# 1 0.014972 -0.003801 -0.004853 -0.000705 0.007050 0.003105
# 2 -0.003801 0.007870 -0.002339 0.003183 -0.003957 -0.003494
# 3 -0.004853 -0.002339 0.019238 0.002308 0.010804 0.002300
# 4 -0.000705 0.003183 0.002308 0.031087 -0.005940 0.001624
# 5 0.007050 -0.003957 0.010804 -0.005940 0.048067 0.010555
# 6 0.003105 -0.003494 0.002300 0.001624 0.010555 0.023921
#
#
# Mechanical properties :
#
#
# Convention : Reuss Voigt Hill
#
# Bulk Modulus (GPa) = 49.76712 76.16964 62.96838
# Shear Modulus (GPa) = 28.76259 38.86068 33.81163
#
# Velocity S-wave (km/s) = 3.60833 4.19419 3.91224
# Velocity P-wave (km/s) = 6.31573 7.61150 6.99369
#
# Compressibility (1/GPa) = 0.02009359
#
# Stress axis : x y z
#
# Youngs Moduli (GPa) = 66.79279 127.07151 51.98056
#
# Poissons Ratio (x) = 0.48297 0.25224
# Poissons Ratio (y) = 0.25386 0.12161
# Poissons Ratio (z) = 0.32412 0.29728
#
# Static dielectric constant tensor:
#      x y z
#    x 3.610830 0.550190 -0.103820 
#    y 0.550190 3.583370 -0.400620 
#    z -0.103820 -0.400620 4.244640 
# 
# 
# High freq. dielectric constant tensor:
#      x y z
#    x 1.861710 0.013130 -0.008180 
#    y 0.013130 1.884990 -0.016750 
#    z -0.008180 -0.016750 1.876650 
# 
# From -- ./inp_files/495267.got.cif
#   From: 2010.06.25/outbox.cif.g09.slc.cpg/sg2_248_cif.got.tgz:495267.got - 2010.06.27 13:26:56.
