data_PCOD8031721
_publ_section_title
;
Structure prediction by ZEFSAII (Michael W. Deem and Ramdas Pophale) SiO2 
 PCOD8031721
Probable space group: P -1
;
_chemical_formula_sum "Si O2"
_cell_formula_units_Z 16
_cell_length_a 18.466754
_cell_length_b 9.330819
_cell_length_c 16.943776
_cell_angle_alpha 137.739787
_cell_angle_beta 29.911677
_cell_angle_gamma 150.829042
_cell_volume 707.937090
_symmetry_space_group_name_H-M "P -1"
_symmetry_group_IT_number 2
_symmetry_cell_setting 'triclinic'
loop_
_space_group_symop_operation_xyz
x,y,z
-x,-y,-z
loop_
_atom_site_type_symbol
_atom_site_label
_atom_site_fract_x
_atom_site_fract_y
_atom_site_fract_z
Si Si1 0.182555 0.529749 0.205045
Si Si2 0.038423 0.371713 0.637936
Si Si3 0.201263 0.579646 0.817722
Si Si4 0.443032 0.113152 0.270706
Si Si5 0.675339 0.075565 0.313601
Si Si6 0.590414 0.512148 0.141808
Si Si7 0.217537 0.241633 0.302490
Si Si8 0.924689 0.017877 0.355253
O O1 0.092813 0.669783 0.326007
O O2 0.004500 0.208353 0.278491
O O3 0.369632 0.795443 0.191695
O O4 0.241582 0.472822 0.045150
O O5 0.119776 0.645358 0.725288
O O6 0.208106 0.394057 0.447947
O O7 0.908357 0.099131 0.707638
O O8 0.349599 0.694827 0.798537
O O9 0.326560 0.840033 0.740122
O O10 0.135363 0.286192 0.725664
O O11 0.000000 0.500000 0.000000
O O12 0.479016 0.284197 0.226440
O O13 0.272171 0.060865 0.460651
O O14 0.500000 0.000000 0.500000
O O15 0.680948 0.827052 0.212688
O O16 0.450518 0.413624 0.155796
O O17 0.124602 0.249712 0.315245
#
# Coordination Sequence:
#
# PCOD8031721 Si02
#       8
#     2   2   2   2   2   2   2   2
#     4  12  28  43  73 108 141 180 236 298 354 402
#     4  11  23  44  72 100 140 184 238 285 339 423
#     4  12  30  49  68 106 146 185 227 296 359 411
#     4  12  27  49  72 100 145 187 233 287 354 420
#     4  12  26  45  74 103 137 192 235 284 346 425
#     4  12  27  45  71 108 138 186 234 294 348 416
#     4  11  22  45  74 101 138 185 242 280 343 418
#     4  12  26  48  71 105 141 189 230 291 345 428
#
# _framework density 22.600878000000002
#
# number of rings (size 3 to 8) (size 9 to 14) (size 15 to 20)
#    0.000    0.250    5.000    3.375    8.750    1.000 
#    0.000    0.000    0.000    0.000    0.000    0.000 
#    0.000    0.000    0.000    0.000    0.000    0.000 
#
# Total GULP energy -198349.943938 kJ/mol
# GULP energy per Si atom -12396.871496 kJ/mol
# Density = 2.254944 g / cm^3
# Si number density = 22.600878 Si / 1000 Ang^3
#
#
#
# Elastic Constant Matrix: (Units=GPa)
#
#
# Indices 1 2 3 4 5 6 
#
# 1 86.6626 20.2784 32.8468 -12.2368 -8.0544 8.2817
# 2 20.2784 119.3149 31.3134 13.0208 8.9501 -11.6099
# 3 32.8468 31.3134 133.9298 12.7164 15.2055 -7.0581
# 4 -12.2368 13.0208 12.7164 41.5732 4.3278 5.3958
# 5 -8.0544 8.9501 15.2055 4.3278 35.1898 -6.5236
# 6 8.2817 -11.6099 -7.0581 5.3958 -6.5236 45.2657
#
#
#
# Elastic Compliance Matrix: (Units=1/GPa)
#
#
# Indices 1 2 3 4 5 6 
#
# 1 0.015902 -0.003067 -0.004638 0.007169 0.004690 -0.004598
# 2 -0.003067 0.010007 -0.000833 -0.004013 -0.001797 0.003217
# 3 -0.004638 -0.000833 0.009755 -0.003911 -0.004210 0.002016
# 4 0.007169 -0.004013 -0.003911 0.029517 -0.000491 -0.006540
# 5 0.004690 -0.001797 -0.004210 -0.000491 0.032336 0.002743
# 6 -0.004598 0.003217 0.002016 -0.006540 0.002743 0.025247
#
#
# Mechanical properties :
#
#
# Convention : Reuss Voigt Hill
#
# Bulk Modulus (GPa) = 53.80097 56.53162 55.16629
# Shear Modulus (GPa) = 34.23816 41.43699 37.83757
#
# Velocity S-wave (km/s) = 3.89640 4.28650 4.09609
# Velocity P-wave (km/s) = 6.64071 7.04032 6.84343
#
# Compressibility (1/GPa) = 0.01858703
#
# Stress axis : x y z
#
# Youngs Moduli (GPa) = 62.88460 99.93258 102.51670
#
# Poissons Ratio (x) = 0.30648 0.47552
# Poissons Ratio (y) = 0.19286 0.08539
# Poissons Ratio (z) = 0.29169 0.08323
#
# Static dielectric constant tensor:
#      x y z
#    x 4.358540 0.217350 -0.042490 
#    y 0.217350 4.283370 0.079420 
#    z -0.042490 0.079420 4.001280 
# 
# 
# High freq. dielectric constant tensor:
#      x y z
#    x 1.892150 0.003170 -0.003150 
#    y 0.003170 1.907420 0.008420 
#    z -0.003150 0.008420 1.894290 
# 
# From -- ./inp_files/566592.got.cif
#   From: 2010.06.25/outbox.cif.g09.slc.cpg/sg2_284_cif.got.tgz:566592.got - 2010.06.27 13:26:56.
