data_PCOD8031383
_publ_section_title
;
Structure prediction by ZEFSAII (Michael W. Deem and Ramdas Pophale) SiO2 
 PCOD8031383
Probable space group: P -1
;
_chemical_formula_sum "Si O2"
_cell_formula_units_Z 16
_cell_length_a 8.831790
_cell_length_b 13.488842
_cell_length_c 8.438607
_cell_angle_alpha 44.416372
_cell_angle_beta 73.528575
_cell_angle_gamma 81.506525
_cell_volume 672.445498
_symmetry_space_group_name_H-M "P -1"
_symmetry_group_IT_number 2
_symmetry_cell_setting 'triclinic'
loop_
_space_group_symop_operation_xyz
x,y,z
-x,-y,-z
loop_
_atom_site_type_symbol
_atom_site_label
_atom_site_fract_x
_atom_site_fract_y
_atom_site_fract_z
Si Si1 0.971817 0.276168 0.457609
Si Si2 0.917973 0.979259 0.718381
Si Si3 0.444404 0.770556 0.913711
Si Si4 0.314180 0.703023 0.703657
Si Si5 0.744157 0.612787 0.940490
Si Si6 0.195249 0.584420 0.357142
Si Si7 0.442145 0.973440 0.222923
Si Si8 0.075753 0.337688 0.850299
O O1 0.863416 0.289093 0.317119
O O2 0.891758 0.337677 0.563821
O O3 0.985109 0.106753 0.668993
O O4 0.146752 0.352183 0.286280
O O5 0.731327 0.978124 0.752154
O O6 0.945724 0.831698 0.966045
O O7 0.000000 0.000000 0.500000
O O8 0.326478 0.765669 0.805495
O O9 0.446613 0.929846 0.800536
O O10 0.619755 0.730485 0.862585
O O11 0.371375 0.657547 0.196020
O O12 0.356375 0.539545 0.873939
O O13 0.442186 0.804261 0.449267
O O14 0.864401 0.611798 0.052971
O O15 0.199492 0.417624 0.594500
O O16 0.093043 0.600308 0.208626
O O17 0.500000 0.000000 0.000000
#
# Coordination Sequence:
#
# PCOD8031383 Si02
#       8
#     2   2   2   2   2   2   2   2
#     4  11  23  45  70  99 132 178 229 276 331 402
#     4  11  22  43  72  98 129 182 227 271 334 403
#     4  12  25  46  66 103 136 178 223 279 341 400
#     4  11  25  43  72  96 137 183 226 272 336 410
#     4  12  24  44  71  99 136 177 228 280 334 398
#     4  11  27  43  70 102 134 178 224 281 339 398
#     4  11  25  45  67 101 137 178 221 278 345 397
#     4  11  24  46  70  99 135 179 226 276 337 404
#
# _framework density 23.793749999999999
#
# number of rings (size 3 to 8) (size 9 to 14) (size 15 to 20)
#    0.000    0.750    3.750    3.375    5.250    2.000 
#    4.500    0.000    0.000    0.000    0.000    0.000 
#    0.000    0.000    0.000    0.000    0.000    0.000 
#
# Total GULP energy -198330.479926 kJ/mol
# GULP energy per Si atom -12395.654995 kJ/mol
# Density = 2.373959 g / cm^3
# Si number density = 23.793750 Si / 1000 Ang^3
#
#
#
# Elastic Constant Matrix: (Units=GPa)
#
#
# Indices 1 2 3 4 5 6 
#
# 1 65.1581 30.6504 31.8422 14.6346 -13.9792 5.1902
# 2 30.6504 110.1652 53.0739 -10.8666 -7.7137 10.3204
# 3 31.8422 53.0739 164.1600 -24.2873 -24.9615 -2.8379
# 4 14.6346 -10.8666 -24.2873 55.8609 -2.2541 -11.0727
# 5 -13.9792 -7.7137 -24.9615 -2.2541 37.5273 4.1433
# 6 5.1902 10.3204 -2.8379 -11.0727 4.1433 31.4214
#
#
#
# Elastic Compliance Matrix: (Units=1/GPa)
#
#
# Indices 1 2 3 4 5 6 
#
# 1 0.023236 -0.004599 -0.003764 -0.009752 0.005373 -0.006813
# 2 -0.004599 0.012155 -0.002951 0.001701 -0.000766 -0.002799
# 3 -0.003764 -0.002951 0.009247 0.005344 0.004046 0.003776
# 4 -0.009752 0.001701 0.005344 0.025183 0.000644 0.010324
# 5 0.005373 -0.000766 0.004046 0.000644 0.031687 -0.004222
# 6 -0.006813 -0.002799 0.003776 0.010324 -0.004222 0.038406
#
#
# Mechanical properties :
#
#
# Convention : Reuss Voigt Hill
#
# Bulk Modulus (GPa) = 45.43380 63.40183 54.41782
# Shear Modulus (GPa) = 29.43289 39.88970 34.66129
#
# Velocity S-wave (km/s) = 3.52092 4.09892 3.82087
# Velocity P-wave (km/s) = 5.97206 7.00756 6.51043
#
# Compressibility (1/GPa) = 0.02201005
#
# Stress axis : x y z
#
# Youngs Moduli (GPa) = 43.03730 82.27229 108.14424
#
# Poissons Ratio (x) = 0.37837 0.40703
# Poissons Ratio (y) = 0.19793 0.31913
# Poissons Ratio (z) = 0.16198 0.24278
#
# Static dielectric constant tensor:
#      x y z
#    x 4.032960 0.288850 -0.166520 
#    y 0.288850 4.300210 -0.399760 
#    z -0.166520 -0.399760 4.856240 
# 
# 
# High freq. dielectric constant tensor:
#      x y z
#    x 1.920620 0.020270 -0.019080 
#    y 0.020270 1.940490 -0.013310 
#    z -0.019080 -0.013310 1.965170 
# 
# From -- ./inp_files/205093.got.cif
#   From: 2010.06.25/outbox.cif.g09.slc.cpg/sg2_103_cif.got.tgz:205093.got - 2010.06.27 13:26:56.
