data_PCOD8031848
_publ_section_title
;
Structure prediction by ZEFSAII (Michael W. Deem and Ramdas Pophale) SiO2 
 PCOD8031848
Probable space group: P -1
;
_chemical_formula_sum "Si O2"
_cell_formula_units_Z 14
_cell_length_a 11.450169
_cell_length_b 10.789940
_cell_length_c 7.365678
_cell_angle_alpha 141.110878
_cell_angle_beta 86.936567
_cell_angle_gamma 99.875227
_cell_volume 558.116155
_symmetry_space_group_name_H-M "P -1"
_symmetry_group_IT_number 2
_symmetry_cell_setting 'triclinic'
loop_
_space_group_symop_operation_xyz
x,y,z
-x,-y,-z
loop_
_atom_site_type_symbol
_atom_site_label
_atom_site_fract_x
_atom_site_fract_y
_atom_site_fract_z
Si Si1 0.346557 0.291494 0.631578
Si Si2 0.217448 0.793837 0.444279
Si Si3 0.941020 0.928523 0.112511
Si Si4 0.183584 0.881842 0.151655
Si Si5 0.727883 0.586997 0.842193
Si Si6 0.476005 0.976616 0.686477
Si Si7 0.354789 0.640875 0.749756
O O1 0.466254 0.213942 0.480122
O O2 0.342714 0.495782 0.759899
O O3 0.232419 0.120130 0.386142
O O4 0.342348 0.324094 0.889422
O O5 0.241632 0.815115 0.253055
O O6 0.196905 0.562600 0.242123
O O7 0.335222 0.921899 0.682301
O O8 0.096657 0.873272 0.579675
O O9 0.040279 0.847333 0.129798
O O10 0.822335 0.755756 0.919725
O O11 0.000000 0.000000 0.000000
O O12 0.235766 0.738843 0.841892
O O13 0.633283 0.480788 0.575946
O O14 0.500000 0.000000 0.500000
O O15 0.530979 0.176480 0.025259
#
# Coordination Sequence:
#
# PCOD8031848 Si02
#       7
#     2   2   2   2   2   2   2
#     4  11  23  46  75 105 145 190 233 291 356 426
#     4  12  25  46  72 104 140 193 237 289 358 425
#     4  12  27  47  73 103 144 186 243 301 355 419
#     4  11  23  47  72 101 142 190 236 290 355 420
#     4  12  26  45  73 110 144 183 243 295 355 422
#     4  11  22  47  73 103 149 189 234 289 354 431
#     4  11  25  45  74 110 145 187 238 291 355 424
#
# _framework density 25.084382999999999
#
# number of rings (size 3 to 8) (size 9 to 14) (size 15 to 20)
#    0.000    0.571    5.714    2.143    0.000    9.143 
#    0.000    5.000    0.000    0.000    0.000    0.000 
#    0.000    0.000    0.000    0.000    0.000    0.000 
#
# Total GULP energy -173585.204337 kJ/mol
# GULP energy per Si atom -12398.943167 kJ/mol
# Density = 2.502729 g / cm^3
# Si number density = 25.084383 Si / 1000 Ang^3
#
#
#
# Elastic Constant Matrix: (Units=GPa)
#
#
# Indices 1 2 3 4 5 6 
#
# 1 94.6013 27.5233 30.8724 -8.7194 0.4014 -7.4568
# 2 27.5233 116.5238 42.9438 18.3178 -1.1239 9.1327
# 3 30.8724 42.9438 125.8220 3.6178 5.3076 0.0295
# 4 -8.7194 18.3178 3.6178 30.9635 -5.0687 -4.1328
# 5 0.4014 -1.1239 5.3076 -5.0687 26.7870 -1.0258
# 6 -7.4568 9.1327 0.0295 -4.1328 -1.0258 28.5498
#
#
#
# Elastic Compliance Matrix: (Units=1/GPa)
#
#
# Indices 1 2 3 4 5 6 
#
# 1 0.013650 -0.004037 -0.002264 0.007585 0.001741 0.006020
# 2 -0.004037 0.012591 -0.003006 -0.009227 -0.000808 -0.006444
# 3 -0.002264 -0.003006 0.009624 -0.000286 -0.002044 0.000245
# 4 0.007585 -0.009227 -0.000286 0.042771 0.008086 0.011415
# 5 0.001741 -0.000808 -0.002044 0.008086 0.039333 0.003299
# 6 0.006020 -0.006444 0.000245 0.011415 0.003299 0.040431
#
#
# Mechanical properties :
#
#
# Convention : Reuss Voigt Hill
#
# Bulk Modulus (GPa) = 57.97037 59.95845 58.96441
# Shear Modulus (GPa) = 27.35748 32.96722 30.16235
#
# Velocity S-wave (km/s) = 3.30603 3.62920 3.47138
# Velocity P-wave (km/s) = 6.14276 6.44329 6.29482
#
# Compressibility (1/GPa) = 0.01725019
#
# Stress axis : x y z
#
# Youngs Moduli (GPa) = 73.25747 79.42130 103.91088
#
# Poissons Ratio (x) = 0.32064 0.23529
# Poissons Ratio (y) = 0.29576 0.31235
# Poissons Ratio (z) = 0.16588 0.23873
#
# Static dielectric constant tensor:
#      x y z
#    x 5.469110 0.075300 -0.322450 
#    y 0.075300 4.613900 0.050390 
#    z -0.322450 0.050390 4.672390 
# 
# 
# High freq. dielectric constant tensor:
#      x y z
#    x 1.991370 -0.007800 -0.014430 
#    y -0.007800 2.012300 0.005950 
#    z -0.014430 0.005950 2.005080 
# 
# From -- ./inp_files/260967.got.cif
#   From: 2010.06.25/outbox.cif.g09.slc.cpg/sg2_131_cif.got.tgz:260967.got - 2010.06.27 13:26:56.
