data_PCOD8031992
_publ_section_title
;
Structure prediction by ZEFSAII (Michael W. Deem and Ramdas Pophale) SiO2 
 PCOD8031992
Probable space group: P -1
;
_chemical_formula_sum "Si O2"
_cell_formula_units_Z 16
_cell_length_a 14.178404
_cell_length_b 5.352592
_cell_length_c 17.457005
_cell_angle_alpha 108.659631
_cell_angle_beta 32.822163
_cell_angle_gamma 95.623042
_cell_volume 641.585202
_symmetry_space_group_name_H-M "P -1"
_symmetry_group_IT_number 2
_symmetry_cell_setting 'triclinic'
loop_
_space_group_symop_operation_xyz
x,y,z
-x,-y,-z
loop_
_atom_site_type_symbol
_atom_site_label
_atom_site_fract_x
_atom_site_fract_y
_atom_site_fract_z
Si Si1 0.452309 0.098366 0.180841
Si Si2 0.844066 0.979455 0.934812
Si Si3 0.300502 0.726804 0.160394
Si Si4 0.212002 0.813382 0.845940
Si Si5 0.838588 0.376000 0.599985
Si Si6 0.979880 0.338602 0.773845
Si Si7 0.300407 0.975061 0.432906
Si Si8 0.590316 0.833738 0.346805
O O1 0.366721 0.429807 0.266262
O O2 0.342274 0.011884 0.177467
O O3 0.412716 0.000903 0.282924
O O4 0.669527 0.994426 0.000933
O O5 0.949024 0.655413 0.852610
O O6 0.988344 0.126383 0.818476
O O7 0.738960 0.154800 0.096516
O O8 0.163694 0.718251 0.321434
O O9 0.196024 0.696350 0.152569
O O10 0.500000 0.500000 0.000000
O O11 0.267707 0.477331 0.759032
O O12 0.318605 0.955461 0.731832
O O13 0.000000 0.000000 0.000000
O O14 0.863604 0.141877 0.494263
O O15 0.000000 0.500000 0.500000
O O16 0.172865 0.261504 0.588586
O O17 0.440141 0.795976 0.384928
O O18 0.500000 0.000000 0.500000
#
# Coordination Sequence:
#
# PCOD8031992 Si02
#       8
#     2   2   2   2   2   2   2   2
#     4  11  23  43  70  94 142 197 241 299 374 432
#     4  12  27  46  73 104 145 193 244 294 379 433
#     4  11  23  40  62 101 139 187 249 307 358 425
#     4  12  28  52  82 112 155 191 246 306 380 459
#     4  11  24  41  70  99 142 196 248 300 376 431
#     4  12  28  43  70 108 145 193 247 309 357 435
#     4  11  27  45  71 104 151 192 249 306 375 448
#     4  12  28  51  82 117 150 196 247 310 379 450
#
# _framework density 24.938231999999999
#
# number of rings (size 3 to 8) (size 9 to 14) (size 15 to 20)
#    0.000    0.500    2.500    4.500   10.500    3.000 
#    0.000    0.000    0.000    0.000    0.000    0.000 
#    0.000    0.000    0.000    0.000    0.000    0.000 
#
# Total GULP energy -198221.980613 kJ/mol
# GULP energy per Si atom -12388.873788 kJ/mol
# Density = 2.488147 g / cm^3
# Si number density = 24.938232 Si / 1000 Ang^3
#
#
#
# Elastic Constant Matrix: (Units=GPa)
#
#
# Indices 1 2 3 4 5 6 
#
# 1 70.5466 14.4974 5.6374 1.2434 10.6655 -4.6501
# 2 14.4974 142.6877 32.8710 10.7925 13.3253 -5.5799
# 3 5.6374 32.8710 87.3258 13.6082 8.0815 8.0119
# 4 1.2434 10.7925 13.6082 48.4003 -2.3851 -4.6628
# 5 10.6655 13.3253 8.0815 -2.3851 43.2247 7.2650
# 6 -4.6501 -5.5799 8.0119 -4.6628 7.2650 25.3452
#
#
#
# Elastic Compliance Matrix: (Units=1/GPa)
#
#
# Indices 1 2 3 4 5 6 
#
# 1 0.015281 -0.000875 -0.000680 0.000182 -0.004039 0.004017
# 2 -0.000875 0.008178 -0.002970 -0.000782 -0.002314 0.003098
# 3 -0.000680 -0.002970 0.013787 -0.003775 -0.000759 -0.005614
# 4 0.000182 -0.000782 -0.003775 0.022420 0.001333 0.004797
# 5 -0.004039 -0.002314 -0.000759 0.001333 0.026464 -0.008351
# 6 0.004017 0.003098 -0.005614 0.004797 -0.008351 0.045925
#
#
# Mechanical properties :
#
#
# Convention : Reuss Voigt Hill
#
# Bulk Modulus (GPa) = 35.46761 45.17463 40.32112
# Shear Modulus (GPa) = 33.22168 39.89766 36.55967
#
# Velocity S-wave (km/s) = 3.65383 4.00416 3.83300
# Velocity P-wave (km/s) = 5.66160 6.28742 5.98270
#
# Compressibility (1/GPa) = 0.02819474
#
# Stress axis : x y z
#
# Youngs Moduli (GPa) = 65.43881 122.28218 72.53326
#
# Poissons Ratio (x) = 0.10705 0.04933
# Poissons Ratio (y) = 0.05729 0.21543
# Poissons Ratio (z) = 0.04450 0.36319
#
# Static dielectric constant tensor:
#      x y z
#    x 4.870120 0.243120 0.404060 
#    y 0.243120 4.167820 -0.235640 
#    z 0.404060 -0.235640 4.426270 
# 
# 
# High freq. dielectric constant tensor:
#      x y z
#    x 1.995830 0.003420 0.001630 
#    y 0.003420 1.992480 0.006730 
#    z 0.001630 0.006730 2.009570 
# 
# From -- ./inp_files/324095.got.cif
#   From: 2010.06.25/outbox.cif.g09.slc.cpg/sg2_163_cif.got.tgz:324095.got - 2010.06.27 13:26:56.
