data_PCOD8031095
_publ_section_title
;
Structure prediction by ZEFSAII (Michael W. Deem and Ramdas Pophale) SiO2 
 PCOD8031095
Probable space group: P -1
;
_chemical_formula_sum "Si O2"
_cell_formula_units_Z 16
_cell_length_a 9.437855
_cell_length_b 9.480997
_cell_length_c 15.620821
_cell_angle_alpha 74.170907
_cell_angle_beta 140.560018
_cell_angle_gamma 117.968413
_cell_volume 774.219637
_symmetry_space_group_name_H-M "P -1"
_symmetry_group_IT_number 2
_symmetry_cell_setting 'triclinic'
loop_
_space_group_symop_operation_xyz
x,y,z
-x,-y,-z
loop_
_atom_site_type_symbol
_atom_site_label
_atom_site_fract_x
_atom_site_fract_y
_atom_site_fract_z
Si Si1 0.110036 0.115221 0.613504
Si Si2 0.218969 0.952724 0.374324
Si Si3 0.954377 0.147778 0.988822
Si Si4 0.218747 0.277618 0.254664
Si Si5 0.951404 0.348573 0.255246
Si Si6 0.450081 0.979552 0.880255
Si Si7 0.397439 0.380199 0.579784
Si Si8 0.855838 0.307528 0.754966
O O1 0.283246 0.292411 0.630015
O O2 0.895335 0.118950 0.573997
O O3 0.266702 0.058204 0.758507
O O4 0.000000 0.000000 0.500000
O O5 0.118737 0.822712 0.274082
O O6 0.500000 0.000000 0.500000
O O7 0.184503 0.111769 0.309904
O O8 0.942621 0.272493 0.892754
O O9 0.697766 0.067072 0.930517
O O10 0.178212 0.254819 0.137950
O O11 0.000000 0.000000 0.000000
O O12 0.999788 0.315132 0.185023
O O13 0.477825 0.428675 0.372131
O O14 0.177255 0.344376 0.416390
O O15 0.950742 0.524410 0.224717
O O16 0.685598 0.210391 0.180902
O O17 0.500000 0.000000 0.000000
O O18 0.588456 0.313800 0.639265
#
# Coordination Sequence:
#
# PCOD8031095 Si02
#       8
#     2   2   2   2   2   2   2   2
#     4  12  23  42  69 101 132 176 230 275 325 407
#     4  12  23  40  66  98 136 176 214 274 346 394
#     4  12  25  44  66  96 136 177 226 275 333 401
#     4  11  22  42  67  95 133 176 222 273 328 404
#     4  11  22  43  68 100 133 170 227 279 331 401
#     4  12  24  43  70  96 133 183 226 270 332 404
#     4  11  23  43  70 101 131 169 230 282 328 399
#     4  11  24  41  66  98 135 177 214 275 349 391
#
# _framework density 20.665969
#
# number of rings (size 3 to 8) (size 9 to 14) (size 15 to 20)
#    0.000    0.500    6.250    3.750    0.000    3.000 
#    2.250    1.875    0.000    0.000    0.000    0.000 
#    0.000    0.000    0.000    0.000    0.000    0.000 
#
# Total GULP energy -198340.618953 kJ/mol
# GULP energy per Si atom -12396.288685 kJ/mol
# Density = 2.061893 g / cm^3
# Si number density = 20.665969 Si / 1000 Ang^3
#
#
#
# Elastic Constant Matrix: (Units=GPa)
#
#
# Indices 1 2 3 4 5 6 
#
# 1 105.4809 31.6436 23.1549 5.9088 -12.0828 10.7936
# 2 31.6436 131.8857 25.6730 6.1281 -8.4415 16.4691
# 3 23.1549 25.6730 97.4455 3.3834 -20.0766 1.9193
# 4 5.9088 6.1281 3.3834 37.2103 2.7880 -5.8233
# 5 -12.0828 -8.4415 -20.0766 2.7880 32.5881 1.4230
# 6 10.7936 16.4691 1.9193 -5.8233 1.4230 38.4627
#
#
#
# Elastic Compliance Matrix: (Units=1/GPa)
#
#
# Indices 1 2 3 4 5 6 
#
# 1 0.011054 -0.001752 -0.001412 -0.001990 0.003063 -0.002696
# 2 -0.001752 0.008894 -0.001601 -0.001665 0.000964 -0.003524
# 3 -0.001412 -0.001601 0.012468 -0.001153 0.006840 0.000032
# 4 -0.001990 -0.001665 -0.001153 0.028832 -0.004602 0.005864
# 5 0.003063 0.000964 0.006840 -0.004602 0.036840 -0.003673
# 6 -0.002696 -0.003524 0.000032 0.005864 -0.003673 0.029287
#
#
# Mechanical properties :
#
#
# Convention : Reuss Voigt Hill
#
# Bulk Modulus (GPa) = 43.69501 55.08388 49.38945
# Shear Modulus (GPa) = 34.59422 38.60825 36.60124
#
# Velocity S-wave (km/s) = 4.09586 4.32696 4.21299
# Velocity P-wave (km/s) = 6.59980 7.18858 6.90048
#
# Compressibility (1/GPa) = 0.02288591
#
# Stress axis : x y z
#
# Youngs Moduli (GPa) = 90.46371 112.44166 80.20450
#
# Poissons Ratio (x) = 0.19703 0.11323
# Poissons Ratio (y) = 0.15852 0.12840
# Poissons Ratio (z) = 0.12772 0.18000
#
# Static dielectric constant tensor:
#      x y z
#    x 3.305690 0.324650 -0.006410 
#    y 0.324650 3.957000 0.117070 
#    z -0.006410 0.117070 3.898460 
# 
# 
# High freq. dielectric constant tensor:
#      x y z
#    x 1.800420 0.012380 -0.013100 
#    y 0.012380 1.820860 0.003100 
#    z -0.013100 0.003100 1.812850 
# 
# From -- ./inp_files/189448.got.cif
#   From: 2010.06.25/outbox.cif.g09.slc.cpg/sg2_95_cif.got.tgz:189448.got - 2010.06.27 13:26:56.
