data_PCOD8031410
_publ_section_title
;
Structure prediction by ZEFSAII (Michael W. Deem and Ramdas Pophale) SiO2 
 PCOD8031410
Probable space group: P -1
;
_chemical_formula_sum "Si O2"
_cell_formula_units_Z 16
_cell_length_a 8.361193
_cell_length_b 15.041111
_cell_length_c 8.877328
_cell_angle_alpha 128.317808
_cell_angle_beta 67.184004
_cell_angle_gamma 79.759028
_cell_volume 658.696133
_symmetry_space_group_name_H-M "P -1"
_symmetry_group_IT_number 2
_symmetry_cell_setting 'triclinic'
loop_
_space_group_symop_operation_xyz
x,y,z
-x,-y,-z
loop_
_atom_site_type_symbol
_atom_site_label
_atom_site_fract_x
_atom_site_fract_y
_atom_site_fract_z
Si Si1 0.731087 0.428873 0.911433
Si Si2 0.927359 0.773578 0.632028
Si Si3 0.614688 0.073186 0.098761
Si Si4 0.304982 0.347377 0.326581
Si Si5 0.739098 0.655529 0.009035
Si Si6 0.171934 0.614833 0.828618
Si Si7 0.414770 0.929777 0.556673
Si Si8 0.051754 0.867462 0.973543
O O1 0.816299 0.521057 0.938127
O O2 0.902556 0.276036 0.616436
O O3 0.500000 0.500000 0.000000
O O4 0.723452 0.418928 0.081512
O O5 0.901613 0.649143 0.546746
O O6 0.005084 0.804500 0.784480
O O7 0.693774 0.921719 0.834346
O O8 0.500672 0.197586 0.153250
O O9 0.505083 0.092927 0.321828
O O10 0.834193 0.059308 0.041106
O O11 0.308260 0.362477 0.163326
O O12 0.299269 0.472570 0.536724
O O13 0.919370 0.683520 0.990008
O O14 0.514500 0.779786 0.290583
O O15 0.205022 0.729299 0.874025
O O16 0.500000 0.000000 0.500000
O O17 0.159769 0.021744 0.738748
#
# Coordination Sequence:
#
# PCOD8031410 Si02
#       8
#     2   2   2   2   2   2   2   2
#     4  12  30  43  71 107 140 186 234 307 359 417
#     4  11  23  47  70  99 145 180 243 284 354 431
#     4  11  27  44  73 107 144 192 231 295 362 412
#     4  12  25  45  74 105 138 191 240 291 344 436
#     4  12  24  46  70 104 141 184 244 291 350 420
#     4  12  25  48  72 101 144 189 239 290 361 422
#     4  11  22  43  74 103 141 183 240 287 344 421
#     4  11  25  46  72 105 146 192 231 294 358 421
#
# _framework density 24.290412
#
# number of rings (size 3 to 8) (size 9 to 14) (size 15 to 20)
#    0.000    0.500    3.750    4.875    8.750    1.500 
#    0.000    1.250    0.000    0.000    0.000    0.000 
#    0.000    0.000    0.000    0.000    0.000    0.000 
#
# Total GULP energy -198419.083276 kJ/mol
# GULP energy per Si atom -12401.192705 kJ/mol
# Density = 2.423513 g / cm^3
# Si number density = 24.290412 Si / 1000 Ang^3
#
#
#
# Elastic Constant Matrix: (Units=GPa)
#
#
# Indices 1 2 3 4 5 6 
#
# 1 40.8008 13.1391 29.7793 -17.0981 7.8915 -10.9682
# 2 13.1391 122.0939 38.7230 -4.9683 7.6664 -13.4208
# 3 29.7793 38.7230 179.7034 -0.9588 -3.0309 -15.9703
# 4 -17.0981 -4.9683 -0.9588 39.4953 -5.5247 3.3656
# 5 7.8915 7.6664 -3.0309 -5.5247 26.9766 -2.2808
# 6 -10.9682 -13.4208 -15.9703 3.3656 -2.2808 49.5124
#
#
#
# Elastic Compliance Matrix: (Units=1/GPa)
#
#
# Indices 1 2 3 4 5 6 
#
# 1 0.037994 -0.000594 -0.005782 0.014663 -0.008168 0.005018
# 2 -0.000594 0.009163 -0.001769 0.000375 -0.002413 0.001645
# 3 -0.005782 -0.001769 0.007004 -0.002260 0.002583 0.000772
# 4 0.014663 0.000375 -0.002260 0.031883 0.001925 0.000542
# 5 -0.008168 -0.002413 0.002583 0.001925 0.040839 0.000120
# 6 0.005018 0.001645 0.000772 0.000542 0.000120 0.021972
#
#
# Mechanical properties :
#
#
# Convention : Reuss Voigt Hill
#
# Bulk Modulus (GPa) = 26.40437 56.20898 41.30668
# Shear Modulus (GPa) = 28.12672 40.59398 34.36035
#
# Velocity S-wave (km/s) = 3.40654 4.09246 3.76515
# Velocity P-wave (km/s) = 5.13484 6.74697 5.99534
#
# Compressibility (1/GPa) = 0.03787251
#
# Stress axis : x y z
#
# Youngs Moduli (GPa) = 26.31999 109.13665 142.77537
#
# Poissons Ratio (x) = 0.06481 0.82549
# Poissons Ratio (y) = 0.01563 0.25250
# Poissons Ratio (z) = 0.15218 0.19301
#
# Static dielectric constant tensor:
#      x y z
#    x 4.530000 0.027860 -0.141720 
#    y 0.027860 4.671080 0.327520 
#    z -0.141720 0.327520 4.834390 
# 
# 
# High freq. dielectric constant tensor:
#      x y z
#    x 1.967460 -0.000750 -0.006010 
#    y -0.000750 1.982090 0.013290 
#    z -0.006010 0.013290 1.973130 
# 
# From -- ./inp_files/208900.got.cif
#   From: 2010.06.25/outbox.cif.g09.slc.cpg/sg2_105_cif.got.tgz:208900.got - 2010.06.27 13:26:56.
