data_PCOD8031777
_publ_section_title
;
Structure prediction by ZEFSAII (Michael W. Deem and Ramdas Pophale) SiO2 
 PCOD8031777
Probable space group: P -1
;
_chemical_formula_sum "Si O2"
_cell_formula_units_Z 16
_cell_length_a 12.135880
_cell_length_b 15.783821
_cell_length_c 13.606965
_cell_angle_alpha 44.261520
_cell_angle_beta 38.783567
_cell_angle_gamma 25.549463
_cell_volume 703.329528
_symmetry_space_group_name_H-M "P -1"
_symmetry_group_IT_number 2
_symmetry_cell_setting 'triclinic'
loop_
_space_group_symop_operation_xyz
x,y,z
-x,-y,-z
loop_
_atom_site_type_symbol
_atom_site_label
_atom_site_fract_x
_atom_site_fract_y
_atom_site_fract_z
Si Si1 0.158825 0.304315 0.107414
Si Si2 0.322296 0.603451 0.895657
Si Si3 0.460141 0.775242 0.212054
Si Si4 0.925504 0.186659 0.300209
Si Si5 0.224429 0.892189 0.845500
Si Si6 0.694239 0.544818 0.430556
Si Si7 0.198508 0.731886 0.294656
Si Si8 0.221137 0.387380 0.202672
O O1 0.435787 0.152858 0.967240
O O2 0.249402 0.290396 0.165859
O O3 0.000000 0.500000 0.000000
O O4 0.000072 0.260343 0.256255
O O5 0.088899 0.759999 0.845703
O O6 0.307539 0.713619 0.897721
O O7 0.641543 0.423965 0.776449
O O8 0.239263 0.520653 0.067557
O O9 0.688512 0.580965 0.286969
O O10 0.413753 0.716477 0.197893
O O11 0.174971 0.950673 0.328738
O O12 0.629771 0.279825 0.453350
O O13 0.516736 0.796843 0.757387
O O14 0.095375 0.048166 0.720175
O O15 0.000000 0.000000 0.000000
O O16 0.847305 0.333553 0.526197
O O17 0.903850 0.530357 0.348668
#
# Coordination Sequence:
#
# PCOD8031777 Si02
#       8
#     2   2   2   2   2   2   2   2
#     4  12  21  40  67 103 137 177 235 290 339 403
#     4  11  22  46  72 101 134 177 234 294 341 396
#     4  12  21  43  68 102 140 182 240 280 344 412
#     4  11  24  40  68 101 144 186 226 287 348 408
#     4  12  25  47  77 104 130 180 244 287 340 410
#     4  11  26  43  65 101 147 190 219 278 360 419
#     4  11  24  44  72 100 139 186 227 290 346 404
#     4  12  25  43  70 105 139 184 230 285 349 411
#
# _framework density 22.748937999999999
#
# number of rings (size 3 to 8) (size 9 to 14) (size 15 to 20)
#    0.000    0.500    6.250    2.250    1.750    0.500 
#    0.000    2.500    0.000    0.000    0.000    0.000 
#    0.000    0.000    0.000    0.000    0.000    0.000 
#
# Total GULP energy -198261.787261 kJ/mol
# GULP energy per Si atom -12391.361704 kJ/mol
# Density = 2.269716 g / cm^3
# Si number density = 22.748938 Si / 1000 Ang^3
#
#
#
# Elastic Constant Matrix: (Units=GPa)
#
#
# Indices 1 2 3 4 5 6 
#
# 1 148.2316 68.4881 44.3714 5.2722 -19.0483 -15.0933
# 2 68.4881 116.1400 50.4982 2.1554 -9.6454 -10.2086
# 3 44.3714 50.4982 116.8213 5.7268 -16.1675 -9.8718
# 4 5.2722 2.1554 5.7268 30.9375 -9.4162 6.9588
# 5 -19.0483 -9.6454 -16.1675 -9.4162 25.1466 3.3401
# 6 -15.0933 -10.2086 -9.8718 6.9588 3.3401 48.7349
#
#
#
# Elastic Compliance Matrix: (Units=1/GPa)
#
#
# Indices 1 2 3 4 5 6 
#
# 1 0.010136 -0.005060 -0.000839 -0.000064 0.004964 0.001578
# 2 -0.005060 0.013243 -0.003950 0.000172 -0.001291 0.000471
# 3 -0.000839 -0.003950 0.011360 -0.000412 0.004874 0.000939
# 4 -0.000064 0.000172 -0.000412 0.038454 0.015027 -0.006588
# 5 0.004964 -0.001291 0.004874 0.015027 0.052254 -0.003473
# 6 0.001578 0.000471 0.000939 -0.006588 -0.003473 0.022475
#
#
# Mechanical properties :
#
#
# Convention : Reuss Voigt Hill
#
# Bulk Modulus (GPa) = 66.48534 78.65646 72.57090
# Shear Modulus (GPa) = 28.96297 35.48614 32.22455
#
# Velocity S-wave (km/s) = 3.57200 3.95385 3.76776
# Velocity P-wave (km/s) = 6.80451 7.44948 7.13429
#
# Compressibility (1/GPa) = 0.01504091
#
# Stress axis : x y z
#
# Youngs Moduli (GPa) = 98.65511 75.51313 88.02655
#
# Poissons Ratio (x) = 0.38213 0.07386
# Poissons Ratio (y) = 0.49924 0.34768
# Poissons Ratio (z) = 0.08278 0.29826
#
# Static dielectric constant tensor:
#      x y z
#    x 4.210550 -0.363660 -0.066840 
#    y -0.363660 4.260240 0.184520 
#    z -0.066840 0.184520 4.775450 
# 
# 
# High freq. dielectric constant tensor:
#      x y z
#    x 1.891980 -0.017040 0.000040 
#    y -0.017040 1.899770 0.003260 
#    z 0.000040 0.003260 1.900200 
# 
# From -- ./inp_files/522334.got.cif
#   From: 2010.06.25/outbox.cif.g09.slc.cpg/sg2_262_cif.got.tgz:522334.got - 2010.06.27 13:26:56.
