data_PCOD8031323
_publ_section_title
;
Structure prediction by ZEFSAII (Michael W. Deem and Ramdas Pophale) SiO2 
 PCOD8031323
Probable space group: P -1
;
_chemical_formula_sum "Si O2"
_cell_formula_units_Z 16
_cell_length_a 12.108057
_cell_length_b 14.415810
_cell_length_c 16.896396
_cell_angle_alpha 151.483416
_cell_angle_beta 33.392393
_cell_angle_gamma 127.884771
_cell_volume 690.060629
_symmetry_space_group_name_H-M "P -1"
_symmetry_group_IT_number 2
_symmetry_cell_setting 'triclinic'
loop_
_space_group_symop_operation_xyz
x,y,z
-x,-y,-z
loop_
_atom_site_type_symbol
_atom_site_label
_atom_site_fract_x
_atom_site_fract_y
_atom_site_fract_z
Si Si1 0.897464 0.109190 0.815732
Si Si2 0.266135 0.127694 0.691613
Si Si3 0.138926 0.260685 0.522909
Si Si4 0.043769 0.087287 0.936229
Si Si5 0.279164 0.572884 0.379757
Si Si6 0.402312 0.756121 0.752299
Si Si7 0.003673 0.454785 0.336007
Si Si8 0.771272 0.451300 0.020545
O O1 0.158294 0.997239 0.607563
O O2 0.878471 0.958641 0.647373
O O3 0.718464 0.143563 0.017189
O O4 0.844022 0.339013 0.978120
O O5 0.083474 0.228589 0.947903
O O6 0.287695 0.296313 0.744867
O O7 0.500000 0.000000 0.500000
O O8 0.394233 0.186100 0.342361
O O9 0.089416 0.406722 0.583515
O O10 0.967591 0.367633 0.776222
O O11 0.201597 0.830575 0.634340
O O12 0.090374 0.193451 0.068226
O O13 0.781490 0.138541 0.129045
O O14 0.190469 0.515021 0.307651
O O15 0.548344 0.441137 0.114171
O O16 0.199011 0.475000 0.427384
O O17 0.500000 0.500000 0.500000
#
# Coordination Sequence:
#
# PCOD8031323 Si02
#       8
#     2   2   2   2   2   2   2   2
#     4  11  26  44  69 104 137 183 236 292 346 414
#     4  11  22  43  69  99 139 181 226 281 357 419
#     4  12  24  44  71  98 139 184 237 284 358 416
#     4  11  22  44  70 101 136 185 236 286 352 427
#     4  11  26  43  69 104 142 180 236 291 357 418
#     4  11  22  43  72  97 133 181 234 286 352 415
#     4  11  23  44  68  99 140 184 231 296 348 419
#     4  12  25  45  69 100 145 180 234 289 349 421
#
# _framework density 23.186368999999999
#
# number of rings (size 3 to 8) (size 9 to 14) (size 15 to 20)
#    0.000    0.750    3.750    4.500    0.000    3.500 
#    0.000    0.000    0.000    0.000    0.000    0.000 
#    0.000    0.000    0.000    0.000    0.000    0.000 
#
# Total GULP energy -198263.121595 kJ/mol
# GULP energy per Si atom -12391.445100 kJ/mol
# Density = 2.313360 g / cm^3
# Si number density = 23.186369 Si / 1000 Ang^3
#
#
#
# Elastic Constant Matrix: (Units=GPa)
#
#
# Indices 1 2 3 4 5 6 
#
# 1 86.6107 40.3325 41.0085 -4.8976 -3.3023 34.2861
# 2 40.3325 95.6725 33.5488 -19.9659 -12.3195 14.9787
# 3 41.0085 33.5488 84.0817 -12.4740 -20.9545 19.8853
# 4 -4.8976 -19.9659 -12.4740 41.7754 10.8582 -4.3764
# 5 -3.3023 -12.3195 -20.9545 10.8582 36.4731 -5.6156
# 6 34.2861 14.9787 19.8853 -4.3764 -5.6156 45.7987
#
#
#
# Elastic Compliance Matrix: (Units=1/GPa)
#
#
# Indices 1 2 3 4 5 6 
#
# 1 0.022474 -0.006166 -0.007237 -0.002377 -0.005432 -0.012559
# 2 -0.006166 0.014920 -0.001975 0.005458 0.001930 0.001352
# 3 -0.007237 -0.001975 0.018865 0.001419 0.008956 -0.000893
# 4 -0.002377 0.005458 0.001419 0.028338 -0.005781 0.001377
# 5 -0.005432 0.001930 0.008956 -0.005781 0.034948 0.003279
# 6 -0.012559 0.001352 -0.000893 0.001377 0.003279 0.031716
#
#
# Mechanical properties :
#
#
# Convention : Reuss Voigt Hill
#
# Bulk Modulus (GPa) = 39.21082 55.12717 47.16899
# Shear Modulus (GPa) = 26.24433 34.90781 30.57607
#
# Velocity S-wave (km/s) = 3.36800 3.88433 3.63534
# Velocity P-wave (km/s) = 5.66325 6.62907 6.16511
#
# Compressibility (1/GPa) = 0.02550316
#
# Stress axis : x y z
#
# Youngs Moduli (GPa) = 44.49627 67.02374 53.00946
#
# Poissons Ratio (x) = 0.41325 0.38363
# Poissons Ratio (y) = 0.27435 0.10469
# Poissons Ratio (z) = 0.32202 0.13237
#
# Static dielectric constant tensor:
#      x y z
#    x 4.418480 0.240960 -0.047770 
#    y 0.240960 4.664730 -0.128980 
#    z -0.047770 -0.128980 4.485070 
# 
# 
# High freq. dielectric constant tensor:
#      x y z
#    x 1.920950 0.010340 -0.005960 
#    y 0.010340 1.934130 -0.007940 
#    z -0.005960 -0.007940 1.899180 
# 
# From -- ./inp_files/569963.got.cif
#   From: 2010.06.25/outbox.cif.g09.slc.cpg/sg2_285_cif.got.tgz:569963.got - 2010.06.27 13:26:56.
