data_PCOD8031393
_publ_section_title
;
Structure prediction by ZEFSAII (Michael W. Deem and Ramdas Pophale) SiO2 
 PCOD8031393
Probable space group: P -1
;
_chemical_formula_sum "Si O2"
_cell_formula_units_Z 16
_cell_length_a 6.704399
_cell_length_b 14.678300
_cell_length_c 23.342188
_cell_angle_alpha 160.763167
_cell_angle_beta 111.142151
_cell_angle_gamma 70.946380
_cell_volume 705.143331
_symmetry_space_group_name_H-M "P -1"
_symmetry_group_IT_number 2
_symmetry_cell_setting 'triclinic'
loop_
_space_group_symop_operation_xyz
x,y,z
-x,-y,-z
loop_
_atom_site_type_symbol
_atom_site_label
_atom_site_fract_x
_atom_site_fract_y
_atom_site_fract_z
Si Si1 0.120635 0.316717 0.073364
Si Si2 0.700959 0.210134 0.914799
Si Si3 0.643397 0.674388 0.662581
Si Si4 0.542448 0.411825 0.807427
Si Si5 0.086317 0.254209 0.623276
Si Si6 0.160484 0.772065 0.180423
Si Si7 0.367890 0.823631 0.833264
Si Si8 0.047300 0.336236 0.538782
O O1 0.342989 0.449836 0.153083
O O2 0.037476 0.466652 0.210589
O O3 0.936526 0.362526 0.034516
O O4 0.160955 0.997132 0.900247
O O5 0.665373 0.205509 0.840256
O O6 0.732296 0.927401 0.783855
O O7 0.510613 0.364587 0.016725
O O8 0.500000 0.500000 0.500000
O O9 0.514013 0.777841 0.765673
O O10 0.836837 0.498171 0.599926
O O11 0.335203 0.263857 0.670976
O O12 0.700222 0.209240 0.735599
O O13 0.043694 0.207054 0.524718
O O14 0.000000 0.000000 0.500000
O O15 0.038636 0.060587 0.334442
O O16 0.000000 0.500000 0.000000
O O17 0.266318 0.527547 0.668042
O O18 0.500000 0.000000 0.000000
#
# Coordination Sequence:
#
# PCOD8031393 Si02
#       8
#     2   2   2   2   2   2   2   2
#     4  11  22  43  73 102 141 188 241 294 370 432
#     4  11  24  44  72 104 138 192 242 294 361 438
#     4  12  28  46  75 109 153 193 244 313 376 440
#     4  11  24  46  75 103 141 192 245 298 367 433
#     4  11  27  46  73 107 149 189 243 308 364 440
#     4  12  27  46  74 103 150 199 246 300 364 449
#     4  12  26  46  76 108 146 197 248 304 374 445
#     4  12  29  48  70 112 151 186 250 310 367 442
#
# _framework density 22.690421000000001
#
# number of rings (size 3 to 8) (size 9 to 14) (size 15 to 20)
#    0.000    0.500    3.750    3.375    7.000    7.000 
#    0.000    0.000    0.000    0.000    0.000    0.000 
#    0.000    0.000    0.000    0.000    0.000    0.000 
#
# Total GULP energy -198335.734555 kJ/mol
# GULP energy per Si atom -12395.983410 kJ/mol
# Density = 2.263878 g / cm^3
# Si number density = 22.690421 Si / 1000 Ang^3
#
#
#
# Elastic Constant Matrix: (Units=GPa)
#
#
# Indices 1 2 3 4 5 6 
#
# 1 108.3294 30.1262 37.2115 1.3466 7.4812 -0.1900
# 2 30.1262 108.0576 20.4592 0.0477 10.9534 4.9860
# 3 37.2115 20.4592 105.1824 4.0081 2.7246 -2.8518
# 4 1.3466 0.0477 4.0081 42.9864 0.1967 -1.2487
# 5 7.4812 10.9534 2.7246 0.1967 40.7970 7.3888
# 6 -0.1900 4.9860 -2.8518 -1.2487 7.3888 39.8928
#
#
#
# Elastic Compliance Matrix: (Units=1/GPa)
#
#
# Indices 1 2 3 4 5 6 
#
# 1 0.011155 -0.002346 -0.003448 -0.000010 -0.001245 0.000330
# 2 -0.002346 0.010389 -0.001169 0.000152 -0.002101 -0.000999
# 3 -0.003448 -0.001169 0.011011 -0.000892 0.000056 0.000879
# 4 -0.000010 0.000152 -0.000892 0.023367 -0.000217 0.000689
# 5 -0.001245 -0.002101 0.000056 -0.000217 0.026132 -0.004586
# 6 0.000330 -0.000999 0.000879 0.000689 -0.004586 0.026127
#
#
# Mechanical properties :
#
#
# Convention : Reuss Voigt Hill
#
# Bulk Modulus (GPa) = 53.68475 55.24033 54.46254
# Shear Modulus (GPa) = 38.96577 40.32008 39.64293
#
# Velocity S-wave (km/s) = 4.14850 4.21998 4.18439
# Velocity P-wave (km/s) = 6.83065 6.93847 6.88477
#
# Compressibility (1/GPa) = 0.01862726
#
# Stress axis : x y z
#
# Youngs Moduli (GPa) = 89.64777 96.25799 90.81771
#
# Poissons Ratio (x) = 0.22582 0.31318
# Poissons Ratio (y) = 0.21032 0.10618
# Poissons Ratio (z) = 0.30914 0.11255
#
# Static dielectric constant tensor:
#      x y z
#    x 4.204070 0.134400 -0.198020 
#    y 0.134400 4.133710 -0.011140 
#    z -0.198020 -0.011140 4.143710 
# 
# 
# High freq. dielectric constant tensor:
#      x y z
#    x 1.908550 0.004070 -0.007640 
#    y 0.004070 1.904310 0.004150 
#    z -0.007640 0.004150 1.900820 
# 
# From -- ./inp_files/101241.got.cif
#   From: 2010.06.25/outbox.cif.g09.slc.cpg/sg2_51_cif.got.tgz:101241.got - 2010.06.27 13:26:56.
