data_PCOD8031592
_publ_section_title
;
Structure prediction by ZEFSAII (Michael W. Deem and Ramdas Pophale) SiO2 
 PCOD8031592
Probable space group: P -1
;
_chemical_formula_sum "Si O2"
_cell_formula_units_Z 12
_cell_length_a 15.892238
_cell_length_b 16.245853
_cell_length_c 9.511276
_cell_angle_alpha 30.504609
_cell_angle_beta 139.628102
_cell_angle_gamma 154.583699
_cell_volume 533.483557
_symmetry_space_group_name_H-M "P -1"
_symmetry_group_IT_number 2
_symmetry_cell_setting 'triclinic'
loop_
_space_group_symop_operation_xyz
x,y,z
-x,-y,-z
loop_
_atom_site_type_symbol
_atom_site_label
_atom_site_fract_x
_atom_site_fract_y
_atom_site_fract_z
Si Si1 0.125068 0.919895 0.801274
Si Si2 0.537955 0.622542 0.634459
Si Si3 0.045574 0.858350 0.305199
Si Si4 0.850663 0.757143 0.474730
Si Si5 0.492098 0.261162 0.271908
Si Si6 0.837648 0.384022 0.578160
O O1 0.903425 0.722079 0.743851
O O2 0.267742 0.134558 0.551937
O O3 0.129118 0.028073 0.792329
O O4 0.188353 0.795440 0.091256
O O5 0.366101 0.481855 0.506770
O O6 0.483576 0.671008 0.633061
O O7 0.566917 0.465918 0.955604
O O8 0.013155 0.829622 0.472896
O O9 0.895587 0.596504 0.427064
O O10 0.264848 0.009995 0.320260
O O11 0.000000 0.000000 0.000000
O O12 0.627429 0.228859 0.467288
O O13 0.000000 0.500000 0.500000
#
# Coordination Sequence:
#
# PCOD8031592 Si02
#       6
#     2   2   2   2   2   2
#     4  11  27  43  69 105 140 179 232 288 340 404
#     4  11  22  44  74 101 133 183 234 280 337 413
#     4  12  22  46  75  98 136 188 230 277 346 414
#     4  11  23  44  73  99 135 189 228 278 341 411
#     4  11  24  42  74 104 133 181 237 280 336 418
#     4  12  29  47  68 102 143 180 231 294 348 401
#
# _framework density 22.493663000000002
#
# number of rings (size 3 to 8) (size 9 to 14) (size 15 to 20)
#    0.000    0.667    5.000    2.500    4.667    3.333 
#    0.000    0.000    0.000    0.000    0.000    0.000 
#    0.000    0.000    0.000    0.000    0.000    0.000 
#
# Total GULP energy -148736.783238 kJ/mol
# GULP energy per Si atom -12394.731936 kJ/mol
# Density = 2.244247 g / cm^3
# Si number density = 22.493663 Si / 1000 Ang^3
#
#
#
# Elastic Constant Matrix: (Units=GPa)
#
#
# Indices 1 2 3 4 5 6 
#
# 1 99.1060 24.7283 30.2900 0.5529 1.4839 17.6352
# 2 24.7283 111.9091 35.1138 23.2170 3.4023 15.4172
# 3 30.2900 35.1138 113.9137 6.1253 11.5322 27.4327
# 4 0.5529 23.2170 6.1253 35.8040 6.3184 11.0594
# 5 1.4839 3.4023 11.5322 6.3184 34.9806 11.6460
# 6 17.6352 15.4172 27.4327 11.0594 11.6460 28.9729
#
#
#
# Elastic Compliance Matrix: (Units=1/GPa)
#
#
# Indices 1 2 3 4 5 6 
#
# 1 0.012210 -0.002045 -0.001262 0.003225 0.001892 -0.007141
# 2 -0.002045 0.011751 -0.002793 -0.007305 0.001204 -0.000059
# 3 -0.001262 -0.002793 0.012374 0.003041 -0.000885 -0.010266
# 4 0.003225 -0.007305 0.003041 0.036864 -0.002407 -0.014060
# 5 0.001892 0.001204 -0.000885 -0.002407 0.033629 -0.013552
# 6 -0.007141 -0.000059 -0.010266 -0.014060 -0.013552 0.059428
#
#
# Mechanical properties :
#
#
# Convention : Reuss Voigt Hill
#
# Bulk Modulus (GPa) = 41.43369 56.13254 48.78311
# Shear Modulus (GPa) = 26.80943 35.60461 31.20702
#
# Velocity S-wave (km/s) = 3.45609 3.98285 3.72878
# Velocity P-wave (km/s) = 5.86397 6.79410 6.34610
#
# Compressibility (1/GPa) = 0.02413495
#
# Stress axis : x y z
#
# Youngs Moduli (GPa) = 81.89689 85.09769 80.81741
#
# Poissons Ratio (x) = 0.17404 0.10196
# Poissons Ratio (y) = 0.16749 0.22575
# Poissons Ratio (z) = 0.10332 0.23771
#
# Static dielectric constant tensor:
#      x y z
#    x 7.081120 1.565180 -0.515160 
#    y 1.565180 5.138600 -0.237690 
#    z -0.515160 -0.237690 4.122960 
# 
# 
# High freq. dielectric constant tensor:
#      x y z
#    x 1.896610 0.003860 -0.000950 
#    y 0.003860 1.901460 0.020250 
#    z -0.000950 0.020250 1.864520 
# 
# From -- ./inp_files/178131.got.cif
#   From: 2010.06.25/outbox.cif.g09.slc.cpg/sg2_90_cif.got.tgz:178131.got - 2010.06.27 13:26:56.
