data_PCOD8031309
_publ_section_title
;
Structure prediction by ZEFSAII (Michael W. Deem and Ramdas Pophale) SiO2 
 PCOD8031309
Probable space group: P -1
;
_chemical_formula_sum "Si O2"
_cell_formula_units_Z 14
_cell_length_a 15.120503
_cell_length_b 5.079471
_cell_length_c 8.851142
_cell_angle_alpha 120.644485
_cell_angle_beta 76.073499
_cell_angle_gamma 78.845273
_cell_volume 525.422891
_symmetry_space_group_name_H-M "P -1"
_symmetry_group_IT_number 2
_symmetry_cell_setting 'triclinic'
loop_
_space_group_symop_operation_xyz
x,y,z
-x,-y,-z
loop_
_atom_site_type_symbol
_atom_site_label
_atom_site_fract_x
_atom_site_fract_y
_atom_site_fract_z
Si Si1 0.276334 0.035261 0.943746
Si Si2 0.560385 0.206034 0.777096
Si Si3 0.105144 0.878134 0.992218
Si Si4 0.932543 0.871508 0.589844
Si Si5 0.374531 0.271476 0.714901
Si Si6 0.313418 0.436344 0.299844
Si Si7 0.780966 0.669785 0.424112
O O1 0.344533 0.060588 0.789441
O O2 0.322248 0.663410 0.883395
O O3 0.261570 0.313787 0.154228
O O4 0.164127 0.092507 0.960371
O O5 0.491864 0.176729 0.656658
O O6 0.653784 0.276877 0.691786
O O7 0.594159 0.878055 0.769776
O O8 0.500000 0.500000 0.000000
O O9 0.103154 0.896661 0.180059
O O10 0.159529 0.503413 0.799824
O O11 0.000000 0.000000 0.000000
O O12 0.834473 0.899291 0.542047
O O13 0.000000 0.500000 0.500000
O O14 0.000000 0.000000 0.500000
O O15 0.335489 0.169754 0.542144
O O16 0.230674 0.569743 0.507037
#
# Coordination Sequence:
#
# PCOD8031309 Si02
#       7
#     2   2   2   2   2   2   2
#     4  11  22  43  69 106 139 190 237 297 362 428
#     4  12  23  42  74 109 141 195 250 300 363 431
#     4  11  25  49  79 109 148 194 244 304 368 438
#     4  12  28  49  77 110 143 188 246 303 363 437
#     4  11  25  42  71 102 145 187 241 297 364 426
#     4  12  24  43  72 105 150 192 243 303 364 433
#     4  11  28  49  73 111 153 194 243 304 371 437
#
# _framework density 26.645202999999999
#
# number of rings (size 3 to 8) (size 9 to 14) (size 15 to 20)
#    0.000    0.571    5.714    1.286    2.000    7.429 
#    0.000    0.000    0.000    0.000    0.000    0.000 
#    0.000    0.000    0.000    0.000    0.000    0.000 
#
# Total GULP energy -173503.106488 kJ/mol
# GULP energy per Si atom -12393.079035 kJ/mol
# Density = 2.658456 g / cm^3
# Si number density = 26.645203 Si / 1000 Ang^3
#
#
#
# Elastic Constant Matrix: (Units=GPa)
#
#
# Indices 1 2 3 4 5 6 
#
# 1 256.0249 37.0083 49.2550 -3.0937 22.4250 17.0681
# 2 37.0083 91.1797 12.0154 -7.6679 3.5840 27.6744
# 3 49.2550 12.0154 134.7513 -4.0926 37.1164 24.4277
# 4 -3.0937 -7.6679 -4.0926 38.9863 7.4533 -1.5333
# 5 22.4250 3.5840 37.1164 7.4533 52.7270 -5.5121
# 6 17.0681 27.6744 24.4277 -1.5333 -5.5121 38.2237
#
#
#
# Elastic Compliance Matrix: (Units=1/GPa)
#
#
# Indices 1 2 3 4 5 6 
#
# 1 0.004458 -0.001516 -0.001153 0.000120 -0.001030 -0.000300
# 2 -0.001516 0.015572 0.002750 0.003528 -0.004188 -0.012817
# 3 -0.001153 0.002750 0.012389 0.003240 -0.009995 -0.010705
# 4 0.000120 0.003528 0.003240 0.027849 -0.006985 -0.004568
# 5 -0.001030 -0.004188 -0.009995 -0.006985 0.029155 0.013804
# 6 -0.000300 -0.012817 -0.010705 -0.004568 0.013804 0.044224
#
#
# Mechanical properties :
#
#
# Convention : Reuss Voigt Hill
#
# Bulk Modulus (GPa) = 30.69220 75.39035 53.04128
# Shear Modulus (GPa) = 34.63898 51.56589 43.10243
#
# Velocity S-wave (km/s) = 3.60947 4.40395 4.02636
# Velocity P-wave (km/s) = 5.37726 7.36310 6.44710
#
# Compressibility (1/GPa) = 0.03258157
#
# Stress axis : x y z
#
# Youngs Moduli (GPa) = 224.29277 64.21907 80.71459
#
# Poissons Ratio (x) = 0.09736 0.09304
# Poissons Ratio (y) = 0.34003 -0.22195
# Poissons Ratio (z) = 0.25854 -0.17659
#
# Static dielectric constant tensor:
#      x y z
#    x 6.007700 -0.652340 -1.040430 
#    y -0.652340 5.587270 2.172080 
#    z -1.040430 2.172080 9.450020 
# 
# 
# High freq. dielectric constant tensor:
#      x y z
#    x 2.099540 0.008500 0.006540 
#    y 0.008500 2.055340 0.007730 
#    z 0.006540 0.007730 2.102450 
# 
# From -- ./inp_files/289259.got.cif
#   From: 2010.06.25/outbox.cif.g09.slc.cpg/sg2_145_cif.got.tgz:289259.got - 2010.06.27 13:26:56.
