data_PCOD8031564
_publ_section_title
;
Structure prediction by ZEFSAII (Michael W. Deem and Ramdas Pophale) SiO2 
 PCOD8031564
Probable space group: P -1
;
_chemical_formula_sum "Si O2"
_cell_formula_units_Z 14
_cell_length_a 13.511171
_cell_length_b 5.388191
_cell_length_c 13.431654
_cell_angle_alpha 53.370624
_cell_angle_beta 47.714441
_cell_angle_gamma 52.918899
_cell_volume 546.075778
_symmetry_space_group_name_H-M "P -1"
_symmetry_group_IT_number 2
_symmetry_cell_setting 'triclinic'
loop_
_space_group_symop_operation_xyz
x,y,z
-x,-y,-z
loop_
_atom_site_type_symbol
_atom_site_label
_atom_site_fract_x
_atom_site_fract_y
_atom_site_fract_z
Si Si1 0.703146 0.753578 0.796823
Si Si2 0.882175 0.853395 0.382106
Si Si3 0.528652 0.685908 0.277279
Si Si4 0.222797 0.604070 0.971247
Si Si5 0.671905 0.486573 0.423254
Si Si6 0.076688 0.272399 0.828240
Si Si7 0.139916 0.747525 0.360106
O O1 0.767298 0.487540 0.732542
O O2 0.546155 0.977023 0.812499
O O3 0.795827 0.985108 0.704203
O O4 0.687537 0.552816 0.953782
O O5 0.944787 0.897504 0.220695
O O6 0.876870 0.484917 0.483849
O O7 0.983954 0.932679 0.376723
O O8 0.720739 0.105495 0.444810
O O9 0.672282 0.482447 0.172507
O O10 0.573890 0.737701 0.347509
O O11 0.416137 0.488636 0.418885
O O12 0.152572 0.002165 0.926127
O O13 0.081246 0.493945 0.083517
O O14 0.821347 0.535874 0.321096
#
# Coordination Sequence:
#
# PCOD8031564 Si02
#       7
#     2   2   2   2   2   2   2
#     4  12  25  49  67 107 149 197 235 297 364 447
#     4  11  22  44  72 105 140 180 250 309 356 420
#     4  11  25  46  69 105 146 188 241 294 368 434
#     4  11  25  46  69 105 146 188 241 294 368 434
#     4  11  24  45  75 103 139 186 246 303 360 425
#     4  11  24  45  75 103 139 186 246 303 360 425
#     4  11  26  42  78 105 143 189 250 300 366 420
#
# _framework density 25.637467000000001
#
# number of rings (size 3 to 8) (size 9 to 14) (size 15 to 20)
#    0.000    0.857    4.286    2.143    0.000    4.571 
#    0.000    2.143    0.000    0.000    0.000    0.000 
#    0.000    0.000    0.000    0.000    0.000    0.000 
#
# Total GULP energy -173434.157389 kJ/mol
# GULP energy per Si atom -12388.154099 kJ/mol
# Density = 2.557911 g / cm^3
# Si number density = 25.637467 Si / 1000 Ang^3
#
#
#
# Elastic Constant Matrix: (Units=GPa)
#
#
# Indices 1 2 3 4 5 6 
#
# 1 69.9692 46.1697 44.4819 -2.1757 6.2147 -32.7823
# 2 46.1697 81.8154 51.4119 19.5571 8.7454 -28.6934
# 3 44.4819 51.4119 170.4015 28.7163 0.8970 -26.7380
# 4 -2.1757 19.5571 28.7163 44.3459 -23.3536 -0.8398
# 5 6.2147 8.7454 0.8970 -23.3536 52.7551 -10.0428
# 6 -32.7823 -28.6934 -26.7380 -0.8398 -10.0428 45.8764
#
#
#
# Elastic Compliance Matrix: (Units=1/GPa)
#
#
# Indices 1 2 3 4 5 6 
#
# 1 0.034516 -0.016751 -0.004742 0.017146 0.008991 0.013706
# 2 -0.016751 0.028628 -0.000640 -0.018431 -0.010358 0.002958
# 3 -0.004742 -0.000640 0.008525 -0.006692 -0.002339 0.000545
# 4 0.017146 -0.018431 -0.006692 0.047964 0.022899 0.002715
# 5 0.008991 -0.010358 -0.002339 0.022899 0.030887 0.005764
# 6 0.013706 0.002958 0.000545 0.002715 0.005764 0.035071
#
#
# Mechanical properties :
#
#
# Convention : Reuss Voigt Hill
#
# Bulk Modulus (GPa) = 36.49277 67.36811 51.93044
# Shear Modulus (GPa) = 20.92129 40.60366 30.76248
#
# Velocity S-wave (km/s) = 2.85975 3.98397 3.46772
# Velocity P-wave (km/s) = 5.01690 6.89180 6.02769
#
# Compressibility (1/GPa) = 0.02740269
#
# Stress axis : x y z
#
# Youngs Moduli (GPa) = 28.97193 34.93121 117.29910
#
# Poissons Ratio (x) = 0.58512 0.55629
# Poissons Ratio (y) = 0.48530 0.07507
# Poissons Ratio (z) = 0.13740 0.02236
#
# Static dielectric constant tensor:
#      x y z
#    x 4.619320 -0.437420 0.081440 
#    y -0.437420 4.466220 0.003980 
#    z 0.081440 0.003980 4.932890 
# 
# 
# High freq. dielectric constant tensor:
#      x y z
#    x 2.016490 -0.039490 0.015370 
#    y -0.039490 2.011100 0.001820 
#    z 0.015370 0.001820 2.043300 
# 
# From -- ./inp_files/123725.got.cif
#   From: 2010.06.25/outbox.cif.g09.slc.cpg/sg2_62_cif.got.tgz:123725.got - 2010.06.27 13:26:56.
