data_PCOD8031093
_publ_section_title
;
Structure prediction by ZEFSAII (Michael W. Deem and Ramdas Pophale) SiO2 
 PCOD8031093
Probable space group: P -1
;
_chemical_formula_sum "Si O2"
_cell_formula_units_Z 16
_cell_length_a 14.371452
_cell_length_b 14.264411
_cell_length_c 6.493436
_cell_angle_alpha 85.261350
_cell_angle_beta 73.468158
_cell_angle_gamma 140.999801
_cell_volume 693.887629
_symmetry_space_group_name_H-M "P -1"
_symmetry_group_IT_number 2
_symmetry_cell_setting 'triclinic'
loop_
_space_group_symop_operation_xyz
x,y,z
-x,-y,-z
loop_
_atom_site_type_symbol
_atom_site_label
_atom_site_fract_x
_atom_site_fract_y
_atom_site_fract_z
Si Si1 0.836010 0.230685 0.964880
Si Si2 0.246357 0.369793 0.141678
Si Si3 0.370803 0.771677 0.027602
Si Si4 0.485558 0.747952 0.351364
Si Si5 0.333180 0.975624 0.510744
Si Si6 0.900718 0.123182 0.625053
Si Si7 0.191156 0.485389 0.880261
Si Si8 0.359491 0.254522 0.048044
O O1 0.773941 0.262102 0.840115
O O2 0.858006 0.146236 0.857829
O O3 0.019475 0.403661 0.930506
O O4 0.695241 0.119068 0.264796
O O5 0.444415 0.574092 0.006090
O O6 0.111281 0.269149 0.442284
O O7 0.156994 0.352184 0.010196
O O8 0.257005 0.269136 0.095524
O O9 0.450642 0.797905 0.186052
O O10 0.533686 0.951134 0.765599
O O11 0.281616 0.615424 0.986125
O O12 0.587387 0.867041 0.464406
O O13 0.297983 0.560263 0.587084
O O14 0.601035 0.753318 0.201776
O O15 0.145277 0.847604 0.545647
O O16 0.769956 0.926239 0.726220
#
# Coordination Sequence:
#
# PCOD8031093 Si02
#       8
#     2   2   2   2   2   2   2   2
#     4  12  25  40  68  99 134 182 226 271 347 405
#     4  11  24  44  73 100 135 181 224 282 346 397
#     4  11  24  43  67  97 136 180 223 282 339 400
#     4  11  22  43  67  95 134 177 227 278 340 400
#     4  11  22  42  67  92 137 172 225 277 337 394
#     4  12  24  46  69 100 144 177 224 287 332 405
#     4  11  24  43  65  98 139 173 228 285 331 407
#     4  11  22  45  73 100 133 182 223 279 348 403
#
# _framework density 23.058489999999999
#
# number of rings (size 3 to 8) (size 9 to 14) (size 15 to 20)
#    0.000    0.750    5.000    2.625    0.000    5.000 
#    0.000    3.750    0.000    0.000    0.000    0.000 
#    0.000    0.000    0.000    0.000    0.000    0.000 
#
# Total GULP energy -198243.778876 kJ/mol
# GULP energy per Si atom -12390.236180 kJ/mol
# Density = 2.300601 g / cm^3
# Si number density = 23.058490 Si / 1000 Ang^3
#
#
#
# Elastic Constant Matrix: (Units=GPa)
#
#
# Indices 1 2 3 4 5 6 
#
# 1 112.0670 15.4779 31.9705 -5.6516 -16.4383 -5.3708
# 2 15.4779 45.0829 10.5639 -8.6624 1.5514 9.9899
# 3 31.9705 10.5639 117.3685 -12.1163 -7.7958 -0.7524
# 4 -5.6516 -8.6624 -12.1163 25.5199 4.7222 2.4378
# 5 -16.4383 1.5514 -7.7958 4.7222 24.0018 -1.6249
# 6 -5.3708 9.9899 -0.7524 2.4378 -1.6249 31.5871
#
#
#
# Elastic Compliance Matrix: (Units=1/GPa)
#
#
# Indices 1 2 3 4 5 6 
#
# 1 0.011578 -0.005028 -0.002355 -0.002168 0.008193 0.004092
# 2 -0.005028 0.029005 -0.000739 0.011036 -0.008497 -0.011335
# 3 -0.002355 -0.000739 0.009662 0.003677 0.000838 -0.000177
# 4 -0.002168 0.011036 0.003677 0.046951 -0.010779 -0.007949
# 5 0.008193 -0.008497 0.000838 -0.010779 0.050728 0.007542
# 6 0.004092 -0.011335 -0.000177 -0.007949 0.007542 0.036936
#
#
# Mechanical properties :
#
#
# Convention : Reuss Voigt Hill
#
# Bulk Modulus (GPa) = 29.40971 43.39367 36.40169
# Shear Modulus (GPa) = 23.53633 30.65551 27.09592
#
# Velocity S-wave (km/s) = 3.19834 3.65014 3.43169
# Velocity P-wave (km/s) = 5.14016 6.05182 5.61453
#
# Compressibility (1/GPa) = 0.03400238
#
# Stress axis : x y z
#
# Youngs Moduli (GPa) = 86.37068 34.47631 103.49678
#
# Poissons Ratio (x) = 0.17336 0.24369
# Poissons Ratio (y) = 0.43430 0.07646
# Poissons Ratio (z) = 0.20336 0.02547
#
# Static dielectric constant tensor:
#      x y z
#    x 4.066910 0.059220 -0.163710 
#    y 0.059220 4.102840 -0.189980 
#    z -0.163710 -0.189980 4.281090 
# 
# 
# High freq. dielectric constant tensor:
#      x y z
#    x 1.904420 0.008520 -0.010880 
#    y 0.008520 1.909760 -0.007900 
#    z -0.010880 -0.007900 1.915140 
# 
# From -- ./inp_files/39709.got.cif
#   From: 2010.06.25/outbox.cif.g09.slc.cpg/sg2_20_cif.got.tgz:39709.got - 2010.06.27 13:26:56.
