data_PCOD8031528
_publ_section_title
;
Structure prediction by ZEFSAII (Michael W. Deem and Ramdas Pophale) SiO2 
 PCOD8031528
Probable space group: P -1
;
_chemical_formula_sum "Si O2"
_cell_formula_units_Z 14
_cell_length_a 10.731975
_cell_length_b 19.296852
_cell_length_c 8.812976
_cell_angle_alpha 137.616613
_cell_angle_beta 116.914556
_cell_angle_gamma 32.115677
_cell_volume 572.837984
_symmetry_space_group_name_H-M "P -1"
_symmetry_group_IT_number 2
_symmetry_cell_setting 'triclinic'
loop_
_space_group_symop_operation_xyz
x,y,z
-x,-y,-z
loop_
_atom_site_type_symbol
_atom_site_label
_atom_site_fract_x
_atom_site_fract_y
_atom_site_fract_z
Si Si1 0.435878 0.406866 0.165850
Si Si2 0.711019 0.975473 0.313550
Si Si3 0.523742 0.128188 0.790939
Si Si4 0.345895 0.032657 0.099882
Si Si5 0.552964 0.721052 0.538951
Si Si6 0.048058 0.594018 0.983251
Si Si7 0.252362 0.591061 0.684154
O O1 0.230929 0.503429 0.079520
O O2 0.282270 0.548027 0.453825
O O3 0.646448 0.358099 0.140355
O O4 0.595702 0.203352 0.968091
O O5 0.581938 0.052454 0.532466
O O6 0.517824 0.031211 0.178103
O O7 0.704432 0.092064 0.415981
O O8 0.992400 0.739528 0.103419
O O9 0.214671 0.299672 0.935354
O O10 0.712870 0.947594 0.720776
O O11 0.068035 0.212707 0.142344
O O12 0.537612 0.813515 0.814596
O O13 0.564481 0.600442 0.422917
O O14 0.809385 0.571189 0.326346
#
# Coordination Sequence:
#
# PCOD8031528 Si02
#       7
#     2   2   2   2   2   2   2
#     4  11  23  47  70  94 128 175 227 263 321 388
#     4  11  24  41  67 103 130 168 216 272 333 378
#     4  11  22  44  71 100 127 171 219 275 326 375
#     4  11  24  43  66  99 136 165 222 265 323 398
#     4  12  25  43  65 102 135 174 212 263 341 382
#     4  11  24  43  71  97 134 168 217 275 324 384
#     4  11  26  45  68  94 132 178 216 270 319 386
#
# _framework density 24.439719
#
# number of rings (size 3 to 8) (size 9 to 14) (size 15 to 20)
#    0.000    0.857    2.857    5.143    2.000    5.143 
#    2.571    1.429    0.000    0.000    0.000    0.000 
#    0.000    0.000    0.000    0.000    0.000    0.000 
#
# Total GULP energy -173495.717977 kJ/mol
# GULP energy per Si atom -12392.551284 kJ/mol
# Density = 2.438409 g / cm^3
# Si number density = 24.439719 Si / 1000 Ang^3
#
#
#
# Elastic Constant Matrix: (Units=GPa)
#
#
# Indices 1 2 3 4 5 6 
#
# 1 105.1375 41.9713 18.4693 9.2122 25.7439 21.6445
# 2 41.9713 85.9553 14.5732 6.3965 4.7144 33.2300
# 3 18.4693 14.5732 113.8646 1.9001 4.9986 3.1529
# 4 9.2122 6.3965 1.9001 43.2603 11.7610 4.7095
# 5 25.7439 4.7144 4.9986 11.7610 35.1278 2.6044
# 6 21.6445 33.2300 3.1529 4.7095 2.6044 25.2722
#
#
#
# Elastic Compliance Matrix: (Units=1/GPa)
#
#
# Indices 1 2 3 4 5 6 
#
# 1 0.015155 -0.004215 -0.001310 0.000920 -0.010188 -0.006395
# 2 -0.004215 0.025397 -0.001837 -0.000134 0.002193 -0.029755
# 3 -0.001310 -0.001837 0.009175 -0.000045 -0.000264 0.002428
# 4 0.000920 -0.000134 -0.000045 0.025873 -0.008978 -0.004502
# 5 -0.010188 0.002193 -0.000264 -0.008978 0.038417 0.003589
# 6 -0.006395 -0.029755 0.002428 -0.004502 0.003589 0.084337
#
#
# Mechanical properties :
#
#
# Convention : Reuss Voigt Hill
#
# Bulk Modulus (GPa) = 28.56932 50.55388 39.56160
# Shear Modulus (GPa) = 22.24754 36.06165 29.15459
#
# Velocity S-wave (km/s) = 3.02040 3.84544 3.45761
# Velocity P-wave (km/s) = 4.88659 6.35976 5.67121
#
# Compressibility (1/GPa) = 0.03500258
#
# Stress axis : x y z
#
# Youngs Moduli (GPa) = 65.98604 39.37535 108.99176
#
# Poissons Ratio (x) = 0.16598 0.14274
# Poissons Ratio (y) = 0.27816 0.20020
# Poissons Ratio (z) = 0.08642 0.07232
#
# Static dielectric constant tensor:
#      x y z
#    x 4.373640 0.573680 0.029950 
#    y 0.573680 4.495530 -0.047470 
#    z 0.029950 -0.047470 4.765490 
# 
# 
# High freq. dielectric constant tensor:
#      x y z
#    x 1.954180 0.054610 -0.006990 
#    y 0.054610 1.970940 -0.012430 
#    z -0.006990 -0.012430 2.000630 
# 
# From -- ./inp_files/283420.got.cif
#   From: 2010.06.25/outbox.cif.g09.slc.cpg/sg2_142_cif.got.tgz:283420.got - 2010.06.27 13:26:56.
