data_PCOD8031567
_publ_section_title
;
Structure prediction by ZEFSAII (Michael W. Deem and Ramdas Pophale) SiO2 
 PCOD8031567
Probable space group: P -1
;
_chemical_formula_sum "Si O2"
_cell_formula_units_Z 14
_cell_length_a 7.459581
_cell_length_b 12.005317
_cell_length_c 7.594212
_cell_angle_alpha 59.136996
_cell_angle_beta 69.660945
_cell_angle_gamma 80.891812
_cell_volume 547.225433
_symmetry_space_group_name_H-M "P -1"
_symmetry_group_IT_number 2
_symmetry_cell_setting 'triclinic'
loop_
_space_group_symop_operation_xyz
x,y,z
-x,-y,-z
loop_
_atom_site_type_symbol
_atom_site_label
_atom_site_fract_x
_atom_site_fract_y
_atom_site_fract_z
Si Si1 0.306890 0.342544 0.005126
Si Si2 0.391164 0.607722 0.617694
Si Si3 0.569984 0.117690 0.992177
Si Si4 0.762872 0.720692 0.529609
Si Si5 0.861570 0.010707 0.205550
Si Si6 0.830731 0.333433 0.676743
Si Si7 0.107289 0.714759 0.908993
O O1 0.307358 0.342001 0.215421
O O2 0.093999 0.359187 0.990608
O O3 0.432038 0.467545 0.800285
O O4 0.398576 0.213553 0.005075
O O5 0.589586 0.694719 0.470700
O O6 0.697907 0.421371 0.524554
O O7 0.242907 0.685957 0.723163
O O8 0.749978 0.188381 0.772269
O O9 0.648675 0.057886 0.193751
O O10 0.500000 0.000000 0.000000
O O11 0.945962 0.643023 0.460115
O O12 0.828699 0.870206 0.418981
O O13 0.938838 0.130059 0.204046
O O14 0.000000 0.000000 0.000000
O O15 0.799364 0.339900 0.895575
#
# Coordination Sequence:
#
# PCOD8031567 Si02
#       7
#     2   2   2   2   2   2   2
#     4  12  28  49  75 112 153 200 249 314 372 444
#     4  12  28  53  72 111 158 197 255 308 368 451
#     4  11  24  45  74 110 151 190 252 312 370 448
#     4  12  25  47  80 110 149 201 251 309 379 444
#     4  11  22  44  72 109 148 189 252 307 373 440
#     4  11  26  47  77 113 145 204 251 304 381 438
#     4  11  25  48  77 108 155 198 250 315 371 446
#
# _framework density 25.583604000000001
#
# number of rings (size 3 to 8) (size 9 to 14) (size 15 to 20)
#    0.000    0.571    4.286    4.286    2.000    5.143 
#    0.000    0.000    0.000    0.000    0.000    0.000 
#    0.000    0.000    0.000    0.000    0.000    0.000 
#
# Total GULP energy -173515.700322 kJ/mol
# GULP energy per Si atom -12393.978594 kJ/mol
# Density = 2.552537 g / cm^3
# Si number density = 25.583604 Si / 1000 Ang^3
#
#
#
# Elastic Constant Matrix: (Units=GPa)
#
#
# Indices 1 2 3 4 5 6 
#
# 1 130.3631 -2.5995 34.9914 7.5000 -9.5318 2.2079
# 2 -2.5995 77.7044 6.2134 11.1893 -4.3408 -1.4868
# 3 34.9914 6.2134 96.5478 3.1446 -1.0247 -4.8838
# 4 7.5000 11.1893 3.1446 40.0374 -7.6993 -1.4147
# 5 -9.5318 -4.3408 -1.0247 -7.6993 47.7809 -6.0672
# 6 2.2079 -1.4868 -4.8838 -1.4147 -6.0672 29.6597
#
#
#
# Elastic Compliance Matrix: (Units=1/GPa)
#
#
# Indices 1 2 3 4 5 6 
#
# 1 0.008746 0.000808 -0.003208 -0.001373 0.001412 -0.000916
# 2 0.000808 0.013563 -0.001014 -0.003686 0.000835 0.000448
# 3 -0.003208 -0.001014 0.011688 -0.000003 -0.000219 0.002068
# 4 -0.001373 -0.003686 -0.000003 0.027109 0.004017 0.002032
# 5 0.001412 0.000835 -0.000219 0.004017 0.022526 0.004700
# 6 -0.000916 0.000448 0.002068 0.002032 0.004700 0.035205
#
#
# Mechanical properties :
#
#
# Convention : Reuss Voigt Hill
#
# Bulk Modulus (GPa) = 36.80734 42.42506 39.61620
# Shear Modulus (GPa) = 37.11354 41.22960 39.17157
#
# Velocity S-wave (km/s) = 3.81291 4.01878 3.91720
# Velocity P-wave (km/s) = 5.81401 6.17682 5.99816
#
# Compressibility (1/GPa) = 0.02716849
#
# Stress axis : x y z
#
# Youngs Moduli (GPa) = 114.33932 73.72787 85.55807
#
# Poissons Ratio (x) = -0.05959 0.27450
# Poissons Ratio (y) = -0.09241 0.08678
# Poissons Ratio (z) = 0.36684 0.07478
#
# Static dielectric constant tensor:
#      x y z
#    x 4.935450 -0.164150 -0.069260 
#    y -0.164150 4.618590 -0.090630 
#    z -0.069260 -0.090630 4.656020 
# 
# 
# High freq. dielectric constant tensor:
#      x y z
#    x 2.037680 -0.000830 -0.011370 
#    y -0.000830 2.024490 -0.008650 
#    z -0.011370 -0.008650 2.017720 
# 
# From -- ./inp_files/184690.got.cif
#   From: 2010.06.25/outbox.cif.g09.slc.cpg/sg2_93_cif.got.tgz:184690.got - 2010.06.27 13:26:56.
