data_PCOD8031645
_publ_section_title
;
Structure prediction by ZEFSAII (Michael W. Deem and Ramdas Pophale) SiO2 
 PCOD8031645
Probable space group: P -1
;
_chemical_formula_sum "Si O2"
_cell_formula_units_Z 14
_cell_length_a 20.446166
_cell_length_b 5.255228
_cell_length_c 12.164641
_cell_angle_alpha 106.701419
_cell_angle_beta 33.048387
_cell_angle_gamma 118.677648
_cell_volume 607.087651
_symmetry_space_group_name_H-M "P -1"
_symmetry_group_IT_number 2
_symmetry_cell_setting 'triclinic'
loop_
_space_group_symop_operation_xyz
x,y,z
-x,-y,-z
loop_
_atom_site_type_symbol
_atom_site_label
_atom_site_fract_x
_atom_site_fract_y
_atom_site_fract_z
Si Si1 0.370970 0.519723 0.641370
Si Si2 0.880695 0.069137 0.144024
Si Si3 0.912677 0.604807 0.275121
Si Si4 0.929301 0.040036 0.710280
Si Si5 0.502721 0.911750 0.859873
Si Si6 0.365808 0.527861 0.410658
Si Si7 0.245590 0.622442 0.040593
O O1 0.500000 0.500000 0.500000
O O2 0.404182 0.690171 0.497492
O O3 0.259634 0.192455 0.726139
O O4 0.318535 0.670524 0.825389
O O5 0.850591 0.246087 0.306940
O O6 0.941580 0.268952 0.973910
O O7 0.000000 0.000000 0.000000
O O8 0.797663 0.682328 0.393756
O O9 0.944285 0.721024 0.368618
O O10 0.832759 0.180796 0.827966
O O11 0.851044 0.728687 0.847478
O O12 0.000000 0.000000 0.500000
O O13 0.563597 0.680893 0.734549
O O14 0.589645 0.216941 0.711007
O O15 0.351391 0.748173 0.006011
O O16 0.500000 0.000000 0.000000
#
# Coordination Sequence:
#
# PCOD8031645 Si02
#       7
#     2   2   2   2   2   2   2
#     4  12  25  47  76 115 161 196 255 318 391 457
#     4  11  22  45  68 105 149 193 242 306 374 451
#     4  11  26  41  75 103 147 193 255 302 382 443
#     4  12  29  50  76 109 148 201 256 321 372 456
#     4  12  29  50  76 105 154 202 256 310 373 460
#     4  12  27  47  76 112 144 204 252 312 379 460
#     4  12  28  50  76 111 153 198 252 317 392 441
#
# _framework density 23.060918999999998
#
# number of rings (size 3 to 8) (size 9 to 14) (size 15 to 20)
#    0.000    0.286    4.286    3.429    6.000    1.714 
#    0.000    0.000    0.000    0.000    0.000    0.000 
#    0.000    0.000    0.000    0.000    0.000    0.000 
#
# Total GULP energy -173579.748069 kJ/mol
# GULP energy per Si atom -12398.553434 kJ/mol
# Density = 2.300843 g / cm^3
# Si number density = 23.060919 Si / 1000 Ang^3
#
#
#
# Elastic Constant Matrix: (Units=GPa)
#
#
# Indices 1 2 3 4 5 6 
#
# 1 171.6219 61.9331 81.5915 24.6064 -1.9494 24.4147
# 2 61.9331 114.3527 55.6293 19.9738 -3.3178 -2.1574
# 3 81.5915 55.6293 132.7586 28.2824 -0.2156 2.4643
# 4 24.6064 19.9738 28.2824 52.5924 2.2263 0.0757
# 5 -1.9494 -3.3178 -0.2156 2.2263 59.9123 3.6233
# 6 24.4147 -2.1574 2.4643 0.0757 3.6233 55.6520
#
#
#
# Elastic Compliance Matrix: (Units=1/GPa)
#
#
# Indices 1 2 3 4 5 6 
#
# 1 0.009791 -0.003023 -0.004447 -0.001054 0.000431 -0.004242
# 2 -0.003023 0.012137 -0.002910 -0.001655 0.000510 0.001895
# 3 -0.004447 -0.002910 0.012174 -0.003354 -0.000217 0.001318
# 4 -0.001054 -0.001655 -0.003354 0.021980 -0.000990 0.000581
# 5 0.000431 0.000510 -0.000217 -0.000990 0.016845 -0.001255
# 6 -0.004242 0.001895 0.001318 0.000581 -0.001255 0.019926
#
#
# Mechanical properties :
#
#
# Convention : Reuss Voigt Hill
#
# Bulk Modulus (GPa) = 74.94260 90.78234 82.86247
# Shear Modulus (GPa) = 42.35067 48.26996 45.31032
#
# Velocity S-wave (km/s) = 4.29005 4.58006 4.43743
# Velocity P-wave (km/s) = 7.55696 8.21103 7.89077
#
# Compressibility (1/GPa) = 0.01334355
#
# Stress axis : x y z
#
# Youngs Moduli (GPa) = 102.13111 82.39100 82.13936
#
# Poissons Ratio (x) = 0.24908 0.36527
# Poissons Ratio (y) = 0.30876 0.23900
# Poissons Ratio (z) = 0.45417 0.23973
#
# Static dielectric constant tensor:
#      x y z
#    x 4.522780 0.223830 -0.080350 
#    y 0.223830 4.559900 -0.440070 
#    z -0.080350 -0.440070 5.034340 
# 
# 
# High freq. dielectric constant tensor:
#      x y z
#    x 1.926340 0.004300 -0.007090 
#    y 0.004300 1.919650 0.001420 
#    z -0.007090 0.001420 1.924220 
# 
# From -- ./inp_files/72351.got.cif
#   From: 2010.06.25/outbox.cif.g09.slc.cpg/sg2_37_cif.got.tgz:72351.got - 2010.06.27 13:26:56.
