data_PCOD8031816
_publ_section_title
;
Structure prediction by ZEFSAII (Michael W. Deem and Ramdas Pophale) SiO2 
 PCOD8031816
Probable space group: P -1
;
_chemical_formula_sum "Si O2"
_cell_formula_units_Z 14
_cell_length_a 15.871761
_cell_length_b 22.601945
_cell_length_c 5.307871
_cell_angle_alpha 76.428304
_cell_angle_beta 76.068373
_cell_angle_gamma 18.934896
_cell_volume 599.549913
_symmetry_space_group_name_H-M "P -1"
_symmetry_group_IT_number 2
_symmetry_cell_setting 'triclinic'
loop_
_space_group_symop_operation_xyz
x,y,z
-x,-y,-z
loop_
_atom_site_type_symbol
_atom_site_label
_atom_site_fract_x
_atom_site_fract_y
_atom_site_fract_z
Si Si1 0.858473 0.548520 0.866608
Si Si2 0.369576 0.231911 0.592579
Si Si3 0.077738 0.017050 0.896607
Si Si4 0.235252 0.518511 0.780701
Si Si5 0.461968 0.564529 0.211526
Si Si6 0.364658 0.063516 0.285059
Si Si7 0.605121 0.190078 0.630142
O O1 0.625279 0.740472 0.714136
O O2 0.096203 0.376936 0.671703
O O3 0.745038 0.557015 0.999040
O O4 0.000000 0.500000 0.000000
O O5 0.404250 0.265392 0.733046
O O6 0.607863 0.027507 0.646964
O O7 0.832510 0.219748 0.802111
O O8 0.269726 0.898357 0.643892
O O9 0.192498 0.956924 0.146721
O O10 0.000000 0.000000 0.000000
O O11 0.334845 0.512761 0.859212
O O12 0.450918 0.357462 0.573910
O O13 0.941821 0.719829 0.693573
O O14 0.500000 0.500000 0.500000
O O15 0.500000 0.500000 0.000000
O O16 0.500000 0.000000 0.500000
O O17 0.500000 0.000000 0.000000
#
# Coordination Sequence:
#
# PCOD8031816 Si02
#       7
#     2   2   2   2   2   2   2
#     4  11  22  46  75 111 148 195 258 318 372 464
#     4  11  26  42  74 110 154 196 257 309 386 464
#     4  12  27  51  79 111 149 195 268 322 380 456
#     4  12  27  51  80 111 158 208 259 318 398 456
#     4  12  31  53  78 113 159 203 257 324 391 460
#     4  12  29  48  71 111 160 203 251 310 387 471
#     4  12  27  46  82 113 146 203 258 321 386 453
#
# _framework density 23.350847999999999
#
# number of rings (size 3 to 8) (size 9 to 14) (size 15 to 20)
#    0.000    0.286    4.286    3.000    8.000    2.286 
#    0.000    0.000    0.000    0.000    0.000    0.000 
#    0.000    0.000    0.000    0.000    0.000    0.000 
#
# Total GULP energy -173471.552186 kJ/mol
# GULP energy per Si atom -12390.825156 kJ/mol
# Density = 2.329770 g / cm^3
# Si number density = 23.350848 Si / 1000 Ang^3
#
#
#
# Elastic Constant Matrix: (Units=GPa)
#
#
# Indices 1 2 3 4 5 6 
#
# 1 179.9988 42.4650 64.3602 -9.6098 4.7652 5.1153
# 2 42.4650 162.2480 40.0674 -23.6246 3.6730 15.3217
# 3 64.3602 40.0674 133.5014 -19.2772 5.5865 2.0768
# 4 -9.6098 -23.6246 -19.2772 44.9856 -0.3367 -4.3830
# 5 4.7652 3.6730 5.5865 -0.3367 42.8992 -5.0260
# 6 5.1153 15.3217 2.0768 -4.3830 -5.0260 46.5676
#
#
#
# Elastic Compliance Matrix: (Units=1/GPa)
#
#
# Indices 1 2 3 4 5 6 
#
# 1 0.006893 -0.001076 -0.003044 -0.000433 -0.000321 -0.000343
# 2 -0.001076 0.007376 -0.001218 0.002919 -0.000570 -0.002041
# 3 -0.003044 -0.001218 0.009772 0.002940 -0.000749 0.000495
# 4 -0.000433 0.002919 0.002940 0.025053 -0.000237 0.001289
# 5 -0.000321 -0.000570 -0.000749 -0.000237 0.023819 0.002805
# 6 -0.000343 -0.002041 0.000495 0.001289 0.002805 0.022585
#
#
# Mechanical properties :
#
#
# Convention : Reuss Voigt Hill
#
# Bulk Modulus (GPa) = 74.81957 85.50373 80.16165
# Shear Modulus (GPa) = 45.19578 48.81417 47.00497
#
# Velocity S-wave (km/s) = 4.40422 4.57712 4.49150
# Velocity P-wave (km/s) = 7.61406 8.03927 7.82955
#
# Compressibility (1/GPa) = 0.01336549
#
# Stress axis : x y z
#
# Youngs Moduli (GPa) = 145.07733 135.56625 102.33555
#
# Poissons Ratio (x) = 0.14583 0.31150
# Poissons Ratio (y) = 0.15607 0.12467
# Poissons Ratio (z) = 0.44160 0.16515
#
# Static dielectric constant tensor:
#      x y z
#    x 4.722370 -0.223440 -0.251940 
#    y -0.223440 4.875190 0.363510 
#    z -0.251940 0.363510 4.440080 
# 
# 
# High freq. dielectric constant tensor:
#      x y z
#    x 1.937460 -0.005440 0.000060 
#    y -0.005440 1.940360 -0.001540 
#    z 0.000060 -0.001540 1.932960 
# 
# From -- ./inp_files/100562.got.cif
#   From: 2010.06.25/outbox.cif.g09.slc.cpg/sg2_51_cif.got.tgz:100562.got - 2010.06.27 13:26:56.
