data_PCOD8031549
_publ_section_title
;
Structure prediction by ZEFSAII (Michael W. Deem and Ramdas Pophale) SiO2 
 PCOD8031549
Probable space group: P -1
;
_chemical_formula_sum "Si O2"
_cell_formula_units_Z 14
_cell_length_a 9.624939
_cell_length_b 21.075525
_cell_length_c 5.258330
_cell_angle_alpha 65.983976
_cell_angle_beta 117.154925
_cell_angle_gamma 141.673572
_cell_volume 586.245276
_symmetry_space_group_name_H-M "P -1"
_symmetry_group_IT_number 2
_symmetry_cell_setting 'triclinic'
loop_
_space_group_symop_operation_xyz
x,y,z
-x,-y,-z
loop_
_atom_site_type_symbol
_atom_site_label
_atom_site_fract_x
_atom_site_fract_y
_atom_site_fract_z
Si Si1 0.451289 0.563046 0.775631
Si Si2 0.567646 0.169061 0.537786
Si Si3 0.123677 0.979208 0.279221
Si Si4 0.193283 0.737223 0.899947
Si Si5 0.066693 0.209356 0.310857
Si Si6 0.707530 0.068904 0.863760
Si Si7 0.173644 0.493559 0.135899
O O1 0.679250 0.678768 0.695346
O O2 0.285044 0.512730 0.472571
O O3 0.500000 0.500000 0.000000
O O4 0.355349 0.570044 0.936651
O O5 0.647302 0.238286 0.241631
O O6 0.700691 0.142095 0.616525
O O7 0.287560 0.066557 0.494808
O O8 0.661332 0.232973 0.771865
O O9 0.320432 0.004764 0.231286
O O10 0.937799 0.859413 0.395272
O O11 0.000000 0.000000 0.000000
O O12 0.113676 0.791491 0.742814
O O13 0.957619 0.616982 0.896418
O O14 0.963439 0.143982 0.072216
O O15 0.500000 0.000000 0.000000
O O16 0.000000 0.500000 0.000000
#
# Coordination Sequence:
#
# PCOD8031549 Si02
#       7
#     2   2   2   2   2   2   2
#     4  12  27  48  83 111 152 201 261 317 384 461
#     4  11  23  43  72 104 138 198 251 296 357 453
#     4  12  26  44  68 108 157 192 241 315 378 441
#     4  11  24  44  79 103 141 193 259 299 367 451
#     4  11  25  43  75 107 147 196 257 302 371 445
#     4  11  22  44  71  98 142 197 253 292 354 445
#     4  12  28  52  76 116 155 196 254 330 392 452
#
# _framework density 23.880789
#
# number of rings (size 3 to 8) (size 9 to 14) (size 15 to 20)
#    0.000    0.571    4.286    3.857    4.000    1.714 
#    2.571    0.000    0.000    0.000    0.000    0.000 
#    0.000    0.000    0.000    0.000    0.000    0.000 
#
# Total GULP energy -173479.283943 kJ/mol
# GULP energy per Si atom -12391.377424 kJ/mol
# Density = 2.382644 g / cm^3
# Si number density = 23.880789 Si / 1000 Ang^3
#
#
#
# Elastic Constant Matrix: (Units=GPa)
#
#
# Indices 1 2 3 4 5 6 
#
# 1 72.7195 26.2160 51.0925 -5.3749 -8.7707 14.5497
# 2 26.2160 147.1978 67.7752 5.5535 -2.3895 17.0074
# 3 51.0925 67.7752 179.3465 15.0581 -9.5567 1.3101
# 4 -5.3749 5.5535 15.0581 42.1374 1.5441 -7.4749
# 5 -8.7707 -2.3895 -9.5567 1.5441 39.5052 -6.4495
# 6 14.5497 17.0074 1.3101 -7.4749 -6.4495 29.2110
#
#
#
# Elastic Compliance Matrix: (Units=1/GPa)
#
#
# Indices 1 2 3 4 5 6 
#
# 1 0.019942 0.000020 -0.005801 0.003038 0.001507 -0.008574
# 2 0.000020 0.008993 -0.003345 -0.000937 -0.001136 -0.005586
# 3 -0.005801 -0.003345 0.008770 -0.002767 0.001400 0.004044
# 4 0.003038 -0.000937 -0.002767 0.026274 -0.000123 0.005853
# 5 0.001507 -0.001136 0.001400 -0.000123 0.026861 0.005747
# 6 -0.008574 -0.005586 0.004044 0.005853 0.005747 0.044342
#
#
# Mechanical properties :
#
#
# Convention : Reuss Voigt Hill
#
# Bulk Modulus (GPa) = 51.40846 76.60348 64.00597
# Shear Modulus (GPa) = 31.26638 39.11606 35.19122
#
# Velocity S-wave (km/s) = 3.62231 4.05158 3.84294
# Velocity P-wave (km/s) = 6.25049 7.35079 6.82286
#
# Compressibility (1/GPa) = 0.01945205
#
# Stress axis : x y z
#
# Youngs Moduli (GPa) = 50.14653 111.20329 114.02910
#
# Poissons Ratio (x) = -0.00219 0.66143
# Poissons Ratio (y) = -0.00099 0.38143
# Poissons Ratio (z) = 0.29088 0.37197
#
# Static dielectric constant tensor:
#      x y z
#    x 4.132110 -0.060520 -0.163970 
#    y -0.060520 4.770480 0.190060 
#    z -0.163970 0.190060 4.751770 
# 
# 
# High freq. dielectric constant tensor:
#      x y z
#    x 1.930630 0.004390 -0.013580 
#    y 0.004390 1.955860 0.003270 
#    z -0.013580 0.003270 1.959570 
# 
# From -- ./inp_files/52813.got.cif
#   From: 2010.06.25/outbox.cif.g09.slc.cpg/sg2_27_cif.got.tgz:52813.got - 2010.06.27 13:26:56.
