data_PCOD8031590
_publ_section_title
;
Structure prediction by ZEFSAII (Michael W. Deem and Ramdas Pophale) SiO2 
 PCOD8031590
Probable space group: P -1
;
_chemical_formula_sum "Si O2"
_cell_formula_units_Z 16
_cell_length_a 21.330836
_cell_length_b 7.989554
_cell_length_c 6.006404
_cell_angle_alpha 62.542891
_cell_angle_beta 50.775860
_cell_angle_gamma 70.264754
_cell_volume 702.077808
_symmetry_space_group_name_H-M "P -1"
_symmetry_group_IT_number 2
_symmetry_cell_setting 'triclinic'
loop_
_space_group_symop_operation_xyz
x,y,z
-x,-y,-z
loop_
_atom_site_type_symbol
_atom_site_label
_atom_site_fract_x
_atom_site_fract_y
_atom_site_fract_z
Si Si1 0.223854 0.923406 0.857326
Si Si2 0.242756 0.566015 0.331611
Si Si3 0.090816 0.919726 0.824423
Si Si4 0.332272 0.355354 0.920525
Si Si5 0.337955 0.719409 0.414129
Si Si6 0.085198 0.501731 0.929601
Si Si7 0.457073 0.997708 0.847213
Si Si8 0.821333 0.805787 0.848624
O O1 0.134781 0.958966 0.931659
O O2 0.298523 0.901233 0.529083
O O3 0.225857 0.721616 0.089553
O O4 0.234024 0.102330 0.882702
O O5 0.267666 0.659161 0.447502
O O6 0.159175 0.464503 0.612560
O O7 0.315392 0.416859 0.177477
O O8 0.092129 0.699075 0.912917
O O9 0.140913 0.018883 0.461381
O O10 0.000000 0.000000 0.000000
O O11 0.367152 0.534636 0.604377
O O12 0.397049 0.182609 0.862525
O O13 0.242273 0.310025 0.071373
O O14 0.412457 0.801754 0.063239
O O15 0.100168 0.332482 0.177266
O O16 0.000000 0.500000 0.000000
O O17 0.500000 0.000000 0.500000
O O18 0.500000 0.000000 0.000000
#
# Coordination Sequence:
#
# PCOD8031590 Si02
#       8
#     2   2   2   2   2   2   2   2
#     4  11  22  44  73  98 141 189 253 304 371 443
#     4  11  23  47  74 105 144 198 254 306 368 443
#     4  12  27  44  62  98 145 197 248 316 382 440
#     4  11  27  46  80 109 146 200 251 309 371 473
#     4  11  25  49  78 107 150 194 249 308 368 468
#     4  12  26  43  67 107 148 193 254 318 374 434
#     4  12  32  52  81 122 159 199 247 317 398 468
#     4  12  26  45  74 104 141 201 253 308 380 450
#
# _framework density 22.789498999999999
#
# number of rings (size 3 to 8) (size 9 to 14) (size 15 to 20)
#    0.000    0.500    3.750    3.000   14.000    2.500 
#    0.000    0.000    0.000    0.000    0.000    0.000 
#    0.000    0.000    0.000    0.000    0.000    0.000 
#
# Total GULP energy -198257.852026 kJ/mol
# GULP energy per Si atom -12391.115752 kJ/mol
# Density = 2.273763 g / cm^3
# Si number density = 22.789499 Si / 1000 Ang^3
#
#
#
# Elastic Constant Matrix: (Units=GPa)
#
#
# Indices 1 2 3 4 5 6 
#
# 1 79.7393 26.9673 27.7484 1.3990 3.7001 -10.4775
# 2 26.9673 130.7524 40.4692 4.7416 1.3889 -6.8821
# 3 27.7484 40.4692 110.1744 11.8489 -2.7233 7.4695
# 4 1.3990 4.7416 11.8489 25.4104 5.3081 -4.2035
# 5 3.7001 1.3889 -2.7233 5.3081 34.7896 -0.4431
# 6 -10.4775 -6.8821 7.4695 -4.2035 -0.4431 37.7882
#
#
#
# Elastic Compliance Matrix: (Units=1/GPa)
#
#
# Indices 1 2 3 4 5 6 
#
# 1 0.015169 -0.001752 -0.003836 0.002545 -0.002170 0.004903
# 2 -0.001752 0.009038 -0.003032 0.000205 -0.000420 0.001777
# 3 -0.003836 -0.003032 0.012197 -0.006180 0.002367 -0.004687
# 4 0.002545 0.000205 -0.006180 0.044759 -0.007505 0.006856
# 5 -0.002170 -0.000420 0.002367 -0.007505 0.030301 -0.001626
# 6 0.004903 0.001777 -0.004687 0.006856 -0.001626 0.029816
#
#
# Mechanical properties :
#
#
# Convention : Reuss Voigt Hill
#
# Bulk Modulus (GPa) = 52.18217 56.78178 54.48198
# Shear Modulus (GPa) = 30.31955 34.62971 32.47463
#
# Velocity S-wave (km/s) = 3.65145 3.90237 3.77899
# Velocity P-wave (km/s) = 6.38158 6.72863 6.55740
#
# Compressibility (1/GPa) = 0.01916363
#
# Stress axis : x y z
#
# Youngs Moduli (GPa) = 65.92505 110.63990 81.98551
#
# Poissons Ratio (x) = 0.19387 0.31453
# Poissons Ratio (y) = 0.11552 0.24855
# Poissons Ratio (z) = 0.25292 0.33542
#
# Static dielectric constant tensor:
#      x y z
#    x 3.951580 -0.166770 0.614280 
#    y -0.166770 4.287450 0.281510 
#    z 0.614280 0.281510 4.117950 
# 
# 
# High freq. dielectric constant tensor:
#      x y z
#    x 1.890670 0.002130 0.010300 
#    y 0.002130 1.922660 -0.005920 
#    z 0.010300 -0.005920 1.907720 
# 
# From -- ./inp_files/116572.got.cif
#   From: 2010.06.25/outbox.cif.g09.slc.cpg/sg2_59_cif.got.tgz:116572.got - 2010.06.27 13:26:56.
