data_PCOD8031425
_publ_section_title
;
Structure prediction by ZEFSAII (Michael W. Deem and Ramdas Pophale) SiO2 
 PCOD8031425
Probable space group: P -1
;
_chemical_formula_sum "Si O2"
_cell_formula_units_Z 14
_cell_length_a 11.484531
_cell_length_b 17.474831
_cell_length_c 20.577614
_cell_angle_alpha 159.914687
_cell_angle_beta 26.857878
_cell_angle_gamma 142.911634
_cell_volume 618.880913
_symmetry_space_group_name_H-M "P -1"
_symmetry_group_IT_number 2
_symmetry_cell_setting 'triclinic'
loop_
_space_group_symop_operation_xyz
x,y,z
-x,-y,-z
loop_
_atom_site_type_symbol
_atom_site_label
_atom_site_fract_x
_atom_site_fract_y
_atom_site_fract_z
Si Si1 0.531298 0.285519 0.152069
Si Si2 0.867562 0.303517 0.882772
Si Si3 0.786475 0.460625 0.793834
Si Si4 0.017536 0.203549 0.592347
Si Si5 0.588239 0.201461 0.349425
Si Si6 0.940124 0.923036 0.741441
Si Si7 0.895974 0.932370 0.093320
O O1 0.458220 0.525459 0.417868
O O2 0.282331 0.177787 0.193410
O O3 0.596393 0.323947 0.074699
O O4 0.796613 0.125836 0.925794
O O5 0.821604 0.336507 0.853885
O O6 0.052370 0.037157 0.585131
O O7 0.000000 0.500000 0.000000
O O8 0.000465 0.371324 0.673481
O O9 0.837200 0.268840 0.559749
O O10 0.500000 0.500000 0.000000
O O11 0.825282 0.690549 0.925673
O O12 0.320649 0.130824 0.408895
O O13 0.674033 0.126168 0.320620
O O14 0.814758 0.074837 0.085569
O O15 0.105766 0.013581 0.786435
#
# Coordination Sequence:
#
# PCOD8031425 Si02
#       7
#     2   2   2   2   2   2   2
#     4  11  22  43  75 102 139 178 247 280 345 422
#     4  11  23  39  67 106 133 176 232 283 335 412
#     4  12  28  47  70 105 144 185 230 287 357 420
#     4  11  25  44  71  98 141 187 231 281 342 416
#     4  11  24  46  71 106 138 189 234 287 353 413
#     4  11  25  47  71 105 136 188 233 296 345 411
#     4  11  27  45  69 104 148 179 233 295 351 411
#
# _framework density 22.621475
#
# number of rings (size 3 to 8) (size 9 to 14) (size 15 to 20)
#    0.000    0.857    4.286    1.714    6.000    3.429 
#    0.000    0.000    0.000    0.000    0.000    0.000 
#    0.000    0.000    0.000    0.000    0.000    0.000 
#
# Total GULP energy -173596.277414 kJ/mol
# GULP energy per Si atom -12399.734101 kJ/mol
# Density = 2.256999 g / cm^3
# Si number density = 22.621475 Si / 1000 Ang^3
#
#
#
# Elastic Constant Matrix: (Units=GPa)
#
#
# Indices 1 2 3 4 5 6 
#
# 1 85.7786 26.4103 54.0662 -5.9391 13.0753 1.0503
# 2 26.4103 85.7595 33.1113 0.7700 -6.8444 -6.3918
# 3 54.0662 33.1113 123.1062 6.7743 10.8014 6.2989
# 4 -5.9391 0.7700 6.7743 50.4756 0.3094 5.9523
# 5 13.0753 -6.8444 10.8014 0.3094 35.9902 -4.3526
# 6 1.0503 -6.3918 6.2989 5.9523 -4.3526 29.0602
#
#
#
# Elastic Compliance Matrix: (Units=1/GPa)
#
#
# Indices 1 2 3 4 5 6 
#
# 1 0.017964 -0.003579 -0.006551 0.003258 -0.005450 -0.001500
# 2 -0.003579 0.014808 -0.003122 -0.000863 0.005676 0.005090
# 3 -0.006551 -0.003122 0.012304 -0.002002 -0.002257 -0.003045
# 4 0.003258 -0.000863 -0.002002 0.021004 -0.001459 -0.004394
# 5 -0.005450 0.005676 -0.002257 -0.001459 0.032392 0.007085
# 6 -0.001500 0.005090 -0.003045 -0.004394 0.007085 0.038206
#
#
# Mechanical properties :
#
#
# Convention : Reuss Voigt Hill
#
# Bulk Modulus (GPa) = 53.84501 57.98000 55.91251
# Shear Modulus (GPa) = 29.52076 35.17563 32.34820
#
# Velocity S-wave (km/s) = 3.61638 3.94758 3.78561
# Velocity P-wave (km/s) = 6.42588 6.81645 6.62405
#
# Compressibility (1/GPa) = 0.01857182
#
# Stress axis : x y z
#
# Youngs Moduli (GPa) = 55.66821 67.53017 81.27440
#
# Poissons Ratio (x) = 0.24167 0.53244
# Poissons Ratio (y) = 0.19922 0.25376
# Poissons Ratio (z) = 0.36469 0.21084
#
# Static dielectric constant tensor:
#      x y z
#    x 4.007710 -0.321230 0.147290 
#    y -0.321230 4.276460 0.043230 
#    z 0.147290 0.043230 4.174410 
# 
# 
# High freq. dielectric constant tensor:
#      x y z
#    x 1.878280 -0.016520 0.017080 
#    y -0.016520 1.902670 0.004650 
#    z 0.017080 0.004650 1.898460 
# 
# From -- ./inp_files/467192.got.cif
#   From: 2010.06.25/outbox.cif.g09.slc.cpg/sg2_234_cif.got.tgz:467192.got - 2010.06.27 13:26:56.
