data_PCOD8031009
_publ_section_title
;
Structure prediction by ZEFSAII (Michael W. Deem and Ramdas Pophale) SiO2 
 PCOD8031009
Probable space group: P -1
;
_chemical_formula_sum "Si O2"
_cell_formula_units_Z 16
_cell_length_a 9.399306
_cell_length_b 8.138526
_cell_length_c 10.876112
_cell_angle_alpha 102.071313
_cell_angle_beta 130.701697
_cell_angle_gamma 79.908594
_cell_volume 615.945898
_symmetry_space_group_name_H-M "P -1"
_symmetry_group_IT_number 2
_symmetry_cell_setting 'triclinic'
loop_
_space_group_symop_operation_xyz
x,y,z
-x,-y,-z
loop_
_atom_site_type_symbol
_atom_site_label
_atom_site_fract_x
_atom_site_fract_y
_atom_site_fract_z
Si Si1 0.734711 0.158675 0.319827
Si Si2 0.835390 0.687896 0.693771
Si Si3 0.555836 0.312604 0.647568
Si Si4 0.920396 0.998004 0.179720
Si Si5 0.535786 0.672488 0.986054
Si Si6 0.124843 0.687356 0.348324
Si Si7 0.571273 0.065944 0.829177
Si Si8 0.793947 0.594166 0.913554
O O1 0.841231 0.016055 0.275593
O O2 0.641862 0.297615 0.198755
O O3 0.883462 0.240426 0.507344
O O4 0.568726 0.082390 0.293841
O O5 0.665740 0.673371 0.499942
O O6 0.950837 0.502808 0.726993
O O7 0.769520 0.721531 0.803448
O O8 0.953861 0.842381 0.744837
O O9 0.658404 0.321950 0.575362
O O10 0.606398 0.143441 0.727499
O O11 0.627874 0.463201 0.794805
O O12 0.768007 0.995727 0.985733
O O13 0.027807 0.813008 0.209963
O O14 0.737786 0.682542 0.027936
O O15 0.500000 0.500000 0.000000
O O16 0.536103 0.810695 0.114392
O O17 0.000000 0.500000 0.000000
#
# Coordination Sequence:
#
# PCOD8031009 Si02
#       8
#     2   2   2   2   2   2   2   2
#     4  11  25  46  68 100 142 185 243 292 357 433
#     4  11  25  44  73 103 144 188 239 296 356 429
#     4  11  23  44  69 105 141 187 243 290 353 440
#     4  11  25  47  67 106 144 184 244 301 350 432
#     4  11  22  41  71  99 137 189 228 288 363 416
#     4  11  25  45  71 100 143 191 232 294 366 417
#     4  11  25  45  71 102 142 183 240 298 357 428
#     4  11  23  41  69 108 144 177 239 300 346 426
#
# _framework density 25.976305
#
# number of rings (size 3 to 8) (size 9 to 14) (size 15 to 20)
#    0.000    1.000    1.250    6.375    1.750    8.000 
#    0.000    0.000    0.000    0.000    0.000    0.000 
#    0.000    0.000    0.000    0.000    0.000    0.000 
#
# Total GULP energy -198329.500882 kJ/mol
# GULP energy per Si atom -12395.593805 kJ/mol
# Density = 2.591718 g / cm^3
# Si number density = 25.976305 Si / 1000 Ang^3
#
#
#
# Elastic Constant Matrix: (Units=GPa)
#
#
# Indices 1 2 3 4 5 6 
#
# 1 61.0575 11.2713 19.0378 -2.7540 12.7329 7.6005
# 2 11.2713 132.2416 22.5498 -12.1547 14.4521 17.8668
# 3 19.0378 22.5498 72.6275 1.3438 -3.9273 6.0672
# 4 -2.7540 -12.1547 1.3438 37.6697 7.3801 1.0544
# 5 12.7329 14.4521 -3.9273 7.3801 40.2934 2.9595
# 6 7.6005 17.8668 6.0672 1.0544 2.9595 53.4272
#
#
#
# Elastic Compliance Matrix: (Units=1/GPa)
#
#
# Indices 1 2 3 4 5 6 
#
# 1 0.020057 0.000709 -0.005781 0.003456 -0.007636 -0.002079
# 2 0.000709 0.009257 -0.003150 0.004089 -0.004404 -0.002676
# 3 -0.005781 -0.003150 0.016617 -0.003034 0.005149 -0.000236
# 4 0.003456 0.004089 -0.003034 0.029881 -0.008206 -0.001650
# 5 -0.007636 -0.004404 0.005149 -0.008206 0.030784 0.000431
# 6 -0.002079 -0.002676 -0.000236 -0.001650 0.000431 0.019943
#
#
# Mechanical properties :
#
#
# Convention : Reuss Voigt Hill
#
# Bulk Modulus (GPa) = 33.91358 41.29381 37.60370
# Shear Modulus (GPa) = 32.72012 40.48259 36.60135
#
# Velocity S-wave (km/s) = 3.55295 3.95199 3.75778
# Velocity P-wave (km/s) = 5.46948 6.06264 5.77368
#
# Compressibility (1/GPa) = 0.02948671
#
# Stress axis : x y z
#
# Youngs Moduli (GPa) = 49.85873 108.02298 60.18028
#
# Poissons Ratio (x) = -0.07662 0.34789
# Poissons Ratio (y) = -0.03537 0.18960
# Poissons Ratio (z) = 0.28823 0.34032
#
# Static dielectric constant tensor:
#      x y z
#    x 4.756150 -0.104160 -0.061630 
#    y -0.104160 4.768820 -0.123340 
#    z -0.061630 -0.123340 4.599250 
# 
# 
# High freq. dielectric constant tensor:
#      x y z
#    x 2.033550 0.002440 -0.004480 
#    y 0.002440 2.055530 0.000960 
#    z -0.004480 0.000960 2.046590 
# 
# From -- ./inp_files/382767.got.cif
#   From: 2010.06.25/outbox.cif.g09.slc.cpg/sg2_192_cif.got.tgz:382767.got - 2010.06.27 13:26:56.
