data_PCOD8031619
_publ_section_title
;
Structure prediction by ZEFSAII (Michael W. Deem and Ramdas Pophale) SiO2 
 PCOD8031619
Probable space group: P -1
;
_chemical_formula_sum "Si O2"
_cell_formula_units_Z 16
_cell_length_a 13.938829
_cell_length_b 11.210444
_cell_length_c 8.649670
_cell_angle_alpha 79.625438
_cell_angle_beta 88.010385
_cell_angle_gamma 30.847110
_cell_volume 662.163164
_symmetry_space_group_name_H-M "P -1"
_symmetry_group_IT_number 2
_symmetry_cell_setting 'triclinic'
loop_
_space_group_symop_operation_xyz
x,y,z
-x,-y,-z
loop_
_atom_site_type_symbol
_atom_site_label
_atom_site_fract_x
_atom_site_fract_y
_atom_site_fract_z
Si Si1 0.951174 0.523458 0.322291
Si Si2 0.375267 0.277412 0.281466
Si Si3 0.233650 0.051255 0.253718
Si Si4 0.057384 0.224824 0.889560
Si Si5 0.889644 0.066094 0.637830
Si Si6 0.579690 0.502330 0.771459
Si Si7 0.590516 0.803731 0.345566
Si Si8 0.784549 0.193221 0.137869
O O1 0.862886 0.740013 0.199754
O O2 0.796019 0.584022 0.297721
O O3 0.000000 0.500000 0.500000
O O4 0.143251 0.271005 0.282194
O O5 0.484013 0.287513 0.260739
O O6 0.349532 0.271552 0.462525
O O7 0.172935 0.513178 0.149737
O O8 0.494801 0.038287 0.253392
O O9 0.187230 0.985679 0.379223
O O10 0.462525 0.830291 0.288343
O O11 0.156287 0.104383 0.078002
O O12 0.115120 0.047389 0.824650
O O13 0.055326 0.884969 0.801609
O O14 0.701044 0.347426 0.642655
O O15 0.000000 0.000000 0.500000
O O16 0.386326 0.632082 0.764561
O O17 0.712451 0.320080 0.949665
#
# Coordination Sequence:
#
# PCOD8031619 Si02
#       8
#     2   2   2   2   2   2   2   2
#     4  12  25  45  76 105 143 196 246 293 374 435
#     4  11  22  44  76  98 143 191 239 298 362 437
#     4  12  28  47  69 111 150 186 244 311 363 435
#     4  12  23  48  78 106 148 191 242 308 367 435
#     4  12  28  45  71 106 151 190 242 304 364 431
#     4  11  24  47  75 104 138 191 252 295 362 442
#     4  11  25  45  69 109 141 187 244 300 357 438
#     4  11  25  48  76 104 142 196 246 301 367 444
#
# _framework density 24.163229000000001
#
# number of rings (size 3 to 8) (size 9 to 14) (size 15 to 20)
#    0.000    0.500    5.000    3.000    5.250    2.000 
#    2.250    0.000    0.000    0.000    0.000    0.000 
#    0.000    0.000    0.000    0.000    0.000    0.000 
#
# Total GULP energy -198377.340756 kJ/mol
# GULP energy per Si atom -12398.583797 kJ/mol
# Density = 2.410823 g / cm^3
# Si number density = 24.163229 Si / 1000 Ang^3
#
#
#
# Elastic Constant Matrix: (Units=GPa)
#
#
# Indices 1 2 3 4 5 6 
#
# 1 152.7145 26.4862 14.7777 -0.1719 -8.7248 -10.9702
# 2 26.4862 66.7018 14.5295 8.5361 -1.3889 -7.4579
# 3 14.7777 14.5295 46.8837 9.0128 -5.1865 -4.0729
# 4 -0.1719 8.5361 9.0128 29.0937 -1.3123 -4.1768
# 5 -8.7248 -1.3889 -5.1865 -1.3123 43.3959 -7.5825
# 6 -10.9702 -7.4579 -4.0729 -4.1768 -7.5825 43.8164
#
#
#
# Elastic Compliance Matrix: (Units=1/GPa)
#
#
# Indices 1 2 3 4 5 6 
#
# 1 0.007352 -0.002573 -0.001504 0.001576 0.001558 0.001683
# 2 -0.002573 0.017489 -0.003776 -0.003761 -0.000246 0.001581
# 3 -0.001504 -0.003776 0.024546 -0.006233 0.002515 0.001103
# 4 0.001576 -0.003761 -0.006233 0.037894 0.001118 0.002981
# 5 0.001558 -0.000246 0.002515 0.001118 0.024546 0.004936
# 6 0.001683 0.001581 0.001103 0.002981 0.004936 0.024754
#
#
# Mechanical properties :
#
#
# Convention : Reuss Voigt Hill
#
# Bulk Modulus (GPa) = 29.69072 41.98741 35.83906
# Shear Modulus (GPa) = 30.57862 37.29497 33.93680
#
# Velocity S-wave (km/s) = 3.56125 3.93295 3.75171
# Velocity P-wave (km/s) = 5.40594 6.16753 5.79925
#
# Compressibility (1/GPa) = 0.03368056
#
# Stress axis : x y z
#
# Youngs Moduli (GPa) = 136.02547 57.17864 40.73973
#
# Poissons Ratio (x) = 0.14710 0.06129
# Poissons Ratio (y) = 0.34994 0.15383
# Poissons Ratio (z) = 0.20464 0.21591
#
# Static dielectric constant tensor:
#      x y z
#    x 4.842350 -0.133570 -0.192380 
#    y -0.133570 4.604770 -0.089700 
#    z -0.192380 -0.089700 4.236890 
# 
# 
# High freq. dielectric constant tensor:
#      x y z
#    x 1.981160 -0.013390 -0.008830 
#    y -0.013390 1.953680 -0.014390 
#    z -0.008830 -0.014390 1.946400 
# 
# From -- ./inp_files/307325.got.cif
#   From: 2010.06.25/outbox.cif.g09.slc.cpg/sg2_154_cif.got.tgz:307325.got - 2010.06.27 13:26:56.
