data_PCOD8031693
_publ_section_title
;
Structure prediction by ZEFSAII (Michael W. Deem and Ramdas Pophale) SiO2 
 PCOD8031693
Probable space group: P -1
;
_chemical_formula_sum "Si O2"
_cell_formula_units_Z 16
_cell_length_a 6.595587
_cell_length_b 23.546753
_cell_length_c 17.731014
_cell_angle_alpha 18.834292
_cell_angle_beta 95.890901
_cell_angle_gamma 107.389736
_cell_volume 688.027923
_symmetry_space_group_name_H-M "P -1"
_symmetry_group_IT_number 2
_symmetry_cell_setting 'triclinic'
loop_
_space_group_symop_operation_xyz
x,y,z
-x,-y,-z
loop_
_atom_site_type_symbol
_atom_site_label
_atom_site_fract_x
_atom_site_fract_y
_atom_site_fract_z
Si Si1 0.838070 0.024413 0.252143
Si Si2 0.868902 0.386354 0.024695
Si Si3 0.915054 0.806702 0.798905
Si Si4 0.644662 0.958508 0.997686
Si Si5 0.396631 0.644406 0.808313
Si Si6 0.759832 0.655397 0.454732
Si Si7 0.213281 0.668469 0.232695
Si Si8 0.664005 0.608832 0.675243
O O1 0.565363 0.867508 0.483620
O O2 0.821081 0.864586 0.388942
O O3 0.059333 0.112042 0.215313
O O4 0.897739 0.240552 0.940932
O O5 0.618292 0.269892 0.217400
O O6 0.869430 0.230894 0.158559
O O7 0.872399 0.567169 0.749940
O O8 0.112647 0.479678 0.969552
O O9 0.618557 0.575058 0.064020
O O10 0.000000 0.000000 0.500000
O O11 0.663676 0.765401 0.263164
O O12 0.478126 0.886014 0.006349
O O13 0.500000 0.000000 0.000000
O O14 0.935200 0.186286 0.710867
O O15 0.500000 0.500000 0.000000
O O16 0.694944 0.446507 0.668396
O O17 0.599765 0.584530 0.614983
O O18 0.000000 0.500000 0.500000
#
# Coordination Sequence:
#
# PCOD8031693 Si02
#       8
#     2   2   2   2   2   2   2   2
#     4  12  27  46  75 106 150 199 243 308 376 432
#     4  11  23  43  75  99 146 192 236 300 371 428
#     4  12  28  47  74 109 154 194 245 311 371 441
#     4  11  24  48  78 102 145 194 245 306 376 436
#     4  11  22  45  72 104 141 188 245 302 357 437
#     4  11  27  46  75 110 144 199 246 305 378 441
#     4  12  27  47  76 110 152 192 248 311 373 444
#     4  12  27  47  72 108 151 190 256 302 362 455
#
# _framework density 23.25487
#
# number of rings (size 3 to 8) (size 9 to 14) (size 15 to 20)
#    0.000    0.500    3.750    3.375    7.000    6.000 
#    0.000    0.000    0.000    0.000    0.000    0.000 
#    0.000    0.000    0.000    0.000    0.000    0.000 
#
# Total GULP energy -198314.685296 kJ/mol
# GULP energy per Si atom -12394.667831 kJ/mol
# Density = 2.320194 g / cm^3
# Si number density = 23.254870 Si / 1000 Ang^3
#
#
#
# Elastic Constant Matrix: (Units=GPa)
#
#
# Indices 1 2 3 4 5 6 
#
# 1 103.2108 26.8028 32.2262 -6.1309 14.8841 -10.4722
# 2 26.8028 126.6347 26.1179 -3.8741 12.5357 -8.4074
# 3 32.2262 26.1179 105.3983 8.5270 13.7363 -4.5887
# 4 -6.1309 -3.8741 8.5270 44.2950 -5.2150 4.3445
# 5 14.8841 12.5357 13.7363 -5.2150 34.5694 -3.2390
# 6 -10.4722 -8.4074 -4.5887 4.3445 -3.2390 48.2727
#
#
#
# Elastic Compliance Matrix: (Units=1/GPa)
#
#
# Indices 1 2 3 4 5 6 
#
# 1 0.011643 -0.001420 -0.002872 0.001527 -0.002970 0.001669
# 2 -0.001420 0.008764 -0.001509 0.000560 -0.001798 0.000904
# 3 -0.002872 -0.001509 0.011422 -0.003131 -0.003202 0.000267
# 4 0.001527 0.000560 -0.003131 0.024066 0.003848 -0.001777
# 5 -0.002970 -0.001798 -0.003202 0.003848 0.032766 0.000590
# 6 0.001669 0.000904 0.000267 -0.001777 0.000590 0.021460
#
#
# Mechanical properties :
#
#
# Convention : Reuss Voigt Hill
#
# Bulk Modulus (GPa) = 49.44075 56.17084 52.80580
# Shear Modulus (GPa) = 38.92099 42.10054 40.51077
#
# Velocity S-wave (km/s) = 4.09549 4.25949 4.17830
# Velocity P-wave (km/s) = 6.60837 6.95686 6.78485
#
# Compressibility (1/GPa) = 0.02022623
#
# Stress axis : x y z
#
# Youngs Moduli (GPa) = 85.89047 114.10727 87.54953
#
# Poissons Ratio (x) = 0.16209 0.25141
# Poissons Ratio (y) = 0.12200 0.13212
# Poissons Ratio (z) = 0.24665 0.17219
#
# Static dielectric constant tensor:
#      x y z
#    x 4.232520 0.370520 0.749490 
#    y 0.370520 3.248300 -1.769300 
#    z 0.749490 -1.769300 1.761360 
# 
# 
# High freq. dielectric constant tensor:
#      x y z
#    x 1.923980 -0.004840 0.006500 
#    y -0.004840 1.941140 0.000470 
#    z 0.006500 0.000470 1.911420 
# 
# From -- ./inp_files/551229.got.cif
#   From: 2010.06.25/outbox.cif.g09.slc.cpg/sg2_276_cif.got.tgz:551229.got - 2010.06.27 13:26:56.
