data_PCOD8031464
_publ_section_title
;
Structure prediction by ZEFSAII (Michael W. Deem and Ramdas Pophale) SiO2 
 PCOD8031464
Probable space group: P -1
;
_chemical_formula_sum "Si O2"
_cell_formula_units_Z 16
_cell_length_a 13.447739
_cell_length_b 7.797942
_cell_length_c 20.767143
_cell_angle_alpha 71.748162
_cell_angle_beta 158.500543
_cell_angle_gamma 99.040947
_cell_volume 699.305920
_symmetry_space_group_name_H-M "P -1"
_symmetry_group_IT_number 2
_symmetry_cell_setting 'triclinic'
loop_
_space_group_symop_operation_xyz
x,y,z
-x,-y,-z
loop_
_atom_site_type_symbol
_atom_site_label
_atom_site_fract_x
_atom_site_fract_y
_atom_site_fract_z
Si Si1 0.237568 0.662481 0.786283
Si Si2 0.051800 0.295935 0.185213
Si Si3 0.375366 0.424233 0.771766
Si Si4 0.328142 0.188933 0.490808
Si Si5 0.213312 0.195167 0.152486
Si Si6 0.339243 0.624281 0.597141
Si Si7 0.731350 0.939634 0.204439
Si Si8 0.692314 0.392718 0.727068
O O1 0.203252 0.581198 0.704665
O O2 0.951081 0.683016 0.650918
O O3 0.288963 0.867624 0.790397
O O4 0.500000 0.500000 0.000000
O O5 0.224099 0.142146 0.363561
O O6 0.099616 0.193257 0.157073
O O7 0.179068 0.464895 0.245685
O O8 0.713274 0.388115 0.988674
O O9 0.341646 0.216350 0.778067
O O10 0.749372 0.479816 0.383853
O O11 0.557684 0.294703 0.604055
O O12 0.503291 0.002145 0.662509
O O13 0.341768 0.363397 0.197936
O O14 0.953232 0.222352 0.943001
O O15 0.409577 0.494721 0.590984
O O16 0.069044 0.831001 0.395449
O O17 0.500000 0.000000 0.000000
#
# Coordination Sequence:
#
# PCOD8031464 Si02
#       8
#     2   2   2   2   2   2   2   2
#     4  12  25  46  70  99 144 182 225 295 345 403
#     4  11  22  44  67  99 135 180 225 283 349 409
#     4  12  24  46  72  99 143 184 232 282 349 419
#     4  12  24  42  68 103 136 175 235 291 341 408
#     4  11  22  45  69  95 138 182 226 282 347 416
#     4  11  23  46  69  96 140 183 228 283 349 413
#     4  12  25  44  71 103 133 186 237 281 346 415
#     4  11  23  43  71  97 136 184 224 287 353 407
#
# _framework density 22.879829000000001
#
# number of rings (size 3 to 8) (size 9 to 14) (size 15 to 20)
#    0.000    0.500    6.250    3.000    0.000    0.500 
#    4.500    0.000    0.000    0.000    0.000    0.000 
#    0.000    0.000    0.000    0.000    0.000    0.000 
#
# Total GULP energy -198356.927725 kJ/mol
# GULP energy per Si atom -12397.307983 kJ/mol
# Density = 2.282775 g / cm^3
# Si number density = 22.879829 Si / 1000 Ang^3
#
#
#
# Elastic Constant Matrix: (Units=GPa)
#
#
# Indices 1 2 3 4 5 6 
#
# 1 61.5719 15.5131 39.6639 1.2580 7.8008 15.0792
# 2 15.5131 103.4318 21.2584 -2.4274 -3.6919 9.2418
# 3 39.6639 21.2584 129.2142 -12.4017 0.1787 -7.0707
# 4 1.2580 -2.4274 -12.4017 38.7237 -0.7866 1.3516
# 5 7.8008 -3.6919 0.1787 -0.7866 30.4045 3.6609
# 6 15.0792 9.2418 -7.0707 1.3516 3.6609 23.8799
#
#
#
# Elastic Compliance Matrix: (Units=1/GPa)
#
#
# Indices 1 2 3 4 5 6 
#
# 1 0.028391 -0.000710 -0.010010 -0.003590 -0.005039 -0.019641
# 2 -0.000710 0.010617 -0.001747 0.000328 0.002033 -0.004508
# 3 -0.010010 -0.001747 0.012012 0.003731 0.001158 0.010165
# 4 -0.003590 0.000328 0.003731 0.027134 0.001462 0.001485
# 5 -0.005039 0.002033 0.001158 0.001462 0.034783 -0.002677
# 6 -0.019641 -0.004508 0.010165 0.001485 -0.002677 0.059360
#
#
# Mechanical properties :
#
#
# Convention : Reuss Voigt Hill
#
# Bulk Modulus (GPa) = 38.33570 49.67653 44.00611
# Shear Modulus (GPa) = 24.28064 33.12044 28.70054
#
# Velocity S-wave (km/s) = 3.26118 3.80884 3.54560
# Velocity P-wave (km/s) = 5.56525 6.41109 6.00309
#
# Compressibility (1/GPa) = 0.02608535
#
# Stress axis : x y z
#
# Youngs Moduli (GPa) = 35.22289 94.19087 83.24962
#
# Poissons Ratio (x) = 0.06686 0.83336
# Poissons Ratio (y) = 0.02500 0.14542
# Poissons Ratio (z) = 0.35260 0.16453
#
# Static dielectric constant tensor:
#      x y z
#    x 3.996970 0.062730 0.082930 
#    y 0.062730 4.167600 0.025180 
#    z 0.082930 0.025180 4.364440 
# 
# 
# High freq. dielectric constant tensor:
#      x y z
#    x 1.885770 0.010440 0.004550 
#    y 0.010440 1.900700 0.008260 
#    z 0.004550 0.008260 1.933950 
# 
# From -- ./inp_files/611641.got.cif
#   From: 2010.06.25/outbox.cif.g09.slc.cpg/sg2_306_cif.got.tgz:611641.got - 2010.06.27 13:26:56.
