data_PCOD8031482
_publ_section_title
;
Structure prediction by ZEFSAII (Michael W. Deem and Ramdas Pophale) SiO2 
 PCOD8031482
Probable space group: P -1
;
_chemical_formula_sum "Si O2"
_cell_formula_units_Z 12
_cell_length_a 18.452931
_cell_length_b 14.618836
_cell_length_c 8.708600
_cell_angle_alpha 38.404135
_cell_angle_beta 141.394329
_cell_angle_gamma 157.943684
_cell_volume 532.471889
_symmetry_space_group_name_H-M "P -1"
_symmetry_group_IT_number 2
_symmetry_cell_setting 'triclinic'
loop_
_space_group_symop_operation_xyz
x,y,z
-x,-y,-z
loop_
_atom_site_type_symbol
_atom_site_label
_atom_site_fract_x
_atom_site_fract_y
_atom_site_fract_z
Si Si1 0.571769 0.498899 0.388649
Si Si2 0.555518 0.298819 0.330199
Si Si3 0.498338 0.040886 0.120848
Si Si4 0.164480 0.429879 0.068156
Si Si5 0.740747 0.984362 0.049411
Si Si6 0.819578 0.737963 0.963984
O O1 0.554171 0.434570 0.266017
O O2 0.653675 0.447058 0.689963
O O3 0.348206 0.319458 0.296458
O O4 0.720854 0.787467 0.288749
O O5 0.586783 0.178868 0.628613
O O6 0.353972 0.070106 0.200200
O O7 0.729999 0.515583 0.213808
O O8 0.363259 0.042650 0.942350
O O9 0.500000 0.000000 0.000000
O O10 0.731074 0.321437 0.167864
O O11 0.088228 0.238098 0.066874
O O12 0.972320 0.271042 0.060705
O O13 0.000000 0.000000 0.000000
#
# Coordination Sequence:
#
# PCOD8031482 Si02
#       6
#     2   2   2   2   2   2
#     4  11  22  44  69 100 143 174 228 295 328 401
#     4  11  23  45  69 101 142 175 231 288 333 412
#     4  12  26  48  67  99 144 185 226 283 344 407
#     4  12  24  44  70 102 137 186 228 277 350 405
#     4  11  25  44  72 100 137 179 237 284 338 405
#     4  11  23  42  73 107 134 180 232 282 348 401
#
# _framework density 22.536401000000001
#
# number of rings (size 3 to 8) (size 9 to 14) (size 15 to 20)
#    0.000    0.667    5.000    5.500    0.000    1.333 
#    3.000    0.000    0.000    0.000    0.000    0.000 
#    0.000    0.000    0.000    0.000    0.000    0.000 
#
# Total GULP energy -148720.836236 kJ/mol
# GULP energy per Si atom -12393.403020 kJ/mol
# Density = 2.248511 g / cm^3
# Si number density = 22.536401 Si / 1000 Ang^3
#
#
#
# Elastic Constant Matrix: (Units=GPa)
#
#
# Indices 1 2 3 4 5 6 
#
# 1 151.9663 41.4701 16.3248 3.8937 -2.8836 -6.3773
# 2 41.4701 164.9984 38.5012 0.7001 7.8822 16.5652
# 3 16.3248 38.5012 90.3691 -8.6628 -6.7040 -1.1853
# 4 3.8937 0.7001 -8.6628 21.1624 -8.9733 -3.8845
# 5 -2.8836 7.8822 -6.7040 -8.9733 27.1470 1.2470
# 6 -6.3773 16.5652 -1.1853 -3.8845 1.2470 39.5978
#
#
#
# Elastic Compliance Matrix: (Units=1/GPa)
#
#
# Indices 1 2 3 4 5 6 
#
# 1 0.007276 -0.001948 -0.000465 -0.000743 0.000892 0.001872
# 2 -0.001948 0.008124 -0.003928 -0.004292 -0.004766 -0.004101
# 3 -0.000465 -0.003928 0.014387 0.009911 0.007795 0.002726
# 4 -0.000743 -0.004292 0.009911 0.063196 0.024163 0.007411
# 5 0.000892 -0.004766 0.007795 0.024163 0.048079 0.003227
# 6 0.001872 -0.004101 0.002726 0.007411 0.003227 0.027978
#
#
# Mechanical properties :
#
#
# Convention : Reuss Voigt Hill
#
# Bulk Modulus (GPa) = 58.45935 66.65847 62.55891
# Shear Modulus (GPa) = 26.67732 38.31729 32.49731
#
# Velocity S-wave (km/s) = 3.44429 4.12787 3.80148
# Velocity P-wave (km/s) = 6.46636 7.23612 6.86204
#
# Compressibility (1/GPa) = 0.01710590
#
# Stress axis : x y z
#
# Youngs Moduli (GPa) = 137.43100 123.08487 69.50495
#
# Poissons Ratio (x) = 0.23973 0.03233
# Poissons Ratio (y) = 0.26767 0.27304
# Poissons Ratio (z) = 0.06393 0.48353
#
# Static dielectric constant tensor:
#      x y z
#    x 4.283880 -0.155640 -0.043030 
#    y -0.155640 4.032750 -0.158870 
#    z -0.043030 -0.158870 3.909290 
# 
# 
# High freq. dielectric constant tensor:
#      x y z
#    x 1.904250 -0.011180 -0.009390 
#    y -0.011180 1.889060 -0.015650 
#    z -0.009390 -0.015650 1.871650 
# 
# From -- ./inp_files/157049.got.cif
#   From: 2010.06.25/outbox.cif.g09.slc.cpg/sg2_79_cif.got.tgz:157049.got - 2010.06.27 13:26:56.
