data_PCOD8031199
_publ_section_title
;
Structure prediction by ZEFSAII (Michael W. Deem and Ramdas Pophale) SiO2 
 PCOD8031199
Probable space group: P -1
;
_chemical_formula_sum "Si O2"
_cell_formula_units_Z 16
_cell_length_a 10.939850
_cell_length_b 9.608122
_cell_length_c 13.500918
_cell_angle_alpha 80.122367
_cell_angle_beta 147.318242
_cell_angle_gamma 112.083056
_cell_volume 679.641035
_symmetry_space_group_name_H-M "P -1"
_symmetry_group_IT_number 2
_symmetry_cell_setting 'triclinic'
loop_
_space_group_symop_operation_xyz
x,y,z
-x,-y,-z
loop_
_atom_site_type_symbol
_atom_site_label
_atom_site_fract_x
_atom_site_fract_y
_atom_site_fract_z
Si Si1 0.526993 0.950773 0.866565
Si Si2 0.054042 0.568369 0.794784
Si Si3 0.738408 0.005462 0.797532
Si Si4 0.219782 0.231958 0.457124
Si Si5 0.459292 0.388551 0.796330
Si Si6 0.391034 0.766873 0.439179
Si Si7 0.745181 0.400733 0.284265
Si Si8 0.212045 0.074991 0.764852
O O1 0.645501 0.041402 0.834959
O O2 0.324157 0.778901 0.718006
O O3 0.406260 0.047103 0.830146
O O4 0.730810 0.929968 0.079085
O O5 0.989354 0.717499 0.735943
O O6 0.799671 0.411179 0.648935
O O7 0.216322 0.569344 0.809810
O O8 0.255342 0.593219 0.015589
O O9 0.533375 0.843346 0.629251
O O10 0.766437 0.143618 0.723285
O O11 0.000000 0.000000 0.000000
O O12 0.369875 0.361057 0.625477
O O13 0.399615 0.226375 0.495588
O O14 0.074258 0.058239 0.429362
O O15 0.464777 0.549663 0.822051
O O16 0.255976 0.249203 0.743518
O O17 0.000000 0.500000 0.500000
#
# Coordination Sequence:
#
# PCOD8031199 Si02
#       8
#     2   2   2   2   2   2   2   2
#     4  11  22  42  72 101 138 181 233 284 366 413
#     4  12  25  46  68 101 148 182 235 292 353 429
#     4  11  26  47  72 101 139 193 237 292 354 422
#     4  12  25  46  69 103 141 192 238 291 356 416
#     4  12  26  41  74 107 142 185 235 293 368 417
#     4  11  28  46  69 104 141 188 245 286 348 430
#     4  12  23  43  68 106 139 181 227 295 359 419
#     4  11  22  43  71 105 141 178 237 297 346 429
#
# _framework density 23.541840000000001
#
# number of rings (size 3 to 8) (size 9 to 14) (size 15 to 20)
#    0.000    0.500    3.750    4.125    1.750    4.500 
#    0.000    0.000    0.000    0.000    0.000    0.000 
#    0.000    0.000    0.000    0.000    0.000    0.000 
#
# Total GULP energy -198461.799213 kJ/mol
# GULP energy per Si atom -12403.862451 kJ/mol
# Density = 2.348826 g / cm^3
# Si number density = 23.541840 Si / 1000 Ang^3
#
#
#
# Elastic Constant Matrix: (Units=GPa)
#
#
# Indices 1 2 3 4 5 6 
#
# 1 98.5007 -1.9806 10.0282 -5.4603 -2.2620 -4.6260
# 2 -1.9806 69.1765 7.9269 5.9538 6.3124 -0.7165
# 3 10.0282 7.9269 101.9859 -12.9135 7.6607 -4.4851
# 4 -5.4603 5.9538 -12.9135 36.6699 1.9455 5.1302
# 5 -2.2620 6.3124 7.6607 1.9455 33.6999 1.1828
# 6 -4.6260 -0.7165 -4.4851 5.1302 1.1828 33.2208
#
#
#
# Elastic Compliance Matrix: (Units=1/GPa)
#
#
# Indices 1 2 3 4 5 6 
#
# 1 0.010377 0.000261 -0.000924 0.000976 0.000761 0.001148
# 2 0.000261 0.015087 -0.001352 -0.002860 -0.002361 0.000705
# 3 -0.000924 -0.001352 0.010714 0.003878 -0.002495 0.000779
# 4 0.000976 -0.002860 0.003878 0.029898 -0.001868 -0.003953
# 5 0.000761 -0.002361 -0.002495 -0.001868 0.030880 -0.001093
# 6 0.001148 0.000705 0.000779 -0.003953 -0.001093 0.031031
#
#
# Mechanical properties :
#
#
# Convention : Reuss Voigt Hill
#
# Bulk Modulus (GPa) = 31.10510 33.51245 32.30878
# Shear Modulus (GPa) = 35.03043 37.63069 36.33056
#
# Velocity S-wave (km/s) = 3.86165 4.00241 3.93266
# Velocity P-wave (km/s) = 5.75539 5.96869 5.86301
#
# Compressibility (1/GPa) = 0.03214907
#
# Stress axis : x y z
#
# Youngs Moduli (GPa) = 96.36675 66.28183 93.33601
#
# Poissons Ratio (x) = -0.01732 0.08621
# Poissons Ratio (y) = -0.02519 0.12621
# Poissons Ratio (z) = 0.08901 0.08962
#
# Static dielectric constant tensor:
#      x y z
#    x 3.634620 0.999080 0.971790 
#    y 0.999080 2.298270 -2.158540 
#    z 0.971790 -2.158540 2.252190 
# 
# 
# High freq. dielectric constant tensor:
#      x y z
#    x 1.923410 -0.007630 -0.010710 
#    y -0.007630 1.935100 0.002720 
#    z -0.010710 0.002720 1.945530 
# 
# From -- ./inp_files/515572.got.cif
#   From: 2010.06.25/outbox.cif.g09.slc.cpg/sg2_258_cif.got.tgz:515572.got - 2010.06.27 13:26:56.
