data_PCOD8031732
_publ_section_title
;
Structure prediction by ZEFSAII (Michael W. Deem and Ramdas Pophale) SiO2 
 PCOD8031732
Probable space group: P -1
;
_chemical_formula_sum "Si O2"
_cell_formula_units_Z 14
_cell_length_a 21.142605
_cell_length_b 12.018883
_cell_length_c 14.939159
_cell_angle_alpha 141.348560
_cell_angle_beta 22.370264
_cell_angle_gamma 154.773292
_cell_volume 578.484505
_symmetry_space_group_name_H-M "P -1"
_symmetry_group_IT_number 2
_symmetry_cell_setting 'triclinic'
loop_
_space_group_symop_operation_xyz
x,y,z
-x,-y,-z
loop_
_atom_site_type_symbol
_atom_site_label
_atom_site_fract_x
_atom_site_fract_y
_atom_site_fract_z
Si Si1 0.397717 0.048747 0.587915
Si Si2 0.532768 0.137561 0.266710
Si Si3 0.818130 0.653642 0.119227
Si Si4 0.459966 0.518637 0.805687
Si Si5 0.200041 0.242162 0.257530
Si Si6 0.028504 0.857521 0.689145
Si Si7 0.849341 0.082984 0.747856
O O1 0.518183 0.082691 0.356700
O O2 0.481953 0.322632 0.667872
O O3 0.500000 0.000000 0.500000
O O4 0.086175 0.775584 0.819344
O O5 0.671030 0.442502 0.262998
O O6 0.249039 0.890132 0.436431
O O7 0.712033 0.157009 0.984500
O O8 0.613749 0.486899 0.201386
O O9 0.881775 0.907388 0.217891
O O10 0.718078 0.830950 0.693944
O O11 0.248098 0.432811 0.095312
O O12 0.143279 0.995378 0.211855
O O13 0.003335 0.114736 0.354116
O O14 0.500000 0.500000 0.000000
O O15 0.130391 0.327456 0.482891
#
# Coordination Sequence:
#
# PCOD8031732 Si02
#       7
#     2   2   2   2   2   2   2
#     4  11  26  45  71 105 145 184 237 293 351 418
#     4  12  26  45  72 111 141 183 241 300 348 413
#     4  11  24  45  72 104 141 185 243 288 354 424
#     4  11  22  48  73 104 142 191 236 287 355 430
#     4  11  25  48  70  97 146 194 232 282 361 430
#     4  11  22  45  76 101 136 195 238 291 355 413
#     4  11  28  44  71 110 140 187 240 289 357 422
#
# _framework density 24.201167000000002
#
# number of rings (size 3 to 8) (size 9 to 14) (size 15 to 20)
#    0.000    0.857    4.286    2.143    6.000    6.857 
#    0.000    0.000    0.000    0.000    0.000    0.000 
#    0.000    0.000    0.000    0.000    0.000    0.000 
#
# Total GULP energy -173531.018539 kJ/mol
# GULP energy per Si atom -12395.072753 kJ/mol
# Density = 2.414608 g / cm^3
# Si number density = 24.201167 Si / 1000 Ang^3
#
#
#
# Elastic Constant Matrix: (Units=GPa)
#
#
# Indices 1 2 3 4 5 6 
#
# 1 170.6366 20.9041 32.7042 -3.8793 1.7835 -12.5716
# 2 20.9041 36.0604 12.1566 -9.0509 1.6561 -4.4417
# 3 32.7042 12.1566 159.9181 -3.6453 9.3121 -13.8790
# 4 -3.8793 -9.0509 -3.6453 28.3883 -11.8461 4.6178
# 5 1.7835 1.6561 9.3121 -11.8461 41.3609 -3.4619
# 6 -12.5716 -4.4417 -13.8790 4.6178 -3.4619 29.5506
#
#
#
# Elastic Compliance Matrix: (Units=1/GPa)
#
#
# Indices 1 2 3 4 5 6 
#
# 1 0.006588 -0.003418 -0.000935 -0.000604 0.000053 0.001950
# 2 -0.003418 0.032966 -0.001582 0.010589 0.002332 0.001377
# 3 -0.000935 -0.001582 0.006851 -0.000768 -0.001447 0.002533
# 4 -0.000604 0.010589 -0.000768 0.044185 0.012052 -0.004519
# 5 0.000053 0.002332 -0.001447 0.012052 0.027950 0.001085
# 6 0.001950 0.001377 0.002533 -0.004519 0.001085 0.036900
#
#
# Mechanical properties :
#
#
# Convention : Reuss Voigt Hill
#
# Bulk Modulus (GPa) = 28.95552 55.34944 42.15248
# Shear Modulus (GPa) = 27.96095 39.91663 33.93879
#
# Velocity S-wave (km/s) = 3.40274 4.06565 3.74887
# Velocity P-wave (km/s) = 5.23724 6.70519 6.01615
#
# Compressibility (1/GPa) = 0.03453573
#
# Stress axis : x y z
#
# Youngs Moduli (GPa) = 151.79831 30.33426 145.95900
#
# Poissons Ratio (x) = 0.10367 0.13648
# Poissons Ratio (y) = 0.51878 0.23091
# Poissons Ratio (z) = 0.14194 0.04799
#
# Static dielectric constant tensor:
#      x y z
#    x 4.455400 -0.075290 -0.063210 
#    y -0.075290 4.049210 -0.337310 
#    z -0.063210 -0.337310 4.845480 
# 
# 
# High freq. dielectric constant tensor:
#      x y z
#    x 1.973960 -0.007730 0.000490 
#    y -0.007730 1.933640 -0.024250 
#    z 0.000490 -0.024250 1.985390 
# 
# From -- ./inp_files/285841.got.cif
#   From: 2010.06.25/outbox.cif.g09.slc.cpg/sg2_143_cif.got.tgz:285841.got - 2010.06.27 13:26:56.
