data_PCOD8031936
_publ_section_title
;
Structure prediction by ZEFSAII (Michael W. Deem and Ramdas Pophale) SiO2 
 PCOD8031936
Probable space group: P -1
;
_chemical_formula_sum "Si O2"
_cell_formula_units_Z 14
_cell_length_a 14.064331
_cell_length_b 14.326312
_cell_length_c 8.767382
_cell_angle_alpha 63.484302
_cell_angle_beta 97.112340
_cell_angle_gamma 150.418222
_cell_volume 625.081547
_symmetry_space_group_name_H-M "P -1"
_symmetry_group_IT_number 2
_symmetry_cell_setting 'triclinic'
loop_
_space_group_symop_operation_xyz
x,y,z
-x,-y,-z
loop_
_atom_site_type_symbol
_atom_site_label
_atom_site_fract_x
_atom_site_fract_y
_atom_site_fract_z
Si Si1 0.755362 0.292056 0.410452
Si Si2 0.730246 0.289312 0.765231
Si Si3 0.666355 0.657416 0.563146
Si Si4 0.755758 0.502232 0.088019
Si Si5 0.694567 0.829549 0.722436
Si Si6 0.089467 0.119419 0.094853
Si Si7 0.186247 0.414916 0.297673
O O1 0.716522 0.254351 0.609608
O O2 0.817128 0.468075 0.233362
O O3 0.001755 0.473386 0.289049
O O4 0.500000 0.000000 0.500000
O O5 0.690919 0.372454 0.731639
O O6 0.500000 0.000000 0.000000
O O7 0.500000 0.500000 0.500000
O O8 0.600587 0.679859 0.657364
O O9 0.643127 0.517200 0.729009
O O10 0.932432 0.944626 0.343792
O O11 0.471678 0.239650 0.211918
O O12 0.862476 0.711434 0.033923
O O13 0.862247 0.588074 0.878633
O O14 0.689886 0.737524 0.924453
O O15 0.944385 0.137730 0.531960
O O16 0.000000 0.000000 0.000000
#
# Coordination Sequence:
#
# PCOD8031936 Si02
#       7
#     2   2   2   2   2   2   2
#     4  11  27  50  73 105 138 179 238 296 360 421
#     4  11  27  50  75 103 138 180 239 301 352 425
#     4  11  23  40  63  97 141 179 223 274 334 419
#     4  12  24  41  71  95 132 182 222 278 350 405
#     4  11  23  43  64  97 144 180 222 277 340 422
#     4  11  23  39  61  99 137 177 225 273 332 413
#     4  11  24  44  66  98 134 177 227 281 347 407
#
# _framework density 22.397078
#
# number of rings (size 3 to 8) (size 9 to 14) (size 15 to 20)
#    0.000    0.857    2.857    3.857    8.000    5.714 
#    0.000    0.000    0.000    0.000    0.000    0.000 
#    0.000    0.000    0.000    0.000    0.000    0.000 
#
# Total GULP energy -173506.151019 kJ/mol
# GULP energy per Si atom -12393.296501 kJ/mol
# Density = 2.234610 g / cm^3
# Si number density = 22.397078 Si / 1000 Ang^3
#
#
#
# Elastic Constant Matrix: (Units=GPa)
#
#
# Indices 1 2 3 4 5 6 
#
# 1 89.2757 17.1627 37.1966 -8.1513 14.9018 -1.1506
# 2 17.1627 111.7054 35.3561 -4.8674 6.2699 -2.3882
# 3 37.1966 35.3561 107.1174 -2.1923 17.7156 -4.5007
# 4 -8.1513 -4.8674 -2.1923 42.5559 -1.0476 5.9733
# 5 14.9018 6.2699 17.7156 -1.0476 37.1844 1.8589
# 6 -1.1506 -2.3882 -4.5007 5.9733 1.8589 38.8845
#
#
#
# Elastic Compliance Matrix: (Units=1/GPa)
#
#
# Indices 1 2 3 4 5 6 
#
# 1 0.013752 -0.000564 -0.003985 0.002319 -0.003438 -0.000281
# 2 -0.000564 0.010061 -0.003108 0.000868 0.000029 0.000107
# 3 -0.003985 -0.003108 0.012434 -0.000776 -0.003896 0.001436
# 4 0.002319 0.000868 -0.000776 0.024532 0.000172 -0.003745
# 5 -0.003438 0.000029 -0.003896 0.000172 0.030228 -0.002022
# 6 -0.000281 0.000107 0.001436 -0.003745 -0.002022 0.026554
#
#
# Mechanical properties :
#
#
# Convention : Reuss Voigt Hill
#
# Bulk Modulus (GPa) = 47.76860 54.16992 50.96926
# Shear Modulus (GPa) = 35.75230 38.28382 37.01806
#
# Velocity S-wave (km/s) = 3.99970 4.13888 4.06988
# Velocity P-wave (km/s) = 6.53487 6.86142 6.70013
#
# Compressibility (1/GPa) = 0.02093425
#
# Stress axis : x y z
#
# Youngs Moduli (GPa) = 72.71665 99.39577 80.42484
#
# Poissons Ratio (x) = 0.05601 0.32050
# Poissons Ratio (y) = 0.04098 0.24993
# Poissons Ratio (z) = 0.28978 0.30888
#
# Static dielectric constant tensor:
#      x y z
#    x 4.234840 0.138320 0.009210 
#    y 0.138320 3.948320 -0.115220 
#    z 0.009210 -0.115220 4.199980 
# 
# 
# High freq. dielectric constant tensor:
#      x y z
#    x 1.883860 -0.001700 -0.002280 
#    y -0.001700 1.881240 -0.000440 
#    z -0.002280 -0.000440 1.904630 
# 
# From -- ./inp_files/312802.got.cif
#   From: 2010.06.25/outbox.cif.g09.slc.cpg/sg2_157_cif.got.tgz:312802.got - 2010.06.27 13:26:56.
