data_PCOD8031171
_publ_section_title
;
Structure prediction by ZEFSAII (Michael W. Deem and Ramdas Pophale) SiO2 
 PCOD8031171
Probable space group: P -1
;
_chemical_formula_sum "Si O2"
_cell_formula_units_Z 16
_cell_length_a 16.187748
_cell_length_b 9.134154
_cell_length_c 14.094293
_cell_angle_alpha 139.491031
_cell_angle_beta 148.551766
_cell_angle_gamma 44.491214
_cell_volume 693.258750
_symmetry_space_group_name_H-M "P -1"
_symmetry_group_IT_number 2
_symmetry_cell_setting 'triclinic'
loop_
_space_group_symop_operation_xyz
x,y,z
-x,-y,-z
loop_
_atom_site_type_symbol
_atom_site_label
_atom_site_fract_x
_atom_site_fract_y
_atom_site_fract_z
Si Si1 0.811639 0.606831 0.984857
Si Si2 0.295766 0.513153 0.696241
Si Si3 0.321728 0.625981 0.422477
Si Si4 0.148958 0.451570 0.337598
Si Si5 0.641920 0.530096 0.955964
Si Si6 0.662333 0.858109 0.292310
Si Si7 0.663440 0.021777 0.726869
Si Si8 0.690418 0.047403 0.982835
O O1 0.803409 0.422376 0.803894
O O2 0.656041 0.636349 0.917290
O O3 0.818533 0.848183 0.059823
O O4 0.970558 0.528865 0.163152
O O5 0.158380 0.562315 0.505531
O O6 0.462827 0.522126 0.811507
O O7 0.310523 0.267243 0.640559
O O8 0.250572 0.709824 0.829717
O O9 0.500000 0.500000 0.500000
O O10 0.283092 0.521130 0.433297
O O11 0.278214 0.901763 0.526521
O O12 0.192672 0.178814 0.265249
O O13 0.724716 0.261418 0.891906
O O14 0.736279 0.674085 0.192013
O O15 0.476824 0.925359 0.111499
O O16 0.500000 0.000000 0.500000
O O17 0.645393 0.981461 0.801260
#
# Coordination Sequence:
#
# PCOD8031171 Si02
#       8
#     2   2   2   2   2   2   2   2
#     4  12  28  44  64 102 143 180 221 278 347 402
#     4  11  23  44  72 100 130 180 229 278 335 397
#     4  12  25  44  71 100 132 178 229 280 333 400
#     4  12  27  45  67  99 140 181 223 280 343 404
#     4  11  24  42  70 103 133 175 227 281 335 395
#     4  11  22  43  71 105 127 171 238 285 326 393
#     4  12  22  42  74 100 130 178 230 283 334 393
#     4  11  22  42  70  97 139 172 223 281 337 397
#
# _framework density 23.079405999999999
#
# number of rings (size 3 to 8) (size 9 to 14) (size 15 to 20)
#    0.000    0.500    6.250    1.875    5.250    2.000 
#    0.000    0.625    0.000    0.000    0.000    0.000 
#    0.000    0.000    0.000    0.000    0.000    0.000 
#
# Total GULP energy -198278.061668 kJ/mol
# GULP energy per Si atom -12392.378854 kJ/mol
# Density = 2.302688 g / cm^3
# Si number density = 23.079406 Si / 1000 Ang^3
#
#
#
# Elastic Constant Matrix: (Units=GPa)
#
#
# Indices 1 2 3 4 5 6 
#
# 1 57.4861 23.2581 21.1798 8.6452 -24.1571 11.4876
# 2 23.2581 144.6234 72.9870 10.8606 -14.3911 13.7919
# 3 21.1798 72.9870 112.9533 4.6018 -30.8961 1.3931
# 4 8.6452 10.8606 4.6018 50.5727 2.1932 -3.6958
# 5 -24.1571 -14.3911 -30.8961 2.1932 34.4296 -1.2301
# 6 11.4876 13.7919 1.3931 -3.6958 -1.2301 23.0420
#
#
#
# Elastic Compliance Matrix: (Units=1/GPa)
#
#
# Indices 1 2 3 4 5 6 
#
# 1 0.030830 -0.001857 0.002084 -0.007090 0.022666 -0.014312
# 2 -0.001857 0.011591 -0.008028 -0.001717 -0.003768 -0.006003
# 3 0.002084 -0.008028 0.017437 -0.000576 0.013911 0.003362
# 4 -0.007090 -0.001717 -0.000576 0.022294 -0.007352 0.007780
# 5 0.022666 -0.003768 0.013911 -0.007352 0.056037 -0.008074
# 6 -0.014312 -0.006003 0.003362 0.007780 -0.008074 0.054741
#
#
# Mechanical properties :
#
#
# Convention : Reuss Voigt Hill
#
# Bulk Modulus (GPa) = 22.59570 61.10141 41.84855
# Shear Modulus (GPa) = 22.39290 34.78469 28.58880
#
# Velocity S-wave (km/s) = 3.11827 3.88645 3.52336
# Velocity P-wave (km/s) = 4.77247 6.83163 5.89269
#
# Compressibility (1/GPa) = 0.04425622
#
# Stress axis : x y z
#
# Youngs Moduli (GPa) = 32.43589 86.27140 57.34871
#
# Poissons Ratio (x) = 0.16023 -0.11954
# Poissons Ratio (y) = 0.06024 0.46041
# Poissons Ratio (z) = -0.06761 0.69261
#
# Static dielectric constant tensor:
#      x y z
#    x 4.135510 0.022260 -0.460270 
#    y 0.022260 4.419870 0.474600 
#    z -0.460270 0.474600 4.292770 
# 
# 
# High freq. dielectric constant tensor:
#      x y z
#    x 1.897240 0.010280 -0.035320 
#    y 0.010280 1.919470 0.018300 
#    z -0.035320 0.018300 1.905290 
# 
# From -- ./inp_files/298129.got.cif
#   From: 2010.06.25/outbox.cif.g09.slc.cpg/sg2_150_cif.got.tgz:298129.got - 2010.06.27 13:26:56.
