data_PCOD8031922
_publ_section_title
;
Structure prediction by ZEFSAII (Michael W. Deem and Ramdas Pophale) SiO2 
 PCOD8031922
Probable space group: P -1
;
_chemical_formula_sum "Si O2"
_cell_formula_units_Z 16
_cell_length_a 15.569383
_cell_length_b 12.366158
_cell_length_c 9.306507
_cell_angle_alpha 134.171034
_cell_angle_beta 112.050140
_cell_angle_gamma 37.914014
_cell_volume 725.338983
_symmetry_space_group_name_H-M "P -1"
_symmetry_group_IT_number 2
_symmetry_cell_setting 'triclinic'
loop_
_space_group_symop_operation_xyz
x,y,z
-x,-y,-z
loop_
_atom_site_type_symbol
_atom_site_label
_atom_site_fract_x
_atom_site_fract_y
_atom_site_fract_z
Si Si1 0.055045 0.546054 0.693322
Si Si2 0.725778 0.644117 0.888790
Si Si3 0.282035 0.499668 0.706059
Si Si4 0.964242 0.646344 0.246948
Si Si5 0.280648 0.815390 0.529225
Si Si6 0.902294 0.031656 0.167972
Si Si7 0.234727 0.634329 0.107160
Si Si8 0.505729 0.198388 0.319752
O O1 0.199019 0.447533 0.628753
O O2 0.000000 0.500000 0.500000
O O3 0.102607 0.377158 0.696993
O O4 0.928301 0.832671 0.929253
O O5 0.875040 0.478483 0.729244
O O6 0.771930 0.516770 0.954096
O O7 0.619412 0.665177 0.755366
O O8 0.644795 0.906181 0.113170
O O9 0.169233 0.764758 0.805768
O O10 0.433025 0.271313 0.498907
O O11 0.329785 0.500656 0.894668
O O12 0.838877 0.928484 0.391672
O O13 0.000000 0.500000 0.000000
O O14 0.213121 0.828757 0.642378
O O15 0.319097 0.640802 0.272048
O O16 0.432142 0.711568 0.571283
O O17 0.060248 0.899532 0.201807
#
# Coordination Sequence:
#
# PCOD8031922 Si02
#       8
#     2   2   2   2   2   2   2   2
#     4  11  23  38  65  99 130 172 214 273 327 384
#     4  11  23  45  70  96 132 173 224 272 327 387
#     4  11  26  44  62  97 144 176 207 266 345 397
#     4  12  21  42  71 100 127 162 237 279 311 379
#     4  12  25  41  71 101 125 175 226 277 317 385
#     4  11  23  44  67  98 136 168 224 278 327 381
#     4  11  24  42  68 100 129 174 223 272 329 386
#     4  11  26  44  66  97 136 179 213 269 335 396
#
# _framework density 22.058651999999999
#
# number of rings (size 3 to 8) (size 9 to 14) (size 15 to 20)
#    0.000    0.750    3.750    4.125    5.250    4.000 
#    0.000    0.000    0.000    0.000    0.000    0.000 
#    0.000    0.000    0.000    0.000    0.000    0.000 
#
# Total GULP energy -198397.265973 kJ/mol
# GULP energy per Si atom -12399.829123 kJ/mol
# Density = 2.200845 g / cm^3
# Si number density = 22.058652 Si / 1000 Ang^3
#
#
#
# Elastic Constant Matrix: (Units=GPa)
#
#
# Indices 1 2 3 4 5 6 
#
# 1 120.4888 40.3776 31.8237 -15.9217 -5.9900 6.2729
# 2 40.3776 56.5462 4.0916 -7.7514 3.7415 12.1508
# 3 31.8237 4.0916 99.1932 -30.4732 0.5231 -6.2672
# 4 -15.9217 -7.7514 -30.4732 34.2237 -3.1899 1.3631
# 5 -5.9900 3.7415 0.5231 -3.1899 44.8855 -8.2647
# 6 6.2729 12.1508 -6.2672 1.3631 -8.2647 43.7160
#
#
#
# Elastic Compliance Matrix: (Units=1/GPa)
#
#
# Indices 1 2 3 4 5 6 
#
# 1 0.012316 -0.008723 -0.003227 0.001098 0.002607 0.000653
# 2 -0.008723 0.025957 0.002553 0.003955 -0.004279 -0.006529
# 3 -0.003227 0.002553 0.014888 0.012304 0.000346 0.001570
# 4 0.001098 0.003955 0.012304 0.041835 0.002590 -0.000308
# 5 0.002607 -0.004279 0.000346 0.002590 0.024148 0.005349
# 6 0.000653 -0.006529 0.001570 -0.000308 0.005349 0.025842
#
#
# Mechanical properties :
#
#
# Convention : Reuss Voigt Hill
#
# Bulk Modulus (GPa) = 29.09685 47.64600 38.37143
# Shear Modulus (GPa) = 28.53303 37.89406 33.21354
#
# Velocity S-wave (km/s) = 3.60044 4.14922 3.88453
# Velocity P-wave (km/s) = 5.52300 6.67842 6.12800
#
# Compressibility (1/GPa) = 0.03436798
#
# Stress axis : x y z
#
# Youngs Moduli (GPa) = 81.19803 38.52516 67.16649
#
# Poissons Ratio (x) = 0.33606 0.21672
# Poissons Ratio (y) = 0.70829 -0.17148
# Poissons Ratio (z) = 0.26199 -0.09836
#
# Static dielectric constant tensor:
#      x y z
#    x 4.080870 0.062350 0.224550 
#    y 0.062350 3.901720 -0.194630 
#    z 0.224550 -0.194630 4.010340 
# 
# 
# High freq. dielectric constant tensor:
#      x y z
#    x 1.874660 0.013340 0.008330 
#    y 0.013340 1.866470 -0.008860 
#    z 0.008330 -0.008860 1.876390 
# 
# From -- ./inp_files/244368.got.cif
#   From: 2010.06.25/outbox.cif.g09.slc.cpg/sg2_123_cif.got.tgz:244368.got - 2010.06.27 13:26:56.
