data_PCOD8031915
_publ_section_title
;
Structure prediction by ZEFSAII (Michael W. Deem and Ramdas Pophale) SiO2 
 PCOD8031915
Probable space group: P -1
;
_chemical_formula_sum "Si O2"
_cell_formula_units_Z 16
_cell_length_a 18.922912
_cell_length_b 9.048899
_cell_length_c 11.848937
_cell_angle_alpha 88.533177
_cell_angle_beta 37.481371
_cell_angle_gamma 117.370891
_cell_volume 757.993905
_symmetry_space_group_name_H-M "P -1"
_symmetry_group_IT_number 2
_symmetry_cell_setting 'triclinic'
loop_
_space_group_symop_operation_xyz
x,y,z
-x,-y,-z
loop_
_atom_site_type_symbol
_atom_site_label
_atom_site_fract_x
_atom_site_fract_y
_atom_site_fract_z
Si Si1 0.358240 0.951345 0.756769
Si Si2 0.952800 0.287491 0.023951
Si Si3 0.159698 0.944743 0.599565
Si Si4 0.941886 0.526468 0.732563
Si Si5 0.154451 0.483144 0.371589
Si Si6 0.466161 0.029766 0.164687
Si Si7 0.670454 0.598820 0.712654
Si Si8 0.633074 0.348920 0.568426
O O1 0.190788 0.856742 0.897004
O O2 0.500000 0.000000 0.500000
O O3 0.482648 0.203878 0.658030
O O4 0.263750 0.750524 0.974767
O O5 0.849736 0.086134 0.253692
O O6 0.000000 0.500000 0.000000
O O7 0.149946 0.402678 0.745473
O O8 0.975916 0.681944 0.783446
O O9 0.339931 0.047654 0.314716
O O10 0.182585 0.138493 0.533840
O O11 0.990603 0.658311 0.547795
O O12 0.092116 0.538810 0.546085
O O13 0.195480 0.367480 0.378762
O O14 0.328022 0.707636 0.067358
O O15 0.375068 0.825994 0.371782
O O16 0.500000 0.000000 0.000000
O O17 0.574062 0.406097 0.738674
O O18 0.500000 0.500000 0.000000
#
# Coordination Sequence:
#
# PCOD8031915 Si02
#       8
#     2   2   2   2   2   2   2   2
#     4  12  22  38  69 104 126 166 228 291 335 383
#     4  12  23  42  69 100 129 173 230 290 335 387
#     4  12  23  41  64  93 134 179 222 273 339 408
#     4  11  23  39  66 100 129 166 231 290 333 391
#     4  11  23  38  64  99 130 169 224 282 341 393
#     4  12  18  36  67  92 122 168 227 277 327 389
#     4  12  26  42  66  97 141 188 218 261 351 422
#     4  12  24  43  68  99 137 174 227 287 336 400
#
# _framework density 21.108350000000002
#
# number of rings (size 3 to 8) (size 9 to 14) (size 15 to 20)
#    0.000    0.250    8.750    0.750    0.000    1.000 
#    0.000    1.875    0.000    0.000    0.000    0.000 
#    0.000    0.000    0.000    0.000    0.000    0.000 
#
# Total GULP energy -198283.734127 kJ/mol
# GULP energy per Si atom -12392.733383 kJ/mol
# Density = 2.106031 g / cm^3
# Si number density = 21.108350 Si / 1000 Ang^3
#
#
#
# Elastic Constant Matrix: (Units=GPa)
#
#
# Indices 1 2 3 4 5 6 
#
# 1 139.4515 56.5154 43.2855 -4.0742 10.6282 1.0813
# 2 56.5154 98.5317 37.0266 3.3627 -0.9909 -1.0305
# 3 43.2855 37.0266 110.4659 -2.8784 1.4277 -5.6543
# 4 -4.0742 3.3627 -2.8784 27.1029 -1.0509 3.5566
# 5 10.6282 -0.9909 1.4277 -1.0509 37.3212 -9.6335
# 6 1.0813 -1.0305 -5.6543 3.5566 -9.6335 40.9456
#
#
#
# Elastic Compliance Matrix: (Units=1/GPa)
#
#
# Indices 1 2 3 4 5 6 
#
# 1 0.010308 -0.005171 -0.002296 0.002038 -0.003363 -0.001688
# 2 -0.005171 0.014306 -0.002828 -0.002883 0.002099 0.000850
# 3 -0.002296 -0.002828 0.010998 0.000992 0.000589 0.001561
# 4 0.002038 -0.002883 0.000992 0.038095 -0.000504 -0.003417
# 5 -0.003363 0.002099 0.000589 -0.000504 0.029640 0.007240
# 6 -0.001688 0.000850 0.001561 -0.003417 0.007240 0.026704
#
#
# Mechanical properties :
#
#
# Convention : Reuss Voigt Hill
#
# Bulk Modulus (GPa) = 66.56257 69.12267 67.84262
# Shear Modulus (GPa) = 32.12385 35.18204 33.65294
#
# Velocity S-wave (km/s) = 3.90533 4.08700 3.99719
# Velocity P-wave (km/s) = 7.20678 7.42220 7.31528
#
# Compressibility (1/GPa) = 0.01502346
#
# Stress axis : x y z
#
# Youngs Moduli (GPa) = 97.01119 69.90153 90.92497
#
# Poissons Ratio (x) = 0.36145 0.20875
# Poissons Ratio (y) = 0.50162 0.25711
# Poissons Ratio (z) = 0.22272 0.19766
#
# Static dielectric constant tensor:
#      x y z
#    x 3.963810 -0.257630 0.883310 
#    y -0.257630 6.031820 -4.101660 
#    z 0.883310 -4.101660 9.312650 
# 
# 
# High freq. dielectric constant tensor:
#      x y z
#    x 1.833630 0.018100 0.007510 
#    y 0.018100 1.796830 0.003400 
#    z 0.007510 0.003400 1.841820 
# 
# From -- ./inp_files/461220.got.cif
#   From: 2010.06.25/outbox.cif.g09.slc.cpg/sg2_231_cif.got.tgz:461220.got - 2010.06.27 13:26:56.
