data_PCOD8031019
_publ_section_title
;
Structure prediction by ZEFSAII (Michael W. Deem and Ramdas Pophale) SiO2 
 PCOD8031019
Probable space group: P -1
;
_chemical_formula_sum "Si O2"
_cell_formula_units_Z 16
_cell_length_a 13.880744
_cell_length_b 12.573550
_cell_length_c 8.847169
_cell_angle_alpha 36.238306
_cell_angle_beta 63.935994
_cell_angle_gamma 47.886208
_cell_volume 658.725948
_symmetry_space_group_name_H-M "P -1"
_symmetry_group_IT_number 2
_symmetry_cell_setting 'triclinic'
loop_
_space_group_symop_operation_xyz
x,y,z
-x,-y,-z
loop_
_atom_site_type_symbol
_atom_site_label
_atom_site_fract_x
_atom_site_fract_y
_atom_site_fract_z
Si Si1 0.183215 0.777129 0.631691
Si Si2 0.478401 0.423055 0.765643
Si Si3 0.505767 0.988369 0.693328
Si Si4 0.114952 0.790214 0.336974
Si Si5 0.202806 0.177169 0.221042
Si Si6 0.992524 0.467464 0.286222
Si Si7 0.920857 0.273606 0.944961
Si Si8 0.658190 0.511500 0.672302
O O1 0.326347 0.543313 0.779712
O O2 0.097263 0.817425 0.496962
O O3 0.090413 0.767533 0.824859
O O4 0.206590 0.961889 0.436713
O O5 0.500000 0.500000 0.500000
O O6 0.540117 0.482675 0.791606
O O7 0.539576 0.160455 0.037087
O O8 0.398998 0.231787 0.562186
O O9 0.500000 0.000000 0.500000
O O10 0.649594 0.897710 0.762848
O O11 0.271680 0.613955 0.392215
O O12 0.045530 0.682294 0.434932
O O13 0.035542 0.045587 0.039544
O O14 0.116650 0.311462 0.271242
O O15 0.140552 0.333106 0.937345
O O16 0.038095 0.558622 0.281679
O O17 0.775637 0.365019 0.878946
#
# Coordination Sequence:
#
# PCOD8031019 Si02
#       8
#     2   2   2   2   2   2   2   2
#     4  12  22  45  76 105 139 189 250 301 357 436
#     4  12  27  49  75 107 151 193 243 304 371 440
#     4  12  28  49  77 111 147 193 249 305 365 441
#     4  12  25  45  70 105 143 189 241 302 368 434
#     4  11  22  41  72 107 138 187 239 306 355 424
#     4  11  23  41  71 103 141 184 240 299 364 421
#     4  12  26  45  69 107 143 189 247 304 359 434
#     4  12  29  46  72 105 150 194 238 303 376 436
#
# _framework density 24.289311999999999
#
# number of rings (size 3 to 8) (size 9 to 14) (size 15 to 20)
#    0.000    0.250    5.000    5.250    1.750    5.000 
#    0.000    0.000    0.000    0.000    0.000    0.000 
#    0.000    0.000    0.000    0.000    0.000    0.000 
#
# Total GULP energy -198313.553350 kJ/mol
# GULP energy per Si atom -12394.597084 kJ/mol
# Density = 2.423403 g / cm^3
# Si number density = 24.289312 Si / 1000 Ang^3
#
#
#
# Elastic Constant Matrix: (Units=GPa)
#
#
# Indices 1 2 3 4 5 6 
#
# 1 132.3903 22.6200 24.8447 -22.5775 -5.7326 20.3593
# 2 22.6200 103.3203 33.1199 -35.1165 0.4758 4.5511
# 3 24.8447 33.1199 95.7955 -34.1085 -21.3852 7.0530
# 4 -22.5775 -35.1165 -34.1085 48.0148 4.2709 0.5605
# 5 -5.7326 0.4758 -21.3852 4.2709 47.3430 -12.3573
# 6 20.3593 4.5511 7.0530 0.5605 -12.3573 48.8703
#
#
#
# Elastic Compliance Matrix: (Units=1/GPa)
#
#
# Indices 1 2 3 4 5 6 
#
# 1 0.008905 -0.000349 -0.000813 0.003449 -0.000574 -0.003745
# 2 -0.000349 0.013300 -0.001880 0.008438 -0.002169 -0.001467
# 3 -0.000813 -0.001880 0.015914 0.008999 0.006215 -0.000315
# 4 0.003449 0.008438 0.008999 0.035038 0.000228 -0.003866
# 5 -0.000574 -0.002169 0.006215 0.000228 0.025420 0.005969
# 6 -0.003745 -0.001467 -0.000315 -0.003866 0.005969 0.023758
#
#
# Mechanical properties :
#
#
# Convention : Reuss Voigt Hill
#
# Bulk Modulus (GPa) = 31.21518 54.74169 42.97844
# Shear Modulus (GPa) = 35.94618 45.57373 40.75996
#
# Velocity S-wave (km/s) = 3.85114 4.33631 4.10091
# Velocity P-wave (km/s) = 5.71440 6.90346 6.33688
#
# Compressibility (1/GPa) = 0.03203569
#
# Stress axis : x y z
#
# Youngs Moduli (GPa) = 112.29832 75.18744 62.83613
#
# Poissons Ratio (x) = 0.02624 0.05110
# Poissons Ratio (y) = 0.03919 0.11811
# Poissons Ratio (z) = 0.09132 0.14132
#
# Static dielectric constant tensor:
#      x y z
#    x 4.550270 0.123570 -0.029350 
#    y 0.123570 4.703040 -0.265780 
#    z -0.029350 -0.265780 4.469050 
# 
# 
# High freq. dielectric constant tensor:
#      x y z
#    x 1.988290 0.011270 0.004460 
#    y 0.011270 1.976760 -0.018700 
#    z 0.004460 -0.018700 1.964090 
# 
# From -- ./inp_files/306211.got.cif
#   From: 2010.06.25/outbox.cif.g09.slc.cpg/sg2_154_cif.got.tgz:306211.got - 2010.06.27 13:26:56.
