data_PCOD8031461
_publ_section_title
;
Structure prediction by ZEFSAII (Michael W. Deem and Ramdas Pophale) SiO2 
 PCOD8031461
Probable space group: P -1
;
_chemical_formula_sum "Si O2"
_cell_formula_units_Z 16
_cell_length_a 11.235378
_cell_length_b 10.794728
_cell_length_c 16.367789
_cell_angle_alpha 52.884457
_cell_angle_beta 34.000261
_cell_angle_gamma 75.873061
_cell_volume 724.524855
_symmetry_space_group_name_H-M "P -1"
_symmetry_group_IT_number 2
_symmetry_cell_setting 'triclinic'
loop_
_space_group_symop_operation_xyz
x,y,z
-x,-y,-z
loop_
_atom_site_type_symbol
_atom_site_label
_atom_site_fract_x
_atom_site_fract_y
_atom_site_fract_z
Si Si1 0.816454 0.561446 0.557912
Si Si2 0.596598 0.207261 0.331855
Si Si3 0.418776 0.267058 0.774158
Si Si4 0.274316 0.375907 0.241797
Si Si5 0.138657 0.453572 0.834795
Si Si6 0.170412 0.700321 0.580198
Si Si7 0.238083 0.984011 0.131783
Si Si8 0.849357 0.969470 0.467930
O O1 0.624019 0.441225 0.643677
O O2 0.655355 0.538100 0.741184
O O3 0.000000 0.500000 0.500000
O O4 0.999726 0.771753 0.336259
O O5 0.643016 0.352258 0.319533
O O6 0.372556 0.176314 0.412293
O O7 0.500000 0.000000 0.500000
O O8 0.873805 0.310652 0.089718
O O9 0.246206 0.326583 0.805355
O O10 0.545851 0.217912 0.649719
O O11 0.258995 0.085769 0.995350
O O12 0.199769 0.160799 0.372923
O O13 0.023553 0.366163 0.358921
O O14 0.500000 0.500000 0.000000
O O15 0.072166 0.516261 0.764497
O O16 0.178376 0.861546 0.563578
O O17 0.140401 0.058701 0.230585
O O18 0.500000 0.000000 0.000000
#
# Coordination Sequence:
#
# PCOD8031461 Si02
#       8
#     2   2   2   2   2   2   2   2
#     4  11  22  44  67  97 132 174 223 275 330 404
#     4  11  22  46  72 100 132 174 231 279 329 401
#     4  12  25  45  68  97 139 178 224 274 335 398
#     4  11  24  40  67  98 130 175 223 279 339 390
#     4  11  25  42  74  98 131 182 226 276 334 396
#     4  12  25  44  63 100 141 174 223 277 336 401
#     4  11  23  41  70  99 129 173 223 272 335 397
#     4  11  24  44  69  99 136 174 224 280 337 400
#
# _framework density 22.083438000000001
#
# number of rings (size 3 to 8) (size 9 to 14) (size 15 to 20)
#    0.000    0.750    3.750    4.500    3.500    1.000 
#    2.250    0.625    0.000    0.000    0.000    0.000 
#    0.000    0.000    0.000    0.000    0.000    0.000 
#
# Total GULP energy -198363.351596 kJ/mol
# GULP energy per Si atom -12397.709475 kJ/mol
# Density = 2.203318 g / cm^3
# Si number density = 22.083438 Si / 1000 Ang^3
#
#
#
# Elastic Constant Matrix: (Units=GPa)
#
#
# Indices 1 2 3 4 5 6 
#
# 1 90.8532 37.7737 30.4886 -5.1631 10.3679 -26.4197
# 2 37.7737 130.2756 64.2738 15.1461 16.6750 -25.0319
# 3 30.4886 64.2738 142.3899 -0.0093 27.6297 -10.5950
# 4 -5.1631 15.1461 -0.0093 39.6358 -9.3735 1.0524
# 5 10.3679 16.6750 27.6297 -9.3735 45.0254 -8.5741
# 6 -26.4197 -25.0319 -10.5950 1.0524 -8.5741 45.9428
#
#
#
# Elastic Compliance Matrix: (Units=1/GPa)
#
#
# Indices 1 2 3 4 5 6 
#
# 1 0.014655 -0.002577 -0.001553 0.002808 0.000388 0.006674
# 2 -0.002577 0.012168 -0.004327 -0.005480 -0.001643 0.003969
# 3 -0.001553 -0.004327 0.010039 0.000449 -0.004445 -0.001776
# 4 0.002808 -0.005480 0.000449 0.029387 0.007108 -0.000614
# 5 0.000388 -0.001643 -0.004445 0.007108 0.027561 0.003284
# 6 0.006674 0.003969 -0.001776 -0.000614 0.003284 0.027984
#
#
# Mechanical properties :
#
#
# Convention : Reuss Voigt Hill
#
# Bulk Modulus (GPa) = 50.13044 69.84343 59.98693
# Shear Modulus (GPa) = 34.39756 41.51964 37.95860
#
# Velocity S-wave (km/s) = 3.95095 4.34075 4.15043
# Velocity P-wave (km/s) = 6.60023 7.53780 7.08455
#
# Compressibility (1/GPa) = 0.01994796
#
# Stress axis : x y z
#
# Youngs Moduli (GPa) = 68.23458 82.18209 99.60928
#
# Poissons Ratio (x) = 0.21176 0.15474
# Poissons Ratio (y) = 0.17583 0.43102
# Poissons Ratio (z) = 0.10600 0.35561
#
# Static dielectric constant tensor:
#      x y z
#    x 4.067930 -0.305650 -0.128550 
#    y -0.305650 4.205490 0.164690 
#    z -0.128550 0.164690 4.401990 
# 
# 
# High freq. dielectric constant tensor:
#      x y z
#    x 1.869690 -0.023910 0.007690 
#    y -0.023910 1.879530 0.002340 
#    z 0.007690 0.002340 1.874440 
# 
# From -- ./inp_files/568655.got.cif
#   From: 2010.06.25/outbox.cif.g09.slc.cpg/sg2_285_cif.got.tgz:568655.got - 2010.06.27 13:26:56.
