data_PCOD8031112
_publ_section_title
;
Structure prediction by ZEFSAII (Michael W. Deem and Ramdas Pophale) SiO2 
 PCOD8031112
Probable space group: P -1
;
_chemical_formula_sum "Si O2"
_cell_formula_units_Z 16
_cell_length_a 8.725140
_cell_length_b 12.487337
_cell_length_c 18.391923
_cell_angle_alpha 142.870453
_cell_angle_beta 43.470086
_cell_angle_gamma 143.548405
_cell_volume 698.456795
_symmetry_space_group_name_H-M "P -1"
_symmetry_group_IT_number 2
_symmetry_cell_setting 'triclinic'
loop_
_space_group_symop_operation_xyz
x,y,z
-x,-y,-z
loop_
_atom_site_type_symbol
_atom_site_label
_atom_site_fract_x
_atom_site_fract_y
_atom_site_fract_z
Si Si1 0.804657 0.141645 0.446204
Si Si2 0.274972 0.777415 0.984582
Si Si3 0.556048 0.727739 0.084201
Si Si4 0.157946 0.821572 0.714231
Si Si5 0.985207 0.585274 0.219644
Si Si6 0.113597 0.218173 0.769183
Si Si7 0.409382 0.384954 0.143396
Si Si8 0.241663 0.513043 0.594788
O O1 0.803354 0.206688 0.398790
O O2 0.995909 0.349668 0.539883
O O3 0.500000 0.000000 0.500000
O O4 0.948187 0.014935 0.336742
O O5 0.067241 0.634004 0.915592
O O6 0.418304 0.655579 0.883256
O O7 0.127620 0.786216 0.110563
O O8 0.500000 0.000000 0.000000
O O9 0.301589 0.738232 0.195058
O O10 0.779861 0.941952 0.164056
O O11 0.500000 0.500000 0.000000
O O12 0.645221 0.756769 0.985493
O O13 0.320954 0.746983 0.666385
O O14 0.853145 0.659596 0.752709
O O15 0.872145 0.701826 0.274992
O O16 0.863066 0.532071 0.312082
O O17 0.390068 0.360354 0.797218
O O18 0.500000 0.500000 0.500000
#
# Coordination Sequence:
#
# PCOD8031112 Si02
#       8
#     2   2   2   2   2   2   2   2
#     4  12  28  51  76 100 146 205 258 302 368 438
#     4  11  23  39  74 107 145 186 234 297 383 446
#     4  12  24  42  71 106 151 187 232 291 382 457
#     4  12  28  47  74 105 148 195 249 307 368 447
#     4  11  25  45  70 106 151 184 241 309 371 443
#     4  11  23  45  76 108 145 192 240 306 375 441
#     4  11  22  42  68 108 145 184 231 293 378 453
#     4  12  31  48  74 108 144 198 262 313 359 427
#
# _framework density 22.907646
#
# number of rings (size 3 to 8) (size 9 to 14) (size 15 to 20)
#    0.000    0.500    2.500    5.250   12.250    0.500 
#    0.000    0.000    0.000    0.000    0.000    0.000 
#    0.000    0.000    0.000    0.000    0.000    0.000 
#
# Total GULP energy -198321.164988 kJ/mol
# GULP energy per Si atom -12395.072812 kJ/mol
# Density = 2.285551 g / cm^3
# Si number density = 22.907646 Si / 1000 Ang^3
#
#
#
# Elastic Constant Matrix: (Units=GPa)
#
#
# Indices 1 2 3 4 5 6 
#
# 1 92.3197 39.1931 47.7254 -13.2001 6.1823 -11.9306
# 2 39.1931 112.3337 40.7880 -7.1845 3.4786 -9.7360
# 3 47.7254 40.7880 108.4127 -13.9876 1.6608 -22.1782
# 4 -13.2001 -7.1845 -13.9876 51.5417 -1.2198 7.3675
# 5 6.1823 3.4786 1.6608 -1.2198 48.3273 -8.3470
# 6 -11.9306 -9.7360 -22.1782 7.3675 -8.3470 38.5413
#
#
#
# Elastic Compliance Matrix: (Units=1/GPa)
#
#
# Indices 1 2 3 4 5 6 
#
# 1 0.015311 -0.003267 -0.005184 0.001991 -0.001454 0.000236
# 2 -0.003267 0.011035 -0.002678 -0.000059 -0.000253 0.000192
# 3 -0.005184 -0.002678 0.013829 0.001265 0.001404 0.005739
# 4 0.001991 -0.000059 0.001265 0.020622 -0.000233 -0.002663
# 5 -0.001454 -0.000253 0.001404 -0.000233 0.021713 0.005041
# 6 0.000236 0.000192 0.005739 -0.002663 0.005041 0.030971
#
#
# Mechanical properties :
#
#
# Convention : Reuss Voigt Hill
#
# Bulk Modulus (GPa) = 55.80976 63.16435 59.48706
# Shear Modulus (GPa) = 35.28301 40.03938 37.66120
#
# Velocity S-wave (km/s) = 3.92883 4.18528 4.05908
# Velocity P-wave (km/s) = 6.70796 7.14064 6.92768
#
# Compressibility (1/GPa) = 0.01791801
#
# Stress axis : x y z
#
# Youngs Moduli (GPa) = 65.31157 90.62116 72.31045
#
# Poissons Ratio (x) = 0.29606 0.37484
# Poissons Ratio (y) = 0.21338 0.19364
# Poissons Ratio (z) = 0.33856 0.24268
#
# Static dielectric constant tensor:
#      x y z
#    x 4.482620 -0.201720 0.007230 
#    y -0.201720 4.847130 0.304350 
#    z 0.007230 0.304350 4.178950 
# 
# 
# High freq. dielectric constant tensor:
#      x y z
#    x 1.907690 0.000330 0.000970 
#    y 0.000330 1.917430 0.000810 
#    z 0.000970 0.000810 1.907950 
# 
# From -- ./inp_files/560007.got.cif
#   From: 2010.06.25/outbox.cif.g09.slc.cpg/sg2_281_cif.got.tgz:560007.got - 2010.06.27 13:26:56.
