data_PCOD8031267
_publ_section_title
;
Structure prediction by ZEFSAII (Michael W. Deem and Ramdas Pophale) SiO2 
 PCOD8031267
Probable space group: P -1
;
_chemical_formula_sum "Si O2"
_cell_formula_units_Z 16
_cell_length_a 11.892718
_cell_length_b 21.856526
_cell_length_c 18.904760
_cell_angle_alpha 159.102489
_cell_angle_beta 26.233743
_cell_angle_gamma 153.211327
_cell_volume 726.713713
_symmetry_space_group_name_H-M "P -1"
_symmetry_group_IT_number 2
_symmetry_cell_setting 'triclinic'
loop_
_space_group_symop_operation_xyz
x,y,z
-x,-y,-z
loop_
_atom_site_type_symbol
_atom_site_label
_atom_site_fract_x
_atom_site_fract_y
_atom_site_fract_z
Si Si1 0.348421 0.720665 0.498482
Si Si2 0.627526 0.350091 0.128153
Si Si3 0.203920 0.489019 0.466179
Si Si4 0.815459 0.084773 0.648902
Si Si5 0.184975 0.741629 0.873808
Si Si6 0.339756 0.466851 0.980289
Si Si7 0.726907 0.871731 0.793819
Si Si8 0.957592 0.303736 0.663067
O O1 0.257477 0.642424 0.542655
O O2 0.064317 0.690381 0.586695
O O3 0.521138 0.933996 0.639050
O O4 0.515192 0.614875 0.248265
O O5 0.473799 0.438388 0.256301
O O6 0.390588 0.197016 0.137811
O O7 0.814451 0.502434 0.239235
O O8 0.807071 0.258955 0.884904
O O9 0.152402 0.572124 0.658653
O O10 0.927387 0.162841 0.592933
O O11 0.000000 0.000000 0.500000
O O12 0.489635 0.811202 0.804758
O O13 0.963226 0.677236 0.991775
O O14 0.134913 0.909340 0.042941
O O15 0.311061 0.652797 0.163381
O O16 0.500000 0.500000 0.000000
O O17 0.951367 0.784701 0.551572
#
# Coordination Sequence:
#
# PCOD8031267 Si02
#       8
#     2   2   2   2   2   2   2   2
#     4  11  25  44  66  94 131 176 218 269 329 394
#     4  12  23  42  68  97 129 173 222 273 327 386
#     4  11  23  44  70  92 130 176 223 266 330 393
#     4  12  27  44  67  99 137 173 217 274 329 385
#     4  11  22  43  66  99 131 172 217 272 331 382
#     4  12  24  44  69  93 134 180 214 266 334 392
#     4  11  24  38  71 101 132 164 222 280 319 384
#     4  12  24  43  67 100 132 172 224 269 323 399
#
# _framework density 22.016923999999999
#
# number of rings (size 3 to 8) (size 9 to 14) (size 15 to 20)
#    0.000    0.500    3.750    5.250    3.500    0.500 
#    2.250    1.250    0.000    0.000    0.000    0.000 
#    0.000    0.000    0.000    0.000    0.000    0.000 
#
# Total GULP energy -198403.644651 kJ/mol
# GULP energy per Si atom -12400.227791 kJ/mol
# Density = 2.196681 g / cm^3
# Si number density = 22.016924 Si / 1000 Ang^3
#
#
#
# Elastic Constant Matrix: (Units=GPa)
#
#
# Indices 1 2 3 4 5 6 
#
# 1 85.1056 7.6229 14.3786 4.8786 -19.9356 4.5193
# 2 7.6229 82.9463 -1.5396 5.9324 -3.8631 -4.4351
# 3 14.3786 -1.5396 83.7964 -4.7323 -13.4395 16.0092
# 4 4.8786 5.9324 -4.7323 39.3540 -3.5917 3.4091
# 5 -19.9356 -3.8631 -13.4395 -3.5917 31.0353 -3.5399
# 6 4.5193 -4.4351 16.0092 3.4091 -3.5399 26.9115
#
#
#
# Elastic Compliance Matrix: (Units=1/GPa)
#
#
# Indices 1 2 3 4 5 6 
#
# 1 0.014030 -0.000895 -0.001015 -0.000911 0.008276 -0.000696
# 2 -0.000895 0.012461 -0.000060 -0.001908 0.001028 0.002617
# 3 -0.001015 -0.000060 0.014685 0.003086 0.005111 -0.008294
# 4 -0.000911 -0.001908 0.003086 0.026894 0.003056 -0.005002
# 5 0.008276 0.001028 0.005111 0.003056 0.040307 0.000654
# 6 -0.000696 0.002617 -0.008294 -0.005002 0.000654 0.043361
#
#
# Mechanical properties :
#
#
# Convention : Reuss Voigt Hill
#
# Bulk Modulus (GPa) = 26.85558 32.53022 29.69290
# Shear Modulus (GPa) = 29.74597 34.88593 32.31595
#
# Velocity S-wave (km/s) = 3.67965 3.98490 3.83531
# Velocity P-wave (km/s) = 5.50248 5.99831 5.75574
#
# Compressibility (1/GPa) = 0.03723621
#
# Stress axis : x y z
#
# Youngs Moduli (GPa) = 71.27807 80.24826 68.09537
#
# Poissons Ratio (x) = 0.07180 0.06911
# Poissons Ratio (y) = 0.06378 0.00411
# Poissons Ratio (z) = 0.07234 0.00484
#
# Static dielectric constant tensor:
#      x y z
#    x 4.064340 0.025930 -0.174760 
#    y 0.025930 4.078120 0.012110 
#    z -0.174760 0.012110 4.052440 
# 
# 
# High freq. dielectric constant tensor:
#      x y z
#    x 1.866760 -0.009560 -0.003780 
#    y -0.009560 1.870000 -0.005130 
#    z -0.003780 -0.005130 1.870340 
# 
# From -- ./inp_files/259918.got.cif
#   From: 2010.06.25/outbox.cif.g09.slc.cpg/sg2_130_cif.got.tgz:259918.got - 2010.06.27 13:26:56.
