data_PCOD8031552
_publ_section_title
;
Structure prediction by ZEFSAII (Michael W. Deem and Ramdas Pophale) SiO2 
 PCOD8031552
Probable space group: P -1
;
_chemical_formula_sum "Si O2"
_cell_formula_units_Z 16
_cell_length_a 19.911271
_cell_length_b 9.223915
_cell_length_c 12.398832
_cell_angle_alpha 99.112177
_cell_angle_beta 37.309251
_cell_angle_gamma 130.634135
_cell_volume 653.118078
_symmetry_space_group_name_H-M "P -1"
_symmetry_group_IT_number 2
_symmetry_cell_setting 'triclinic'
loop_
_space_group_symop_operation_xyz
x,y,z
-x,-y,-z
loop_
_atom_site_type_symbol
_atom_site_label
_atom_site_fract_x
_atom_site_fract_y
_atom_site_fract_z
Si Si1 0.145940 0.811506 0.284985
Si Si2 0.161303 0.746326 0.916989
Si Si3 0.401123 0.819247 0.943096
Si Si4 0.438314 0.552737 0.278442
Si Si5 0.572238 0.432806 0.453860
Si Si6 0.691959 0.911906 0.666982
Si Si7 0.167835 0.486071 0.532441
Si Si8 0.851959 0.557505 0.978223
O O1 0.165915 0.924122 0.383624
O O2 0.193207 0.690034 0.231138
O O3 0.323688 0.086344 0.004069
O O4 0.899629 0.552526 0.510060
O O5 0.237484 0.697308 0.885670
O O6 0.383560 0.088099 0.626525
O O7 0.000000 0.500000 0.000000
O O8 0.034071 0.716385 0.150094
O O9 0.507009 0.831416 0.898833
O O10 0.609802 0.161602 0.674561
O O11 0.300940 0.598260 0.952073
O O12 0.383070 0.494242 0.468590
O O13 0.232792 0.390705 0.453048
O O14 0.454038 0.405670 0.197887
O O15 0.500000 0.500000 0.500000
O O16 0.808847 0.646744 0.121993
O O17 0.874788 0.138006 0.361761
#
# Coordination Sequence:
#
# PCOD8031552 Si02
#       8
#     2   2   2   2   2   2   2   2
#     4  11  24  47  72 102 140 186 238 291 352 419
#     4  12  23  44  73 101 137 186 235 287 352 420
#     4  11  22  45  70 103 142 176 233 295 352 417
#     4  11  26  46  70 100 144 188 237 285 359 421
#     4  12  27  46  73 103 146 190 234 298 353 424
#     4  12  27  43  72 107 140 186 236 294 353 423
#     4  11  22  44  71  99 136 183 232 284 354 419
#     4  12  26  45  70 107 143 181 240 290 356 425
#
# _framework density 24.497868
#
# number of rings (size 3 to 8) (size 9 to 14) (size 15 to 20)
#    0.000    0.500    3.750    4.125    3.500    6.000 
#    0.000    0.000    0.000    0.000    0.000    0.000 
#    0.000    0.000    0.000    0.000    0.000    0.000 
#
# Total GULP energy -198460.458477 kJ/mol
# GULP energy per Si atom -12403.778655 kJ/mol
# Density = 2.444211 g / cm^3
# Si number density = 24.497868 Si / 1000 Ang^3
#
#
#
# Elastic Constant Matrix: (Units=GPa)
#
#
# Indices 1 2 3 4 5 6 
#
# 1 142.2509 38.7859 31.5352 2.6732 -18.7811 -5.2866
# 2 38.7859 104.4075 13.5320 7.4251 -12.3127 -1.1878
# 3 31.5352 13.5320 75.1567 22.9391 -25.8825 -9.4349
# 4 2.6732 7.4251 22.9391 34.6917 1.6641 -4.4546
# 5 -18.7811 -12.3127 -25.8825 1.6641 30.8394 6.6757
# 6 -5.2866 -1.1878 -9.4349 -4.4546 6.6757 51.5018
#
#
#
# Elastic Compliance Matrix: (Units=1/GPa)
#
#
# Indices 1 2 3 4 5 6 
#
# 1 0.008656 -0.002790 -0.003330 0.002105 0.001197 0.000241
# 2 -0.002790 0.011177 0.001772 -0.003647 0.004580 -0.000613
# 3 -0.003330 0.001772 0.028865 -0.020344 0.023977 0.000120
# 4 0.002105 -0.003647 -0.020344 0.044234 -0.020253 0.002856
# 5 0.001197 0.004580 0.023977 -0.020253 0.057183 -0.004543
# 6 0.000241 -0.000613 0.000120 0.002856 -0.004543 0.020285
#
#
# Mechanical properties :
#
#
# Convention : Reuss Voigt Hill
#
# Bulk Modulus (GPa) = 24.99848 54.39126 39.69487
# Shear Modulus (GPa) = 25.98336 39.27069 32.62703
#
# Velocity S-wave (km/s) = 3.26028 4.00812 3.65339
# Velocity P-wave (km/s) = 4.93954 6.60838 5.83394
#
# Compressibility (1/GPa) = 0.04000243
#
# Stress axis : x y z
#
# Youngs Moduli (GPa) = 115.52479 89.46838 34.64382
#
# Poissons Ratio (x) = 0.24960 0.11535
# Poissons Ratio (y) = 0.32230 -0.06137
# Poissons Ratio (z) = 0.38466 -0.15850
#
# Static dielectric constant tensor:
#      x y z
#    x 4.637510 -0.123440 0.100120 
#    y -0.123440 4.322680 -0.139000 
#    z 0.100120 -0.139000 5.163640 
# 
# 
# High freq. dielectric constant tensor:
#      x y z
#    x 1.982870 0.003430 -0.000200 
#    y 0.003430 1.969620 0.001370 
#    z -0.000200 0.001370 1.981990 
# 
# From -- ./inp_files/462197.got.cif
#   From: 2010.06.25/outbox.cif.g09.slc.cpg/sg2_232_cif.got.tgz:462197.got - 2010.06.27 13:26:56.
