data_PCOD8031080
_publ_section_title
;
Structure prediction by ZEFSAII (Michael W. Deem and Ramdas Pophale) SiO2 
 PCOD8031080
Probable space group: P -1
;
_chemical_formula_sum "Si O2"
_cell_formula_units_Z 16
_cell_length_a 9.197759
_cell_length_b 7.218113
_cell_length_c 11.447346
_cell_angle_alpha 103.762927
_cell_angle_beta 64.339462
_cell_angle_gamma 108.785822
_cell_volume 644.216983
_symmetry_space_group_name_H-M "P -1"
_symmetry_group_IT_number 2
_symmetry_cell_setting 'triclinic'
loop_
_space_group_symop_operation_xyz
x,y,z
-x,-y,-z
loop_
_atom_site_type_symbol
_atom_site_label
_atom_site_fract_x
_atom_site_fract_y
_atom_site_fract_z
Si Si1 0.254940 0.850761 0.653343
Si Si2 0.870566 0.831870 0.373487
Si Si3 0.453350 0.349406 0.885988
Si Si4 0.729642 0.329196 0.620149
Si Si5 0.187497 0.550090 0.988004
Si Si6 0.223411 0.060108 0.341324
Si Si7 0.020307 0.490565 0.265128
Si Si8 0.433274 0.905408 0.834966
O O1 0.286315 0.700139 0.518586
O O2 0.076309 0.737220 0.753670
O O3 0.397022 0.879623 0.704862
O O4 0.252668 0.070711 0.644417
O O5 0.721678 0.622253 0.101476
O O6 0.807936 0.794217 0.524088
O O7 0.887774 0.618937 0.294867
O O8 0.578376 0.403271 0.740083
O O9 0.435128 0.127562 0.906331
O O10 0.500000 0.500000 0.000000
O O11 0.904529 0.476343 0.624533
O O12 0.727083 0.118341 0.639355
O O13 0.178216 0.557388 0.133658
O O14 0.051821 0.987512 0.319870
O O15 0.293048 0.761500 0.938687
O O16 0.000000 0.500000 0.000000
O O17 0.386573 0.147977 0.216608
#
# Coordination Sequence:
#
# PCOD8031080 Si02
#       8
#     2   2   2   2   2   2   2   2
#     4  11  23  40  69 101 134 177 222 277 344 400
#     4   9  20  38  67  94 130 175 213 278 336 398
#     4  11  25  48  71  98 132 181 230 279 339 407
#     4   9  20  42  68  99 131 171 228 282 329 405
#     4  12  27  47  65  98 141 179 231 284 331 403
#     4   8  18  41  63  97 132 166 225 271 340 399
#     4  11  22  42  66  96 139 175 229 279 328 400
#     4  11  26  44  69 102 137 179 223 282 346 397
#
# _framework density 24.836352000000002
#
# number of rings (size 3 to 8) (size 9 to 14) (size 15 to 20)
#    0.000    1.750    2.500    1.125    1.750    8.500 
#    0.000    1.250    0.000    0.000    0.000    0.000 
#    0.000    0.000    0.000    0.000    0.000    0.000 
#
# Total GULP energy -198283.594547 kJ/mol
# GULP energy per Si atom -12392.724659 kJ/mol
# Density = 2.477982 g / cm^3
# Si number density = 24.836352 Si / 1000 Ang^3
#
#
#
# Elastic Constant Matrix: (Units=GPa)
#
#
# Indices 1 2 3 4 5 6 
#
# 1 80.7824 2.8968 32.8763 -2.8019 -25.7555 6.2103
# 2 2.8968 87.5744 19.9587 -4.1285 -15.0972 5.1610
# 3 32.8763 19.9587 104.2853 0.0935 -7.5670 2.1548
# 4 -2.8019 -4.1285 0.0935 33.5589 1.1388 -5.3493
# 5 -25.7555 -15.0972 -7.5670 1.1388 40.3463 4.3366
# 6 6.2103 5.1610 2.1548 -5.3493 4.3366 35.4329
#
#
#
# Elastic Compliance Matrix: (Units=1/GPa)
#
#
# Indices 1 2 3 4 5 6 
#
# 1 0.019012 0.003170 -0.005572 0.000778 0.012783 -0.004902
# 2 0.003170 0.013398 -0.003013 0.001219 0.006756 -0.002967
# 3 -0.005572 -0.003013 0.011718 -0.000635 -0.002568 0.000921
# 4 0.000778 0.001219 -0.000635 0.030738 -0.000510 0.004428
# 5 0.012783 0.006756 -0.002568 -0.000510 0.035816 -0.007529
# 6 -0.004902 -0.002967 0.000921 0.004428 -0.007529 0.031048
#
#
# Mechanical properties :
#
#
# Convention : Reuss Voigt Hill
#
# Bulk Modulus (GPa) = 30.03229 42.67842 36.35536
# Shear Modulus (GPa) = 30.55139 36.32831 33.43985
#
# Velocity S-wave (km/s) = 3.51109 3.82868 3.67332
# Velocity P-wave (km/s) = 5.34372 6.06352 5.71496
#
# Compressibility (1/GPa) = 0.03329750
#
# Stress axis : x y z
#
# Youngs Moduli (GPa) = 52.59723 74.63922 85.34147
#
# Poissons Ratio (x) = -0.23663 0.47555
# Poissons Ratio (y) = -0.16675 0.25715
# Poissons Ratio (z) = 0.29309 0.22490
#
# Static dielectric constant tensor:
#      x y z
#    x 4.856650 0.059560 -0.370320 
#    y 0.059560 4.257920 -0.077520 
#    z -0.370320 -0.077520 4.930930 
# 
# 
# High freq. dielectric constant tensor:
#      x y z
#    x 1.987220 0.004270 -0.013660 
#    y 0.004270 1.975610 -0.001410 
#    z -0.013660 -0.001410 1.988370 
# 
# From -- ./inp_files/418066.got.cif
#   From: 2010.06.25/outbox.cif.g09.slc.cpg/sg2_210_cif.got.tgz:418066.got - 2010.06.27 13:26:56.
