data_PCOD8031289
_publ_section_title
;
Structure prediction by ZEFSAII (Michael W. Deem and Ramdas Pophale) SiO2 
 PCOD8031289
Probable space group: P -1
;
_chemical_formula_sum "Si O2"
_cell_formula_units_Z 16
_cell_length_a 18.333957
_cell_length_b 12.488956
_cell_length_c 9.932697
_cell_angle_alpha 69.430808
_cell_angle_beta 70.925505
_cell_angle_gamma 19.764328
_cell_volume 719.980502
_symmetry_space_group_name_H-M "P -1"
_symmetry_group_IT_number 2
_symmetry_cell_setting 'triclinic'
loop_
_space_group_symop_operation_xyz
x,y,z
-x,-y,-z
loop_
_atom_site_type_symbol
_atom_site_label
_atom_site_fract_x
_atom_site_fract_y
_atom_site_fract_z
Si Si1 0.084849 0.381690 0.350995
Si Si2 0.850882 0.629678 0.131355
Si Si3 0.833822 0.384452 0.197157
Si Si4 0.370635 0.383945 0.061018
Si Si5 0.462934 0.360993 0.595745
Si Si6 0.011800 0.232831 0.804891
Si Si7 0.438848 0.600048 0.699516
Si Si8 0.742518 0.225865 0.914177
O O1 0.939284 0.506591 0.285010
O O2 0.000000 0.500000 0.500000
O O3 0.083872 0.509787 0.236609
O O4 0.325803 0.006235 0.371166
O O5 0.846483 0.503448 0.148710
O O6 0.610905 0.012311 0.113452
O O7 0.000000 0.500000 0.000000
O O8 0.733820 0.457154 0.354690
O O9 0.674310 0.576335 0.085421
O O10 0.069461 0.000856 0.205189
O O11 0.193665 0.564803 0.180773
O O12 0.337860 0.562026 0.035015
O O13 0.474961 0.427791 0.687452
O O14 0.441380 0.465555 0.427004
O O15 0.182142 0.982292 0.690210
O O16 0.140669 0.032311 0.953538
O O17 0.537276 0.460346 0.853046
#
# Coordination Sequence:
#
# PCOD8031289 Si02
#       8
#     2   2   2   2   2   2   2   2
#     4  12  25  45  67  98 135 180 229 275 342 405
#     4  12  25  44  72 101 134 182 232 281 340 411
#     4  11  23  43  65 101 139 176 224 281 340 399
#     4  11  23  41  69 104 136 171 222 285 342 396
#     4  11  24  43  66  92 141 183 222 276 337 404
#     4  11  22  43  68  96 136 174 220 284 337 399
#     4  11  23  42  68  98 133 186 226 271 336 406
#     4  11  23  40  68 103 132 172 233 277 337 398
#
# _framework density 22.222825
#
# number of rings (size 3 to 8) (size 9 to 14) (size 15 to 20)
#    0.000    0.750    1.250    8.250    0.000    2.500 
#    2.250    1.250    0.000    0.000    0.000    0.000 
#    0.000    0.000    0.000    0.000    0.000    0.000 
#
# Total GULP energy -198412.597065 kJ/mol
# GULP energy per Si atom -12400.787317 kJ/mol
# Density = 2.217224 g / cm^3
# Si number density = 22.222825 Si / 1000 Ang^3
#
#
#
# Elastic Constant Matrix: (Units=GPa)
#
#
# Indices 1 2 3 4 5 6 
#
# 1 121.7058 46.2685 64.0004 2.4024 -14.6421 14.7499
# 2 46.2685 133.9402 27.5707 15.9623 -8.7574 3.0968
# 3 64.0004 27.5707 86.0538 9.3095 -8.4984 1.6905
# 4 2.4024 15.9623 9.3095 33.8270 -6.2028 -6.5502
# 5 -14.6421 -8.7574 -8.4984 -6.2028 44.0433 3.6685
# 6 14.7499 3.0968 1.6905 -6.5502 3.6685 46.1868
#
#
#
# Elastic Compliance Matrix: (Units=1/GPa)
#
#
# Indices 1 2 3 4 5 6 
#
# 1 0.016032 -0.003383 -0.010767 0.003207 0.003391 -0.004313
# 2 -0.003383 0.009122 0.000050 -0.004077 0.000135 -0.000122
# 3 -0.010767 0.000050 0.020001 -0.004448 -0.000513 0.002113
# 4 0.003207 -0.004077 -0.004448 0.033948 0.003852 0.003921
# 5 0.003391 0.000135 -0.000513 0.003852 0.024509 -0.002473
# 6 -0.004313 -0.000122 0.002113 0.003921 -0.002473 0.023712
#
#
# Mechanical properties :
#
#
# Convention : Reuss Voigt Hill
#
# Bulk Modulus (GPa) = 58.97676 68.59764 63.78720
# Shear Modulus (GPa) = 31.02242 38.40209 34.71226
#
# Velocity S-wave (km/s) = 3.74032 4.16149 3.95651
# Velocity P-wave (km/s) = 6.72680 7.35022 7.04541
#
# Compressibility (1/GPa) = 0.01695583
#
# Stress axis : x y z
#
# Youngs Moduli (GPa) = 62.37658 109.62873 49.99680
#
# Poissons Ratio (x) = 0.37082 0.53831
# Poissons Ratio (y) = 0.21099 -0.00250
# Poissons Ratio (z) = 0.67160 -0.00547
#
# Static dielectric constant tensor:
#      x y z
#    x 4.100490 -0.085320 -0.226650 
#    y -0.085320 4.550460 0.482240 
#    z -0.226650 0.482240 4.514640 
# 
# 
# High freq. dielectric constant tensor:
#      x y z
#    x 1.876580 0.006090 -0.013190 
#    y 0.006090 1.897760 0.014690 
#    z -0.013190 0.014690 1.872400 
# 
# From -- ./inp_files/464528.got.cif
#   From: 2010.06.25/outbox.cif.g09.slc.cpg/sg2_233_cif.got.tgz:464528.got - 2010.06.27 13:26:56.
