data_PCOD8031244
_publ_section_title
;
Structure prediction by ZEFSAII (Michael W. Deem and Ramdas Pophale) SiO2 
 PCOD8031244
Probable space group: P -1
;
_chemical_formula_sum "Si O2"
_cell_formula_units_Z 14
_cell_length_a 9.874341
_cell_length_b 12.122229
_cell_length_c 9.883922
_cell_angle_alpha 129.211301
_cell_angle_beta 47.855878
_cell_angle_gamma 123.923478
_cell_volume 660.968518
_symmetry_space_group_name_H-M "P -1"
_symmetry_group_IT_number 2
_symmetry_cell_setting 'triclinic'
loop_
_space_group_symop_operation_xyz
x,y,z
-x,-y,-z
loop_
_atom_site_type_symbol
_atom_site_label
_atom_site_fract_x
_atom_site_fract_y
_atom_site_fract_z
Si Si1 0.561806 0.656638 0.247197
Si Si2 0.060994 0.177066 0.969966
Si Si3 0.500560 0.835529 0.912866
Si Si4 0.703687 0.315794 0.320008
Si Si5 0.897570 0.854105 0.776387
Si Si6 0.620752 0.357558 0.917523
Si Si7 0.005333 0.427869 0.586686
O O1 0.451861 0.723092 0.488057
O O2 0.485302 0.706399 0.196935
O O3 0.522503 0.479249 0.145493
O O4 0.786556 0.724409 0.155765
O O5 0.863614 0.223770 0.152153
O O6 0.153387 0.181982 0.060546
O O7 0.023228 0.016913 0.805335
O O8 0.408566 0.719657 0.770827
O O9 0.713227 0.830710 0.791323
O O10 0.383981 0.778345 0.083315
O O11 0.500000 0.000000 0.000000
O O12 0.806653 0.487700 0.395295
O O13 0.012003 0.743884 0.552026
O O14 0.831254 0.444870 0.807622
O O15 0.000000 0.500000 0.500000
#
# Coordination Sequence:
#
# PCOD8031244 Si02
#       7
#     2   2   2   2   2   2   2
#     4  11  22  42  76 107 132 183 249 291 347 415
#     4  11  22  44  71 102 135 185 242 287 344 425
#     4  12  27  47  65 102 155 188 224 293 366 422
#     4  12  25  44  72 103 145 182 232 298 352 419
#     4  11  23  43  70  98 142 187 231 296 350 408
#     4  11  23  42  71 105 143 185 234 297 353 413
#     4  12  22  43  74 106 136 177 245 300 340 413
#
# _framework density 21.181038999999998
#
# number of rings (size 3 to 8) (size 9 to 14) (size 15 to 20)
#    0.000    0.571    7.143    0.857    0.000    4.000 
#    2.571    4.286    0.000    0.000    0.000    0.000 
#    0.000    0.000    0.000    0.000    0.000    0.000 
#
# Total GULP energy -173587.234315 kJ/mol
# GULP energy per Si atom -12399.088165 kJ/mol
# Density = 2.113283 g / cm^3
# Si number density = 21.181039 Si / 1000 Ang^3
#
#
#
# Elastic Constant Matrix: (Units=GPa)
#
#
# Indices 1 2 3 4 5 6 
#
# 1 128.2623 35.9071 47.1620 1.2345 9.8276 5.4181
# 2 35.9071 107.4601 55.7845 2.3006 5.0228 -7.2749
# 3 47.1620 55.7845 121.5219 -0.7179 -6.9488 -0.9361
# 4 1.2345 2.3006 -0.7179 43.8060 3.8970 5.5274
# 5 9.8276 5.0228 -6.9488 3.8970 35.3660 2.5186
# 6 5.4181 -7.2749 -0.9361 5.5274 2.5186 33.6201
#
#
#
# Elastic Compliance Matrix: (Units=1/GPa)
#
#
# Indices 1 2 3 4 5 6 
#
# 1 0.009731 -0.001551 -0.003250 0.000251 -0.003021 -0.001809
# 2 -0.001551 0.013055 -0.005522 -0.000910 -0.002641 0.003269
# 3 -0.003250 -0.005522 0.012257 0.000303 0.004111 -0.000688
# 4 0.000251 -0.000910 0.000303 0.023566 -0.002197 -0.003939
# 5 -0.003021 -0.002641 0.004111 -0.002197 0.030676 -0.001907
# 6 -0.001809 0.003269 -0.000688 -0.003939 -0.001907 0.031514
#
#
# Mechanical properties :
#
#
# Convention : Reuss Voigt Hill
#
# Bulk Modulus (GPa) = 69.46021 70.55016 70.00519
# Shear Modulus (GPa) = 34.18947 37.11778 35.65363
#
# Velocity S-wave (km/s) = 4.02201 4.19072 4.10723
# Velocity P-wave (km/s) = 7.37791 7.53635 7.45755
#
# Compressibility (1/GPa) = 0.01439673
#
# Stress axis : x y z
#
# Youngs Moduli (GPa) = 102.76186 76.59984 81.58865
#
# Poissons Ratio (x) = 0.11883 0.26514
# Poissons Ratio (y) = 0.15941 0.45053
# Poissons Ratio (z) = 0.33395 0.42298
#
# Static dielectric constant tensor:
#      x y z
#    x 3.911660 0.124230 -0.030740 
#    y 0.124230 3.935200 0.119860 
#    z -0.030740 0.119860 3.773350 
# 
# 
# High freq. dielectric constant tensor:
#      x y z
#    x 1.828860 0.016830 -0.007850 
#    y 0.016830 1.832470 0.006150 
#    z -0.007850 0.006150 1.824450 
# 
# From -- ./inp_files/167458.got.cif
#   From: 2010.06.25/outbox.cif.g09.slc.cpg/sg2_84_cif.got.tgz:167458.got - 2010.06.27 13:26:56.
