data_PCOD8031103
_publ_section_title
;
Structure prediction by ZEFSAII (Michael W. Deem and Ramdas Pophale) SiO2 
 PCOD8031103
Probable space group: P -1
;
_chemical_formula_sum "Si O2"
_cell_formula_units_Z 14
_cell_length_a 11.846120
_cell_length_b 8.847080
_cell_length_c 8.788476
_cell_angle_alpha 128.611033
_cell_angle_beta 56.491806
_cell_angle_gamma 100.844083
_cell_volume 582.569045
_symmetry_space_group_name_H-M "P -1"
_symmetry_group_IT_number 2
_symmetry_cell_setting 'triclinic'
loop_
_space_group_symop_operation_xyz
x,y,z
-x,-y,-z
loop_
_atom_site_type_symbol
_atom_site_label
_atom_site_fract_x
_atom_site_fract_y
_atom_site_fract_z
Si Si1 0.348543 0.200766 0.403518
Si Si2 0.036469 0.695140 0.025135
Si Si3 0.241182 0.265518 0.846832
Si Si4 0.271808 0.592288 0.543320
Si Si5 0.638656 0.034356 0.191005
Si Si6 0.861043 0.957915 0.724787
Si Si7 0.897125 0.402532 0.612619
O O1 0.311934 0.308472 0.662587
O O2 0.356835 0.365670 0.372798
O O3 0.498984 0.044391 0.203439
O O4 0.231447 0.080058 0.373247
O O5 0.890232 0.830839 0.154194
O O6 0.106395 0.823243 0.171065
O O7 0.132151 0.626057 0.766173
O O8 0.000000 0.500000 0.000000
O O9 0.356442 0.110673 0.760166
O O10 0.179453 0.471773 0.109326
O O11 0.366431 0.742183 0.609979
O O12 0.228538 0.625040 0.420091
O O13 0.775362 0.940441 0.931177
O O14 0.010116 0.802639 0.518467
O O15 0.000000 0.500000 0.500000
#
# Coordination Sequence:
#
# PCOD8031103 Si02
#       7
#     2   2   2   2   2   2   2
#     4  12  24  43  66  98 137 178 223 271 320 399
#     4  11  22  42  68 100 134 159 219 290 338 388
#     4  12  24  42  66  96 140 170 216 280 337 382
#     4  11  22  42  68  96 127 181 224 271 328 388
#     4  11  24  44  66  95 135 183 226 262 323 402
#     4  11  24  42  72  99 128 180 220 272 338 394
#     4  12  21  41  69  97 134 168 222 280 331 396
#
# _framework density 24.031486999999998
#
# number of rings (size 3 to 8) (size 9 to 14) (size 15 to 20)
#    0.000    0.571    5.714    2.143    0.000    2.857 
#    2.571    0.714    0.000    0.000    0.000    0.000 
#    0.000    0.000    0.000    0.000    0.000    0.000 
#
# Total GULP energy -173602.655402 kJ/mol
# GULP energy per Si atom -12400.189672 kJ/mol
# Density = 2.397679 g / cm^3
# Si number density = 24.031487 Si / 1000 Ang^3
#
#
#
# Elastic Constant Matrix: (Units=GPa)
#
#
# Indices 1 2 3 4 5 6 
#
# 1 173.4937 54.8327 47.1030 19.4361 3.5848 -25.2016
# 2 54.8327 79.9048 32.5985 17.1514 8.6040 -4.0905
# 3 47.1030 32.5985 97.0676 12.7866 17.1886 1.6763
# 4 19.4361 17.1514 12.7866 31.9257 -4.9206 -0.4862
# 5 3.5848 8.6040 17.1886 -4.9206 42.5435 8.2390
# 6 -25.2016 -4.0905 1.6763 -0.4862 8.2390 27.6854
#
#
#
# Elastic Compliance Matrix: (Units=1/GPa)
#
#
# Indices 1 2 3 4 5 6 
#
# 1 0.009339 -0.004293 -0.002830 -0.002216 -0.000616 0.008182
# 2 -0.004293 0.018264 -0.002650 -0.006599 -0.002970 -0.000281
# 3 -0.002830 -0.002650 0.013861 -0.003169 -0.004716 -0.002459
# 4 -0.002216 -0.006599 -0.003169 0.038674 0.008155 -0.004548
# 5 -0.000616 -0.002970 -0.004716 0.008155 0.028775 -0.009134
# 6 0.008182 -0.000281 -0.002459 -0.004548 -0.009134 0.046314
#
#
# Mechanical properties :
#
#
# Convention : Reuss Voigt Hill
#
# Bulk Modulus (GPa) = 45.62903 68.83716 57.23309
# Shear Modulus (GPa) = 27.46066 34.82638 31.14352
#
# Velocity S-wave (km/s) = 3.38404 3.81096 3.60383
# Velocity P-wave (km/s) = 5.85640 6.93335 6.41751
#
# Compressibility (1/GPa) = 0.02191587
#
# Stress axis : x y z
#
# Youngs Moduli (GPa) = 107.08244 54.75259 72.14728
#
# Poissons Ratio (x) = 0.23505 0.20420
# Poissons Ratio (y) = 0.45970 0.19122
# Poissons Ratio (z) = 0.30307 0.14512
#
# Static dielectric constant tensor:
#      x y z
#    x 4.775360 -0.171720 0.113770 
#    y -0.171720 4.087470 0.058940 
#    z 0.113770 0.058940 4.366120 
# 
# 
# High freq. dielectric constant tensor:
#      x y z
#    x 1.962250 -0.014170 0.008870 
#    y -0.014170 1.931180 0.001200 
#    z 0.008870 0.001200 1.957810 
# 
# From -- ./inp_files/245755.got.cif
#   From: 2010.06.25/outbox.cif.g09.slc.cpg/sg2_123_cif.got.tgz:245755.got - 2010.06.27 13:26:56.
