data_PCOD8031100
_publ_section_title
;
Structure prediction by ZEFSAII (Michael W. Deem and Ramdas Pophale) SiO2 
 PCOD8031100
Probable space group: P -1
;
_chemical_formula_sum "Si O2"
_cell_formula_units_Z 16
_cell_length_a 6.716149
_cell_length_b 12.082810
_cell_length_c 15.521379
_cell_angle_alpha 128.996060
_cell_angle_beta 120.884102
_cell_angle_gamma 86.189092
_cell_volume 775.485349
_symmetry_space_group_name_H-M "P -1"
_symmetry_group_IT_number 2
_symmetry_cell_setting 'triclinic'
loop_
_space_group_symop_operation_xyz
x,y,z
-x,-y,-z
loop_
_atom_site_type_symbol
_atom_site_label
_atom_site_fract_x
_atom_site_fract_y
_atom_site_fract_z
Si Si1 0.341367 0.096977 0.835396
Si Si2 0.507047 0.346838 0.664461
Si Si3 0.920363 0.349501 0.625633
Si Si4 0.779243 0.840652 0.348209
Si Si5 0.174186 0.673359 0.751371
Si Si6 0.973094 0.243899 0.413578
Si Si7 0.686922 0.691728 0.916954
Si Si8 0.115437 0.873622 0.979035
O O1 0.348324 0.152602 0.766603
O O2 0.595023 0.068286 0.897634
O O3 0.108529 0.934153 0.719696
O O4 0.297609 0.227131 0.947172
O O5 0.697451 0.330936 0.630395
O O6 0.439258 0.207978 0.651013
O O7 0.613878 0.508527 0.818934
O O8 0.261375 0.329396 0.546710
O O9 0.810994 0.248062 0.464906
O O10 0.111491 0.293641 0.692821
O O11 0.068891 0.523537 0.714138
O O12 0.000000 0.000000 0.500000
O O13 0.061466 0.652377 0.620541
O O14 0.474185 0.726869 0.833346
O O15 0.098181 0.799035 0.844912
O O16 0.949982 0.756804 0.957408
O O17 0.000000 0.000000 0.000000
#
# Coordination Sequence:
#
# PCOD8031100 Si02
#       8
#     2   2   2   2   2   2   2   2
#     4  11  25  45  70  99 134 180 224 276 342 402
#     4  11  24  42  68 101 133 177 227 282 336 394
#     4  11  23  41  68  98 134 171 222 282 334 394
#     4  11  23  49  69  97 136 177 224 285 338 398
#     4  11  22  42  67  98 138 179 219 281 337 397
#     4  11  23  42  67  99 136 177 228 276 341 393
#     4  11  23  43  67  96 138 174 222 276 338 401
#     4  11  24  43  67 101 140 178 226 271 335 409
#
# _framework density 20.632238999999998
#
# number of rings (size 3 to 8) (size 9 to 14) (size 15 to 20)
#    0.000    1.000    6.250    1.875    0.000    7.500 
#    0.000    1.250    0.000    0.000    0.000    0.000 
#    0.000    0.000    0.000    0.000    0.000    0.000 
#
# Total GULP energy -198346.465258 kJ/mol
# GULP energy per Si atom -12396.654079 kJ/mol
# Density = 2.058528 g / cm^3
# Si number density = 20.632239 Si / 1000 Ang^3
#
#
#
# Elastic Constant Matrix: (Units=GPa)
#
#
# Indices 1 2 3 4 5 6 
#
# 1 111.1574 25.3532 34.5654 1.1456 -18.5500 15.1451
# 2 25.3532 102.6618 37.6542 -4.8798 -9.5709 -0.5247
# 3 34.5654 37.6542 111.5334 1.3553 -8.3667 0.7388
# 4 1.1456 -4.8798 1.3553 41.7653 5.7639 0.5055
# 5 -18.5500 -9.5709 -8.3667 5.7639 25.5286 3.6363
# 6 15.1451 -0.5247 0.7388 0.5055 3.6363 25.8832
#
#
#
# Elastic Compliance Matrix: (Units=1/GPa)
#
#
# Indices 1 2 3 4 5 6 
#
# 1 0.013019 -0.001431 -0.002747 -0.001661 0.009665 -0.008894
# 2 -0.001431 0.011550 -0.003343 0.001240 0.001788 0.000891
# 3 -0.002747 -0.003343 0.010973 -0.000733 0.000342 0.001193
# 4 -0.001661 0.001240 -0.000733 0.025086 -0.006859 0.001492
# 5 0.009665 0.001788 0.000342 -0.006859 0.050315 -0.012563
# 6 -0.008894 0.000891 0.001193 0.001492 -0.012563 0.045559
#
#
# Mechanical properties :
#
#
# Convention : Reuss Voigt Hill
#
# Bulk Modulus (GPa) = 48.78181 57.83314 53.30747
# Shear Modulus (GPa) = 28.03051 33.82074 30.92563
#
# Velocity S-wave (km/s) = 3.68989 4.05312 3.87576
# Velocity P-wave (km/s) = 6.46904 7.07072 6.77656
#
# Compressibility (1/GPa) = 0.02049945
#
# Stress axis : x y z
#
# Youngs Moduli (GPa) = 76.81277 86.57754 91.13584
#
# Poissons Ratio (x) = 0.12387 0.25039
# Poissons Ratio (y) = 0.10990 0.30465
# Poissons Ratio (z) = 0.21104 0.28942
#
# Static dielectric constant tensor:
#      x y z
#    x 3.920970 0.109680 -0.122990 
#    y 0.109680 3.773580 0.091400 
#    z -0.122990 0.091400 3.895140 
# 
# 
# High freq. dielectric constant tensor:
#      x y z
#    x 1.807180 0.009770 -0.007230 
#    y 0.009770 1.810400 0.008900 
#    z -0.007230 0.008900 1.814040 
# 
# From -- ./inp_files/483067.got.cif
#   From: 2010.06.25/outbox.cif.g09.slc.cpg/sg2_242_cif.got.tgz:483067.got - 2010.06.27 13:26:56.
