data_PCOD8031553
_publ_section_title
;
Structure prediction by ZEFSAII (Michael W. Deem and Ramdas Pophale) SiO2 
 PCOD8031553
Probable space group: P -1
;
_chemical_formula_sum "Si O2"
_cell_formula_units_Z 12
_cell_length_a 10.059604
_cell_length_b 14.254430
_cell_length_c 12.784317
_cell_angle_alpha 128.281555
_cell_angle_beta 36.046034
_cell_angle_gamma 147.275662
_cell_volume 572.440687
_symmetry_space_group_name_H-M "P -1"
_symmetry_group_IT_number 2
_symmetry_cell_setting 'triclinic'
loop_
_space_group_symop_operation_xyz
x,y,z
-x,-y,-z
loop_
_atom_site_type_symbol
_atom_site_label
_atom_site_fract_x
_atom_site_fract_y
_atom_site_fract_z
Si Si1 0.385929 0.389154 0.595509
Si Si2 0.772371 0.302377 0.252323
Si Si3 0.401451 0.516365 0.884004
Si Si4 0.389966 0.943494 0.151305
Si Si5 0.235309 0.544930 0.289641
Si Si6 0.354443 0.169346 0.942947
O O1 0.500000 0.500000 0.500000
O O2 0.599927 0.353118 0.441938
O O3 0.465891 0.516512 0.722259
O O4 0.003416 0.206447 0.705451
O O5 0.023111 0.366864 0.232302
O O6 0.498442 0.097668 0.259361
O O7 0.018941 0.413906 0.071909
O O8 0.449820 0.406055 0.832839
O O9 0.665992 0.715974 0.897724
O O10 0.532279 0.884020 0.080269
O O11 0.500000 0.000000 0.000000
O O12 0.375085 0.707179 0.238301
O O13 0.000000 0.500000 0.500000
O O14 0.000000 0.000000 0.000000
#
# Coordination Sequence:
#
# PCOD8031553 Si02
#       6
#     2   2   2   2   2   2
#     4  12  26  43  69 103 135 180 236 277 344 409
#     4  11  23  45  70  95 138 182 225 282 341 403
#     4  11  23  44  74  97 139 182 226 287 342 403
#     4  12  26  45  70 102 143 182 225 283 344 407
#     4  11  22  44  72 100 133 178 231 284 339 402
#     4  11  25  45  72 101 137 183 229 278 345 405
#
# _framework density 20.962871
#
# number of rings (size 3 to 8) (size 9 to 14) (size 15 to 20)
#    0.000    0.667    3.333    6.500    2.333    1.333 
#    3.000    1.667    0.000    0.000    0.000    0.000 
#    0.000    0.000    0.000    0.000    0.000    0.000 
#
# Total GULP energy -148700.518771 kJ/mol
# GULP energy per Si atom -12391.709898 kJ/mol
# Density = 2.091516 g / cm^3
# Si number density = 20.962871 Si / 1000 Ang^3
#
#
#
# Elastic Constant Matrix: (Units=GPa)
#
#
# Indices 1 2 3 4 5 6 
#
# 1 113.6454 45.5360 58.1024 -11.4499 15.4592 -2.3246
# 2 45.5360 131.2192 64.3377 -0.6773 17.1347 19.4785
# 3 58.1024 64.3377 160.6195 -1.5051 17.5981 7.1620
# 4 -11.4499 -0.6773 -1.5051 37.0806 1.9781 2.5526
# 5 15.4592 17.1347 17.5981 1.9781 45.0533 -1.3687
# 6 -2.3246 19.4785 7.1620 2.5526 -1.3687 38.5778
#
#
#
# Elastic Compliance Matrix: (Units=1/GPa)
#
#
# Indices 1 2 3 4 5 6 
#
# 1 0.012198 -0.002764 -0.003163 0.003527 -0.001980 0.002414
# 2 -0.002764 0.011117 -0.002972 -0.000286 -0.002267 -0.005289
# 3 -0.003163 -0.002972 0.008696 -0.000595 -0.001164 -0.000307
# 4 0.003527 -0.000286 -0.000595 0.028245 -0.002154 -0.001478
# 5 -0.001980 -0.002267 -0.001164 -0.002154 0.024355 0.002248
# 6 0.002414 -0.005289 -0.000307 -0.001478 0.002248 0.028972
#
#
# Mechanical properties :
#
#
# Convention : Reuss Voigt Hill
#
# Bulk Modulus (GPa) = 70.35303 82.38181 76.36742
# Shear Modulus (GPa) = 36.73296 39.97620 38.35458
#
# Velocity S-wave (km/s) = 4.19057 4.37166 4.28207
# Velocity P-wave (km/s) = 7.55302 8.05395 7.80751
#
# Compressibility (1/GPa) = 0.01421403
#
# Stress axis : x y z
#
# Youngs Moduli (GPa) = 81.98110 89.95590 114.99420
#
# Poissons Ratio (x) = 0.24860 0.36374
# Poissons Ratio (y) = 0.22656 0.34172
# Poissons Ratio (z) = 0.25931 0.26731
#
# Static dielectric constant tensor:
#      x y z
#    x 3.911060 0.342230 0.217080 
#    y 0.342230 3.625330 -0.197920 
#    z 0.217080 -0.197920 3.813940 
# 
# 
# High freq. dielectric constant tensor:
#      x y z
#    x 1.837690 0.015660 0.003700 
#    y 0.015660 1.817450 0.004440 
#    z 0.003700 0.004440 1.830910 
# 
# From -- ./inp_files/191084.got.cif
#   From: 2010.06.25/outbox.cif.g09.slc.cpg/sg2_96_cif.got.tgz:191084.got - 2010.06.27 13:26:56.
