data_PCOD8031108
_publ_section_title
;
Structure prediction by ZEFSAII (Michael W. Deem and Ramdas Pophale) SiO2 
 PCOD8031108
Probable space group: P -1
;
_chemical_formula_sum "Si O2"
_cell_formula_units_Z 16
_cell_length_a 9.133275
_cell_length_b 8.937396
_cell_length_c 14.061551
_cell_angle_alpha 72.988327
_cell_angle_beta 40.273138
_cell_angle_gamma 79.871727
_cell_volume 707.431100
_symmetry_space_group_name_H-M "P -1"
_symmetry_group_IT_number 2
_symmetry_cell_setting 'triclinic'
loop_
_space_group_symop_operation_xyz
x,y,z
-x,-y,-z
loop_
_atom_site_type_symbol
_atom_site_label
_atom_site_fract_x
_atom_site_fract_y
_atom_site_fract_z
Si Si1 0.919927 0.573300 0.196801
Si Si2 0.439245 0.255431 0.764084
Si Si3 0.995232 0.002733 0.388915
Si Si4 0.573661 0.386089 0.064883
Si Si5 0.668882 0.250423 0.453465
Si Si6 0.499966 0.951916 0.900953
Si Si7 0.218981 0.265222 0.581659
Si Si8 0.269507 0.483755 0.358568
O O1 0.796011 0.669984 0.158663
O O2 0.781733 0.407585 0.319080
O O3 0.935771 0.676001 0.267254
O O4 0.173514 0.548006 0.036887
O O5 0.611035 0.274781 0.587233
O O6 0.582083 0.350552 0.758662
O O7 0.396501 0.078415 0.857523
O O8 0.835558 0.114329 0.392452
O O9 0.241835 0.075219 0.234843
O O10 0.937479 0.834284 0.398851
O O11 0.000000 0.000000 0.500000
O O12 0.625305 0.215571 0.030875
O O13 0.366682 0.376138 0.246424
O O14 0.500000 0.500000 0.000000
O O15 0.434774 0.183044 0.531434
O O16 0.500000 0.000000 0.000000
O O17 0.338957 0.411588 0.437598
O O18 0.000000 0.500000 0.500000
#
# Coordination Sequence:
#
# PCOD8031108 Si02
#       8
#     2   2   2   2   2   2   2   2
#     4  11  23  47  71  99 143 188 234 288 352 427
#     4  11  23  44  70 101 138 186 233 292 355 418
#     4  12  24  41  69 101 139 180 235 298 346 414
#     4  12  27  45  68 101 142 187 236 288 356 423
#     4  11  22  44  70 103 141 178 240 292 352 420
#     4  12  26  46  66 100 142 186 237 289 356 415
#     4  11  22  42  68 102 134 184 231 288 356 414
#     4  12  24  41  70 103 139 179 239 291 351 421
#
# _framework density 22.617045000000001
#
# number of rings (size 3 to 8) (size 9 to 14) (size 15 to 20)
#    0.000    0.500    3.750    5.625    1.750    1.000 
#    2.250    0.000    0.000    0.000    0.000    0.000 
#    0.000    0.000    0.000    0.000    0.000    0.000 
#
# Total GULP energy -198228.737216 kJ/mol
# GULP energy per Si atom -12389.296076 kJ/mol
# Density = 2.256557 g / cm^3
# Si number density = 22.617045 Si / 1000 Ang^3
#
#
#
# Elastic Constant Matrix: (Units=GPa)
#
#
# Indices 1 2 3 4 5 6 
#
# 1 91.9502 37.2783 34.9635 3.5508 -0.0858 -7.4095
# 2 37.2783 98.4499 23.0221 -12.1257 5.5231 -10.9270
# 3 34.9635 23.0221 110.2772 17.1402 -5.6352 -14.7081
# 4 3.5508 -12.1257 17.1402 39.8050 -3.2061 -0.7591
# 5 -0.0858 5.5231 -5.6352 -3.2061 33.8099 0.9586
# 6 -7.4095 -10.9270 -14.7081 -0.7591 0.9586 53.3171
#
#
#
# Elastic Compliance Matrix: (Units=1/GPa)
#
#
# Indices 1 2 3 4 5 6 
#
# 1 0.014089 -0.004729 -0.003265 -0.001279 0.000141 0.000067
# 2 -0.004729 0.013353 -0.001985 0.005208 -0.002077 0.001643
# 3 -0.003265 -0.001985 0.011712 -0.005175 0.001713 0.002266
# 4 -0.001279 0.005208 -0.005175 0.029133 0.001050 -0.000142
# 5 0.000141 -0.002077 0.001713 0.001050 0.030315 -0.000464
# 6 0.000067 0.001643 0.002266 -0.000142 -0.000464 0.019733
#
#
# Mechanical properties :
#
#
# Convention : Reuss Voigt Hill
#
# Bulk Modulus (GPa) = 52.09379 54.57834 53.33607
# Shear Modulus (GPa) = 34.55640 39.08063 36.81851
#
# Velocity S-wave (km/s) = 3.91307 4.16135 4.03911
# Velocity P-wave (km/s) = 6.59538 6.87553 6.73692
#
# Compressibility (1/GPa) = 0.01919615
#
# Stress axis : x y z
#
# Youngs Moduli (GPa) = 70.97650 74.89118 85.38596
#
# Poissons Ratio (x) = 0.35419 0.27875
# Poissons Ratio (y) = 0.33568 0.16945
# Poissons Ratio (z) = 0.23171 0.14862
#
# Static dielectric constant tensor:
#      x y z
#    x 4.292300 -0.246360 -0.022890 
#    y -0.246360 4.260280 0.101680 
#    z -0.022890 0.101680 4.093100 
# 
# 
# High freq. dielectric constant tensor:
#      x y z
#    x 1.901850 -0.008370 -0.004240 
#    y -0.008370 1.895890 0.001400 
#    z -0.004240 0.001400 1.890830 
# 
# From -- ./inp_files/187477.got.cif
#   From: 2010.06.25/outbox.cif.g09.slc.cpg/sg2_94_cif.got.tgz:187477.got - 2010.06.27 13:26:56.
