data_PCOD8031906
_publ_section_title
;
Structure prediction by ZEFSAII (Michael W. Deem and Ramdas Pophale) SiO2 
 PCOD8031906
Probable space group: P -1
;
_chemical_formula_sum "Si O2"
_cell_formula_units_Z 16
_cell_length_a 5.151417
_cell_length_b 13.310487
_cell_length_c 13.333408
_cell_angle_alpha 75.671243
_cell_angle_beta 86.074538
_cell_angle_gamma 111.903533
_cell_volume 808.607417
_symmetry_space_group_name_H-M "P -1"
_symmetry_group_IT_number 2
_symmetry_cell_setting 'triclinic'
loop_
_space_group_symop_operation_xyz
x,y,z
-x,-y,-z
loop_
_atom_site_type_symbol
_atom_site_label
_atom_site_fract_x
_atom_site_fract_y
_atom_site_fract_z
Si Si1 0.955776 0.559344 0.139126
Si Si2 0.589727 0.438215 0.733637
Si Si3 0.893268 0.326468 0.098054
Si Si4 0.314887 0.333826 0.375413
Si Si5 0.282691 0.614697 0.463181
Si Si6 0.697558 0.773418 0.790853
Si Si7 0.252985 0.827737 0.494265
Si Si8 0.257340 0.053410 0.404677
O O1 0.698550 0.560780 0.212992
O O2 0.929956 0.437635 0.131937
O O3 0.246209 0.611964 0.182895
O O4 0.980937 0.640461 0.024384
O O5 0.800775 0.569024 0.669925
O O6 0.532864 0.370403 0.646782
O O7 0.556757 0.245783 0.119203
O O8 0.050683 0.253719 0.161608
O O9 0.535799 0.387877 0.444982
O O10 0.454508 0.313572 0.274664
O O11 0.057868 0.212721 0.435822
O O12 0.222910 0.728110 0.442368
O O13 0.000000 0.500000 0.500000
O O14 0.817391 0.901054 0.709347
O O15 0.484538 0.843532 0.571888
O O16 0.342665 0.947363 0.404048
O O17 0.000000 0.000000 0.500000
#
# Coordination Sequence:
#
# PCOD8031906 Si02
#       8
#     2   2   2   2   2   2   2   2
#     4  11  23  40  58  88 121 161 213 269 305 371
#     4  12  24  37  61  87 127 175 205 247 311 364
#     4  11  23  39  61  87 121 159 213 261 322 372
#     4  12  22  37  56  91 133 167 208 238 296 389
#     4  12  25  37  59  89 133 178 210 244 297 386
#     4  12  22  37  64  89 122 171 193 257 321 372
#     4  11  23  39  57  86 134 168 211 250 298 358
#     4  11  23  38  61  89 128 167 208 259 302 373
#
# _framework density 19.787106000000001
#
# number of rings (size 3 to 8) (size 9 to 14) (size 15 to 20)
#    0.000    0.500    6.250    2.625    3.500    2.000 
#    0.000    0.000    0.000    0.000    0.000    5.250 
#    0.000    0.000    0.000    0.000    0.000    0.000 
#
# Total GULP energy -198298.838623 kJ/mol
# GULP energy per Si atom -12393.677414 kJ/mol
# Density = 1.974207 g / cm^3
# Si number density = 19.787106 Si / 1000 Ang^3
#
#
#
# Elastic Constant Matrix: (Units=GPa)
#
#
# Indices 1 2 3 4 5 6 
#
# 1 118.2681 26.8909 40.2614 -4.0262 6.0309 2.9758
# 2 26.8909 90.2057 32.5978 -6.6391 -0.0571 -6.0453
# 3 40.2614 32.5978 93.5272 -5.8664 7.5679 -11.6527
# 4 -4.0262 -6.6391 -5.8664 31.8125 -5.3046 3.2838
# 5 6.0309 -0.0571 7.5679 -5.3046 37.2734 -4.3544
# 6 2.9758 -6.0453 -11.6527 3.2838 -4.3544 32.4157
#
#
#
# Elastic Compliance Matrix: (Units=1/GPa)
#
#
# Indices 1 2 3 4 5 6 
#
# 1 0.010406 -0.001793 -0.004110 0.000297 -0.001155 -0.002952
# 2 -0.001793 0.013174 -0.003654 0.001961 0.001484 0.001309
# 3 -0.004110 -0.003654 0.014483 0.000636 -0.001651 0.004616
# 4 0.000297 0.001961 0.000636 0.032935 0.004256 -0.002197
# 5 -0.001155 0.001484 -0.001651 0.004256 0.028328 0.003163
# 6 -0.002952 0.001309 0.004616 -0.002197 0.003163 0.033671
#
#
# Mechanical properties :
#
#
# Convention : Reuss Voigt Hill
#
# Bulk Modulus (GPa) = 52.77432 55.72237 54.24834
# Shear Modulus (GPa) = 31.56017 33.78371 32.67194
#
# Velocity S-wave (km/s) = 3.99806 4.13650 4.06787
# Velocity P-wave (km/s) = 6.93121 7.14397 7.03839
#
# Compressibility (1/GPa) = 0.01894861
#
# Stress axis : x y z
#
# Youngs Moduli (GPa) = 96.10222 75.90902 69.04432
#
# Poissons Ratio (x) = 0.13614 0.28378
# Poissons Ratio (y) = 0.17235 0.25225
# Poissons Ratio (z) = 0.39499 0.27734
#
# Static dielectric constant tensor:
#      x y z
#    x 3.818350 -0.299650 0.076310 
#    y -0.299650 3.594770 -0.167050 
#    z 0.076310 -0.167050 3.693350 
# 
# 
# High freq. dielectric constant tensor:
#      x y z
#    x 1.790790 -0.012610 0.002420 
#    y -0.012610 1.738750 -0.015870 
#    z 0.002420 -0.015870 1.763160 
# 
# From -- ./inp_files/366885.got.cif
#   From: 2010.06.25/outbox.cif.g09.slc.cpg/sg2_184_cif.got.tgz:366885.got - 2010.06.27 13:26:56.
