data_PCOD8031814
_publ_section_title
;
Structure prediction by ZEFSAII (Michael W. Deem and Ramdas Pophale) SiO2 
 PCOD8031814
Probable space group: P -1
;
_chemical_formula_sum "Si O2"
_cell_formula_units_Z 16
_cell_length_a 10.146551
_cell_length_b 8.768059
_cell_length_c 8.964293
_cell_angle_alpha 107.148445
_cell_angle_beta 109.754463
_cell_angle_gamma 59.452688
_cell_volume 638.911967
_symmetry_space_group_name_H-M "P -1"
_symmetry_group_IT_number 2
_symmetry_cell_setting 'triclinic'
loop_
_space_group_symop_operation_xyz
x,y,z
-x,-y,-z
loop_
_atom_site_type_symbol
_atom_site_label
_atom_site_fract_x
_atom_site_fract_y
_atom_site_fract_z
Si Si1 0.439349 0.704236 0.510021
Si Si2 0.605350 0.860105 0.167500
Si Si3 0.273456 0.334273 0.559080
Si Si4 0.128467 0.903618 0.280625
Si Si5 0.592394 0.189354 0.149931
Si Si6 0.133446 0.711682 0.735155
Si Si7 0.994854 0.681327 0.988706
Si Si8 0.723005 0.905513 0.768856
O O1 0.500000 0.500000 0.500000
O O2 0.542731 0.727774 0.424690
O O3 0.252512 0.811806 0.436465
O O4 0.480239 0.761345 0.699593
O O5 0.736924 0.733501 0.297509
O O6 0.672006 0.969891 0.120692
O O7 0.461877 0.003681 0.253971
O O8 0.547400 0.743377 0.007197
O O9 0.167171 0.550339 0.583187
O O10 0.212989 0.238158 0.386552
O O11 0.223355 0.939029 0.193027
O O12 0.061005 0.768934 0.163277
O O13 0.990637 0.099730 0.331222
O O14 0.706637 0.272695 0.173686
O O15 0.085452 0.663391 0.862074
O O16 0.810750 0.805726 0.923919
O O17 0.000000 0.500000 0.000000
#
# Coordination Sequence:
#
# PCOD8031814 Si02
#       8
#     2   2   2   2   2   2   2   2
#     4  12  25  45  73 110 150 192 242 302 371 436
#     4  11  23  41  72 107 145 195 246 308 361 436
#     4  12  25  44  74 112 149 195 246 304 362 434
#     4  11  25  47  76 101 148 200 238 299 372 436
#     4  11  24  42  68 109 150 190 246 303 372 431
#     4  11  26  47  68 109 148 193 249 302 362 443
#     4  11  27  47  77 105 146 199 245 303 369 443
#     4  11  22  46  75 104 148 194 252 293 369 433
#
# _framework density 25.042573000000001
#
# number of rings (size 3 to 8) (size 9 to 14) (size 15 to 20)
#    0.000    0.750    3.750    4.125    1.750    7.000 
#    0.000    1.250    0.000    0.000    0.000    0.000 
#    0.000    0.000    0.000    0.000    0.000    0.000 
#
# Total GULP energy -198257.435945 kJ/mol
# GULP energy per Si atom -12391.089747 kJ/mol
# Density = 2.498557 g / cm^3
# Si number density = 25.042573 Si / 1000 Ang^3
#
#
#
# Elastic Constant Matrix: (Units=GPa)
#
#
# Indices 1 2 3 4 5 6 
#
# 1 56.6422 33.8527 -2.9282 12.6660 -3.8783 13.2325
# 2 33.8527 139.9780 54.5503 10.2421 5.5835 12.4774
# 3 -2.9282 54.5503 128.0466 17.0881 -0.9389 -3.5081
# 4 12.6660 10.2421 17.0881 43.5152 7.1019 -2.2043
# 5 -3.8783 5.5835 -0.9389 7.1019 25.2347 9.2887
# 6 13.2325 12.4774 -3.5081 -2.2043 9.2887 45.6602
#
#
#
# Elastic Compliance Matrix: (Units=1/GPa)
#
#
# Indices 1 2 3 4 5 6 
#
# 1 0.027775 -0.007684 0.005201 -0.010769 0.012352 -0.008583
# 2 -0.007684 0.011064 -0.005248 0.002408 -0.004435 -0.000181
# 3 0.005201 -0.005248 0.010880 -0.005209 0.003938 -0.000290
# 4 -0.010769 0.002408 -0.005209 0.030047 -0.013113 0.006181
# 5 0.012352 -0.004435 0.003938 -0.013113 0.051170 -0.013108
# 6 -0.008583 -0.000181 -0.000290 0.006181 -0.013108 0.027380
#
#
# Mechanical properties :
#
#
# Convention : Reuss Voigt Hill
#
# Bulk Modulus (GPa) = 29.19017 55.06848 42.12933
# Shear Modulus (GPa) = 26.99820 38.82815 32.91318
#
# Velocity S-wave (km/s) = 3.28699 3.94189 3.62925
# Velocity P-wave (km/s) = 5.10757 6.53878 5.86698
#
# Compressibility (1/GPa) = 0.03425811
#
# Stress axis : x y z
#
# Youngs Moduli (GPa) = 36.00390 90.37998 91.90774
#
# Poissons Ratio (x) = 0.69446 -0.47803
# Poissons Ratio (y) = 0.27665 0.48235
# Poissons Ratio (z) = -0.18726 0.47433
#
# Static dielectric constant tensor:
#      x y z
#    x 5.532480 0.147450 0.302500 
#    y 0.147450 4.559700 0.098120 
#    z 0.302500 0.098120 4.345460 
# 
# 
# High freq. dielectric constant tensor:
#      x y z
#    x 2.002330 0.015460 -0.000060 
#    y 0.015460 1.996870 0.010990 
#    z -0.000060 0.010990 1.998840 
# 
# From -- ./inp_files/245225.got.cif
#   From: 2010.06.25/outbox.cif.g09.slc.cpg/sg2_123_cif.got.tgz:245225.got - 2010.06.27 13:26:56.
