data_PCOD8031497
_publ_section_title
;
Structure prediction by ZEFSAII (Michael W. Deem and Ramdas Pophale) SiO2 
 PCOD8031497
Probable space group: P -1
;
_chemical_formula_sum "Si O2"
_cell_formula_units_Z 12
_cell_length_a 8.813436
_cell_length_b 9.469305
_cell_length_c 7.580838
_cell_angle_alpha 68.718177
_cell_angle_beta 129.285698
_cell_angle_gamma 114.246044
_cell_volume 441.719150
_symmetry_space_group_name_H-M "P -1"
_symmetry_group_IT_number 2
_symmetry_cell_setting 'triclinic'
loop_
_space_group_symop_operation_xyz
x,y,z
-x,-y,-z
loop_
_atom_site_type_symbol
_atom_site_label
_atom_site_fract_x
_atom_site_fract_y
_atom_site_fract_z
Si Si1 0.344098 0.489528 0.047006
Si Si2 0.412991 0.886634 0.332086
Si Si3 0.630995 0.670603 0.439540
Si Si4 0.256053 0.032429 0.855202
Si Si5 0.979623 0.787825 0.196960
Si Si6 0.934180 0.283329 0.324679
O O1 0.230109 0.627370 0.895278
O O2 0.190745 0.321222 0.002122
O O3 0.500000 0.500000 0.000000
O O4 0.466933 0.512217 0.316774
O O5 0.533285 0.751606 0.486843
O O6 0.175143 0.817945 0.204775
O O7 0.500000 0.000000 0.500000
O O8 0.438508 0.980305 0.119515
O O9 0.664500 0.795381 0.245588
O O10 0.852592 0.643419 0.655643
O O11 0.089150 0.055922 0.868786
O O12 0.144639 0.901404 0.693140
O O13 0.027973 0.695997 0.447687
#
# Coordination Sequence:
#
# PCOD8031497 Si02
#       6
#     2   2   2   2   2   2
#     4  12  24  44  71 100 137 178 229 273 334 403
#     4  12  25  42  68 104 139 175 224 283 345 389
#     4  11  24  43  71 101 132 183 226 272 338 402
#     4  11  22  44  69  96 135 177 230 282 319 399
#     4  11  25  41  70 102 138 174 225 282 336 397
#     4  11  23  44  71  99 131 176 238 274 323 405
#
# _framework density 27.166581000000001
#
# number of rings (size 3 to 8) (size 9 to 14) (size 15 to 20)
#    0.000    0.667    5.000    5.500    2.333    0.667 
#    0.000    0.833    0.000    0.000    0.000    0.000 
#    0.000    0.000    0.000    0.000    0.000    0.000 
#
# Total GULP energy -148867.500924 kJ/mol
# GULP energy per Si atom -12405.625077 kJ/mol
# Density = 2.710475 g / cm^3
# Si number density = 27.166581 Si / 1000 Ang^3
#
#
#
# Elastic Constant Matrix: (Units=GPa)
#
#
# Indices 1 2 3 4 5 6 
#
# 1 105.1661 52.0810 28.4271 13.4316 28.5660 -23.8044
# 2 52.0810 133.7244 47.5284 27.8617 16.7943 -18.3989
# 3 28.4271 47.5284 132.5845 26.2522 9.1563 -12.6577
# 4 13.4316 27.8617 26.2522 61.1594 -8.1777 11.0882
# 5 28.5660 16.7943 9.1563 -8.1777 52.0123 2.7344
# 6 -23.8044 -18.3989 -12.6577 11.0882 2.7344 46.6108
#
#
#
# Elastic Compliance Matrix: (Units=1/GPa)
#
#
# Indices 1 2 3 4 5 6 
#
# 1 0.016037 -0.002844 0.000063 -0.005079 -0.009163 0.008830
# 2 -0.002844 0.011046 -0.001917 -0.004588 -0.002580 0.003630
# 3 0.000063 -0.001917 0.009398 -0.003941 -0.001841 0.002873
# 4 -0.005079 -0.004588 -0.003941 0.024672 0.009470 -0.011900
# 5 -0.009163 -0.002580 -0.001841 0.009470 0.027433 -0.010060
# 6 0.008830 0.003630 0.002873 -0.011900 -0.010060 0.031598
#
#
# Mechanical properties :
#
#
# Convention : Reuss Voigt Hill
#
# Bulk Modulus (GPa) = 36.92151 69.72753 53.32452
# Shear Modulus (GPa) = 36.07268 48.18572 42.12920
#
# Velocity S-wave (km/s) = 3.64790 4.21612 3.94226
# Velocity P-wave (km/s) = 5.60028 7.03017 6.35556
#
# Compressibility (1/GPa) = 0.02708448
#
# Stress axis : x y z
#
# Youngs Moduli (GPa) = 62.35702 90.52775 106.40640
#
# Poissons Ratio (x) = 0.25746 -0.00667
# Poissons Ratio (y) = 0.17734 0.20398
# Poissons Ratio (z) = -0.00391 0.17354
#
# Static dielectric constant tensor:
#      x y z
#    x 4.211140 -0.952190 -0.017750 
#    y -0.952190 4.294920 -0.234430 
#    z -0.017750 -0.234430 4.994200 
# 
# 
# High freq. dielectric constant tensor:
#      x y z
#    x 2.121910 -0.007770 0.006650 
#    y -0.007770 2.097250 -0.001770 
#    z 0.006650 -0.001770 2.106330 
# 
# From -- ./inp_files/150548.got.cif
#   From: 2010.06.25/outbox.cif.g09.slc.cpg/sg2_76_cif.got.tgz:150548.got - 2010.06.27 13:26:56.
