data_PCOD8031365
_publ_section_title
;
Structure prediction by ZEFSAII (Michael W. Deem and Ramdas Pophale) SiO2 
 PCOD8031365
Probable space group: P -1
;
_chemical_formula_sum "Si O2"
_cell_formula_units_Z 14
_cell_length_a 9.305651
_cell_length_b 17.550233
_cell_length_c 12.701036
_cell_angle_alpha 31.997801
_cell_angle_beta 143.263472
_cell_angle_gamma 127.348568
_cell_volume 639.770136
_symmetry_space_group_name_H-M "P -1"
_symmetry_group_IT_number 2
_symmetry_cell_setting 'triclinic'
loop_
_space_group_symop_operation_xyz
x,y,z
-x,-y,-z
loop_
_atom_site_type_symbol
_atom_site_label
_atom_site_fract_x
_atom_site_fract_y
_atom_site_fract_z
Si Si1 0.915259 0.135213 0.215635
Si Si2 0.086704 0.941077 0.933303
Si Si3 0.289428 0.619470 0.505844
Si Si4 0.609354 0.863540 0.036036
Si Si5 0.585374 0.054945 0.594103
Si Si6 0.741194 0.659847 0.834590
Si Si7 0.969792 0.557522 0.576762
O O1 0.997286 0.086441 0.201771
O O2 0.053207 0.261388 0.185232
O O3 0.620827 0.191918 0.985245
O O4 0.000000 0.000000 0.500000
O O5 0.316367 0.019547 0.976288
O O6 0.157441 0.789574 0.216101
O O7 0.874693 0.045931 0.756274
O O8 0.582865 0.604580 0.713952
O O9 0.237999 0.531144 0.475368
O O10 0.177200 0.548281 0.620950
O O11 0.836134 0.724334 0.325532
O O12 0.538172 0.944844 0.787327
O O13 0.449032 0.224100 0.339394
O O14 0.500000 0.000000 0.500000
O O15 0.884031 0.516639 0.148677
#
# Coordination Sequence:
#
# PCOD8031365 Si02
#       7
#     2   2   2   2   2   2   2
#     4  12  24  45  67 100 139 179 228 280 333 409
#     4  12  22  44  72 100 133 180 229 283 337 398
#     4  11  22  43  71  98 137 180 219 286 344 396
#     4  12  25  43  70  98 138 179 230 276 336 405
#     4  12  21  39  70  98 131 173 225 283 330 390
#     4  12  24  43  67  99 143 178 223 277 346 399
#     4  11  25  44  66 103 141 171 226 284 342 396
#
# _framework density 21.882859
#
# number of rings (size 3 to 8) (size 9 to 14) (size 15 to 20)
#    0.000    0.286    7.143    2.143    2.000    0.571 
#    2.571    0.714    0.000    0.000    0.000    0.000 
#    0.000    0.000    0.000    0.000    0.000    0.000 
#
# Total GULP energy -173627.662600 kJ/mol
# GULP energy per Si atom -12401.975900 kJ/mol
# Density = 2.183305 g / cm^3
# Si number density = 21.882859 Si / 1000 Ang^3
#
#
#
# Elastic Constant Matrix: (Units=GPa)
#
#
# Indices 1 2 3 4 5 6 
#
# 1 64.4081 12.3082 3.5325 4.2197 0.6598 19.3969
# 2 12.3082 134.7513 30.4464 15.4077 -2.6772 20.9024
# 3 3.5325 30.4464 116.5416 1.6824 -8.8752 -2.2422
# 4 4.2197 15.4077 1.6824 34.9253 -3.3237 0.9846
# 5 0.6598 -2.6772 -8.8752 -3.3237 16.1312 -2.0290
# 6 19.3969 20.9024 -2.2422 0.9846 -2.0290 35.4530
#
#
#
# Elastic Compliance Matrix: (Units=1/GPa)
#
#
# Indices 1 2 3 4 5 6 
#
# 1 0.018948 0.000402 -0.001093 -0.002411 -0.003163 -0.010787
# 2 0.000402 0.009310 -0.002611 -0.004005 -0.001468 -0.005847
# 3 -0.001093 -0.002611 0.009765 0.001263 0.005627 0.003042
# 4 -0.002411 -0.004005 0.001263 0.031200 0.006972 0.003293
# 5 -0.003163 -0.001468 0.005627 0.006972 0.067241 0.006607
# 6 -0.010787 -0.005847 0.003042 0.003293 0.006607 0.038035
#
#
# Mechanical properties :
#
#
# Convention : Reuss Voigt Hill
#
# Bulk Modulus (GPa) = 31.82741 45.36391 38.59566
# Shear Modulus (GPa) = 26.09947 35.26282 30.68114
#
# Velocity S-wave (km/s) = 3.45728 4.01862 3.74848
# Velocity P-wave (km/s) = 5.52386 6.50444 6.03411
#
# Compressibility (1/GPa) = 0.03141946
#
# Stress axis : x y z
#
# Youngs Moduli (GPa) = 52.77589 107.41137 102.41025
#
# Poissons Ratio (x) = -0.04322 0.11194
# Poissons Ratio (y) = -0.02124 0.26739
# Poissons Ratio (z) = 0.05769 0.28044
#
# Static dielectric constant tensor:
#      x y z
#    x 4.086810 0.264380 0.069220 
#    y 0.264380 4.252800 0.216530 
#    z 0.069220 0.216530 3.983810 
# 
# 
# High freq. dielectric constant tensor:
#      x y z
#    x 1.836500 0.018870 -0.002290 
#    y 0.018870 1.873930 0.012460 
#    z -0.002290 0.012460 1.869570 
# 
# From -- ./inp_files/209202.got.cif
#   From: 2010.06.25/outbox.cif.g09.slc.cpg/sg2_105_cif.got.tgz:209202.got - 2010.06.27 13:26:56.
