data_PCOD8031281
_publ_section_title
;
Structure prediction by ZEFSAII (Michael W. Deem and Ramdas Pophale) SiO2 
 PCOD8031281
Probable space group: P -1
;
_chemical_formula_sum "Si O2"
_cell_formula_units_Z 16
_cell_length_a 17.026753
_cell_length_b 9.579931
_cell_length_c 11.565028
_cell_angle_alpha 126.577641
_cell_angle_beta 147.420368
_cell_angle_gamma 45.401340
_cell_volume 723.240141
_symmetry_space_group_name_H-M "P -1"
_symmetry_group_IT_number 2
_symmetry_cell_setting 'triclinic'
loop_
_space_group_symop_operation_xyz
x,y,z
-x,-y,-z
loop_
_atom_site_type_symbol
_atom_site_label
_atom_site_fract_x
_atom_site_fract_y
_atom_site_fract_z
Si Si1 0.829747 0.368741 0.738985
Si Si2 0.183931 0.906336 0.233295
Si Si3 0.325193 0.114313 0.681754
Si Si4 0.827863 0.183631 0.407132
Si Si5 0.590750 0.119814 0.708890
Si Si6 0.811171 0.753886 0.933158
Si Si7 0.308465 0.094764 0.910580
Si Si8 0.373765 0.434047 0.761517
O O1 0.777092 0.295234 0.752522
O O2 0.809622 0.250342 0.549668
O O3 0.732444 0.608203 0.727947
O O4 0.019745 0.318868 0.961315
O O5 0.309279 0.846336 0.253119
O O6 0.214773 0.049669 0.431592
O O7 0.000000 0.000000 0.000000
O O8 0.251951 0.177789 0.751701
O O9 0.325847 0.303906 0.720770
O O10 0.510688 0.936982 0.841783
O O11 0.795178 0.369398 0.378376
O O12 0.686989 0.117368 0.180063
O O13 0.000000 0.000000 0.500000
O O14 0.456146 0.326460 0.691261
O O15 0.500000 0.000000 0.500000
O O16 0.707104 0.983689 0.888148
O O17 0.825858 0.750479 0.090200
O O18 0.500000 0.500000 0.000000
#
# Coordination Sequence:
#
# PCOD8031281 Si02
#       8
#     2   2   2   2   2   2   2   2
#     4  11  25  41  68 104 141 187 242 294 367 427
#     4  12  25  44  71 108 152 189 245 309 364 430
#     4  11  24  43  72 105 145 190 242 303 366 433
#     4  12  24  44  73 103 140 190 242 302 362 440
#     4  12  23  44  71 101 145 196 239 298 358 436
#     4  11  22  43  68 100 141 190 236 293 360 433
#     4  11  22  45  71 100 147 188 235 303 367 428
#     4  12  25  44  73 107 138 195 247 295 366 445
#
# _framework density 22.122665000000001
#
# number of rings (size 3 to 8) (size 9 to 14) (size 15 to 20)
#    0.000    0.500    7.500    0.750    0.000    1.000 
#    0.000    2.500    0.000    0.000    0.000    0.000 
#    0.000    0.000    0.000    0.000    0.000    0.000 
#
# Total GULP energy -198306.700538 kJ/mol
# GULP energy per Si atom -12394.168784 kJ/mol
# Density = 2.207231 g / cm^3
# Si number density = 22.122665 Si / 1000 Ang^3
#
#
#
# Elastic Constant Matrix: (Units=GPa)
#
#
# Indices 1 2 3 4 5 6 
#
# 1 168.5014 62.1191 32.3388 13.8900 -12.2107 15.8620
# 2 62.1191 125.1438 32.5260 9.3266 -5.0588 6.7592
# 3 32.3388 32.5260 121.2612 18.7115 -7.8905 5.0121
# 4 13.8900 9.3266 18.7115 37.6358 -0.4837 -1.8616
# 5 -12.2107 -5.0588 -7.8905 -0.4837 35.3181 6.0167
# 6 15.8620 6.7592 5.0121 -1.8616 6.0167 35.9223
#
#
#
# Elastic Compliance Matrix: (Units=1/GPa)
#
#
# Indices 1 2 3 4 5 6 
#
# 1 0.007958 -0.003359 -0.000611 -0.001932 0.002677 -0.003345
# 2 -0.003359 0.010154 -0.001761 -0.000411 -0.000073 -0.000191
# 3 -0.000611 -0.001761 0.009705 -0.004203 0.001866 -0.001283
# 4 -0.001932 -0.000411 -0.004203 0.029617 -0.001832 0.003359
# 5 0.002677 -0.000073 0.001866 -0.001832 0.030758 -0.006675
# 6 -0.003345 -0.000191 -0.001283 0.003359 -0.006675 0.030822
#
#
# Mechanical properties :
#
#
# Convention : Reuss Voigt Hill
#
# Bulk Modulus (GPa) = 61.14160 74.31935 67.73047
# Shear Modulus (GPa) = 36.78413 40.97008 38.87710
#
# Velocity S-wave (km/s) = 4.08209 4.30810 4.19661
# Velocity P-wave (km/s) = 7.06509 7.64287 7.35965
#
# Compressibility (1/GPa) = 0.01635548
#
# Stress axis : x y z
#
# Youngs Moduli (GPa) = 125.65467 98.48579 103.04043
#
# Poissons Ratio (x) = 0.33078 0.06294
# Poissons Ratio (y) = 0.42203 0.18148
# Poissons Ratio (z) = 0.07675 0.17346
#
# Static dielectric constant tensor:
#      x y z
#    x 4.115490 0.207000 -0.037490 
#    y 0.207000 3.871950 0.161770 
#    z -0.037490 0.161770 4.183380 
# 
# 
# High freq. dielectric constant tensor:
#      x y z
#    x 1.877020 0.011870 -0.007980 
#    y 0.011870 1.861270 0.013010 
#    z -0.007980 0.013010 1.881230 
# 
# From -- ./inp_files/462509.got.cif
#   From: 2010.06.25/outbox.cif.g09.slc.cpg/sg2_232_cif.got.tgz:462509.got - 2010.06.27 13:26:56.
