data_PCOD8031192
_publ_section_title
;
Structure prediction by ZEFSAII (Michael W. Deem and Ramdas Pophale) SiO2 
 PCOD8031192
Probable space group: P -1
;
_chemical_formula_sum "Si O2"
_cell_formula_units_Z 16
_cell_length_a 18.074753
_cell_length_b 8.454033
_cell_length_c 9.072593
_cell_angle_alpha 113.524784
_cell_angle_beta 92.326247
_cell_angle_gamma 39.802804
_cell_volume 725.301396
_symmetry_space_group_name_H-M "P -1"
_symmetry_group_IT_number 2
_symmetry_cell_setting 'triclinic'
loop_
_space_group_symop_operation_xyz
x,y,z
-x,-y,-z
loop_
_atom_site_type_symbol
_atom_site_label
_atom_site_fract_x
_atom_site_fract_y
_atom_site_fract_z
Si Si1 0.887192 0.772854 0.287667
Si Si2 0.366513 0.292408 0.520339
Si Si3 0.119920 0.159200 0.247274
Si Si4 0.731266 0.879553 0.532093
Si Si5 0.502244 0.521775 0.683245
Si Si6 0.246145 0.864106 0.858955
Si Si7 0.393949 0.308292 0.197582
Si Si8 0.893042 0.079498 0.596096
O O1 0.778028 0.847404 0.361115
O O2 0.022031 0.445097 0.237808
O O3 0.876060 0.823317 0.128705
O O4 0.852602 0.025543 0.445527
O O5 0.259557 0.343973 0.538470
O O6 0.296081 0.593796 0.689921
O O7 0.413185 0.218157 0.331381
O O8 0.500000 0.000000 0.500000
O O9 0.183632 0.185826 0.361712
O O10 0.056945 0.128761 0.334250
O O11 0.216124 0.886275 0.036468
O O12 0.579679 0.217417 0.654571
O O13 0.500000 0.500000 0.500000
O O14 0.357093 0.797222 0.836014
O O15 0.575030 0.549821 0.760269
O O16 0.241738 0.566751 0.234801
O O17 0.500000 0.000000 0.000000
O O18 0.000000 0.000000 0.500000
#
# Coordination Sequence:
#
# PCOD8031192 Si02
#       8
#     2   2   2   2   2   2   2   2
#     4  11  23  46  71  95 138 193 239 279 360 426
#     4  12  25  42  67 103 143 186 225 290 369 426
#     4  11  27  44  71 108 133 187 248 293 345 434
#     4  11  22  42  71  97 132 184 239 280 348 425
#     4  12  20  45  69  96 138 192 223 285 362 427
#     4  12  25  44  71 104 148 181 236 296 362 419
#     4  12  27  43  70 108 143 179 242 295 356 426
#     4  11  24  47  73 100 146 188 234 297 364 426
#
# _framework density 22.059795999999999
#
# number of rings (size 3 to 8) (size 9 to 14) (size 15 to 20)
#    0.000    0.500    7.500    1.875    7.000    0.500 
#    0.000    3.750    0.000    0.000    0.000    0.000 
#    0.000    0.000    0.000    0.000    0.000    0.000 
#
# Total GULP energy -198256.016184 kJ/mol
# GULP energy per Si atom -12391.001011 kJ/mol
# Density = 2.200959 g / cm^3
# Si number density = 22.059796 Si / 1000 Ang^3
#
#
#
# Elastic Constant Matrix: (Units=GPa)
#
#
# Indices 1 2 3 4 5 6 
#
# 1 141.3328 37.7016 52.9589 -1.8018 -10.2821 6.0581
# 2 37.7016 119.2690 18.9752 -1.4033 -5.4075 -4.9293
# 3 52.9589 18.9752 109.2027 -6.0809 -15.8996 8.3979
# 4 -1.8018 -1.4033 -6.0809 35.3782 4.7427 -8.6860
# 5 -10.2821 -5.4075 -15.8996 4.7427 23.6493 0.2087
# 6 6.0581 -4.9293 8.3979 -8.6860 0.2087 27.1615
#
#
#
# Elastic Compliance Matrix: (Units=1/GPa)
#
#
# Indices 1 2 3 4 5 6 
#
# 1 0.009284 -0.002346 -0.003862 -0.000815 0.001081 -0.001571
# 2 -0.002346 0.009359 -0.000567 0.000722 0.000571 0.002623
# 3 -0.003862 -0.000567 0.012313 0.000297 0.006437 -0.003003
# 4 -0.000815 0.000722 0.000297 0.031725 -0.006444 0.010416
# 5 0.001081 0.000571 0.006437 -0.006444 0.048545 -0.004561
# 6 -0.001571 0.002623 -0.003003 0.010416 -0.004561 0.041938
#
#
# Mechanical properties :
#
#
# Convention : Reuss Voigt Hill
#
# Bulk Modulus (GPa) = 57.44902 65.45290 61.45096
# Shear Modulus (GPa) = 28.98283 34.58238 31.78261
#
# Velocity S-wave (km/s) = 3.62861 3.96367 3.79984
# Velocity P-wave (km/s) = 6.60717 7.11918 6.86795
#
# Compressibility (1/GPa) = 0.01740674
#
# Stress axis : x y z
#
# Youngs Moduli (GPa) = 107.71277 106.84963 81.21303
#
# Poissons Ratio (x) = 0.25065 0.31364
# Poissons Ratio (y) = 0.25267 0.04605
# Poissons Ratio (z) = 0.41597 0.06059
#
# Static dielectric constant tensor:
#      x y z
#    x 4.148570 0.078470 -0.141920 
#    y 0.078470 4.134240 -0.017080 
#    z -0.141920 -0.017080 3.997880 
# 
# 
# High freq. dielectric constant tensor:
#      x y z
#    x 1.864950 0.001330 -0.009700 
#    y 0.001330 1.889950 0.000020 
#    z -0.009700 0.000020 1.854370 
# 
# From -- ./inp_files/297770.got.cif
#   From: 2010.06.25/outbox.cif.g09.slc.cpg/sg2_149_cif.got.tgz:297770.got - 2010.06.27 13:26:56.
