data_PCOD8031524
_publ_section_title
;
Structure prediction by ZEFSAII (Michael W. Deem and Ramdas Pophale) SiO2 
 PCOD8031524
Probable space group: P -1
;
_chemical_formula_sum "Si O2"
_cell_formula_units_Z 14
_cell_length_a 16.517841
_cell_length_b 7.808505
_cell_length_c 10.639974
_cell_angle_alpha 57.879158
_cell_angle_beta 138.721091
_cell_angle_gamma 94.498131
_cell_volume 627.461175
_symmetry_space_group_name_H-M "P -1"
_symmetry_group_IT_number 2
_symmetry_cell_setting 'triclinic'
loop_
_space_group_symop_operation_xyz
x,y,z
-x,-y,-z
loop_
_atom_site_type_symbol
_atom_site_label
_atom_site_fract_x
_atom_site_fract_y
_atom_site_fract_z
Si Si1 0.654099 0.678704 0.759658
Si Si2 0.203546 0.494437 0.752786
Si Si3 0.165980 0.811959 0.972311
Si Si4 0.881290 0.783967 0.390371
Si Si5 0.673360 0.098043 0.664607
Si Si6 0.334551 0.721278 0.674321
Si Si7 0.907680 0.764318 0.716470
O O1 0.727277 0.479325 0.812125
O O2 0.478123 0.824007 0.470019
O O3 0.729017 0.831314 0.775263
O O4 0.674806 0.587313 0.963714
O O5 0.228440 0.264195 0.793536
O O6 0.218397 0.659902 0.605611
O O7 0.044328 0.632858 0.578777
O O8 0.210421 0.917520 0.096349
O O9 0.002480 0.881870 0.785356
O O10 0.175905 0.931918 0.807247
O O11 0.887967 0.711057 0.570832
O O12 0.653406 0.283016 0.460643
O O13 0.259642 0.009554 0.517988
O O14 0.500000 0.500000 0.000000
O O15 0.000000 0.500000 0.000000
#
# Coordination Sequence:
#
# PCOD8031524 Si02
#       7
#     2   2   2   2   2   2   2
#     4  11  22  45  69  98 140 178 240 288 346 420
#     4  11  22  44  70  99 136 185 230 289 355 419
#     4  12  23  44  73 100 131 189 238 289 348 417
#     4  11  24  43  73 102 131 181 244 289 346 418
#     4  11  26  42  67 104 141 184 232 290 351 424
#     4  12  26  45  67 101 147 188 224 291 364 414
#     4  12  27  45  70 104 140 182 237 297 347 416
#
# _framework density 22.312137
#
# number of rings (size 3 to 8) (size 9 to 14) (size 15 to 20)
#    0.000    0.571    5.714    2.571    2.000    0.571 
#    0.000    0.714    0.000    0.000    0.000    0.000 
#    0.000    0.000    0.000    0.000    0.000    0.000 
#
# Total GULP energy -173466.664420 kJ/mol
# GULP energy per Si atom -12390.476030 kJ/mol
# Density = 2.226135 g / cm^3
# Si number density = 22.312137 Si / 1000 Ang^3
#
#
#
# Elastic Constant Matrix: (Units=GPa)
#
#
# Indices 1 2 3 4 5 6 
#
# 1 75.7739 19.6078 25.3299 -7.0510 -15.8631 -8.3782
# 2 19.6078 97.8226 28.6726 -9.0419 5.3753 -6.0496
# 3 25.3299 28.6726 87.2726 -18.6478 -4.4986 -9.5928
# 4 -7.0510 -9.0419 -18.6478 42.7801 -0.4901 -3.0953
# 5 -15.8631 5.3753 -4.4986 -0.4901 41.3778 -6.9156
# 6 -8.3782 -6.0496 -9.5928 -3.0953 -6.9156 18.2161
#
#
#
# Elastic Compliance Matrix: (Units=1/GPa)
#
#
# Indices 1 2 3 4 5 6 
#
# 1 0.017678 -0.002528 -0.002342 0.002154 0.008489 0.009647
# 2 -0.002528 0.011882 -0.003145 0.000704 -0.002817 0.000178
# 3 -0.002342 -0.003145 0.015561 0.006353 0.002641 0.008155
# 4 0.002154 0.000704 0.006353 0.027453 0.003517 0.010570
# 5 0.008489 -0.002817 0.002641 0.003517 0.030906 0.016690
# 6 0.009647 0.000178 0.008155 0.010570 0.016690 0.071819
#
#
# Mechanical properties :
#
#
# Convention : Reuss Voigt Hill
#
# Bulk Modulus (GPa) = 34.37485 45.34330 39.85908
# Shear Modulus (GPa) = 24.87208 32.95870 28.91539
#
# Velocity S-wave (km/s) = 3.34238 3.84756 3.60383
# Velocity P-wave (km/s) = 5.50774 6.33282 5.93464
#
# Compressibility (1/GPa) = 0.02909103
#
# Stress axis : x y z
#
# Youngs Moduli (GPa) = 56.56602 84.16093 64.26147
#
# Poissons Ratio (x) = 0.21274 0.15053
# Poissons Ratio (y) = 0.14298 0.20212
# Poissons Ratio (z) = 0.13250 0.26471
#
# Static dielectric constant tensor:
#      x y z
#    x 2.251810 1.039970 4.299880 
#    y 1.039970 3.648980 -2.421890 
#    z 4.299880 -2.421890 -7.132970 
# 
# 
# High freq. dielectric constant tensor:
#      x y z
#    x 1.875770 0.005990 -0.008340 
#    y 0.005990 1.878070 -0.011620 
#    z -0.008340 -0.011620 1.882850 
# 
# From -- ./inp_files/388731.got.cif
#   From: 2010.06.25/outbox.cif.g09.slc.cpg/sg2_195_cif.got.tgz:388731.got - 2010.06.27 13:26:56.
