data_PCOD8031358
_publ_section_title
;
Structure prediction by ZEFSAII (Michael W. Deem and Ramdas Pophale) SiO2 
 PCOD8031358
Probable space group: P -1
;
_chemical_formula_sum "Si O2"
_cell_formula_units_Z 16
_cell_length_a 16.861738
_cell_length_b 8.853232
_cell_length_c 11.250560
_cell_angle_alpha 52.069402
_cell_angle_beta 139.489378
_cell_angle_gamma 98.982049
_cell_volume 683.571562
_symmetry_space_group_name_H-M "P -1"
_symmetry_group_IT_number 2
_symmetry_cell_setting 'triclinic'
loop_
_space_group_symop_operation_xyz
x,y,z
-x,-y,-z
loop_
_atom_site_type_symbol
_atom_site_label
_atom_site_fract_x
_atom_site_fract_y
_atom_site_fract_z
Si Si1 0.186656 0.435447 0.391644
Si Si2 0.145826 0.428966 0.778920
Si Si3 0.374979 0.865322 0.333083
Si Si4 0.937657 0.370453 0.163037
Si Si5 0.179126 0.653181 0.513478
Si Si6 0.629344 0.809076 0.491246
Si Si7 0.589348 0.264491 0.298360
Si Si8 0.894298 0.126394 0.043594
O O1 0.212182 0.461522 0.545084
O O2 0.349589 0.265368 0.588547
O O3 0.096381 0.321876 0.331008
O O4 0.083590 0.705640 0.091673
O O5 0.077042 0.615482 0.718938
O O6 0.248640 0.483178 0.792881
O O7 0.000000 0.500000 0.500000
O O8 0.260728 0.153193 0.086975
O O9 0.507967 0.789027 0.428407
O O10 0.452976 0.726090 0.614698
O O11 0.280966 0.780896 0.207559
O O12 0.935181 0.155235 0.211403
O O13 0.796648 0.626658 0.826784
O O14 0.241197 0.802544 0.476305
O O15 0.999570 0.856882 0.241500
O O16 0.578623 0.076107 0.309716
O O17 0.500000 0.500000 0.000000
#
# Coordination Sequence:
#
# PCOD8031358 Si02
#       8
#     2   2   2   2   2   2   2   2
#     4  11  22  43  71 104 142 188 236 291 351 420
#     4  12  24  44  72 105 144 184 228 293 356 420
#     4  12  25  47  69 104 143 188 235 287 365 417
#     4  11  23  42  73 104 142 187 236 289 355 411
#     4  12  24  43  73 104 141 182 242 288 352 412
#     4  11  25  45  72  99 146 187 233 292 357 421
#     4  12  26  46  72 104 138 186 242 289 349 426
#     4  11  23  41  72 105 137 182 240 297 340 417
#
# _framework density 23.406475
#
# number of rings (size 3 to 8) (size 9 to 14) (size 15 to 20)
#    0.000    0.500    5.000    4.500    1.750    2.500 
#    0.000    2.500    0.000    0.000    0.000    0.000 
#    0.000    0.000    0.000    0.000    0.000    0.000 
#
# Total GULP energy -198297.884356 kJ/mol
# GULP energy per Si atom -12393.617772 kJ/mol
# Density = 2.335320 g / cm^3
# Si number density = 23.406475 Si / 1000 Ang^3
#
#
#
# Elastic Constant Matrix: (Units=GPa)
#
#
# Indices 1 2 3 4 5 6 
#
# 1 185.8269 86.5772 45.1616 1.8180 0.4103 -21.0310
# 2 86.5772 144.7690 31.4323 3.6004 -2.6421 -17.4246
# 3 45.1616 31.4323 72.6287 -4.0397 -3.1624 -11.4962
# 4 1.8180 3.6004 -4.0397 26.4031 -0.6642 -3.2593
# 5 0.4103 -2.6421 -3.1624 -0.6642 32.5864 1.1913
# 6 -21.0310 -17.4246 -11.4962 -3.2593 1.1913 43.2860
#
#
#
# Elastic Compliance Matrix: (Units=1/GPa)
#
#
# Indices 1 2 3 4 5 6 
#
# 1 0.008214 -0.004048 -0.003169 -0.000331 -0.000801 0.001517
# 2 -0.004048 0.009886 -0.001559 -0.001107 0.000624 0.001498
# 3 -0.003169 -0.001559 0.017079 0.003402 0.001546 0.002582
# 4 -0.000331 -0.001107 0.003402 0.038988 0.000922 0.003207
# 5 -0.000801 0.000624 0.001546 0.000922 0.030936 -0.000510
# 6 0.001517 0.001498 0.002582 0.003207 -0.000510 0.025384
#
#
# Mechanical properties :
#
#
# Convention : Reuss Voigt Hill
#
# Bulk Modulus (GPa) = 56.72824 81.06298 68.89561
# Shear Modulus (GPa) = 32.48567 36.45866 34.47216
#
# Velocity S-wave (km/s) = 3.72948 3.95097 3.84182
# Velocity P-wave (km/s) = 6.54478 7.45127 7.01269
#
# Compressibility (1/GPa) = 0.01762790
#
# Stress axis : x y z
#
# Youngs Moduli (GPa) = 121.73961 101.15129 58.55151
#
# Poissons Ratio (x) = 0.40948 0.18555
# Poissons Ratio (y) = 0.49282 0.09126
# Poissons Ratio (z) = 0.38579 0.15765
#
# Static dielectric constant tensor:
#      x y z
#    x 4.781260 0.036840 -0.035290 
#    y 0.036840 4.517660 0.053760 
#    z -0.035290 0.053760 3.924800 
# 
# 
# High freq. dielectric constant tensor:
#      x y z
#    x 1.945750 0.004490 -0.004600 
#    y 0.004490 1.932190 0.002240 
#    z -0.004600 0.002240 1.901170 
# 
# From -- ./inp_files/461921.got.cif
#   From: 2010.06.25/outbox.cif.g09.slc.cpg/sg2_231_cif.got.tgz:461921.got - 2010.06.27 13:26:56.
