data_PCOD8031339
_publ_section_title
;
Structure prediction by ZEFSAII (Michael W. Deem and Ramdas Pophale) SiO2 
 PCOD8031339
Probable space group: P -1
;
_chemical_formula_sum "Si O2"
_cell_formula_units_Z 16
_cell_length_a 8.536729
_cell_length_b 9.167610
_cell_length_c 15.701593
_cell_angle_alpha 79.637036
_cell_angle_beta 73.218063
_cell_angle_gamma 131.815842
_cell_volume 747.950910
_symmetry_space_group_name_H-M "P -1"
_symmetry_group_IT_number 2
_symmetry_cell_setting 'triclinic'
loop_
_space_group_symop_operation_xyz
x,y,z
-x,-y,-z
loop_
_atom_site_type_symbol
_atom_site_label
_atom_site_fract_x
_atom_site_fract_y
_atom_site_fract_z
Si Si1 0.163008 0.687152 0.525033
Si Si2 0.618244 0.225036 0.917479
Si Si3 0.028051 0.133060 0.403664
Si Si4 0.283889 0.451797 0.002412
Si Si5 0.751261 0.914173 0.152705
Si Si6 0.127095 0.564472 0.724357
Si Si7 0.592509 0.482318 0.213884
Si Si8 0.312628 0.004606 0.668105
O O1 0.169641 0.583257 0.615262
O O2 0.000000 0.500000 0.500000
O O3 0.027323 0.746002 0.561303
O O4 0.447091 0.903413 0.424886
O O5 0.419261 0.169486 0.893721
O O6 0.846361 0.316790 0.816461
O O7 0.727421 0.406544 0.955432
O O8 0.500000 0.000000 0.000000
O O9 0.302191 0.321168 0.296721
O O10 0.825265 0.970208 0.375239
O O11 0.000000 0.000000 0.500000
O O12 0.364374 0.550742 0.884032
O O13 0.500000 0.500000 0.000000
O O14 0.022370 0.179256 0.073613
O O15 0.772516 0.750513 0.170798
O O16 0.617833 0.872916 0.265889
O O17 0.335049 0.600508 0.726975
O O18 0.136004 0.739848 0.739453
#
# Coordination Sequence:
#
# PCOD8031339 Si02
#       8
#     2   2   2   2   2   2   2   2
#     4  11  23  42  68  97 132 175 226 278 338 404
#     4  12  27  46  70 101 136 182 231 279 333 408
#     4  11  23  44  67 100 137 176 226 279 341 403
#     4  12  26  46  70 101 141 178 227 281 341 396
#     4  12  25  46  70 101 139 180 227 279 341 402
#     4  11  24  44  65  99 136 174 228 277 339 399
#     4  12  25  42  70 101 138 180 225 280 340 406
#     4  11  22  43  70  96 135 180 221 282 339 397
#
# _framework density 21.391780000000001
#
# number of rings (size 3 to 8) (size 9 to 14) (size 15 to 20)
#    0.000    0.500    2.500    7.875    3.500    2.000 
#    2.250    2.500    0.000    0.000    0.000    0.000 
#    0.000    0.000    0.000    0.000    0.000    0.000 
#
# Total GULP energy -198410.314688 kJ/mol
# GULP energy per Si atom -12400.644668 kJ/mol
# Density = 2.134309 g / cm^3
# Si number density = 21.391780 Si / 1000 Ang^3
#
#
#
# Elastic Constant Matrix: (Units=GPa)
#
#
# Indices 1 2 3 4 5 6 
#
# 1 127.0100 33.9432 55.0109 5.1202 12.0347 6.8629
# 2 33.9432 107.3995 56.0630 13.5695 9.6790 10.9752
# 3 55.0109 56.0630 154.1790 9.2326 2.3884 3.7184
# 4 5.1202 13.5695 9.2326 42.2012 8.4654 -0.3462
# 5 12.0347 9.6790 2.3884 8.4654 49.9535 -5.5434
# 6 6.8629 10.9752 3.7184 -0.3462 -5.5434 26.0842
#
#
#
# Elastic Compliance Matrix: (Units=1/GPa)
#
#
# Indices 1 2 3 4 5 6 
#
# 1 0.009804 -0.001133 -0.003015 0.000275 -0.002284 -0.002154
# 2 -0.001133 0.012760 -0.003919 -0.002727 -0.002104 -0.004995
# 3 -0.003015 -0.003919 0.008967 -0.000588 0.001316 0.001436
# 4 0.000275 -0.002727 -0.000588 0.025424 -0.003740 0.000701
# 5 -0.002284 -0.002104 0.001316 -0.003740 0.022210 0.005969
# 6 -0.002154 -0.004995 0.001436 0.000701 0.005969 0.042079
#
#
# Mechanical properties :
#
#
# Convention : Reuss Voigt Hill
#
# Bulk Modulus (GPa) = 64.95313 75.40251 70.17782
# Shear Modulus (GPa) = 35.08523 39.88588 37.48555
#
# Velocity S-wave (km/s) = 4.05424 4.32272 4.19063
# Velocity P-wave (km/s) = 7.23501 7.76141 7.50282
#
# Compressibility (1/GPa) = 0.01539572
#
# Stress axis : x y z
#
# Youngs Moduli (GPa) = 102.00023 78.37286 111.52091
#
# Poissons Ratio (x) = 0.08883 0.33624
# Poissons Ratio (y) = 0.11561 0.43704
# Poissons Ratio (z) = 0.30753 0.30714
#
# Static dielectric constant tensor:
#      x y z
#    x 4.104340 -0.422950 -0.101620 
#    y -0.422950 4.527700 0.915670 
#    z -0.101620 0.915670 3.957350 
# 
# 
# High freq. dielectric constant tensor:
#      x y z
#    x 1.845490 0.008640 -0.002630 
#    y 0.008640 1.837190 0.004310 
#    z -0.002630 0.004310 1.866210 
# 
# From -- ./inp_files/494864.got.cif
#   From: 2010.06.25/outbox.cif.g09.slc.cpg/sg2_248_cif.got.tgz:494864.got - 2010.06.27 13:26:56.
