data_PCOD8031995
_publ_section_title
;
Structure prediction by ZEFSAII (Michael W. Deem and Ramdas Pophale) SiO2 
 PCOD8031995
Probable space group: P -1
;
_chemical_formula_sum "Si O2"
_cell_formula_units_Z 16
_cell_length_a 22.402669
_cell_length_b 13.842028
_cell_length_c 22.446878
_cell_angle_alpha 150.306451
_cell_angle_beta 167.539526
_cell_angle_gamma 29.781050
_cell_volume 731.226150
_symmetry_space_group_name_H-M "P -1"
_symmetry_group_IT_number 2
_symmetry_cell_setting 'triclinic'
loop_
_space_group_symop_operation_xyz
x,y,z
-x,-y,-z
loop_
_atom_site_type_symbol
_atom_site_label
_atom_site_fract_x
_atom_site_fract_y
_atom_site_fract_z
Si Si1 0.654186 0.122207 0.850235
Si Si2 0.569478 0.899179 0.252536
Si Si3 0.973271 0.304962 0.994747
Si Si4 0.519872 0.670956 0.566376
Si Si5 0.405117 0.810758 0.837031
Si Si6 0.984042 0.550308 0.251632
Si Si7 0.158644 0.756815 0.689736
Si Si8 0.144964 0.327764 0.403436
O O1 0.453322 0.166805 0.736465
O O2 0.422687 0.155110 0.589045
O O3 0.847540 0.904883 0.920908
O O4 0.865525 0.274814 0.131786
O O5 0.856282 0.841759 0.466328
O O6 0.488586 0.136048 0.298079
O O7 0.355415 0.791650 0.952983
O O8 0.896315 0.457036 0.055241
O O9 0.171322 0.404029 0.198459
O O10 0.698580 0.283516 0.677461
O O11 0.500000 0.500000 0.500000
O O12 0.227496 0.868441 0.755731
O O13 0.209325 0.699799 0.543700
O O14 0.693942 0.666262 0.059309
O O15 0.500000 0.000000 0.000000
O O16 0.107256 0.369527 0.318709
O O17 0.202655 0.523881 0.596960
#
# Coordination Sequence:
#
# PCOD8031995 Si02
#       8
#     2   2   2   2   2   2   2   2
#     4  11  23  40  63  92 129 168 210 259 310 372
#     4  11  23  40  62  91 126 164 207 256 310 371
#     4  11  24  43  65  93 126 163 210 260 312 372
#     4  11  24  43  65  93 127 162 207 261 313 373
#     4  11  24  43  65  94 128 164 210 262 315 374
#     4  11  24  43  66  94 128 165 211 263 312 372
#     4  11  23  40  62  91 127 163 207 258 309 372
#     4  11  23  40  62  92 129 167 211 259 311 370
#
# _framework density 21.881056000000001
#
# number of rings (size 3 to 8) (size 9 to 14) (size 15 to 20)
#    0.000    1.000    0.000    9.000    0.000    7.000 
#    0.000    0.000    0.000    0.000    0.000    0.000 
#    0.000    0.000    0.000    0.000    0.000    0.000 
#
# Total GULP energy -198315.254705 kJ/mol
# GULP energy per Si atom -12394.703419 kJ/mol
# Density = 2.183125 g / cm^3
# Si number density = 21.881056 Si / 1000 Ang^3
#
#
#
# Elastic Constant Matrix: (Units=GPa)
#
#
# Indices 1 2 3 4 5 6 
#
# 1 27.2515 32.8501 8.2919 29.2470 6.3546 -10.3515
# 2 32.8501 57.6155 4.4676 6.8134 8.1748 11.5650
# 3 8.2919 4.4676 92.6746 4.3553 18.1981 -4.2097
# 4 29.2470 6.8134 4.3553 32.9832 7.0599 7.4148
# 5 6.3546 8.1748 18.1981 7.0599 42.8389 3.8609
# 6 -10.3515 11.5650 -4.2097 7.4148 3.8609 32.1243
#
#
#
# Elastic Compliance Matrix: (Units=1/GPa)
#
#
# Indices 1 2 3 4 5 6 
#
# 1 -0.035651 0.022068 -0.000306 0.033568 -0.001892 -0.026993
# 2 0.022068 0.005590 -0.000436 -0.022725 -0.001352 0.010449
# 3 -0.000306 -0.000436 0.011973 -0.000673 -0.005062 0.002391
# 4 0.033568 -0.022725 -0.000673 0.001602 -0.002317 0.018818
# 5 -0.001892 -0.001352 -0.005062 -0.002317 0.026726 -0.003464
# 6 -0.026993 0.010449 0.002391 0.018818 -0.003464 0.015055
#
#
# Mechanical properties :
#
#
# Convention : Reuss Voigt Hill
#
# Bulk Modulus (GPa) = 40.71176 29.86228 35.28702
# Shear Modulus (GPa) = -545.28725 30.38477 -257.45124
#
# Velocity S-wave (km/s) = -15.80336 3.73048 -10.85886
# Velocity P-wave (km/s) = 17.72988 5.67737 11.87679
#
# Compressibility (1/GPa) = 0.02456293
#
# Stress axis : x y z
#
# Youngs Moduli (GPa) = -28.04932 178.89968 83.52024
#
# Poissons Ratio (x) = -3.94794 0.02558
# Poissons Ratio (y) = 0.61899 0.03641
# Poissons Ratio (z) = -0.00859 0.07798
#
# Static dielectric constant tensor:
#      x y z
#    x 4.007450 0.012240 0.158390 
#    y 0.012240 3.882650 0.077520 
#    z 0.158390 0.077520 4.291490 
# 
# 
# High freq. dielectric constant tensor:
#      x y z
#    x 1.859200 0.005330 0.009490 
#    y 0.005330 1.853400 0.003920 
#    z 0.009490 0.003920 1.887870 
# 
# From -- ./inp_files/614221.got.cif
#   From: 2010.06.25/outbox.cif.g09.slc.cpg/sg2_308_cif.got.tgz:614221.got - 2010.06.27 13:26:56.
