data_PCOD8031152
_publ_section_title
;
Structure prediction by ZEFSAII (Michael W. Deem and Ramdas Pophale) SiO2 
 PCOD8031152
Probable space group: P -1
;
_chemical_formula_sum "Si O2"
_cell_formula_units_Z 16
_cell_length_a 14.762197
_cell_length_b 8.174174
_cell_length_c 9.172898
_cell_angle_alpha 85.915868
_cell_angle_beta 79.264124
_cell_angle_gamma 136.540180
_cell_volume 712.283826
_symmetry_space_group_name_H-M "P -1"
_symmetry_group_IT_number 2
_symmetry_cell_setting 'triclinic'
loop_
_space_group_symop_operation_xyz
x,y,z
-x,-y,-z
loop_
_atom_site_type_symbol
_atom_site_label
_atom_site_fract_x
_atom_site_fract_y
_atom_site_fract_z
Si Si1 0.824777 0.060577 0.561141
Si Si2 0.664802 0.758877 0.920639
Si Si3 0.119177 0.494238 0.557004
Si Si4 0.839526 0.741595 0.057343
Si Si5 0.683154 0.681609 0.363358
Si Si6 0.114390 0.549435 0.877676
Si Si7 0.418808 0.757028 0.444396
Si Si8 0.371048 0.092911 0.817012
O O1 0.824382 0.256100 0.533451
O O2 0.989840 0.239547 0.524005
O O3 0.720215 0.868752 0.735701
O O4 0.772706 0.896604 0.444803
O O5 0.500000 0.500000 0.000000
O O6 0.755704 0.730532 0.960469
O O7 0.676826 0.944304 0.999101
O O8 0.058032 0.420106 0.744657
O O9 0.253172 0.557848 0.491684
O O10 0.786014 0.704385 0.238038
O O11 0.832191 0.536171 0.040047
O O12 0.000000 0.000000 0.000000
O O13 0.562059 0.397516 0.478337
O O14 0.604507 0.696495 0.274920
O O15 0.245601 0.839647 0.783973
O O16 0.000000 0.500000 0.000000
O O17 0.490829 0.835027 0.257200
O O18 0.500000 0.000000 0.500000
#
# Coordination Sequence:
#
# PCOD8031152 Si02
#       8
#     2   2   2   2   2   2   2   2
#     4  11  24  46  68 100 147 186 226 295 363 419
#     4  11  26  48  68 102 148 184 236 293 362 422
#     4  11  24  43  68 104 141 184 232 294 356 418
#     4  11  24  44  71 103 136 184 237 287 343 427
#     4  11  22  42  70 100 133 181 236 280 349 420
#     4  12  22  44  71 101 135 180 242 289 343 422
#     4  12  22  40  65 101 136 173 238 288 339 414
#     4  11  23  42  68  99 130 184 228 277 348 415
#
# _framework density 22.462955999999998
#
# number of rings (size 3 to 8) (size 9 to 14) (size 15 to 20)
#    0.000    0.750    3.750    4.125    0.000    4.500 
#    2.250    1.250    0.000    0.000    0.000    0.000 
#    0.000    0.000    0.000    0.000    0.000    0.000 
#
# Total GULP energy -198289.136470 kJ/mol
# GULP energy per Si atom -12393.071029 kJ/mol
# Density = 2.241183 g / cm^3
# Si number density = 22.462956 Si / 1000 Ang^3
#
#
#
# Elastic Constant Matrix: (Units=GPa)
#
#
# Indices 1 2 3 4 5 6 
#
# 1 98.3623 16.3951 42.1979 -8.5197 -21.4677 3.3977
# 2 16.3951 91.2738 6.0624 -7.4948 -1.3355 -3.0794
# 3 42.1979 6.0624 102.3547 -5.0789 -21.2443 0.8467
# 4 -8.5197 -7.4948 -5.0789 38.8209 -0.9858 -2.6966
# 5 -21.4677 -1.3355 -21.2443 -0.9858 43.9354 -5.3339
# 6 3.3977 -3.0794 0.8467 -2.6966 -5.3339 39.0792
#
#
#
# Elastic Compliance Matrix: (Units=1/GPa)
#
#
# Indices 1 2 3 4 5 6 
#
# 1 0.013556 -0.001919 -0.004454 0.002100 0.004400 -0.000488
# 2 -0.001919 0.011481 0.000123 0.001883 -0.000347 0.001151
# 3 -0.004454 0.000123 0.012455 0.000827 0.003956 0.000724
# 4 0.002100 0.001883 0.000827 0.026899 0.002344 0.002124
# 5 0.004400 -0.000347 0.003956 0.002344 0.027277 0.003389
# 6 -0.000488 0.001151 0.000724 0.002124 0.003389 0.026316
#
#
# Mechanical properties :
#
#
# Convention : Reuss Voigt Hill
#
# Bulk Modulus (GPa) = 40.01171 46.81130 43.41150
# Shear Modulus (GPa) = 36.01956 39.52279 37.77118
#
# Velocity S-wave (km/s) = 4.00873 4.19915 4.10504
# Velocity P-wave (km/s) = 6.26718 6.66296 6.46810
#
# Compressibility (1/GPa) = 0.02499269
#
# Stress axis : x y z
#
# Youngs Moduli (GPa) = 73.76834 87.10103 80.28914
#
# Poissons Ratio (x) = 0.16713 0.35758
# Poissons Ratio (y) = 0.14155 -0.00987
# Poissons Ratio (z) = 0.32854 -0.01071
#
# Static dielectric constant tensor:
#      x y z
#    x 3.703170 0.033330 -0.368650 
#    y 0.033330 4.060590 0.059310 
#    z -0.368650 0.059310 3.898620 
# 
# 
# High freq. dielectric constant tensor:
#      x y z
#    x 1.889090 -0.004980 -0.016820 
#    y -0.004980 1.892400 -0.014590 
#    z -0.016820 -0.014590 1.890590 
# 
# From -- ./inp_files/257898.got.cif
#   From: 2010.06.25/outbox.cif.g09.slc.cpg/sg2_129_cif.got.tgz:257898.got - 2010.06.27 13:26:56.
