data_PCOD8031395
_publ_section_title
;
Structure prediction by ZEFSAII (Michael W. Deem and Ramdas Pophale) SiO2 
 PCOD8031395
Probable space group: P -1
;
_chemical_formula_sum "Si O2"
_cell_formula_units_Z 16
_cell_length_a 9.118084
_cell_length_b 12.603014
_cell_length_c 11.430280
_cell_angle_alpha 133.068085
_cell_angle_beta 123.901500
_cell_angle_gamma 49.126376
_cell_volume 710.816383
_symmetry_space_group_name_H-M "P -1"
_symmetry_group_IT_number 2
_symmetry_cell_setting 'triclinic'
loop_
_space_group_symop_operation_xyz
x,y,z
-x,-y,-z
loop_
_atom_site_type_symbol
_atom_site_label
_atom_site_fract_x
_atom_site_fract_y
_atom_site_fract_z
Si Si1 0.276808 0.293932 0.935048
Si Si2 0.998202 0.907542 0.046660
Si Si3 0.325583 0.374445 0.610106
Si Si4 0.933812 0.646444 0.705288
Si Si5 0.669112 0.019168 0.162857
Si Si6 0.599327 0.341067 0.503023
Si Si7 0.114755 0.535749 0.247503
Si Si8 0.549788 0.310756 0.884640
O O1 0.482715 0.262965 0.941227
O O2 0.105079 0.404623 0.852971
O O3 0.256159 0.129198 0.823424
O O4 0.263862 0.387052 0.120608
O O5 0.218069 0.805422 0.118423
O O6 0.849553 0.018741 0.164946
O O7 0.895914 0.793931 0.883654
O O8 0.000000 0.000000 0.000000
O O9 0.205095 0.292055 0.425705
O O10 0.495768 0.379049 0.610775
O O11 0.428810 0.276604 0.700123
O O12 0.164863 0.559877 0.706831
O O13 0.874399 0.524710 0.659693
O O14 0.585768 0.187718 0.323476
O O15 0.500000 0.000000 0.000000
O O16 0.500000 0.500000 0.500000
O O17 0.821467 0.318153 0.610769
O O18 0.500000 0.500000 0.000000
#
# Coordination Sequence:
#
# PCOD8031395 Si02
#       8
#     2   2   2   2   2   2   2   2
#     4  11  24  44  72 103 144 190 234 302 364 428
#     4  12  27  46  73 107 145 193 246 301 368 437
#     4  11  24  41  72 101 143 180 240 294 356 429
#     4  11  22  45  71 106 141 189 239 296 364 435
#     4  12  27  48  71 103 148 187 241 306 368 431
#     4  12  26  43  71 103 135 189 243 296 355 435
#     4  11  22  43  73 103 140 187 245 289 362 435
#     4  12  24  46  74 109 145 193 246 296 360 443
#
# _framework density 22.509328
#
# number of rings (size 3 to 8) (size 9 to 14) (size 15 to 20)
#    0.000    0.500    5.000    3.000    5.250    0.500 
#    0.000    1.250    0.000    0.000    0.000    0.000 
#    0.000    0.000    0.000    0.000    0.000    0.000 
#
# Total GULP energy -198390.884969 kJ/mol
# GULP energy per Si atom -12399.430311 kJ/mol
# Density = 2.245810 g / cm^3
# Si number density = 22.509328 Si / 1000 Ang^3
#
#
#
# Elastic Constant Matrix: (Units=GPa)
#
#
# Indices 1 2 3 4 5 6 
#
# 1 152.6482 34.1801 27.5853 3.8675 -11.7914 6.1280
# 2 34.1801 87.9036 33.3789 -8.5161 -2.1248 2.8758
# 3 27.5853 33.3789 107.9416 -3.3482 4.4568 0.3004
# 4 3.8675 -8.5161 -3.3482 38.7511 0.5020 7.5035
# 5 -11.7914 -2.1248 4.4568 0.5020 37.6962 -4.1998
# 6 6.1280 2.8758 0.3004 7.5035 -4.1998 36.7178
#
#
#
# Elastic Compliance Matrix: (Units=1/GPa)
#
#
# Indices 1 2 3 4 5 6 
#
# 1 0.007585 -0.002514 -0.001298 -0.001352 0.002345 -0.000514
# 2 -0.002514 0.014095 -0.003621 0.003284 0.000248 -0.001297
# 3 -0.001298 -0.003621 0.010801 0.000264 -0.001875 0.000144
# 4 -0.001352 0.003284 0.000264 0.027839 -0.001294 -0.005871
# 5 0.002345 0.000248 -0.001875 -0.001294 0.027855 0.003055
# 6 -0.000514 -0.001297 0.000144 -0.005871 0.003055 0.028970
#
#
# Mechanical properties :
#
#
# Convention : Reuss Voigt Hill
#
# Bulk Modulus (GPa) = 56.77135 59.86467 58.31801
# Shear Modulus (GPa) = 36.26308 39.52298 37.89303
#
# Velocity S-wave (km/s) = 4.01811 4.19483 4.10742
# Velocity P-wave (km/s) = 6.84127 7.07922 6.96126
#
# Compressibility (1/GPa) = 0.01761452
#
# Stress axis : x y z
#
# Youngs Moduli (GPa) = 131.84768 70.94693 92.58426
#
# Poissons Ratio (x) = 0.17834 0.12020
# Poissons Ratio (y) = 0.33142 0.33525
# Poissons Ratio (z) = 0.17118 0.25690
#
# Static dielectric constant tensor:
#      x y z
#    x 5.160500 0.350790 0.245340 
#    y 0.350790 4.185950 -0.047150 
#    z 0.245340 -0.047150 4.255820 
# 
# 
# High freq. dielectric constant tensor:
#      x y z
#    x 1.909310 -0.006860 -0.004130 
#    y -0.006860 1.870300 -0.019360 
#    z -0.004130 -0.019360 1.884910 
# 
# From -- ./inp_files/393189.got.cif
#   From: 2010.06.25/outbox.cif.g09.slc.cpg/sg2_197_cif.got.tgz:393189.got - 2010.06.27 13:26:56.
