data_PCOD8031374
_publ_section_title
;
Structure prediction by ZEFSAII (Michael W. Deem and Ramdas Pophale) SiO2 
 PCOD8031374
Probable space group: P -1
;
_chemical_formula_sum "Si O2"
_cell_formula_units_Z 16
_cell_length_a 8.442497
_cell_length_b 11.670872
_cell_length_c 14.103746
_cell_angle_alpha 68.467219
_cell_angle_beta 34.898834
_cell_angle_gamma 81.547922
_cell_volume 707.916820
_symmetry_space_group_name_H-M "P -1"
_symmetry_group_IT_number 2
_symmetry_cell_setting 'triclinic'
loop_
_space_group_symop_operation_xyz
x,y,z
-x,-y,-z
loop_
_atom_site_type_symbol
_atom_site_label
_atom_site_fract_x
_atom_site_fract_y
_atom_site_fract_z
Si Si1 0.098777 0.253550 0.083378
Si Si2 0.132945 0.312144 0.667301
Si Si3 0.473200 0.516805 0.896299
Si Si4 0.781838 0.255459 0.045249
Si Si5 0.326923 0.782532 0.533721
Si Si6 0.339708 0.795164 0.219705
Si Si7 0.317285 0.988580 0.328686
Si Si8 0.881798 0.420099 0.457085
O O1 0.964074 0.234887 0.051271
O O2 0.852766 0.186860 0.299580
O O3 0.230967 0.402349 0.001214
O O4 0.343414 0.179346 0.989741
O O5 0.390198 0.248188 0.556914
O O6 0.249161 0.460715 0.531099
O O7 0.889939 0.227581 0.743994
O O8 0.008560 0.311716 0.833771
O O9 0.397363 0.646700 0.869785
O O10 0.782093 0.524450 0.694918
O O11 0.500000 0.500000 0.000000
O O12 0.550630 0.125602 0.165278
O O13 0.417806 0.909289 0.386134
O O14 0.132654 0.660789 0.607664
O O15 0.316573 0.918926 0.250108
O O16 0.294240 0.670233 0.346906
O O17 0.000000 0.000000 0.500000
#
# Coordination Sequence:
#
# PCOD8031374 Si02
#       8
#     2   2   2   2   2   2   2   2
#     4  12  26  44  74 107 143 182 235 290 358 414
#     4  12  25  44  72 108 143 186 233 298 351 414
#     4  12  22  43  73 110 141 184 230 297 355 416
#     4  12  26  45  71 102 147 187 236 287 351 417
#     4  11  26  45  71 106 143 183 238 289 353 412
#     4  11  26  47  74 105 139 192 237 285 356 418
#     4  11  28  51  75  99 142 189 237 289 348 427
#     4  11  22  43  72 103 152 181 233 290 358 416
#
# _framework density 22.601524999999999
#
# number of rings (size 3 to 8) (size 9 to 14) (size 15 to 20)
#    0.000    0.500    3.750    4.125    5.250    4.000 
#    0.000    0.000    0.000    0.000    0.000    0.000 
#    0.000    0.000    0.000    0.000    0.000    0.000 
#
# Total GULP energy -198528.223390 kJ/mol
# GULP energy per Si atom -12408.013962 kJ/mol
# Density = 2.255008 g / cm^3
# Si number density = 22.601525 Si / 1000 Ang^3
#
#
#
# Elastic Constant Matrix: (Units=GPa)
#
#
# Indices 1 2 3 4 5 6 
#
# 1 93.1996 6.2006 13.9828 15.7910 -4.8480 15.6072
# 2 6.2006 96.3115 18.5307 18.5612 -2.0799 3.0681
# 3 13.9828 18.5307 80.1488 25.9984 -10.8853 -4.4804
# 4 15.7910 18.5612 25.9984 39.0509 -0.1041 -8.1452
# 5 -4.8480 -2.0799 -10.8853 -0.1041 28.1911 11.0214
# 6 15.6072 3.0681 -4.4804 -8.1452 11.0214 38.2295
#
#
#
# Elastic Compliance Matrix: (Units=1/GPa)
#
#
# Indices 1 2 3 4 5 6 
#
# 1 0.013878 0.001061 0.000332 -0.008250 0.006179 -0.009251
# 2 0.001061 0.011820 -0.000818 -0.006203 0.002040 -0.003387
# 3 0.000332 -0.000818 0.017350 -0.011859 0.007745 -0.002796
# 4 -0.008250 -0.006203 -0.011859 0.042913 -0.012216 0.015141
# 5 0.006179 0.002040 0.007745 -0.012216 0.046596 -0.017815
# 6 -0.009251 -0.003387 -0.002796 0.015141 -0.017815 0.038241
#
#
# Mechanical properties :
#
#
# Convention : Reuss Voigt Hill
#
# Bulk Modulus (GPa) = 22.62591 38.56532 30.59562
# Shear Modulus (GPa) = 27.11795 36.49069 31.80432
#
# Velocity S-wave (km/s) = 3.46761 4.02247 3.75530
# Velocity P-wave (km/s) = 5.10539 6.21883 5.68941
#
# Compressibility (1/GPa) = 0.04419711
#
# Stress axis : x y z
#
# Youngs Moduli (GPa) = 72.05806 84.60576 57.63536
#
# Poissons Ratio (x) = -0.08975 -0.01912
# Poissons Ratio (y) = -0.07644 0.04714
# Poissons Ratio (z) = -0.02391 0.06919
#
# Static dielectric constant tensor:
#      x y z
#    x 4.188370 0.031890 -0.016390 
#    y 0.031890 4.158460 0.111320 
#    z -0.016390 0.111320 4.181980 
# 
# 
# High freq. dielectric constant tensor:
#      x y z
#    x 1.903070 0.005140 0.000020 
#    y 0.005140 1.895350 0.009170 
#    z 0.000020 0.009170 1.896110 
# 
# From -- ./inp_files/299491.got.cif
#   From: 2010.06.25/outbox.cif.g09.slc.cpg/sg2_150_cif.got.tgz:299491.got - 2010.06.27 13:26:56.
