data_PCOD8031793
_publ_section_title
;
Structure prediction by ZEFSAII (Michael W. Deem and Ramdas Pophale) SiO2 
 PCOD8031793
Probable space group: P -1
;
_chemical_formula_sum "Si O2"
_cell_formula_units_Z 16
_cell_length_a 14.824358
_cell_length_b 10.088838
_cell_length_c 11.565438
_cell_angle_alpha 128.249356
_cell_angle_beta 142.846742
_cell_angle_gamma 37.442729
_cell_volume 634.683000
_symmetry_space_group_name_H-M "P -1"
_symmetry_group_IT_number 2
_symmetry_cell_setting 'triclinic'
loop_
_space_group_symop_operation_xyz
x,y,z
-x,-y,-z
loop_
_atom_site_type_symbol
_atom_site_label
_atom_site_fract_x
_atom_site_fract_y
_atom_site_fract_z
Si Si1 0.291545 0.224411 0.389996
Si Si2 0.900303 0.764835 0.584518
Si Si3 0.733854 0.621107 0.890659
Si Si4 0.257556 0.364803 0.818512
Si Si5 0.382305 0.717216 0.921535
Si Si6 0.352606 0.558545 0.563834
Si Si7 0.344726 0.768858 0.469851
Si Si8 0.897757 0.814168 0.031064
O O1 0.185848 0.307367 0.449822
O O2 0.289639 0.409746 0.428623
O O3 0.180597 0.174843 0.169142
O O4 0.500000 0.000000 0.500000
O O5 0.840053 0.739909 0.382019
O O6 0.129715 0.606645 0.757694
O O7 0.812778 0.012155 0.642843
O O8 0.518781 0.762017 0.694339
O O9 0.826034 0.734047 0.010464
O O10 0.739141 0.622161 0.034427
O O11 0.867841 0.369896 0.842118
O O12 0.476365 0.224153 0.921501
O O13 0.340372 0.654953 0.725309
O O14 0.500000 0.500000 0.000000
O O15 0.182918 0.938521 0.888411
O O16 0.230547 0.756023 0.452426
O O17 0.564225 0.420294 0.639096
#
# Coordination Sequence:
#
# PCOD8031793 Si02
#       8
#     2   2   2   2   2   2   2   2
#     4  12  20  42  69  96 135 185 226 278 343 409
#     4  11  24  42  72 104 133 185 235 286 342 412
#     4  11  22  46  73 104 132 184 238 287 341 417
#     4  11  24  43  72 102 138 177 239 287 337 417
#     4  12  26  46  66 105 145 184 227 288 354 413
#     4  11  24  40  69  99 140 184 227 280 350 419
#     4  11  23  44  69 101 138 185 230 282 353 413
#     4  11  25  42  72 103 135 182 234 289 342 411
#
# _framework density 25.209434000000002
#
# number of rings (size 3 to 8) (size 9 to 14) (size 15 to 20)
#    0.000    0.750    5.000    3.000    1.750    1.000 
#    4.500    1.875    0.000    0.000    0.000    0.000 
#    0.000    0.000    0.000    0.000    0.000    0.000 
#
# Total GULP energy -198280.137867 kJ/mol
# GULP energy per Si atom -12392.508617 kJ/mol
# Density = 2.515206 g / cm^3
# Si number density = 25.209434 Si / 1000 Ang^3
#
#
#
# Elastic Constant Matrix: (Units=GPa)
#
#
# Indices 1 2 3 4 5 6 
#
# 1 86.0502 28.0129 8.0433 1.5104 -19.0223 2.9736
# 2 28.0129 119.0012 6.3924 -3.8613 -20.7207 -1.2889
# 3 8.0433 6.3924 95.2990 5.3790 -20.3277 -16.0051
# 4 1.5104 -3.8613 5.3790 39.3432 -7.4558 -4.3348
# 5 -19.0223 -20.7207 -20.3277 -7.4558 29.4829 -1.9147
# 6 2.9736 -1.2889 -16.0051 -4.3348 -1.9147 35.9234
#
#
#
# Elastic Compliance Matrix: (Units=1/GPa)
#
#
# Indices 1 2 3 4 5 6 
#
# 1 0.014009 -0.001867 0.000599 0.000721 0.008294 -0.000431
# 2 -0.001867 0.010197 0.001247 0.002535 0.007579 0.001786
# 3 0.000599 0.001247 0.013943 0.001163 0.011622 0.006967
# 4 0.000721 0.002535 0.001163 0.027945 0.010407 0.004476
# 5 0.008294 0.007579 0.011622 0.010407 0.055824 0.008995
# 6 -0.000431 0.001786 0.006967 0.004476 0.008995 0.032060
#
#
# Mechanical properties :
#
#
# Convention : Reuss Voigt Hill
#
# Bulk Modulus (GPa) = 26.24259 42.80530 34.52395
# Shear Modulus (GPa) = 29.99012 38.14336 34.06674
#
# Velocity S-wave (km/s) = 3.45286 3.89403 3.68006
# Velocity P-wave (km/s) = 5.13115 6.10202 5.63752
#
# Compressibility (1/GPa) = 0.03810599
#
# Stress axis : x y z
#
# Youngs Moduli (GPa) = 71.38522 98.06826 71.72251
#
# Poissons Ratio (x) = 0.18309 -0.04295
# Poissons Ratio (y) = 0.13327 -0.08944
# Poissons Ratio (z) = -0.04275 -0.12229
#
# Static dielectric constant tensor:
#      x y z
#    x 4.787580 -0.067050 -0.035780 
#    y -0.067050 4.685150 -0.215510 
#    z -0.035780 -0.215510 4.450940 
# 
# 
# High freq. dielectric constant tensor:
#      x y z
#    x 2.008120 -0.000400 -0.010970 
#    y -0.000400 2.008960 -0.006370 
#    z -0.010970 -0.006370 2.011400 
# 
# From -- ./inp_files/464834.got.cif
#   From: 2010.06.25/outbox.cif.g09.slc.cpg/sg2_233_cif.got.tgz:464834.got - 2010.06.27 13:26:56.
