data_PCOD8031021
_publ_section_title
;
Structure prediction by ZEFSAII (Michael W. Deem and Ramdas Pophale) SiO2 
 PCOD8031021
Probable space group: P -1
;
_chemical_formula_sum "Si O2"
_cell_formula_units_Z 12
_cell_length_a 12.483867
_cell_length_b 10.042581
_cell_length_c 9.837101
_cell_angle_alpha 43.208941
_cell_angle_beta 102.195678
_cell_angle_gamma 130.271543
_cell_volume 558.861983
_symmetry_space_group_name_H-M "P -1"
_symmetry_group_IT_number 2
_symmetry_cell_setting 'triclinic'
loop_
_space_group_symop_operation_xyz
x,y,z
-x,-y,-z
loop_
_atom_site_type_symbol
_atom_site_label
_atom_site_fract_x
_atom_site_fract_y
_atom_site_fract_z
Si Si1 0.375359 0.878373 0.359211
Si Si2 0.728065 0.257843 0.268568
Si Si3 0.700200 0.788707 0.568884
Si Si4 0.126939 0.170142 0.176176
Si Si5 0.237632 0.315244 0.618176
Si Si6 0.343018 0.247315 0.954520
O O1 0.266221 0.744833 0.564242
O O2 0.339557 0.637583 0.445042
O O3 0.561701 0.129713 0.263596
O O4 0.334721 0.006941 0.156512
O O5 0.761903 0.089620 0.342065
O O6 0.867431 0.587382 0.010545
O O7 0.832404 0.845466 0.649462
O O8 0.682642 0.664755 0.511222
O O9 0.526789 0.565800 0.762674
O O10 0.257846 0.252998 0.047394
O O11 0.948146 0.866481 0.316206
O O12 0.251591 0.170825 0.846183
#
# Coordination Sequence:
#
# PCOD8031021 Si02
#       6
#     2   2   2   2   2   2
#     4  11  23  41  71 101 129 177 229 272 324 401
#     4  11  22  41  72  98 130 178 230 266 326 406
#     4  12  25  45  70 100 135 180 221 273 334 402
#     4  12  25  45  70 100 135 180 221 273 334 402
#     4  12  28  43  66 106 144 160 221 295 335 370
#     4  12  23  43  73  98 128 181 229 265 325 406
#
# _framework density 21.472206
#
# number of rings (size 3 to 8) (size 9 to 14) (size 15 to 20)
#    0.000    0.333    6.667    3.000    0.000    4.667 
#    0.000    0.000    0.000    0.000    0.000    0.000 
#    0.000    0.000    0.000    0.000    0.000    0.000 
#
# Total GULP energy -148898.047698 kJ/mol
# GULP energy per Si atom -12408.170641 kJ/mol
# Density = 2.142333 g / cm^3
# Si number density = 21.472206 Si / 1000 Ang^3
#
#
#
# Elastic Constant Matrix: (Units=GPa)
#
#
# Indices 1 2 3 4 5 6 
#
# 1 75.0660 25.4873 37.6374 6.3324 14.8175 -17.1749
# 2 25.4873 85.7822 20.3941 21.7561 10.2523 -9.8966
# 3 37.6374 20.3941 71.3757 8.6907 32.9451 -11.5104
# 4 6.3324 21.7561 8.6907 34.5925 8.9177 3.2926
# 5 14.8175 10.2523 32.9451 8.9177 42.5926 -0.5089
# 6 -17.1749 -9.8966 -11.5104 3.2926 -0.5089 36.5514
#
#
#
# Elastic Compliance Matrix: (Units=1/GPa)
#
#
# Indices 1 2 3 4 5 6 
#
# 1 0.020171 -0.003218 -0.009238 -0.000151 0.001003 0.005725
# 2 -0.003218 0.015595 -0.001274 -0.009284 0.000333 0.003150
# 3 -0.009238 -0.001274 0.028392 -0.000298 -0.018330 0.004027
# 4 -0.000151 -0.009284 -0.000298 0.036782 -0.005255 -0.006065
# 5 0.001003 0.000333 -0.018330 -0.005255 0.038277 -0.004204
# 6 0.005725 0.003150 0.004027 -0.006065 -0.004204 0.032658
#
#
# Mechanical properties :
#
#
# Convention : Reuss Voigt Hill
#
# Bulk Modulus (GPa) = 27.25001 44.36238 35.80620
# Shear Modulus (GPa) = 23.63307 32.66099 28.14703
#
# Velocity S-wave (km/s) = 3.32118 3.90434 3.62451
# Velocity P-wave (km/s) = 5.23692 6.40549 5.85046
#
# Compressibility (1/GPa) = 0.03669724
#
# Stress axis : x y z
#
# Youngs Moduli (GPa) = 49.57670 64.12387 35.22085
#
# Poissons Ratio (x) = 0.20634 0.32538
# Poissons Ratio (y) = 0.15953 0.04488
# Poissons Ratio (z) = 0.45800 0.08171
#
# Static dielectric constant tensor:
#      x y z
#    x 3.788280 0.074390 0.271530 
#    y 0.074390 3.838720 0.141500 
#    z 0.271530 0.141500 4.017220 
# 
# 
# High freq. dielectric constant tensor:
#      x y z
#    x 1.840270 0.001150 0.016620 
#    y 0.001150 1.849460 0.005650 
#    z 0.016620 0.005650 1.845680 
# 
# From -- ./inp_files/148682.got.cif
#   From: 2010.06.25/outbox.cif.g09.slc.cpg/sg2_75_cif.got.tgz:148682.got - 2010.06.27 13:26:56.
