data_PCOD8031308
_publ_section_title
;
Structure prediction by ZEFSAII (Michael W. Deem and Ramdas Pophale) SiO2 
 PCOD8031308
Probable space group: P -1
;
_chemical_formula_sum "Si O2"
_cell_formula_units_Z 16
_cell_length_a 22.861642
_cell_length_b 12.313172
_cell_length_c 9.748586
_cell_angle_alpha 43.983933
_cell_angle_beta 143.241249
_cell_angle_gamma 152.760426
_cell_volume 751.425874
_symmetry_space_group_name_H-M "P -1"
_symmetry_group_IT_number 2
_symmetry_cell_setting 'triclinic'
loop_
_space_group_symop_operation_xyz
x,y,z
-x,-y,-z
loop_
_atom_site_type_symbol
_atom_site_label
_atom_site_fract_x
_atom_site_fract_y
_atom_site_fract_z
Si Si1 0.548662 0.154021 0.081337
Si Si2 0.680323 0.872956 0.265341
Si Si3 0.124495 0.997671 0.008255
Si Si4 0.089192 0.765635 0.409546
Si Si5 0.528291 0.150890 0.536624
Si Si6 0.638396 0.781679 0.967185
Si Si7 0.818909 0.634166 0.064003
Si Si8 0.217893 0.359427 0.316647
O O1 0.725011 0.396434 0.191213
O O2 0.513441 0.993289 0.278911
O O3 0.478638 0.244667 0.884662
O O4 0.500000 0.000000 0.000000
O O5 0.703385 0.715327 0.461917
O O6 0.783430 0.090357 0.368143
O O7 0.701497 0.936917 0.084611
O O8 0.219702 0.118399 0.936945
O O9 0.133610 0.850350 0.254877
O O10 0.197126 0.212461 0.048426
O O11 0.956496 0.842982 0.789268
O O12 0.000000 0.500000 0.500000
O O13 0.991063 0.796091 0.243080
O O14 0.418258 0.162209 0.299649
O O15 0.696329 0.420589 0.618086
O O16 0.500000 0.000000 0.500000
O O17 0.500000 0.500000 0.000000
O O18 0.754272 0.546742 0.869111
#
# Coordination Sequence:
#
# PCOD8031308 Si02
#       8
#     2   2   2   2   2   2   2   2
#     4  12  26  42  71 106 138 185 234 290 357 408
#     4  12  24  46  68 102 140 185 235 287 342 421
#     4  11  25  45  73 106 135 187 238 286 358 420
#     4  11  24  43  70 102 143 178 231 298 352 409
#     4  12  27  48  67  98 149 183 228 297 351 407
#     4  12  27  47  69 103 142 189 237 284 348 424
#     4  11  22  43  69 106 139 178 235 294 351 411
#     4  11  23  46  72 102 142 182 236 297 340 421
#
# _framework density 21.292853000000001
#
# number of rings (size 3 to 8) (size 9 to 14) (size 15 to 20)
#    0.000    0.500    6.250    2.250    5.250    1.000 
#    2.250    1.250    0.000    0.000    0.000    0.000 
#    0.000    0.000    0.000    0.000    0.000    0.000 
#
# Total GULP energy -198229.397189 kJ/mol
# GULP energy per Si atom -12389.337324 kJ/mol
# Density = 2.124439 g / cm^3
# Si number density = 21.292853 Si / 1000 Ang^3
#
#
#
# Elastic Constant Matrix: (Units=GPa)
#
#
# Indices 1 2 3 4 5 6 
#
# 1 127.8217 43.0488 35.9622 3.5006 -7.7987 11.1338
# 2 43.0488 114.3601 34.9156 -4.9286 -7.0062 6.7702
# 3 35.9622 34.9156 108.9745 1.3545 -4.5616 8.1438
# 4 3.5006 -4.9286 1.3545 33.9903 -5.4634 -3.6900
# 5 -7.7987 -7.0062 -4.5616 -5.4634 30.5538 4.6099
# 6 11.1338 6.7702 8.1438 -3.6900 4.6099 36.7190
#
#
#
# Elastic Compliance Matrix: (Units=1/GPa)
#
#
# Indices 1 2 3 4 5 6 
#
# 1 0.009689 -0.002849 -0.002028 -0.001318 0.001628 -0.002300
# 2 -0.002849 0.010802 -0.002424 0.002191 0.001871 -0.000605
# 3 -0.002028 -0.002424 0.010767 -0.000628 0.000643 -0.001470
# 4 -0.001318 0.002191 -0.000628 0.031021 0.005228 0.002596
# 5 0.001628 0.001871 0.000643 0.005228 0.035343 -0.004893
# 6 -0.002300 -0.000605 -0.001470 0.002596 -0.004893 0.029244
#
#
# Mechanical properties :
#
#
# Convention : Reuss Voigt Hill
#
# Bulk Modulus (GPa) = 60.04275 64.33437 62.18856
# Shear Modulus (GPa) = 34.00876 36.06794 35.03835
#
# Velocity S-wave (km/s) = 4.00082 4.12017 4.06093
# Velocity P-wave (km/s) = 7.04286 7.27420 7.15947
#
# Compressibility (1/GPa) = 0.01665480
#
# Stress axis : x y z
#
# Youngs Moduli (GPa) = 103.20641 92.57675 92.87472
#
# Poissons Ratio (x) = 0.26375 0.18838
# Poissons Ratio (y) = 0.29404 0.22517
# Poissons Ratio (z) = 0.20933 0.22445
#
# Static dielectric constant tensor:
#      x y z
#    x 3.956610 0.037170 0.071400 
#    y 0.037170 4.109400 -0.108040 
#    z 0.071400 -0.108040 4.426470 
# 
# 
# High freq. dielectric constant tensor:
#      x y z
#    x 1.833170 -0.006220 -0.001590 
#    y -0.006220 1.838390 0.001360 
#    z -0.001590 0.001360 1.847440 
# 
# From -- ./inp_files/184190.got.cif
#   From: 2010.06.25/outbox.cif.g09.slc.cpg/sg2_93_cif.got.tgz:184190.got - 2010.06.27 13:26:56.
