data_PCOD8031124
_publ_section_title
;
Structure prediction by ZEFSAII (Michael W. Deem and Ramdas Pophale) SiO2 
 PCOD8031124
Probable space group: P -1
;
_chemical_formula_sum "Si O2"
_cell_formula_units_Z 14
_cell_length_a 25.482870
_cell_length_b 22.792492
_cell_length_c 9.382681
_cell_angle_alpha 141.426036
_cell_angle_beta 38.674935
_cell_angle_gamma 170.178503
_cell_volume 576.869184
_symmetry_space_group_name_H-M "P -1"
_symmetry_group_IT_number 2
_symmetry_cell_setting 'triclinic'
loop_
_space_group_symop_operation_xyz
x,y,z
-x,-y,-z
loop_
_atom_site_type_symbol
_atom_site_label
_atom_site_fract_x
_atom_site_fract_y
_atom_site_fract_z
Si Si1 0.084923 0.991759 0.366438
Si Si2 0.394865 0.233079 0.403519
Si Si3 0.186791 0.114921 0.882200
Si Si4 0.070001 0.856672 0.885595
Si Si5 0.410239 0.071706 0.894680
Si Si6 0.150073 0.631964 0.783544
Si Si7 0.333841 0.953954 0.521783
O O1 0.749410 0.592206 0.369381
O O2 0.328721 0.252569 0.476290
O O3 0.224844 0.076009 0.107924
O O4 0.000000 0.000000 0.500000
O O5 0.227878 0.076072 0.606385
O O6 0.253545 0.991472 0.157199
O O7 0.010219 0.871878 0.922699
O O8 0.500000 0.500000 0.000000
O O9 0.000000 0.000000 0.000000
O O10 0.315644 0.041727 0.666557
O O11 0.752810 0.464687 0.859609
O O12 0.405842 0.981901 0.848037
O O13 0.225983 0.843069 0.706701
O O14 0.889952 0.350397 0.678511
O O15 0.319713 0.714114 0.597719
O O16 0.000000 0.500000 0.000000
#
# Coordination Sequence:
#
# PCOD8031124 Si02
#       7
#     2   2   2   2   2   2   2
#     4  11  22  42  68  98 137 179 234 288 348 421
#     4  11  24  42  66 101 134 183 231 294 345 414
#     4  12  28  48  70 104 149 192 241 299 365 421
#     4  11  26  45  75 108 142 194 241 295 363 424
#     4  11  26  47  75 107 145 187 246 290 358 431
#     4  12  29  48  75 109 146 191 233 297 364 433
#     4  12  25  49  73 107 148 188 241 296 359 435
#
# _framework density 24.268934000000002
#
# number of rings (size 3 to 8) (size 9 to 14) (size 15 to 20)
#    0.000    0.571    2.857    4.286    6.000    1.143 
#    2.571    0.000    0.000    0.000    0.000    0.000 
#    0.000    0.000    0.000    0.000    0.000    0.000 
#
# Total GULP energy -173519.133003 kJ/mol
# GULP energy per Si atom -12394.223786 kJ/mol
# Density = 2.421370 g / cm^3
# Si number density = 24.268934 Si / 1000 Ang^3
#
#
#
# Elastic Constant Matrix: (Units=GPa)
#
#
# Indices 1 2 3 4 5 6 
#
# 1 135.1607 48.4291 38.8181 -11.3901 -1.6522 -1.1491
# 2 48.4291 71.7524 40.7044 -11.3211 6.1094 4.9016
# 3 38.8181 40.7044 180.0445 -14.6469 15.4762 1.9900
# 4 -11.3901 -11.3211 -14.6469 29.9584 7.1906 -1.5032
# 5 -1.6522 6.1094 15.4762 7.1906 43.8448 -2.9148
# 6 -1.1491 4.9016 1.9900 -1.5032 -2.9148 46.4355
#
#
#
# Elastic Compliance Matrix: (Units=1/GPa)
#
#
# Indices 1 2 3 4 5 6 
#
# 1 0.010004 -0.006393 -0.000797 0.000690 0.001507 0.001073
# 2 -0.006393 0.020953 -0.002669 0.004827 -0.003163 -0.002298
# 3 -0.000797 -0.002669 0.006753 0.002578 -0.002471 -0.000099
# 4 0.000690 0.004827 0.002578 0.038626 -0.007881 0.000153
# 5 0.001507 -0.003163 -0.002471 -0.007881 0.025591 0.001828
# 6 0.001073 -0.002298 -0.000099 0.000153 0.001828 0.021928
#
#
# Mechanical properties :
#
#
# Convention : Reuss Voigt Hill
#
# Bulk Modulus (GPa) = 55.57779 71.42899 63.50339
# Shear Modulus (GPa) = 33.42919 41.31480 37.37199
#
# Velocity S-wave (km/s) = 3.71542 4.13046 3.92843
# Velocity P-wave (km/s) = 6.43089 7.22798 6.84106
#
# Compressibility (1/GPa) = 0.01799280
#
# Stress axis : x y z
#
# Youngs Moduli (GPa) = 99.96275 47.72477 148.09121
#
# Poissons Ratio (x) = 0.30509 0.11801
# Poissons Ratio (y) = 0.63903 0.39525
# Poissons Ratio (z) = 0.07965 0.12737
#
# Static dielectric constant tensor:
#      x y z
#    x 4.289990 -0.412830 -0.202690 
#    y -0.412830 2.450830 -0.318030 
#    z -0.202690 -0.318030 4.729300 
# 
# 
# High freq. dielectric constant tensor:
#      x y z
#    x 1.969500 0.018380 -0.003340 
#    y 0.018380 1.936420 0.004970 
#    z -0.003340 0.004970 1.986790 
# 
# From -- ./inp_files/357858.got.cif
#   From: 2010.06.25/outbox.cif.g09.slc.cpg/sg2_179_cif.got.tgz:357858.got - 2010.06.27 13:26:56.
