data_PCOD8031937
_publ_section_title
;
Structure prediction by ZEFSAII (Michael W. Deem and Ramdas Pophale) SiO2 
 PCOD8031937
Probable space group: P -1
;
_chemical_formula_sum "Si O2"
_cell_formula_units_Z 14
_cell_length_a 8.836273
_cell_length_b 13.746045
_cell_length_c 14.410902
_cell_angle_alpha 150.212276
_cell_angle_beta 117.357642
_cell_angle_gamma 81.639741
_cell_volume 632.217242
_symmetry_space_group_name_H-M "P -1"
_symmetry_group_IT_number 2
_symmetry_cell_setting 'triclinic'
loop_
_space_group_symop_operation_xyz
x,y,z
-x,-y,-z
loop_
_atom_site_type_symbol
_atom_site_label
_atom_site_fract_x
_atom_site_fract_y
_atom_site_fract_z
Si Si1 0.727425 0.731947 0.780216
Si Si2 0.391161 0.722456 0.981937
Si Si3 0.870481 0.595954 0.080502
Si Si4 0.871853 0.774218 0.408986
Si Si5 0.764933 0.807326 0.058235
Si Si6 0.083022 0.739649 0.783492
Si Si7 0.465629 0.158902 0.685446
O O1 0.500000 0.500000 0.500000
O O2 0.765470 0.698127 0.869783
O O3 0.880753 0.717793 0.744379
O O4 0.767048 0.995907 0.003954
O O5 0.297042 0.464126 0.783064
O O6 0.545113 0.770415 0.980723
O O7 0.213519 0.747964 0.914746
O O8 0.516629 0.900531 0.251295
O O9 0.990710 0.770153 0.346585
O O10 0.817668 0.693225 0.059906
O O11 0.650023 0.425776 0.930056
O O12 0.000000 0.500000 0.000000
O O13 0.761845 0.904284 0.452920
O O14 0.046337 0.914530 0.653661
O O15 0.000000 0.500000 0.500000
O O16 0.500000 0.000000 0.500000
#
# Coordination Sequence:
#
# PCOD8031937 Si02
#       7
#     2   2   2   2   2   2   2
#     4  11  28  49  73 106 137 178 240 300 352 425
#     4  11  24  43  67  97 133 180 223 278 348 405
#     4  11  23  39  62 100 137 176 224 274 333 416
#     4  11  23  43  64  98 142 180 223 275 341 418
#     4  12  24  42  70  96 133 178 226 280 345 408
#     4  11  26  51  75 101 139 181 235 297 360 418
#     4  11  23  40  62  96 141 179 219 273 335 412
#
# _framework density 22.144285
#
# number of rings (size 3 to 8) (size 9 to 14) (size 15 to 20)
#    0.000    0.857    2.857    3.857    8.000    5.714 
#    0.000    0.000    0.000    0.000    0.000    0.000 
#    0.000    0.000    0.000    0.000    0.000    0.000 
#
# Total GULP energy -173478.572077 kJ/mol
# GULP energy per Si atom -12391.326577 kJ/mol
# Density = 2.209388 g / cm^3
# Si number density = 22.144285 Si / 1000 Ang^3
#
#
#
# Elastic Constant Matrix: (Units=GPa)
#
#
# Indices 1 2 3 4 5 6 
#
# 1 117.0186 17.0725 48.2901 -2.8112 -6.3318 0.2897
# 2 17.0725 68.5496 49.6524 -16.1559 1.0454 2.7103
# 3 48.2901 49.6524 137.3389 -15.2189 -6.3977 5.0819
# 4 -2.8112 -16.1559 -15.2189 34.9748 1.1062 -3.1230
# 5 -6.3318 1.0454 -6.3977 1.1062 40.7118 -4.4499
# 6 0.2897 2.7103 5.0819 -3.1230 -4.4499 39.5852
#
#
#
# Elastic Compliance Matrix: (Units=1/GPa)
#
#
# Indices 1 2 3 4 5 6 
#
# 1 0.010067 -0.000172 -0.003532 -0.000801 0.001086 0.000450
# 2 -0.000172 0.021332 -0.006972 0.006845 -0.001882 -0.000236
# 3 -0.003532 -0.006972 0.011274 0.001298 0.001290 -0.000697
# 4 -0.000801 0.006845 0.001298 0.032443 -0.000777 0.001843
# 5 0.001086 -0.001882 0.001290 -0.000777 0.025303 0.002738
# 6 0.000450 -0.000236 -0.000697 0.001843 0.002738 0.025817
#
#
# Mechanical properties :
#
#
# Convention : Reuss Voigt Hill
#
# Bulk Modulus (GPa) = 46.90504 61.43746 54.17125
# Shear Modulus (GPa) = 32.32135 36.91381 34.61758
#
# Velocity S-wave (km/s) = 3.82459 4.08728 3.95812
# Velocity P-wave (km/s) = 6.38207 7.07664 6.73831
#
# Compressibility (1/GPa) = 0.02131967
#
# Stress axis : x y z
#
# Youngs Moduli (GPa) = 99.33620 46.87746 88.70191
#
# Poissons Ratio (x) = 0.00805 0.31333
# Poissons Ratio (y) = 0.01707 0.61846
# Poissons Ratio (z) = 0.35089 0.32685
#
# Static dielectric constant tensor:
#      x y z
#    x 4.031360 0.142190 -0.124140 
#    y 0.142190 4.051180 0.047750 
#    z -0.124140 0.047750 3.663470 
# 
# 
# High freq. dielectric constant tensor:
#      x y z
#    x 1.880350 0.011560 0.006000 
#    y 0.011560 1.867800 -0.003640 
#    z 0.006000 -0.003640 1.888390 
# 
# From -- ./inp_files/315008.got.cif
#   From: 2010.06.25/outbox.cif.g09.slc.cpg/sg2_158_cif.got.tgz:315008.got - 2010.06.27 13:26:56.
