data_PCOD8031228
_publ_section_title
;
Structure prediction by ZEFSAII (Michael W. Deem and Ramdas Pophale) SiO2 
 PCOD8031228
Probable space group: P -1
;
_chemical_formula_sum "Si O2"
_cell_formula_units_Z 10
_cell_length_a 6.709332
_cell_length_b 13.897097
_cell_length_c 14.326092
_cell_angle_alpha 29.281673
_cell_angle_beta 134.762726
_cell_angle_gamma 135.789977
_cell_volume 443.178817
_symmetry_space_group_name_H-M "P -1"
_symmetry_group_IT_number 2
_symmetry_cell_setting 'triclinic'
loop_
_space_group_symop_operation_xyz
x,y,z
-x,-y,-z
loop_
_atom_site_type_symbol
_atom_site_label
_atom_site_fract_x
_atom_site_fract_y
_atom_site_fract_z
Si Si1 0.397196 0.326601 0.036493
Si Si2 0.217214 0.953095 0.877853
Si Si3 0.697875 0.000424 0.351374
Si Si4 0.775210 0.624112 0.429713
Si Si5 0.652378 0.465799 0.333171
O O1 0.558166 0.147832 0.242687
O O2 0.044771 0.236185 0.008801
O O3 0.500000 0.500000 0.000000
O O4 0.506239 0.454019 0.869948
O O5 0.276906 0.923453 0.812735
O O6 0.094586 0.148876 0.678439
O O7 0.500000 0.000000 0.000000
O O8 0.492271 0.767097 0.484504
O O9 0.000000 0.000000 0.500000
O O10 0.500000 0.500000 0.500000
O O11 0.664695 0.626079 0.285146
O O12 0.018102 0.506444 0.616265
#
# Coordination Sequence:
#
# PCOD8031228 Si02
#       5
#     2   2   2   2   2
#     4  12  29  48  72 108 154 195 246 306 367 440
#     4  12  26  45  77 110 148 189 251 309 371 433
#     4  12  28  48  74 107 148 200 250 296 369 452
#     4  11  22  42  73 106 139 184 234 305 366 426
#     4  11  25  44  73 104 144 187 244 294 368 438
#
# _framework density 22.564256
#
# number of rings (size 3 to 8) (size 9 to 14) (size 15 to 20)
#    0.000    0.400    4.000    3.600    5.600    8.000 
#    0.000    0.000    0.000    0.000    0.000    0.000 
#    0.000    0.000    0.000    0.000    0.000    0.000 
#
# Total GULP energy -123957.796566 kJ/mol
# GULP energy per Si atom -12395.779657 kJ/mol
# Density = 2.251290 g / cm^3
# Si number density = 22.564256 Si / 1000 Ang^3
#
#
#
# Elastic Constant Matrix: (Units=GPa)
#
#
# Indices 1 2 3 4 5 6 
#
# 1 120.3784 48.1150 32.5524 3.6507 1.9518 2.1773
# 2 48.1150 127.4964 29.4779 -1.2909 11.6599 -7.7762
# 3 32.5524 29.4779 86.8727 12.0326 -11.1013 1.9013
# 4 3.6507 -1.2909 12.0326 47.9887 3.8556 3.1097
# 5 1.9518 11.6599 -11.1013 3.8556 24.7029 -1.6037
# 6 2.1773 -7.7762 1.9013 3.1097 -1.6037 41.2070
#
#
#
# Elastic Compliance Matrix: (Units=1/GPa)
#
#
# Indices 1 2 3 4 5 6 
#
# 1 0.010418 -0.003285 -0.002836 -0.000052 -0.000608 -0.001059
# 2 -0.003285 0.010621 -0.003493 0.001806 -0.006479 0.001951
# 3 -0.002836 -0.003493 0.015620 -0.004530 0.009566 -0.000516
# 4 -0.000052 0.001806 -0.004530 0.022641 -0.006509 -0.001409
# 5 -0.000608 -0.006479 0.009566 -0.006509 0.048952 0.000764
# 6 -0.001059 0.001951 -0.000516 -0.001409 0.000764 0.024852
#
#
# Mechanical properties :
#
#
# Convention : Reuss Voigt Hill
#
# Bulk Modulus (GPa) = 57.37538 61.67089 59.52313
# Shear Modulus (GPa) = 31.61705 37.75319 34.68512
#
# Velocity S-wave (km/s) = 3.74732 4.09484 3.92493
# Velocity P-wave (km/s) = 6.64876 7.05319 6.85396
#
# Compressibility (1/GPa) = 0.01742908
#
# Stress axis : x y z
#
# Youngs Moduli (GPa) = 95.98940 94.15640 64.01885
#
# Poissons Ratio (x) = 0.30934 0.18156
# Poissons Ratio (y) = 0.31536 0.22364
# Poissons Ratio (z) = 0.27224 0.32893
#
# Static dielectric constant tensor:
#      x y z
#    x 5.104670 -0.732740 -1.213810 
#    y -0.732740 4.723760 1.240140 
#    z -1.213810 1.240140 5.803650 
# 
# 
# High freq. dielectric constant tensor:
#      x y z
#    x 1.906970 -0.006920 -0.003000 
#    y -0.006920 1.900640 -0.006860 
#    z -0.003000 -0.006860 1.889490 
# 
# From -- ./inp_files/16633.got.cif
#   From: 2010.06.25/outbox.cif.g09.slc.cpg/sg2_9_cif.got.tgz:16633.got - 2010.06.27 13:26:56.
