data_PCOD8031685
_publ_section_title
;
Structure prediction by ZEFSAII (Michael W. Deem and Ramdas Pophale) SiO2 
 PCOD8031685
Probable space group: P -1
;
_chemical_formula_sum "Si O2"
_cell_formula_units_Z 14
_cell_length_a 23.194995
_cell_length_b 8.939806
_cell_length_c 13.614385
_cell_angle_alpha 56.192302
_cell_angle_beta 155.520563
_cell_angle_gamma 139.435289
_cell_volume 658.400319
_symmetry_space_group_name_H-M "P -1"
_symmetry_group_IT_number 2
_symmetry_cell_setting 'triclinic'
loop_
_space_group_symop_operation_xyz
x,y,z
-x,-y,-z
loop_
_atom_site_type_symbol
_atom_site_label
_atom_site_fract_x
_atom_site_fract_y
_atom_site_fract_z
Si Si1 0.798371 0.729720 0.234094
Si Si2 0.468488 0.662158 0.441511
Si Si3 0.076143 0.735259 0.593775
Si Si4 0.722786 0.208315 0.552329
Si Si5 0.518682 0.141446 0.073525
Si Si6 0.144983 0.634635 0.947292
Si Si7 0.524366 0.777508 0.706869
O O1 0.676149 0.457058 0.201757
O O2 0.907937 0.731188 0.312457
O O3 0.636796 0.726951 0.958796
O O4 0.000000 0.000000 0.500000
O O5 0.500000 0.500000 0.500000
O O6 0.253347 0.549627 0.114017
O O7 0.453763 0.628510 0.548727
O O8 0.665563 0.971156 0.606955
O O9 0.000000 0.500000 0.500000
O O10 0.071945 0.675893 0.724096
O O11 0.297243 0.015551 0.800511
O O12 0.584574 0.074315 0.288666
O O13 0.670066 0.334981 0.490325
O O14 0.961373 0.429737 0.813823
O O15 0.500000 0.000000 0.000000
O O16 0.317831 0.907008 0.177257
#
# Coordination Sequence:
#
# PCOD8031685 Si02
#       7
#     2   2   2   2   2   2   2
#     4  12  24  42  67 106 141 169 232 276 342 407
#     4  11  27  44  68  97 135 174 226 284 338 399
#     4  12  23  41  66  99 138 182 222 277 339 407
#     4  11  22  45  71  94 134 177 230 273 339 404
#     4  12  23  40  70 101 136 186 220 279 348 402
#     4  11  22  46  69  94 133 177 229 275 337 402
#     4  11  25  43  67 100 136 178 218 285 335 402
#
# _framework density 21.263659000000001
#
# number of rings (size 3 to 8) (size 9 to 14) (size 15 to 20)
#    0.000    0.571    7.143    1.714    4.000    6.286 
#    0.000    0.000    0.000    0.000    0.000    0.000 
#    0.000    0.000    0.000    0.000    0.000    0.000 
#
# Total GULP energy -173517.099469 kJ/mol
# GULP energy per Si atom -12394.078534 kJ/mol
# Density = 2.121526 g / cm^3
# Si number density = 21.263659 Si / 1000 Ang^3
#
#
#
# Elastic Constant Matrix: (Units=GPa)
#
#
# Indices 1 2 3 4 5 6 
#
# 1 150.3725 53.7925 44.2439 2.5325 17.8793 -12.5630
# 2 53.7925 100.5692 36.0904 7.1151 20.5893 -11.7898
# 3 44.2439 36.0904 71.7824 9.2334 27.7860 -2.3330
# 4 2.5325 7.1151 9.2334 39.4631 2.9700 10.9751
# 5 17.8793 20.5893 27.7860 2.9700 60.3414 2.2649
# 6 -12.5630 -11.7898 -2.3330 10.9751 2.2649 42.6219
#
#
#
# Elastic Compliance Matrix: (Units=1/GPa)
#
#
# Indices 1 2 3 4 5 6 
#
# 1 0.009119 -0.003348 -0.004053 0.000565 0.000227 0.001383
# 2 -0.003348 0.014082 -0.003820 -0.002214 -0.002072 0.003380
# 3 -0.004053 -0.003820 0.021651 -0.003640 -0.007296 0.000259
# 4 0.000565 -0.002214 -0.003640 0.028721 0.001155 -0.008102
# 5 0.000227 -0.002072 -0.007296 0.001155 0.020601 -0.002298
# 6 0.001383 0.003380 0.000259 -0.008102 -0.002298 0.027027
#
#
# Mechanical properties :
#
#
# Convention : Reuss Voigt Hill
#
# Bulk Modulus (GPa) = 44.62311 65.66419 55.14365
# Shear Modulus (GPa) = 33.08792 41.05844 37.07318
#
# Velocity S-wave (km/s) = 3.94900 4.39899 4.18005
# Velocity P-wave (km/s) = 6.46714 7.53323 7.02045
#
# Compressibility (1/GPa) = 0.02240991
#
# Stress axis : x y z
#
# Youngs Moduli (GPa) = 109.65807 71.01353 46.18810
#
# Poissons Ratio (x) = 0.23772 0.18721
# Poissons Ratio (y) = 0.36708 0.17644
# Poissons Ratio (z) = 0.44448 0.27128
#
# Static dielectric constant tensor:
#      x y z
#    x 4.035470 -0.079370 0.280310 
#    y -0.079370 3.790220 0.055330 
#    z 0.280310 0.055330 3.996240 
# 
# 
# High freq. dielectric constant tensor:
#      x y z
#    x 1.846940 -0.003700 0.018000 
#    y -0.003700 1.821750 0.001220 
#    z 0.018000 0.001220 1.839010 
# 
# From -- ./inp_files/417341.got.cif
#   From: 2010.06.25/outbox.cif.g09.slc.cpg/sg2_209_cif.got.tgz:417341.got - 2010.06.27 13:26:56.
