data_PCOD8031565
_publ_section_title
;
Structure prediction by ZEFSAII (Michael W. Deem and Ramdas Pophale) SiO2 
 PCOD8031565
Probable space group: P -1
;
_chemical_formula_sum "Si O2"
_cell_formula_units_Z 16
_cell_length_a 8.303956
_cell_length_b 8.137679
_cell_length_c 11.752077
_cell_angle_alpha 82.452371
_cell_angle_beta 55.464183
_cell_angle_gamma 78.874931
_cell_volume 641.664601
_symmetry_space_group_name_H-M "P -1"
_symmetry_group_IT_number 2
_symmetry_cell_setting 'triclinic'
loop_
_space_group_symop_operation_xyz
x,y,z
-x,-y,-z
loop_
_atom_site_type_symbol
_atom_site_label
_atom_site_fract_x
_atom_site_fract_y
_atom_site_fract_z
Si Si1 0.806654 0.208574 0.531361
Si Si2 0.885047 0.184622 0.743211
Si Si3 0.378155 0.276005 0.665765
Si Si4 0.517897 0.804943 0.983269
Si Si5 0.241267 0.958708 0.671912
Si Si6 0.825035 0.563744 0.462013
Si Si7 0.483358 0.689678 0.756416
Si Si8 0.779069 0.594350 0.068951
O O1 0.859675 0.100095 0.635042
O O2 0.586367 0.304720 0.630183
O O3 0.796275 0.094411 0.436889
O O4 0.925850 0.370111 0.460672
O O5 0.994592 0.341526 0.655553
O O6 0.679909 0.255181 0.880316
O O7 0.019152 0.051903 0.783856
O O8 0.312598 0.432665 0.594914
O O9 0.235398 0.275269 0.831936
O O10 0.385434 0.102152 0.606803
O O11 0.528953 0.782198 0.845811
O O12 0.716890 0.699793 0.968765
O O13 0.500000 0.000000 0.000000
O O14 0.320304 0.808600 0.736328
O O15 0.691220 0.647968 0.611946
O O16 0.381120 0.529907 0.840046
O O17 0.000000 0.500000 0.000000
#
# Coordination Sequence:
#
# PCOD8031565 Si02
#       8
#     2   2   2   2   2   2   2   2
#     4  12  21  44  71 107 148 192 244 308 372 430
#     4  11  27  45  73 107 150 194 247 308 367 447
#     4  11  22  44  72 105 148 188 250 299 374 432
#     4  12  29  53  77 107 154 198 245 307 375 445
#     4  11  26  41  72 109 148 197 244 305 369 439
#     4  11  24  45  75 107 144 195 246 314 367 441
#     4  12  26  48  75 109 150 196 253 303 372 440
#     4  12  28  50  79 111 146 200 251 307 366 448
#
# _framework density 24.935148000000002
#
# number of rings (size 3 to 8) (size 9 to 14) (size 15 to 20)
#    0.000    0.500    3.750    3.375    7.000    1.500 
#    2.250    0.000    0.000    0.000    0.000    0.000 
#    0.000    0.000    0.000    0.000    0.000    0.000 
#
# Total GULP energy -198245.923353 kJ/mol
# GULP energy per Si atom -12390.370210 kJ/mol
# Density = 2.487839 g / cm^3
# Si number density = 24.935148 Si / 1000 Ang^3
#
#
#
# Elastic Constant Matrix: (Units=GPa)
#
#
# Indices 1 2 3 4 5 6 
#
# 1 127.2475 27.4273 37.7101 -1.0468 9.5772 -30.8769
# 2 27.4273 74.7918 -3.0380 -9.8004 -0.8884 1.5496
# 3 37.7101 -3.0380 74.6594 1.5994 -1.3015 19.9662
# 4 -1.0468 -9.8004 1.5994 30.1318 2.7128 12.8803
# 5 9.5772 -0.8884 -1.3015 2.7128 53.4884 -2.4022
# 6 -30.8769 1.5496 19.9662 12.8803 -2.4022 47.0961
#
#
#
# Elastic Compliance Matrix: (Units=1/GPa)
#
#
# Indices 1 2 3 4 5 6 
#
# 1 0.022058 -0.011064 -0.018297 -0.012688 -0.002771 0.025911
# 2 -0.011064 0.019755 0.010299 0.012002 0.001255 -0.015489
# 3 -0.018297 0.010299 0.030503 0.013188 0.002229 -0.028759
# 4 -0.012688 0.012002 0.013188 0.047743 -0.000860 -0.027405
# 5 -0.002771 0.001255 0.002229 -0.000860 0.019239 -0.001587
# 6 0.025911 -0.015489 -0.028759 -0.027405 -0.001587 0.058337
#
#
# Mechanical properties :
#
#
# Convention : Reuss Voigt Hill
#
# Bulk Modulus (GPa) = 29.24803 44.54415 36.89609
# Shear Modulus (GPa) = 20.23021 40.44987 30.34004
#
# Velocity S-wave (km/s) = 2.85145 4.03203 3.49199
# Velocity P-wave (km/s) = 4.75353 6.29119 5.57563
#
# Compressibility (1/GPa) = 0.03419034
#
# Stress axis : x y z
#
# Youngs Moduli (GPa) = 45.33595 50.62053 32.78414
#
# Poissons Ratio (x) = 0.56009 0.59986
# Poissons Ratio (y) = 0.50162 -0.33766
# Poissons Ratio (z) = 0.82952 -0.52136
#
# Static dielectric constant tensor:
#      x y z
#    x 5.205840 -0.307420 0.175430 
#    y -0.307420 4.468140 0.034380 
#    z 0.175430 0.034380 4.515050 
# 
# 
# High freq. dielectric constant tensor:
#      x y z
#    x 2.026520 -0.006230 0.008570 
#    y -0.006230 1.992930 0.005730 
#    z 0.008570 0.005730 1.977720 
# 
# From -- ./inp_files/381875.got.cif
#   From: 2010.06.25/outbox.cif.g09.slc.cpg/sg2_191_cif.got.tgz:381875.got - 2010.06.27 13:26:56.
