data_PCOD8031509
_publ_section_title
;
Structure prediction by ZEFSAII (Michael W. Deem and Ramdas Pophale) SiO2 
 PCOD8031509
Probable space group: P -1
;
_chemical_formula_sum "Si O2"
_cell_formula_units_Z 16
_cell_length_a 13.945378
_cell_length_b 15.221103
_cell_length_c 11.079281
_cell_angle_alpha 62.896564
_cell_angle_beta 32.423419
_cell_angle_gamma 40.807841
_cell_volume 702.289058
_symmetry_space_group_name_H-M "P -1"
_symmetry_group_IT_number 2
_symmetry_cell_setting 'triclinic'
loop_
_space_group_symop_operation_xyz
x,y,z
-x,-y,-z
loop_
_atom_site_type_symbol
_atom_site_label
_atom_site_fract_x
_atom_site_fract_y
_atom_site_fract_z
Si Si1 0.346373 0.562625 0.815452
Si Si2 0.711921 0.813448 0.393111
Si Si3 0.649686 0.357567 0.847516
Si Si4 0.856233 0.842213 0.854182
Si Si5 0.249597 0.150149 0.310571
Si Si6 0.591238 0.314153 0.529833
Si Si7 0.786807 0.678949 0.144734
Si Si8 0.294791 0.318417 0.286662
O O1 0.602876 0.420701 0.722190
O O2 0.348131 0.475165 0.767240
O O3 0.407005 0.639516 0.635687
O O4 0.045172 0.702531 0.117972
O O5 0.702412 0.747899 0.326387
O O6 0.631115 0.781272 0.614247
O O7 0.500000 0.000000 0.500000
O O8 0.981315 0.218480 0.623088
O O9 0.500000 0.500000 0.000000
O O10 0.541839 0.292288 0.018155
O O11 0.791199 0.876413 0.761801
O O12 0.095140 0.816854 0.659343
O O13 0.949095 0.695020 0.890187
O O14 0.548814 0.989835 0.154466
O O15 0.254938 0.267277 0.241807
O O16 0.511737 0.232804 0.651684
O O17 0.000000 0.500000 0.000000
O O18 0.000000 0.500000 0.500000
#
# Coordination Sequence:
#
# PCOD8031509 Si02
#       8
#     2   2   2   2   2   2   2   2
#     4  11  22  44  70 103 143 182 236 301 355 422
#     4  12  26  48  72 106 156 188 236 307 366 426
#     4  12  25  43  72 104 143 188 245 293 351 438
#     4  11  25  46  71 104 144 181 229 312 363 413
#     4  11  26  46  71 101 145 186 233 297 369 425
#     4  11  23  42  73 105 139 183 240 298 352 433
#     4  12  25  41  77 106 136 189 247 288 357 438
#     4  12  26  43  73 104 140 197 243 286 354 446
#
# _framework density 22.782641999999999
#
# number of rings (size 3 to 8) (size 9 to 14) (size 15 to 20)
#    0.000    0.500    6.250    1.500    5.250    1.000 
#    0.000    3.125    0.000    0.000    0.000    0.000 
#    0.000    0.000    0.000    0.000    0.000    0.000 
#
# Total GULP energy -198234.333623 kJ/mol
# GULP energy per Si atom -12389.645851 kJ/mol
# Density = 2.273079 g / cm^3
# Si number density = 22.782642 Si / 1000 Ang^3
#
#
#
# Elastic Constant Matrix: (Units=GPa)
#
#
# Indices 1 2 3 4 5 6 
#
# 1 99.9976 32.5294 34.0280 -4.5679 -11.1423 12.4700
# 2 32.5294 81.2393 30.6970 16.8403 -5.6061 -1.0518
# 3 34.0280 30.6970 119.3953 16.8149 -23.0023 6.2318
# 4 -4.5679 16.8403 16.8149 43.3727 -4.7144 -1.4049
# 5 -11.1423 -5.6061 -23.0023 -4.7144 44.1241 -10.0764
# 6 12.4700 -1.0518 6.2318 -1.4049 -10.0764 36.7357
#
#
#
# Elastic Compliance Matrix: (Units=1/GPa)
#
#
# Indices 1 2 3 4 5 6 
#
# 1 0.013424 -0.005261 -0.002732 0.004490 0.000904 -0.003824
# 2 -0.005261 0.016467 -0.002079 -0.006119 -0.000460 0.002250
# 3 -0.002732 -0.002079 0.011001 -0.003258 0.004455 0.000099
# 4 0.004490 -0.006119 -0.003258 0.027360 0.001662 0.000356
# 5 0.000904 -0.000460 0.004455 0.001662 0.026780 0.006333
# 6 -0.003824 0.002250 0.000099 0.000356 0.006333 0.030318
#
#
# Mechanical properties :
#
#
# Convention : Reuss Voigt Hill
#
# Bulk Modulus (GPa) = 48.19545 55.01568 51.60557
# Shear Modulus (GPa) = 32.80669 38.40504 35.60586
#
# Velocity S-wave (km/s) = 3.79883 4.11020 3.95758
# Velocity P-wave (km/s) = 6.35939 6.83560 6.60179
#
# Compressibility (1/GPa) = 0.02074885
#
# Stress axis : x y z
#
# Youngs Moduli (GPa) = 74.49405 60.72739 90.90440
#
# Poissons Ratio (x) = 0.31947 0.24834
# Poissons Ratio (y) = 0.39189 0.18896
# Poissons Ratio (z) = 0.20351 0.12623
#
# Static dielectric constant tensor:
#      x y z
#    x 4.800740 0.354890 -1.049990 
#    y 0.354890 4.508210 0.035540 
#    z -1.049990 0.035540 5.553070 
# 
# 
# High freq. dielectric constant tensor:
#      x y z
#    x 1.910410 0.004300 -0.005990 
#    y 0.004300 1.881760 0.011050 
#    z -0.005990 0.011050 1.916370 
# 
# From -- ./inp_files/455590.got.cif
#   From: 2010.06.25/outbox.cif.g09.slc.cpg/sg2_228_cif.got.tgz:455590.got - 2010.06.27 13:26:56.
