data_PCOD8031429
_publ_section_title
;
Structure prediction by ZEFSAII (Michael W. Deem and Ramdas Pophale) SiO2 
 PCOD8031429
Probable space group: P -1
;
_chemical_formula_sum "Si O2"
_cell_formula_units_Z 16
_cell_length_a 17.030140
_cell_length_b 20.186480
_cell_length_c 11.593316
_cell_angle_alpha 42.183311
_cell_angle_beta 30.916107
_cell_angle_gamma 21.146085
_cell_volume 700.072538
_symmetry_space_group_name_H-M "P -1"
_symmetry_group_IT_number 2
_symmetry_cell_setting 'triclinic'
loop_
_space_group_symop_operation_xyz
x,y,z
-x,-y,-z
loop_
_atom_site_type_symbol
_atom_site_label
_atom_site_fract_x
_atom_site_fract_y
_atom_site_fract_z
Si Si1 0.879977 0.038477 0.977128
Si Si2 0.233854 0.582331 0.772951
Si Si3 0.159431 0.934057 0.539475
Si Si4 0.745970 0.556151 0.862309
Si Si5 0.233796 0.009215 0.140470
Si Si6 0.115490 0.323864 0.351551
Si Si7 0.179131 0.495466 0.744443
Si Si8 0.147968 0.178468 0.703868
O O1 0.535501 0.263201 0.099695
O O2 0.098247 0.980561 0.692477
O O3 0.922145 0.897368 0.083615
O O4 0.000000 0.000000 0.000000
O O5 0.500000 0.500000 0.500000
O O6 0.066727 0.635462 0.800335
O O7 0.981084 0.784479 0.898886
O O8 0.359095 0.429734 0.899666
O O9 0.465255 0.705946 0.424577
O O10 0.867950 0.036484 0.730107
O O11 0.195859 0.017194 0.317302
O O12 0.922672 0.559876 0.665335
O O13 0.965129 0.354465 0.789094
O O14 0.564694 0.851413 0.887873
O O15 0.065576 0.252425 0.580454
O O16 0.869667 0.452788 0.394716
O O17 0.000000 0.500000 0.000000
O O18 0.500000 0.000000 0.500000
#
# Coordination Sequence:
#
# PCOD8031429 Si02
#       8
#     2   2   2   2   2   2   2   2
#     4  12  29  49  73 108 146 195 246 304 363 431
#     4  12  24  41  73 108 142 187 242 294 368 439
#     4  11  22  45  72 100 146 186 238 293 365 430
#     4  12  25  47  76 102 147 198 244 295 371 426
#     4  11  22  43  75 104 140 191 239 295 358 446
#     4  12  25  47  73 106 148 192 243 303 370 422
#     4  12  25  44  68 109 144 184 234 306 366 427
#     4  12  27  48  76 107 141 195 255 293 357 448
#
# _framework density 22.854775
#
# number of rings (size 3 to 8) (size 9 to 14) (size 15 to 20)
#    0.000    0.250    6.250    2.625    1.750    3.000 
#    2.250    0.000    0.000    0.000    0.000    0.000 
#    0.000    0.000    0.000    0.000    0.000    0.000 
#
# Total GULP energy -198326.758860 kJ/mol
# GULP energy per Si atom -12395.422429 kJ/mol
# Density = 2.280276 g / cm^3
# Si number density = 22.854775 Si / 1000 Ang^3
#
#
#
# Elastic Constant Matrix: (Units=GPa)
#
#
# Indices 1 2 3 4 5 6 
#
# 1 131.0078 45.9006 21.7268 -3.9856 13.4762 -11.3494
# 2 45.9006 128.3877 27.2750 -4.0210 5.6687 -1.2305
# 3 21.7268 27.2750 90.4414 -6.3796 15.3858 -3.0816
# 4 -3.9856 -4.0210 -6.3796 35.8890 -7.7131 9.8996
# 5 13.4762 5.6687 15.3858 -7.7131 35.9726 -7.0360
# 6 -11.3494 -1.2305 -3.0816 9.8996 -7.0360 43.3763
#
#
#
# Elastic Compliance Matrix: (Units=1/GPa)
#
#
# Indices 1 2 3 4 5 6 
#
# 1 0.009230 -0.003007 -0.000883 -0.000523 -0.002325 0.002009
# 2 -0.003007 0.009311 -0.002164 0.000651 0.000581 -0.000731
# 3 -0.000883 -0.002164 0.012772 0.001035 -0.004642 -0.000374
# 4 -0.000523 0.000651 0.001035 0.030877 0.005044 -0.006274
# 5 -0.002325 0.000581 -0.004642 0.005044 0.032263 0.003161
# 6 0.002009 -0.000731 -0.000374 -0.006274 0.003161 0.025477
#
#
# Mechanical properties :
#
#
# Convention : Reuss Voigt Hill
#
# Bulk Modulus (GPa) = 52.06827 59.96020 56.01423
# Shear Modulus (GPa) = 36.11661 40.04321 38.07991
#
# Velocity S-wave (km/s) = 3.97957 4.19032 4.08630
# Velocity P-wave (km/s) = 6.62930 7.05010 6.84294
#
# Compressibility (1/GPa) = 0.01920556
#
# Stress axis : x y z
#
# Youngs Moduli (GPa) = 108.33659 107.39696 78.29911
#
# Poissons Ratio (x) = 0.32292 0.06918
# Poissons Ratio (y) = 0.32575 0.16941
# Poissons Ratio (z) = 0.09571 0.23236
#
# Static dielectric constant tensor:
#      x y z
#    x 4.112870 -0.241150 0.301860 
#    y -0.241150 4.771400 -0.404120 
#    z 0.301860 -0.404120 4.384110 
# 
# 
# High freq. dielectric constant tensor:
#      x y z
#    x 1.894790 -0.010430 0.022980 
#    y -0.010430 1.912710 -0.005730 
#    z 0.022980 -0.005730 1.909840 
# 
# From -- ./inp_files/467089.got.cif
#   From: 2010.06.25/outbox.cif.g09.slc.cpg/sg2_234_cif.got.tgz:467089.got - 2010.06.27 13:26:56.
