data_PCOD8031184
_publ_section_title
;
Structure prediction by ZEFSAII (Michael W. Deem and Ramdas Pophale) SiO2 
 PCOD8031184
Probable space group: P -1
;
_chemical_formula_sum "Si O2"
_cell_formula_units_Z 16
_cell_length_a 12.109607
_cell_length_b 11.837166
_cell_length_c 5.211319
_cell_angle_alpha 85.950535
_cell_angle_beta 99.848047
_cell_angle_gamma 114.957502
_cell_volume 667.272987
_symmetry_space_group_name_H-M "P -1"
_symmetry_group_IT_number 2
_symmetry_cell_setting 'triclinic'
loop_
_space_group_symop_operation_xyz
x,y,z
-x,-y,-z
loop_
_atom_site_type_symbol
_atom_site_label
_atom_site_fract_x
_atom_site_fract_y
_atom_site_fract_z
Si Si1 0.201728 0.957586 0.983407
Si Si2 0.494113 0.754136 0.661236
Si Si3 0.217095 0.595334 0.615971
Si Si4 0.900052 0.671087 0.166899
Si Si5 0.449678 0.091856 0.841327
Si Si6 0.247242 0.215610 0.214524
Si Si7 0.021222 0.137343 0.437581
Si Si8 0.140606 0.695890 0.076017
O O1 0.066406 0.872098 0.833359
O O2 0.300614 0.019857 0.784094
O O3 0.224168 0.844554 0.146264
O O4 0.206875 0.069188 0.149877
O O5 0.362522 0.639443 0.609110
O O6 0.502030 0.858615 0.433735
O O7 0.608551 0.716186 0.662250
O O8 0.511730 0.797591 0.955646
O O9 0.162209 0.448625 0.660424
O O10 0.155634 0.618404 0.333228
O O11 0.192627 0.664810 0.839315
O O12 0.001869 0.789626 0.344763
O O13 0.990909 0.652159 0.994209
O O14 0.789855 0.706237 0.022912
O O15 0.500000 0.000000 0.000000
O O16 0.166266 0.215493 0.426623
O O17 0.000000 0.000000 0.500000
#
# Coordination Sequence:
#
# PCOD8031184 Si02
#       8
#     2   2   2   2   2   2   2   2
#     4  11  22  42  71 107 143 180 229 300 361 422
#     4  11  25  45  68 101 142 186 237 289 343 422
#     4  12  28  49  72 101 143 194 243 286 346 419
#     4  12  27  45  72 104 142 188 235 297 351 424
#     4  11  23  42  69 102 140 187 236 288 347 415
#     4  11  25  43  69 107 142 181 236 291 363 417
#     4  12  22  41  69 104 143 177 230 289 365 419
#     4  12  26  47  73 106 141 186 239 294 354 419
#
# _framework density 23.978193000000001
#
# number of rings (size 3 to 8) (size 9 to 14) (size 15 to 20)
#    0.000    0.500    2.500    6.000    3.500    4.500 
#    0.000    0.625    0.000    0.000    0.000    0.000 
#    0.000    0.000    0.000    0.000    0.000    0.000 
#
# Total GULP energy -198257.347127 kJ/mol
# GULP energy per Si atom -12391.084195 kJ/mol
# Density = 2.392362 g / cm^3
# Si number density = 23.978193 Si / 1000 Ang^3
#
#
#
# Elastic Constant Matrix: (Units=GPa)
#
#
# Indices 1 2 3 4 5 6 
#
# 1 122.2825 28.8474 22.1975 7.7711 9.9465 19.4635
# 2 28.8474 104.3943 25.0386 -23.1986 9.9693 2.6828
# 3 22.1975 25.0386 102.0544 -10.9520 3.8999 -3.7436
# 4 7.7711 -23.1986 -10.9520 30.1056 -1.6036 -0.7671
# 5 9.9465 9.9693 3.8999 -1.6036 36.6050 -6.5662
# 6 19.4635 2.6828 -3.7436 -0.7671 -6.5662 36.5700
#
#
#
# Elastic Compliance Matrix: (Units=1/GPa)
#
#
# Indices 1 2 3 4 5 6 
#
# 1 0.011233 -0.003559 -0.002426 -0.006873 -0.003329 -0.006708
# 2 -0.003559 0.013418 -0.001270 0.010708 -0.001966 0.000652
# 3 -0.002426 -0.001270 0.011125 0.003789 0.000468 0.002687
# 4 -0.006873 0.010708 0.003789 0.044803 0.001306 0.004435
# 5 -0.003329 -0.001966 0.000468 0.001306 0.030092 0.007394
# 6 -0.006708 0.000652 0.002687 0.004435 0.007394 0.032563
#
#
# Mechanical properties :
#
#
# Convention : Reuss Voigt Hill
#
# Bulk Modulus (GPa) = 47.02483 53.43315 50.22899
# Shear Modulus (GPa) = 30.33379 37.49931 33.91655
#
# Velocity S-wave (km/s) = 3.56062 3.95890 3.76503
# Velocity P-wave (km/s) = 6.04633 6.57492 6.31616
#
# Compressibility (1/GPa) = 0.02126536
#
# Stress axis : x y z
#
# Youngs Moduli (GPa) = 89.02273 74.52878 89.88576
#
# Poissons Ratio (x) = 0.26526 0.21811
# Poissons Ratio (y) = 0.31685 0.11412
# Poissons Ratio (z) = 0.21601 0.09463
#
# Static dielectric constant tensor:
#      x y z
#    x 4.666690 0.052970 -0.137870 
#    y 0.052970 4.085660 -0.007170 
#    z -0.137870 -0.007170 4.128330 
# 
# 
# High freq. dielectric constant tensor:
#      x y z
#    x 1.968310 0.002500 -0.003480 
#    y 0.002500 1.939580 -0.020950 
#    z -0.003480 -0.020950 1.948320 
# 
# From -- ./inp_files/69994.got.cif
#   From: 2010.06.25/outbox.cif.g09.slc.cpg/sg2_35_cif.got.tgz:69994.got - 2010.06.27 13:26:56.
