data_PCOD8031568
_publ_section_title
;
Structure prediction by ZEFSAII (Michael W. Deem and Ramdas Pophale) SiO2 
 PCOD8031568
Probable space group: P -1
;
_chemical_formula_sum "Si O2"
_cell_formula_units_Z 16
_cell_length_a 17.914438
_cell_length_b 9.115202
_cell_length_c 12.151302
_cell_angle_alpha 56.288318
_cell_angle_beta 150.980315
_cell_angle_gamma 130.955435
_cell_volume 726.058104
_symmetry_space_group_name_H-M "P -1"
_symmetry_group_IT_number 2
_symmetry_cell_setting 'triclinic'
loop_
_space_group_symop_operation_xyz
x,y,z
-x,-y,-z
loop_
_atom_site_type_symbol
_atom_site_label
_atom_site_fract_x
_atom_site_fract_y
_atom_site_fract_z
Si Si1 0.697077 0.637650 0.973663
Si Si2 0.508373 0.330813 0.007642
Si Si3 0.203430 0.998386 0.683383
Si Si4 0.016512 0.821498 0.154603
Si Si5 0.037583 0.327943 0.080747
Si Si6 0.575290 0.597793 0.441926
Si Si7 0.651770 0.033325 0.333087
Si Si8 0.135504 0.994351 0.835586
O O1 0.667857 0.443112 0.085308
O O2 0.708939 0.807241 0.004743
O O3 0.865572 0.706206 0.091050
O O4 0.528249 0.570239 0.709572
O O5 0.539569 0.149714 0.175214
O O6 0.500000 0.500000 0.000000
O O7 0.325056 0.231150 0.751256
O O8 0.186536 0.913439 0.822730
O O9 0.292767 0.911099 0.747035
O O10 0.021542 0.956577 0.417701
O O11 0.190178 0.895628 0.411796
O O12 0.011088 0.681827 0.106177
O O13 0.000000 0.000000 0.000000
O O14 0.227418 0.353295 0.334642
O O15 0.909571 0.144907 0.060506
O O16 0.000000 0.500000 0.000000
O O17 0.500000 0.500000 0.500000
O O18 0.551090 0.798728 0.313561
#
# Coordination Sequence:
#
# PCOD8031568 Si02
#       8
#     2   2   2   2   2   2   2   2
#     4  12  22  42  73 100 139 181 240 293 345 421
#     4  12  27  44  66 105 142 181 236 296 352 420
#     4  11  22  44  72  94 142 181 225 281 353 416
#     4  12  22  46  72  99 138 183 240 291 348 424
#     4  12  26  46  70 104 141 183 235 295 353 417
#     4  12  24  44  74 103 138 188 241 290 353 425
#     4  12  25  45  73 100 141 191 231 291 356 422
#     4  11  23  43  72  97 139 184 222 291 348 412
#
# _framework density 22.036805999999999
#
# number of rings (size 3 to 8) (size 9 to 14) (size 15 to 20)
#    0.000    0.250    8.750    0.375    0.000    4.500 
#    0.000    0.625    0.000    0.000    0.000    0.000 
#    0.000    0.000    0.000    0.000    0.000    0.000 
#
# Total GULP energy -198220.896749 kJ/mol
# GULP energy per Si atom -12388.806047 kJ/mol
# Density = 2.198665 g / cm^3
# Si number density = 22.036806 Si / 1000 Ang^3
#
#
#
# Elastic Constant Matrix: (Units=GPa)
#
#
# Indices 1 2 3 4 5 6 
#
# 1 98.8189 39.5926 39.0755 -8.5465 -12.4257 -8.5879
# 2 39.5926 110.5676 59.4835 6.0429 5.5083 -7.0185
# 3 39.0755 59.4835 95.8830 23.1150 -14.5936 -12.2964
# 4 -8.5465 6.0429 23.1150 38.2124 -7.0551 -1.9410
# 5 -12.4257 5.5083 -14.5936 -7.0551 34.5232 10.3794
# 6 -8.5879 -7.0185 -12.2964 -1.9410 10.3794 52.0228
#
#
#
# Elastic Compliance Matrix: (Units=1/GPa)
#
#
# Indices 1 2 3 4 5 6 
#
# 1 0.014787 -0.003237 -0.005111 0.007887 0.005278 0.000037
# 2 -0.003237 0.015966 -0.010014 0.001390 -0.007928 0.000886
# 3 -0.005111 -0.010014 0.022813 -0.012087 0.006495 0.001451
# 4 0.007887 0.001390 -0.012087 0.035925 0.005168 -0.001058
# 5 0.005278 -0.007928 0.006495 0.005168 0.037736 -0.005999
# 6 0.000037 0.000886 0.001451 -0.001058 -0.005999 0.020848
#
#
# Mechanical properties :
#
#
# Convention : Reuss Voigt Hill
#
# Bulk Modulus (GPa) = 59.37573 64.61920 61.99747
# Shear Modulus (GPa) = 26.25876 36.09287 31.17581
#
# Velocity S-wave (km/s) = 3.45568 4.05142 3.76535
# Velocity P-wave (km/s) = 6.55169 7.16047 6.86283
#
# Compressibility (1/GPa) = 0.01684190
#
# Stress axis : x y z
#
# Youngs Moduli (GPa) = 67.62884 62.63431 43.83455
#
# Poissons Ratio (x) = 0.20273 0.22405
# Poissons Ratio (y) = 0.21890 0.43895
# Poissons Ratio (z) = 0.34567 0.62720
#
# Static dielectric constant tensor:
#      x y z
#    x 4.207410 0.019080 0.231800 
#    y 0.019080 4.026500 0.509570 
#    z 0.231800 0.509570 3.343630 
# 
# 
# High freq. dielectric constant tensor:
#      x y z
#    x 1.889760 0.011070 -0.016110 
#    y 0.011070 1.862990 0.031210 
#    z -0.016110 0.031210 1.861170 
# 
# From -- ./inp_files/298053.got.cif
#   From: 2010.06.25/outbox.cif.g09.slc.cpg/sg2_150_cif.got.tgz:298053.got - 2010.06.27 13:26:56.
