data_PCOD8031494
_publ_section_title
;
Structure prediction by ZEFSAII (Michael W. Deem and Ramdas Pophale) SiO2 
 PCOD8031494
Probable space group: P -1
;
_chemical_formula_sum "Si O2"
_cell_formula_units_Z 16
_cell_length_a 13.160532
_cell_length_b 8.648248
_cell_length_c 15.655976
_cell_angle_alpha 72.358745
_cell_angle_beta 151.869915
_cell_angle_gamma 114.883039
_cell_volume 752.432253
_symmetry_space_group_name_H-M "P -1"
_symmetry_group_IT_number 2
_symmetry_cell_setting 'triclinic'
loop_
_space_group_symop_operation_xyz
x,y,z
-x,-y,-z
loop_
_atom_site_type_symbol
_atom_site_label
_atom_site_fract_x
_atom_site_fract_y
_atom_site_fract_z
Si Si1 0.293224 0.415107 0.718952
Si Si2 0.260178 0.593315 0.202961
Si Si3 0.383396 0.917114 0.121605
Si Si4 0.784200 0.251533 0.328555
Si Si5 0.702646 0.300319 0.069870
Si Si6 0.869029 0.889030 0.999253
Si Si7 0.887523 0.363603 0.731240
Si Si8 0.522524 0.399760 0.336361
O O1 0.315937 0.597859 0.747341
O O2 0.367383 0.437674 0.671161
O O3 0.031517 0.286162 0.549658
O O4 0.464322 0.334609 0.906821
O O5 0.382671 0.766925 0.211487
O O6 0.265722 0.634022 0.300195
O O7 0.391321 0.458686 0.305157
O O8 0.000000 0.500000 0.000000
O O9 0.628640 0.068791 0.281925
O O10 0.184797 0.990832 0.989513
O O11 0.336702 0.854145 0.000293
O O12 0.795679 0.245985 0.235095
O O13 0.888606 0.466959 0.137342
O O14 0.638479 0.754115 0.813693
O O15 0.030527 0.799806 0.179128
O O16 0.000000 0.000000 0.000000
O O17 0.725205 0.340499 0.533117
#
# Coordination Sequence:
#
# PCOD8031494 Si02
#       8
#     2   2   2   2   2   2   2   2
#     4  11  22  44  69  93 130 177 218 273 328 391
#     4  12  21  44  70  96 134 178 214 272 331 392
#     4  12  23  42  69  98 135 176 214 275 339 381
#     4  11  25  42  66  97 132 170 224 274 326 393
#     4  12  23  43  69  97 131 172 223 267 330 392
#     4  12  24  44  66  96 140 171 216 276 329 385
#     4  12  24  42  72  98 128 179 223 262 327 402
#     4  12  23  44  70  97 130 177 225 265 327 398
#
# _framework density 21.264372000000002
#
# number of rings (size 3 to 8) (size 9 to 14) (size 15 to 20)
#    0.000    0.250    8.750    1.125    0.000    1.000 
#    0.000    1.250    0.000    0.000    0.000    0.000 
#    0.000    0.000    0.000    0.000    0.000    0.000 
#
# Total GULP energy -198468.240697 kJ/mol
# GULP energy per Si atom -12404.265044 kJ/mol
# Density = 2.121597 g / cm^3
# Si number density = 21.264372 Si / 1000 Ang^3
#
#
#
# Elastic Constant Matrix: (Units=GPa)
#
#
# Indices 1 2 3 4 5 6 
#
# 1 91.1963 27.8253 18.6045 10.5227 12.2350 -6.3992
# 2 27.8253 98.6430 44.0293 7.8829 14.6247 2.2976
# 3 18.6045 44.0293 107.6591 -7.5212 7.9329 -4.4297
# 4 10.5227 7.8829 -7.5212 19.4725 4.1053 9.9347
# 5 12.2350 14.6247 7.9329 4.1053 27.9528 -3.0166
# 6 -6.3992 2.2976 -4.4297 9.9347 -3.0166 47.4167
#
#
#
# Elastic Compliance Matrix: (Units=1/GPa)
#
#
# Indices 1 2 3 4 5 6 
#
# 1 0.013497 -0.002040 -0.001732 -0.008238 -0.002782 0.003308
# 2 -0.002040 0.014310 -0.005608 -0.005672 -0.004231 -0.000573
# 3 -0.001732 -0.005608 0.012548 0.008656 -0.001213 -0.000681
# 4 -0.008238 -0.005672 0.008656 0.070988 -0.007972 -0.015409
# 5 -0.002782 -0.004231 -0.001213 -0.007972 0.041153 0.004005
# 6 0.003308 -0.000573 -0.000681 -0.015409 0.004005 0.024983
#
#
# Mechanical properties :
#
#
# Convention : Reuss Voigt Hill
#
# Bulk Modulus (GPa) = 46.31019 53.15739 49.73379
# Shear Modulus (GPa) = 24.57750 32.77102 28.67426
#
# Velocity S-wave (km/s) = 3.40340 3.92997 3.67613
# Velocity P-wave (km/s) = 6.10490 6.75615 6.43876
#
# Compressibility (1/GPa) = 0.02159352
#
# Stress axis : x y z
#
# Youngs Moduli (GPa) = 74.08977 69.88060 79.69705
#
# Poissons Ratio (x) = 0.14258 0.13807
# Poissons Ratio (y) = 0.15117 0.44693
# Poissons Ratio (z) = 0.12836 0.39188
#
# Static dielectric constant tensor:
#      x y z
#    x 4.068850 -0.069700 0.039700 
#    y -0.069700 3.721440 0.006160 
#    z 0.039700 0.006160 3.601420 
# 
# 
# High freq. dielectric constant tensor:
#      x y z
#    x 1.851680 -0.001780 0.010110 
#    y -0.001780 1.829860 0.004870 
#    z 0.010110 0.004870 1.827920 
# 
# From -- ./inp_files/304591.got.cif
#   From: 2010.06.25/outbox.cif.g09.slc.cpg/sg2_153_cif.got.tgz:304591.got - 2010.06.27 13:26:56.
