data_PCOD8031418
_publ_section_title
;
Structure prediction by ZEFSAII (Michael W. Deem and Ramdas Pophale) SiO2 
 PCOD8031418
Probable space group: P -1
;
_chemical_formula_sum "Si O2"
_cell_formula_units_Z 16
_cell_length_a 14.020032
_cell_length_b 11.126778
_cell_length_c 9.003232
_cell_angle_alpha 53.254154
_cell_angle_beta 122.094337
_cell_angle_gamma 79.977781
_cell_volume 657.049664
_symmetry_space_group_name_H-M "P -1"
_symmetry_group_IT_number 2
_symmetry_cell_setting 'triclinic'
loop_
_space_group_symop_operation_xyz
x,y,z
-x,-y,-z
loop_
_atom_site_type_symbol
_atom_site_label
_atom_site_fract_x
_atom_site_fract_y
_atom_site_fract_z
Si Si1 0.757023 0.846304 0.301084
Si Si2 0.123429 0.764182 0.203711
Si Si3 0.805943 0.056517 0.391454
Si Si4 0.368632 0.990928 0.240791
Si Si5 0.301409 0.250154 0.400333
Si Si6 0.178944 0.694275 0.971429
Si Si7 0.064652 0.366921 0.888789
Si Si8 0.644906 0.294881 0.370605
O O1 0.686217 0.773195 0.391362
O O2 0.946017 0.625120 0.578153
O O3 0.717327 0.003185 0.282539
O O4 0.662230 0.998298 0.968588
O O5 0.283393 0.628521 0.541065
O O6 0.045141 0.674582 0.197411
O O7 0.181757 0.757338 0.094064
O O8 0.000000 0.000000 0.000000
O O9 0.734138 0.274442 0.092043
O O10 0.778974 0.091168 0.520713
O O11 0.992778 0.853276 0.652269
O O12 0.531340 0.939914 0.415154
O O13 0.397181 0.801208 0.480976
O O14 0.213673 0.232431 0.995572
O O15 0.272695 0.451902 0.201470
O O16 0.151633 0.292153 0.179423
O O17 0.500000 0.500000 0.000000
#
# Coordination Sequence:
#
# PCOD8031418 Si02
#       8
#     2   2   2   2   2   2   2   2
#     4  12  25  47  76 109 148 199 251 295 370 444
#     4  12  23  46  78 103 146 194 250 303 359 441
#     4  11  24  43  75 105 147 192 250 304 356 438
#     4  12  27  48  72 113 153 192 242 311 372 438
#     4  12  25  48  76 110 153 191 245 305 376 439
#     4  11  22  43  74 110 139 194 247 303 362 434
#     4  12  25  48  77 110 146 203 245 299 364 448
#     4  12  27  50  75 108 149 196 247 310 378 431
#
# _framework density 24.351281
#
# number of rings (size 3 to 8) (size 9 to 14) (size 15 to 20)
#    0.000    0.250    5.000    4.500    0.000    1.000 
#   11.250    2.500    0.000    0.000    0.000    0.000 
#    0.000    0.000    0.000    0.000    0.000    0.000 
#
# Total GULP energy -198262.669451 kJ/mol
# GULP energy per Si atom -12391.416841 kJ/mol
# Density = 2.429586 g / cm^3
# Si number density = 24.351281 Si / 1000 Ang^3
#
#
#
# Elastic Constant Matrix: (Units=GPa)
#
#
# Indices 1 2 3 4 5 6 
#
# 1 105.2525 40.2748 63.1572 5.8887 -0.7348 -6.6215
# 2 40.2748 105.9548 23.5427 13.9443 -4.5436 0.0888
# 3 63.1572 23.5427 102.2095 16.9645 -13.0774 4.0148
# 4 5.8887 13.9443 16.9645 44.0014 -4.0572 1.5139
# 5 -0.7348 -4.5436 -13.0774 -4.0572 38.9313 3.7982
# 6 -6.6215 0.0888 4.0148 1.5139 3.7982 38.9209
#
#
#
# Elastic Compliance Matrix: (Units=1/GPa)
#
#
# Indices 1 2 3 4 5 6 
#
# 1 0.018357 -0.005021 -0.011401 0.002984 -0.004208 0.004605
# 2 -0.005021 0.011574 0.001205 -0.003295 0.001416 -0.001015
# 3 -0.011401 0.001205 0.018347 -0.005236 0.005954 -0.004212
# 4 0.002984 -0.003295 -0.005236 0.025442 0.000563 0.000011
# 5 -0.004208 0.001416 0.005954 0.000563 0.028232 -0.004110
# 6 0.004605 -0.001015 -0.004212 0.000011 -0.004110 0.027314
#
#
# Mechanical properties :
#
#
# Convention : Reuss Voigt Hill
#
# Bulk Modulus (GPa) = 56.04282 63.04066 59.54174
# Shear Modulus (GPa) = 30.18422 36.80019 33.49221
#
# Velocity S-wave (km/s) = 3.52452 3.89166 3.71263
# Velocity P-wave (km/s) = 6.29502 6.79247 6.54847
#
# Compressibility (1/GPa) = 0.01784350
#
# Stress axis : x y z
#
# Youngs Moduli (GPa) = 54.47496 86.39890 54.50337
#
# Poissons Ratio (x) = 0.43385 0.62139
# Poissons Ratio (y) = 0.27354 -0.06567
# Poissons Ratio (z) = 0.62107 -0.10410
#
# Static dielectric constant tensor:
#      x y z
#    x 4.469870 0.000660 -0.011860 
#    y 0.000660 4.659550 0.107620 
#    z -0.011860 0.107620 4.554870 
# 
# 
# High freq. dielectric constant tensor:
#      x y z
#    x 1.964090 -0.011830 -0.006030 
#    y -0.011830 1.975640 0.000920 
#    z -0.006030 0.000920 1.968570 
# 
# From -- ./inp_files/306790.got.cif
#   From: 2010.06.25/outbox.cif.g09.slc.cpg/sg2_154_cif.got.tgz:306790.got - 2010.06.27 13:26:56.
