data_PCOD8031350
_publ_section_title
;
Structure prediction by ZEFSAII (Michael W. Deem and Ramdas Pophale) SiO2 
 PCOD8031350
Probable space group: P -1
;
_chemical_formula_sum "Si O2"
_cell_formula_units_Z 16
_cell_length_a 9.115395
_cell_length_b 15.966080
_cell_length_c 18.337384
_cell_angle_alpha 143.073379
_cell_angle_beta 30.925740
_cell_angle_gamma 143.323271
_cell_volume 763.370552
_symmetry_space_group_name_H-M "P -1"
_symmetry_group_IT_number 2
_symmetry_cell_setting 'triclinic'
loop_
_space_group_symop_operation_xyz
x,y,z
-x,-y,-z
loop_
_atom_site_type_symbol
_atom_site_label
_atom_site_fract_x
_atom_site_fract_y
_atom_site_fract_z
Si Si1 0.678995 0.862269 0.901365
Si Si2 0.249180 0.807210 0.910835
Si Si3 0.798507 0.183788 0.571593
Si Si4 0.308154 0.880358 0.593134
Si Si5 0.509758 0.657391 0.578225
Si Si6 0.358404 0.557420 0.890053
Si Si7 0.343591 0.600055 0.444024
Si Si8 0.422117 0.391474 0.889931
O O1 0.512120 0.817511 0.863620
O O2 0.498043 0.739986 0.955138
O O3 0.016129 0.856748 0.751752
O O4 0.702842 0.029036 0.028312
O O5 0.283875 0.709046 0.760104
O O6 0.919869 0.735006 0.042001
O O7 0.805255 0.131973 0.449961
O O8 0.677681 0.318725 0.723842
O O9 0.137046 0.226303 0.490526
O O10 0.568689 0.040655 0.613681
O O11 0.450861 0.755608 0.461996
O O12 0.500000 0.500000 0.500000
O O13 0.373121 0.637598 0.542320
O O14 0.450762 0.493031 0.732019
O O15 0.462688 0.494509 0.873327
O O16 0.000000 0.500000 0.000000
O O17 0.000000 0.500000 0.500000
O O18 0.500000 0.500000 0.000000
#
# Coordination Sequence:
#
# PCOD8031350 Si02
#       8
#     2   2   2   2   2   2   2   2
#     4  11  22  43  71 100 139 177 224 282 340 406
#     4  11  24  43  70 103 134 182 226 272 346 406
#     4  11  24  43  69 100 133 180 228 278 336 406
#     4  11  22  43  71  97 134 181 228 275 337 405
#     4  12  26  44  71 101 137 176 230 282 335 404
#     4  12  26  43  68 104 135 178 227 281 343 398
#     4  12  26  44  71  96 134 182 230 279 337 407
#     4  12  26  43  67 101 139 175 226 282 340 410
#
# _framework density 20.959676999999999
#
# number of rings (size 3 to 8) (size 9 to 14) (size 15 to 20)
#    0.000    0.500    6.250    2.250    3.500    1.500 
#    2.250    1.250    0.000    0.000    0.000    0.000 
#    0.000    0.000    0.000    0.000    0.000    0.000 
#
# Total GULP energy -198470.969209 kJ/mol
# GULP energy per Si atom -12404.435576 kJ/mol
# Density = 2.091197 g / cm^3
# Si number density = 20.959677 Si / 1000 Ang^3
#
#
#
# Elastic Constant Matrix: (Units=GPa)
#
#
# Indices 1 2 3 4 5 6 
#
# 1 87.1826 32.6253 14.2644 1.0797 8.7152 3.3359
# 2 32.6253 155.8010 28.2067 4.0764 -3.9715 -13.4258
# 3 14.2644 28.2067 101.3626 -1.3340 1.2313 1.3681
# 4 1.0797 4.0764 -1.3340 40.6427 4.3017 -7.2043
# 5 8.7152 -3.9715 1.2313 4.3017 33.6090 0.9079
# 6 3.3359 -13.4258 1.3681 -7.2043 0.9079 35.2579
#
#
#
# Elastic Compliance Matrix: (Units=1/GPa)
#
#
# Indices 1 2 3 4 5 6 
#
# 1 0.013150 -0.002857 -0.000983 -0.000104 -0.003638 -0.002222
# 2 -0.002857 0.007665 -0.001799 -0.000373 0.001676 0.003140
# 3 -0.000983 -0.001799 0.010527 0.000432 -0.000374 -0.000903
# 4 -0.000104 -0.000373 0.000432 0.025959 -0.003497 0.005245
# 5 -0.003638 0.001676 -0.000374 -0.003497 0.031371 -0.000526
# 6 -0.002222 0.003140 -0.000903 0.005245 -0.000526 0.030889
#
#
# Mechanical properties :
#
#
# Convention : Reuss Voigt Hill
#
# Bulk Modulus (GPa) = 49.83735 54.94878 52.39307
# Shear Modulus (GPa) = 36.35666 39.85189 38.10427
#
# Velocity S-wave (km/s) = 4.16937 4.36519 4.26840
# Velocity P-wave (km/s) = 6.85621 7.18887 7.02451
#
# Compressibility (1/GPa) = 0.02006527
#
# Stress axis : x y z
#
# Youngs Moduli (GPa) = 76.04453 130.45597 94.99571
#
# Poissons Ratio (x) = 0.37275 0.09335
# Poissons Ratio (y) = 0.21728 0.17086
# Poissons Ratio (z) = 0.07473 0.23464
#
# Static dielectric constant tensor:
#      x y z
#    x 3.772650 -0.015040 -0.040280 
#    y -0.015040 5.974060 0.530500 
#    z -0.040280 0.530500 4.123790 
# 
# 
# High freq. dielectric constant tensor:
#      x y z
#    x 1.806840 0.001070 -0.010270 
#    y 0.001070 1.841590 0.001120 
#    z -0.010270 0.001120 1.830120 
# 
# From -- ./inp_files/245209.got.cif
#   From: 2010.06.25/outbox.cif.g09.slc.cpg/sg2_123_cif.got.tgz:245209.got - 2010.06.27 13:26:56.
