data_PCOD8031218
_publ_section_title
;
Structure prediction by ZEFSAII (Michael W. Deem and Ramdas Pophale) SiO2 
 PCOD8031218
Probable space group: P -1
;
_chemical_formula_sum "Si O2"
_cell_formula_units_Z 16
_cell_length_a 8.208883
_cell_length_b 10.091476
_cell_length_c 9.345161
_cell_angle_alpha 75.525005
_cell_angle_beta 116.547456
_cell_angle_gamma 106.068614
_cell_volume 658.255037
_symmetry_space_group_name_H-M "P -1"
_symmetry_group_IT_number 2
_symmetry_cell_setting 'triclinic'
loop_
_space_group_symop_operation_xyz
x,y,z
-x,-y,-z
loop_
_atom_site_type_symbol
_atom_site_label
_atom_site_fract_x
_atom_site_fract_y
_atom_site_fract_z
Si Si1 0.664774 0.428100 0.876386
Si Si2 0.698593 0.781999 0.304949
Si Si3 0.907083 0.232472 0.543991
Si Si4 0.903251 0.243479 0.872349
Si Si5 0.717686 0.042706 0.078199
Si Si6 0.681235 0.284820 0.194329
Si Si7 0.678293 0.942762 0.531586
Si Si8 0.288589 0.260652 0.158724
O O1 0.467067 0.330967 0.792186
O O2 0.830311 0.375286 0.873902
O O3 0.659571 0.586065 0.789706
O O4 0.699640 0.420878 0.063713
O O5 0.619162 0.848079 0.394703
O O6 0.877270 0.713612 0.426926
O O7 0.786639 0.903557 0.192632
O O8 0.861548 0.248828 0.687338
O O9 0.790894 0.323521 0.376124
O O10 0.839685 0.070860 0.517317
O O11 0.798179 0.096562 0.939787
O O12 0.120918 0.257082 0.983833
O O13 0.772058 0.169511 0.177480
O O14 0.500000 0.000000 0.000000
O O15 0.464463 0.224552 0.154217
O O16 0.764278 0.852234 0.706766
O O17 0.500000 0.000000 0.500000
#
# Coordination Sequence:
#
# PCOD8031218 Si02
#       8
#     2   2   2   2   2   2   2   2
#     4  11  26  48  71  97 141 193 234 278 342 421
#     4  12  24  44  71 102 143 186 232 283 354 413
#     4  12  26  43  72 109 139 175 234 295 352 407
#     4  11  26  44  71 106 138 184 234 290 344 413
#     4  11  22  42  73 100 141 179 231 288 351 412
#     4  11  24  44  71 100 142 183 227 291 344 411
#     4  12  25  43  74 107 144 175 229 300 355 405
#     4  12  26  46  72 100 141 188 238 278 347 419
#
# _framework density 24.306688999999999
#
# number of rings (size 3 to 8) (size 9 to 14) (size 15 to 20)
#    0.000    0.500    5.000    3.375    5.250    1.500 
#    0.000    1.250    0.000    0.000    0.000    0.000 
#    0.000    0.000    0.000    0.000    0.000    0.000 
#
# Total GULP energy -198440.901788 kJ/mol
# GULP energy per Si atom -12402.556362 kJ/mol
# Density = 2.425137 g / cm^3
# Si number density = 24.306689 Si / 1000 Ang^3
#
#
#
# Elastic Constant Matrix: (Units=GPa)
#
#
# Indices 1 2 3 4 5 6 
#
# 1 118.6933 10.7504 58.2533 5.0739 8.7406 11.1059
# 2 10.7504 65.1370 28.8748 -3.5088 3.0449 -8.3340
# 3 58.2533 28.8748 164.0845 8.7501 -0.2101 1.7682
# 4 5.0739 -3.5088 8.7501 24.3043 -0.6048 3.1823
# 5 8.7406 3.0449 -0.2101 -0.6048 42.1421 4.1993
# 6 11.1059 -8.3340 1.7682 3.1823 4.1993 15.0927
#
#
#
# Elastic Compliance Matrix: (Units=1/GPa)
#
#
# Indices 1 2 3 4 5 6 
#
# 1 0.011202 -0.001188 -0.003674 -0.000173 -0.001458 -0.008026
# 2 -0.001188 0.018661 -0.003123 0.002486 -0.002242 0.011644
# 3 -0.003674 -0.003123 0.008085 -0.002612 0.000959 0.000316
# 4 -0.000173 0.002486 -0.002612 0.043521 0.001236 -0.007715
# 5 -0.001458 -0.002242 0.000959 0.001236 0.024962 -0.007483
# 6 -0.008026 0.011644 0.000316 -0.007715 -0.007483 0.082265
#
#
# Mechanical properties :
#
#
# Convention : Reuss Voigt Hill
#
# Bulk Modulus (GPa) = 45.49962 60.40799 52.95380
# Shear Modulus (GPa) = 23.58574 32.97692 28.28133
#
# Velocity S-wave (km/s) = 3.11841 3.68734 3.41474
# Velocity P-wave (km/s) = 5.63254 6.56011 6.11394
#
# Compressibility (1/GPa) = 0.02197821
#
# Stress axis : x y z
#
# Youngs Moduli (GPa) = 89.27336 53.58662 123.67941
#
# Poissons Ratio (x) = 0.06367 0.45438
# Poissons Ratio (y) = 0.10607 0.38626
# Poissons Ratio (z) = 0.32798 0.16735
#
# Static dielectric constant tensor:
#      x y z
#    x 4.370370 -0.124280 0.158660 
#    y -0.124280 4.426480 -0.344560 
#    z 0.158660 -0.344560 4.837590 
# 
# 
# High freq. dielectric constant tensor:
#      x y z
#    x 1.971400 0.003130 0.003930 
#    y 0.003130 1.945330 -0.001430 
#    z 0.003930 -0.001430 1.975910 
# 
# From -- ./inp_files/186155.got.cif
#   From: 2010.06.25/outbox.cif.g09.slc.cpg/sg2_94_cif.got.tgz:186155.got - 2010.06.27 13:26:56.
