data_PCOD8031282
_publ_section_title
;
Structure prediction by ZEFSAII (Michael W. Deem and Ramdas Pophale) SiO2 
 PCOD8031282
Probable space group: P -1
;
_chemical_formula_sum "Si O2"
_cell_formula_units_Z 16
_cell_length_a 9.409767
_cell_length_b 11.154593
_cell_length_c 11.688092
_cell_angle_alpha 50.796983
_cell_angle_beta 54.729019
_cell_angle_gamma 76.010835
_cell_volume 761.282889
_symmetry_space_group_name_H-M "P -1"
_symmetry_group_IT_number 2
_symmetry_cell_setting 'triclinic'
loop_
_space_group_symop_operation_xyz
x,y,z
-x,-y,-z
loop_
_atom_site_type_symbol
_atom_site_label
_atom_site_fract_x
_atom_site_fract_y
_atom_site_fract_z
Si Si1 0.902408 0.333710 0.992055
Si Si2 0.474409 0.216353 0.949597
Si Si3 0.550401 0.111108 0.744496
Si Si4 0.089921 0.268739 0.558062
Si Si5 0.183583 0.016884 0.830851
Si Si6 0.839120 0.619893 0.967504
Si Si7 0.179238 0.609926 0.247234
Si Si8 0.940031 0.164212 0.448259
O O1 0.095949 0.353588 0.947182
O O2 0.811072 0.149686 0.132815
O O3 0.794933 0.434681 0.063410
O O4 0.925151 0.419025 0.806506
O O5 0.526950 0.239383 0.776291
O O6 0.630374 0.282821 0.925348
O O7 0.337395 0.317151 0.995225
O O8 0.401497 0.034952 0.119702
O O9 0.364450 0.069690 0.787160
O O10 0.727031 0.163655 0.553527
O O11 0.191099 0.148674 0.649179
O O12 0.201855 0.448251 0.396484
O O13 0.908960 0.275448 0.702195
O O14 0.044728 0.219149 0.481093
O O15 0.000000 0.000000 0.000000
O O16 0.992507 0.716001 0.757433
O O17 0.000000 0.000000 0.500000
#
# Coordination Sequence:
#
# PCOD8031282 Si02
#       8
#     2   2   2   2   2   2   2   2
#     4  11  23  44  67  98 133 181 227 273 337 410
#     4  11  22  43  68 101 131 180 233 277 332 411
#     4  11  24  40  70 103 137 176 233 278 334 412
#     4  11  24  43  69 101 134 180 219 283 347 396
#     4  12  23  43  70 101 135 178 228 285 336 398
#     4  11  25  43  69  96 139 185 223 278 348 404
#     4  11  22  44  71  99 133 174 230 281 332 404
#     4  12  23  44  66  99 142 182 218 282 346 403
#
# _framework density 21.017156
#
# number of rings (size 3 to 8) (size 9 to 14) (size 15 to 20)
#    0.000    0.750    6.250    1.500    1.750    0.500 
#    6.750    1.875    0.000    0.000    0.000    0.000 
#    0.000    0.000    0.000    0.000    0.000    0.000 
#
# Total GULP energy -198254.610582 kJ/mol
# GULP energy per Si atom -12390.913161 kJ/mol
# Density = 2.096932 g / cm^3
# Si number density = 21.017156 Si / 1000 Ang^3
#
#
#
# Elastic Constant Matrix: (Units=GPa)
#
#
# Indices 1 2 3 4 5 6 
#
# 1 63.0443 50.7425 32.5758 -0.5085 14.1625 16.5556
# 2 50.7425 111.7419 35.2969 -4.9108 -3.6759 -2.6796
# 3 32.5758 35.2969 71.4142 0.5328 7.9047 -4.7379
# 4 -0.5085 -4.9108 0.5328 32.4425 -7.9992 8.1202
# 5 14.1625 -3.6759 7.9047 -7.9992 33.6113 -4.0369
# 6 16.5556 -2.6796 -4.7379 8.1202 -4.0369 22.2266
#
#
#
# Elastic Compliance Matrix: (Units=1/GPa)
#
#
# Indices 1 2 3 4 5 6 
#
# 1 0.094488 -0.038451 -0.024982 0.007315 -0.047407 -0.091624
# 2 -0.038451 0.026649 0.004340 -0.000362 0.022452 0.036989
# 3 -0.024982 0.004340 0.024307 -0.005218 0.007352 0.027554
# 4 0.007315 -0.000362 -0.005218 0.036919 0.004578 -0.019261
# 5 -0.047407 0.022452 0.007352 0.004578 0.057348 0.048329
# 6 -0.091624 0.036989 0.027554 -0.019261 0.048329 0.139385
#
#
# Mechanical properties :
#
#
# Convention : Reuss Voigt Hill
#
# Bulk Modulus (GPa) = 36.68850 53.71454 45.20152
# Shear Modulus (GPa) = 9.87425 26.16176 18.01800
#
# Velocity S-wave (km/s) = 2.16988 3.53197 2.93114
# Velocity P-wave (km/s) = 4.87567 6.49970 5.74536
#
# Compressibility (1/GPa) = 0.02725650
#
# Stress axis : x y z
#
# Youngs Moduli (GPa) = 10.58335 37.52493 41.14113
#
# Poissons Ratio (x) = 1.44288 1.02779
# Poissons Ratio (y) = 0.40694 -0.17854
# Poissons Ratio (z) = 0.26439 -0.16285
#
# Static dielectric constant tensor:
#      x y z
#    x 3.793470 0.045030 0.174960 
#    y 0.045030 4.264610 -0.162900 
#    z 0.174960 -0.162900 3.817630 
# 
# 
# High freq. dielectric constant tensor:
#      x y z
#    x 1.825200 0.004620 0.013640 
#    y 0.004620 1.844220 -0.007090 
#    z 0.013640 -0.007090 1.805440 
# 
# From -- ./inp_files/388998.got.cif
#   From: 2010.06.25/outbox.cif.g09.slc.cpg/sg2_195_cif.got.tgz:388998.got - 2010.06.27 13:26:56.
