data_PCOD8031255
_publ_section_title
;
Structure prediction by ZEFSAII (Michael W. Deem and Ramdas Pophale) SiO2 
 PCOD8031255
Probable space group: P -1
;
_chemical_formula_sum "Si O2"
_cell_formula_units_Z 16
_cell_length_a 12.739879
_cell_length_b 19.438126
_cell_length_c 9.187692
_cell_angle_alpha 41.233703
_cell_angle_beta 109.492835
_cell_angle_gamma 141.677930
_cell_volume 724.354525
_symmetry_space_group_name_H-M "P -1"
_symmetry_group_IT_number 2
_symmetry_cell_setting 'triclinic'
loop_
_space_group_symop_operation_xyz
x,y,z
-x,-y,-z
loop_
_atom_site_type_symbol
_atom_site_label
_atom_site_fract_x
_atom_site_fract_y
_atom_site_fract_z
Si Si1 0.360453 0.987547 0.918923
Si Si2 0.643648 0.413384 0.428581
Si Si3 0.073782 0.334013 0.598569
Si Si4 0.666223 0.797849 0.776241
Si Si5 0.296111 0.276532 0.385719
Si Si6 0.804351 0.566923 0.824639
Si Si7 0.934710 0.207827 0.157446
Si Si8 0.088979 0.113177 0.014896
O O1 0.515357 0.212886 0.618085
O O2 0.247817 0.878838 0.882104
O O3 0.500000 0.000000 0.000000
O O4 0.176177 0.852581 0.172100
O O5 0.747582 0.455967 0.561273
O O6 0.484016 0.384003 0.408354
O O7 0.843488 0.620685 0.101066
O O8 0.096022 0.381146 0.366801
O O9 0.159326 0.287008 0.743475
O O10 0.642726 0.687470 0.816139
O O11 0.710654 0.788941 0.974175
O O12 0.855316 0.028107 0.448654
O O13 0.435903 0.675040 0.877395
O O14 0.229897 0.337686 0.310995
O O15 0.093635 0.037030 0.704974
O O16 0.991309 0.672430 0.851394
O O17 0.000000 0.000000 0.000000
#
# Coordination Sequence:
#
# PCOD8031255 Si02
#       8
#     2   2   2   2   2   2   2   2
#     4  11  25  47  74  95 116 156 213 278 336 384
#     4  11  23  41  68  93 128 165 215 262 316 381
#     4  11  25  41  62  96 135 169 212 262 317 377
#     4  12  24  37  60  91 138 179 219 249 298 369
#     4  12  21  36  60  93 132 176 215 246 299 370
#     4  12  25  37  61  96 136 179 209 250 309 372
#     4  11  22  43  64  95 127 165 220 262 309 377
#     4  12  23  38  61  94 141 181 216 255 303 370
#
# _framework density 22.088630999999999
#
# number of rings (size 3 to 8) (size 9 to 14) (size 15 to 20)
#    0.000    0.500    6.250    2.250    5.250    4.000 
#    0.000    0.625    0.000    3.750    0.000    0.000 
#    0.000    0.000    0.000    0.000    0.000    0.000 
#
# Total GULP energy -198261.716060 kJ/mol
# GULP energy per Si atom -12391.357254 kJ/mol
# Density = 2.203836 g / cm^3
# Si number density = 22.088631 Si / 1000 Ang^3
#
#
#
# Elastic Constant Matrix: (Units=GPa)
#
#
# Indices 1 2 3 4 5 6 
#
# 1 48.5789 39.4823 25.1052 0.9971 -4.6434 15.1352
# 2 39.4823 183.6980 48.3628 6.9584 -16.1318 7.2952
# 3 25.1052 48.3628 86.3878 -6.8583 -16.4539 -0.8881
# 4 0.9971 6.9584 -6.8583 43.3043 -3.9206 -7.9798
# 5 -4.6434 -16.1318 -16.4539 -3.9206 16.8663 5.3507
# 6 15.1352 7.2952 -0.8881 -7.9798 5.3507 27.7527
#
#
#
# Elastic Compliance Matrix: (Units=1/GPa)
#
#
# Indices 1 2 3 4 5 6 
#
# 1 0.034567 -0.004144 -0.007676 -0.004733 0.003311 -0.020007
# 2 -0.004144 0.007343 -0.002339 -0.001280 0.003556 -0.000799
# 3 -0.007676 -0.002339 0.018101 0.005423 0.013172 0.004400
# 4 -0.004733 -0.001280 0.005423 0.026567 0.005895 0.009594
# 5 0.003311 0.003556 0.013172 0.005895 0.083104 -0.016646
# 6 -0.020007 -0.000799 0.004400 0.009594 -0.016646 0.053262
#
#
# Mechanical properties :
#
#
# Convention : Reuss Voigt Hill
#
# Bulk Modulus (GPa) = 31.55386 60.50727 46.03056
# Shear Modulus (GPa) = 19.09659 31.29894 25.19777
#
# Velocity S-wave (km/s) = 2.94350 3.76835 3.38117
# Velocity P-wave (km/s) = 5.08610 6.81075 6.01061
#
# Compressibility (1/GPa) = 0.03169184
#
# Stress axis : x y z
#
# Youngs Moduli (GPa) = 28.92910 136.19065 55.24699
#
# Poissons Ratio (x) = 0.56437 0.42410
# Poissons Ratio (y) = 0.11988 0.12922
# Poissons Ratio (z) = 0.22207 0.31854
#
# Static dielectric constant tensor:
#      x y z
#    x 3.376030 -0.108330 -0.162080 
#    y -0.108330 5.364210 -0.063000 
#    z -0.162080 -0.063000 4.244170 
# 
# 
# High freq. dielectric constant tensor:
#      x y z
#    x 1.795540 0.007730 -0.012600 
#    y 0.007730 1.904350 -0.012370 
#    z -0.012600 -0.012370 1.881080 
# 
# From -- ./inp_files/279056.got.cif
#   From: 2010.06.25/outbox.cif.g09.slc.cpg/sg2_140_cif.got.tgz:279056.got - 2010.06.27 13:26:56.
