data_PCOD8031445
_publ_section_title
;
Structure prediction by ZEFSAII (Michael W. Deem and Ramdas Pophale) SiO2 
 PCOD8031445
Probable space group: P -1
;
_chemical_formula_sum "Si O2"
_cell_formula_units_Z 14
_cell_length_a 9.592085
_cell_length_b 8.940811
_cell_length_c 12.706759
_cell_angle_alpha 111.262151
_cell_angle_beta 120.330649
_cell_angle_gamma 112.658700
_cell_volume 620.268887
_symmetry_space_group_name_H-M "P -1"
_symmetry_group_IT_number 2
_symmetry_cell_setting 'triclinic'
loop_
_space_group_symop_operation_xyz
x,y,z
-x,-y,-z
loop_
_atom_site_type_symbol
_atom_site_label
_atom_site_fract_x
_atom_site_fract_y
_atom_site_fract_z
Si Si1 0.211159 0.176144 0.876643
Si Si2 0.505467 0.660448 0.175818
Si Si3 0.787008 0.252730 0.896420
Si Si4 0.487325 0.134500 0.447234
Si Si5 0.247978 0.227355 0.495930
Si Si6 0.230598 0.585635 0.563218
Si Si7 0.631913 0.984800 0.963985
O O1 0.404226 0.267976 0.889541
O O2 0.282662 0.387890 0.020539
O O3 0.203278 0.026670 0.919620
O O4 0.975299 0.031799 0.686887
O O5 0.433274 0.787902 0.213782
O O6 0.700951 0.738959 0.351179
O O7 0.738074 0.059590 0.759441
O O8 0.801669 0.211654 0.014109
O O9 0.000000 0.500000 0.000000
O O10 0.457724 0.287409 0.530624
O O11 0.711858 0.297864 0.499625
O O12 0.500000 0.000000 0.500000
O O13 0.203319 0.377134 0.481910
O O14 0.441315 0.760593 0.765873
O O15 0.000000 0.500000 0.500000
O O16 0.500000 0.000000 0.000000
#
# Coordination Sequence:
#
# PCOD8031445 Si02
#       7
#     2   2   2   2   2   2   2
#     4  11  24  42  69 103 137 187 226 291 350 409
#     4  11  23  44  67 103 143 176 239 287 339 421
#     4  11  24  43  68  98 138 186 229 283 354 409
#     4  11  25  45  68 101 143 178 234 291 343 413
#     4  12  24  45  71 102 141 185 231 286 355 407
#     4  11  26  45  71 101 139 188 235 283 351 415
#     4  11  22  44  66 101 138 174 236 292 333 418
#
# _framework density 22.570858000000001
#
# number of rings (size 3 to 8) (size 9 to 14) (size 15 to 20)
#    0.000    0.857    4.286    2.571    2.000    3.429 
#    2.571    2.143    0.000    0.000    0.000    0.000 
#    0.000    0.000    0.000    0.000    0.000    0.000 
#
# Total GULP energy -173587.228706 kJ/mol
# GULP energy per Si atom -12399.087765 kJ/mol
# Density = 2.251949 g / cm^3
# Si number density = 22.570858 Si / 1000 Ang^3
#
#
#
# Elastic Constant Matrix: (Units=GPa)
#
#
# Indices 1 2 3 4 5 6 
#
# 1 101.2350 48.1204 11.1578 1.3924 -17.0865 -2.1993
# 2 48.1204 162.7005 38.0513 -13.2345 -2.0522 9.4671
# 3 11.1578 38.0513 118.7673 -3.0150 -1.5209 0.6117
# 4 1.3924 -13.2345 -3.0150 33.8459 -0.9286 0.1562
# 5 -17.0865 -2.0522 -1.5209 -0.9286 34.1453 2.4165
# 6 -2.1993 9.4671 0.6117 0.1562 2.4165 36.7293
#
#
#
# Elastic Compliance Matrix: (Units=1/GPa)
#
#
# Indices 1 2 3 4 5 6 
#
# 1 0.012835 -0.003979 0.000090 -0.001917 0.006036 0.001404
# 2 -0.003979 0.008202 -0.002180 0.003150 -0.001351 -0.002241
# 3 0.000090 -0.002180 0.009110 -0.000038 0.000291 0.000397
# 4 -0.001917 0.003150 -0.000038 0.030862 0.000143 -0.001067
# 5 0.006036 -0.001351 0.000291 0.000143 0.032344 -0.001424
# 6 0.001404 -0.002241 0.000397 -0.001067 -0.001424 0.027979
#
#
# Mechanical properties :
#
#
# Convention : Reuss Voigt Hill
#
# Bulk Modulus (GPa) = 55.52091 64.15131 59.83611
# Shear Modulus (GPa) = 35.84937 39.96900 37.90919
#
# Velocity S-wave (km/s) = 3.98968 4.21268 4.10269
# Velocity P-wave (km/s) = 6.77313 7.22123 7.00076
#
# Compressibility (1/GPa) = 0.01801123
#
# Stress axis : x y z
#
# Youngs Moduli (GPa) = 77.91302 121.91597 109.76388
#
# Poissons Ratio (x) = 0.48505 -0.00991
# Poissons Ratio (y) = 0.30998 0.23928
# Poissons Ratio (z) = -0.00704 0.26577
#
# Static dielectric constant tensor:
#      x y z
#    x 4.099900 -0.037290 -0.299420 
#    y -0.037290 4.244300 -0.065840 
#    z -0.299420 -0.065840 4.151540 
# 
# 
# High freq. dielectric constant tensor:
#      x y z
#    x 1.887550 -0.002220 -0.020640 
#    y -0.002220 1.895670 -0.003130 
#    z -0.020640 -0.003130 1.892040 
# 
# From -- ./inp_files/185162.got.cif
#   From: 2010.06.25/outbox.cif.g09.slc.cpg/sg2_93_cif.got.tgz:185162.got - 2010.06.27 13:26:56.
