data_PCOD8031769
_publ_section_title
;
Structure prediction by ZEFSAII (Michael W. Deem and Ramdas Pophale) SiO2 
 PCOD8031769
Probable space group: P -1
;
_chemical_formula_sum "Si O2"
_cell_formula_units_Z 14
_cell_length_a 7.476596
_cell_length_b 18.029771
_cell_length_c 8.666162
_cell_angle_alpha 49.302637
_cell_angle_beta 54.536113
_cell_angle_gamma 90.323279
_cell_volume 564.974294
_symmetry_space_group_name_H-M "P -1"
_symmetry_group_IT_number 2
_symmetry_cell_setting 'triclinic'
loop_
_space_group_symop_operation_xyz
x,y,z
-x,-y,-z
loop_
_atom_site_type_symbol
_atom_site_label
_atom_site_fract_x
_atom_site_fract_y
_atom_site_fract_z
Si Si1 0.255745 0.684791 0.874459
Si Si2 0.290559 0.097391 0.804288
Si Si3 0.696043 0.626804 0.139317
Si Si4 0.925353 0.871676 0.844855
Si Si5 0.555020 0.981077 0.822396
Si Si6 0.674097 0.497376 0.788697
Si Si7 0.846189 0.222948 0.923217
O O1 0.541121 0.757541 0.527772
O O2 0.161860 0.550267 0.156941
O O3 0.338906 0.771624 0.865604
O O4 0.006230 0.665491 0.926406
O O5 0.493421 0.071687 0.661925
O O6 0.247672 0.086929 0.033501
O O7 0.000000 0.000000 0.000000
O O8 0.500000 0.500000 0.500000
O O9 0.562604 0.607444 0.066809
O O10 0.704749 0.736295 0.064099
O O11 0.144336 0.968434 0.471506
O O12 0.067352 0.859188 0.939686
O O13 0.322582 0.839795 0.066569
O O14 0.500000 0.000000 0.000000
O O15 0.885391 0.633138 0.425684
O O16 0.500000 0.500000 0.000000
#
# Coordination Sequence:
#
# PCOD8031769 Si02
#       7
#     2   2   2   2   2   2   2
#     4  11  25  46  75 109 146 192 247 302 370 434
#     4  12  24  44  77 104 139 198 242 291 370 434
#     4  11  24  46  72 106 148 190 242 300 368 434
#     4  11  23  46  73 102 145 190 238 302 364 432
#     4  12  27  45  71 107 144 182 245 305 362 434
#     4  12  27  44  72 109 145 192 244 300 365 443
#     4  11  22  46  71 100 143 191 234 299 362 429
#
# _framework density 24.779889000000001
#
# number of rings (size 3 to 8) (size 9 to 14) (size 15 to 20)
#    0.000    0.571    7.143    2.571    2.000    2.286 
#    0.000    0.000    0.000    0.000    0.000    0.000 
#    0.000    0.000    0.000    0.000    0.000    0.000 
#
# Total GULP energy -173466.003951 kJ/mol
# GULP energy per Si atom -12390.428854 kJ/mol
# Density = 2.472349 g / cm^3
# Si number density = 24.779889 Si / 1000 Ang^3
#
#
#
# Elastic Constant Matrix: (Units=GPa)
#
#
# Indices 1 2 3 4 5 6 
#
# 1 55.8634 41.9480 33.4419 7.8087 -14.4431 0.1499
# 2 41.9480 169.9438 58.6481 10.2235 -21.0296 15.9368
# 3 33.4419 58.6481 149.8081 11.3157 -10.1395 21.0101
# 4 7.8087 10.2235 11.3157 43.7156 7.5432 -10.5231
# 5 -14.4431 -21.0296 -10.1395 7.5432 29.5042 2.0836
# 6 0.1499 15.9368 21.0101 -10.5231 2.0836 53.1188
#
#
#
# Elastic Compliance Matrix: (Units=1/GPa)
#
#
# Indices 1 2 3 4 5 6 
#
# 1 0.026005 -0.003871 -0.003485 -0.004223 0.009765 0.001247
# 2 -0.003871 0.008258 -0.001586 -0.002131 0.004162 -0.002425
# 3 -0.003485 -0.001586 0.008808 -0.002305 0.001027 -0.003495
# 4 -0.004223 -0.002131 -0.002305 0.028701 -0.012262 0.007730
# 5 0.009765 0.004162 0.001027 -0.012262 0.045545 -0.005898
# 6 0.001247 -0.002425 -0.003495 0.007730 -0.005898 0.022695
#
#
# Mechanical properties :
#
#
# Convention : Reuss Voigt Hill
#
# Bulk Modulus (GPa) = 39.70218 71.52127 55.61172
# Shear Modulus (GPa) = 30.06798 41.37289 35.72044
#
# Velocity S-wave (km/s) = 3.48717 4.09053 3.80084
# Velocity P-wave (km/s) = 5.68072 7.15787 6.46164
#
# Compressibility (1/GPa) = 0.02518753
#
# Stress axis : x y z
#
# Youngs Moduli (GPa) = 38.45383 121.09941 113.53642
#
# Poissons Ratio (x) = 0.46876 0.39564
# Poissons Ratio (y) = 0.14885 0.18007
# Poissons Ratio (z) = 0.13400 0.19206
#
# Static dielectric constant tensor:
#      x y z
#    x 4.639250 -0.768750 -0.634620 
#    y -0.768750 5.616370 0.405500 
#    z -0.634620 0.405500 4.163020 
# 
# 
# High freq. dielectric constant tensor:
#      x y z
#    x 1.996360 -0.009210 0.012190 
#    y -0.009210 2.002970 0.005970 
#    z 0.012190 0.005970 1.994500 
# 
# From -- ./inp_files/216968.got.cif
#   From: 2010.06.25/outbox.cif.g09.slc.cpg/sg2_109_cif.got.tgz:216968.got - 2010.06.27 13:26:56.
