data_PCOD8031388
_publ_section_title
;
Structure prediction by ZEFSAII (Michael W. Deem and Ramdas Pophale) SiO2 
 PCOD8031388
Probable space group: P -1
;
_chemical_formula_sum "Si O2"
_cell_formula_units_Z 16
_cell_length_a 8.853394
_cell_length_b 23.307637
_cell_length_c 9.432964
_cell_angle_alpha 129.549297
_cell_angle_beta 131.730128
_cell_angle_gamma 30.812308
_cell_volume 733.230430
_symmetry_space_group_name_H-M "P -1"
_symmetry_group_IT_number 2
_symmetry_cell_setting 'triclinic'
loop_
_space_group_symop_operation_xyz
x,y,z
-x,-y,-z
loop_
_atom_site_type_symbol
_atom_site_label
_atom_site_fract_x
_atom_site_fract_y
_atom_site_fract_z
Si Si1 0.749341 0.600592 0.606974
Si Si2 0.856762 0.983026 0.616048
Si Si3 0.656747 0.196176 0.816012
Si Si4 0.783808 0.874811 0.925971
Si Si5 0.296032 0.605144 0.428307
Si Si6 0.110214 0.396312 0.981341
Si Si7 0.155956 0.140510 0.368409
Si Si8 0.521562 0.195441 0.423776
O O1 0.526739 0.593435 0.473006
O O2 0.571018 0.714932 0.598617
O O3 0.000000 0.500000 0.500000
O O4 0.875975 0.595279 0.828179
O O5 0.822694 0.076802 0.799028
O O6 0.524106 0.050731 0.457771
O O7 0.962002 0.892337 0.654085
O O8 0.110607 0.918378 0.547740
O O9 0.443745 0.285665 0.949805
O O10 0.457808 0.229670 0.603675
O O11 0.899990 0.190914 0.897510
O O12 0.899194 0.874006 0.845318
O O13 0.694281 0.813574 0.772201
O O14 0.500000 0.000000 0.000000
O O15 0.500000 0.500000 0.500000
O O16 0.136477 0.599031 0.199601
O O17 0.028176 0.730835 0.526996
O O18 0.000000 0.500000 0.000000
#
# Coordination Sequence:
#
# PCOD8031388 Si02
#       8
#     2   2   2   2   2   2   2   2
#     4  12  29  48  72 106 145 183 236 308 358 414
#     4  11  22  43  73 100 149 186 232 290 360 417
#     4  12  25  43  74 102 143 192 233 290 356 423
#     4  12  25  40  68 101 140 190 239 274 351 427
#     4  12  25  48  79 102 139 187 241 296 358 430
#     4  12  26  47  75 107 135 188 246 292 358 424
#     4  11  24  44  70 108 139 189 235 297 356 420
#     4  12  25  47  67 106 151 186 232 296 354 417
#
# _framework density 21.821245000000001
#
# number of rings (size 3 to 8) (size 9 to 14) (size 15 to 20)
#    0.000    0.250    6.250    2.625    1.750    3.000 
#    0.000    0.000    0.000    0.000    0.000    0.000 
#    0.000    0.000    0.000    0.000    0.000    0.000 
#
# Total GULP energy -198288.703740 kJ/mol
# GULP energy per Si atom -12393.043984 kJ/mol
# Density = 2.177158 g / cm^3
# Si number density = 21.821245 Si / 1000 Ang^3
#
#
#
# Elastic Constant Matrix: (Units=GPa)
#
#
# Indices 1 2 3 4 5 6 
#
# 1 126.8037 53.7805 69.5325 -1.1241 18.7238 7.7923
# 2 53.7805 126.7590 58.0223 10.4333 -4.7873 10.3107
# 3 69.5325 58.0223 137.3006 15.7600 5.6969 -7.3172
# 4 -1.1241 10.4333 15.7600 28.1881 -8.9282 2.5934
# 5 18.7238 -4.7873 5.6969 -8.9282 50.9504 -2.3934
# 6 7.7923 10.3107 -7.3172 2.5934 -2.3934 47.1125
#
#
#
# Elastic Compliance Matrix: (Units=1/GPa)
#
#
# Indices 1 2 3 4 5 6 
#
# 1 0.013198 -0.003206 -0.005767 0.003944 -0.003947 -0.002794
# 2 -0.003206 0.011042 -0.003063 -0.001615 0.002174 -0.002163
# 3 -0.005767 -0.003063 0.012486 -0.006607 -0.000539 0.003900
# 4 0.003944 -0.001615 -0.006607 0.042254 0.006386 -0.003327
# 5 -0.003947 0.002174 -0.000539 0.006386 0.022502 0.000885
# 6 -0.002794 -0.002163 0.003900 -0.003327 0.000885 0.022995
#
#
# Mechanical properties :
#
#
# Convention : Reuss Voigt Hill
#
# Bulk Modulus (GPa) = 79.01819 83.72599 81.37209
# Shear Modulus (GPa) = 32.72965 39.21871 35.97418
#
# Velocity S-wave (km/s) = 3.87705 4.24402 4.06468
# Velocity P-wave (km/s) = 7.50548 7.90367 7.70715
#
# Compressibility (1/GPa) = 0.01265531
#
# Stress axis : x y z
#
# Youngs Moduli (GPa) = 75.77164 90.56223 80.08651
#
# Poissons Ratio (x) = 0.29036 0.46182
# Poissons Ratio (y) = 0.24294 0.24528
# Poissons Ratio (z) = 0.43694 0.27736
#
# Static dielectric constant tensor:
#      x y z
#    x 4.118650 0.083930 0.206830 
#    y 0.083930 3.806520 -0.092150 
#    z 0.206830 -0.092150 3.930530 
# 
# 
# High freq. dielectric constant tensor:
#      x y z
#    x 1.873710 -0.008540 0.014220 
#    y -0.008540 1.866920 0.005930 
#    z 0.014220 0.005930 1.864350 
# 
# From -- ./inp_files/226551.got.cif
#   From: 2010.06.25/outbox.cif.g09.slc.cpg/sg2_114_cif.got.tgz:226551.got - 2010.06.27 13:26:56.
