data_PCOD8031458
_publ_section_title
;
Structure prediction by ZEFSAII (Michael W. Deem and Ramdas Pophale) SiO2 
 PCOD8031458
Probable space group: P -1
;
_chemical_formula_sum "Si O2"
_cell_formula_units_Z 16
_cell_length_a 8.852280
_cell_length_b 9.601592
_cell_length_c 18.028824
_cell_angle_alpha 82.268306
_cell_angle_beta 150.490499
_cell_angle_gamma 98.821998
_cell_volume 745.868583
_symmetry_space_group_name_H-M "P -1"
_symmetry_group_IT_number 2
_symmetry_cell_setting 'triclinic'
loop_
_space_group_symop_operation_xyz
x,y,z
-x,-y,-z
loop_
_atom_site_type_symbol
_atom_site_label
_atom_site_fract_x
_atom_site_fract_y
_atom_site_fract_z
Si Si1 0.600482 0.961539 0.384961
Si Si2 0.427057 0.517372 0.608872
Si Si3 0.585389 0.814793 0.605858
Si Si4 0.245435 0.849461 0.693991
Si Si5 0.272556 0.881688 0.875323
Si Si6 0.576193 0.625825 0.077788
Si Si7 0.257014 0.722653 0.321988
Si Si8 0.733577 0.476211 0.296370
O O1 0.300292 0.852422 0.273115
O O2 0.889544 0.865705 0.520883
O O3 0.635894 0.078994 0.457033
O O4 0.562502 0.038172 0.284425
O O5 0.593503 0.673805 0.668364
O O6 0.640358 0.419225 0.661336
O O7 0.372068 0.466807 0.673554
O O8 0.091681 0.517529 0.427584
O O9 0.474132 0.768167 0.480495
O O10 0.915669 0.902522 0.735764
O O11 0.336909 0.881539 0.815172
O O12 0.330786 0.691777 0.723896
O O13 0.324315 0.735318 0.948205
O O14 0.500000 0.000000 0.000000
O O15 0.542061 0.561772 0.150089
O O16 0.907556 0.704203 0.198506
O O17 0.500000 0.500000 0.000000
#
# Coordination Sequence:
#
# PCOD8031458 Si02
#       8
#     2   2   2   2   2   2   2   2
#     4  11  24  41  72 100 133 177 227 281 334 391
#     4  11  23  39  71 101 133 172 228 285 327 385
#     4  12  23  44  69 102 134 174 232 279 324 402
#     4  11  23  44  67 100 141 175 219 282 341 393
#     4  12  27  45  67 100 139 180 221 275 344 403
#     4  12  26  44  70  97 140 182 217 274 344 401
#     4  12  24  42  68 106 130 174 235 276 321 398
#     4  11  22  44  67 104 138 174 223 278 342 391
#
# _framework density 21.451499999999999
#
# number of rings (size 3 to 8) (size 9 to 14) (size 15 to 20)
#    0.000    0.500    6.250    2.250    1.750    1.000 
#    0.000    7.500    0.000    0.000    0.000    0.000 
#    0.000    0.000    0.000    0.000    0.000    0.000 
#
# Total GULP energy -198436.201219 kJ/mol
# GULP energy per Si atom -12402.262576 kJ/mol
# Density = 2.140268 g / cm^3
# Si number density = 21.451500 Si / 1000 Ang^3
#
#
#
# Elastic Constant Matrix: (Units=GPa)
#
#
# Indices 1 2 3 4 5 6 
#
# 1 82.4849 17.7012 24.4398 -9.9744 -11.7318 11.4212
# 2 17.7012 94.8979 11.9713 -5.5132 -9.5541 15.9298
# 3 24.4398 11.9713 76.6816 3.9332 -15.7345 12.7291
# 4 -9.9744 -5.5132 3.9332 40.0240 8.9207 1.2748
# 5 -11.7318 -9.5541 -15.7345 8.9207 35.7090 0.0650
# 6 11.4212 15.9298 12.7291 1.2748 0.0650 43.9875
#
#
#
# Elastic Compliance Matrix: (Units=1/GPa)
#
#
# Indices 1 2 3 4 5 6 
#
# 1 0.014568 -0.001470 -0.003842 0.003467 0.001838 -0.002242
# 2 -0.001470 0.011777 -0.000305 0.000891 0.002318 -0.003824
# 3 -0.003842 -0.000305 0.016544 -0.004065 0.006968 -0.003572
# 4 0.003467 0.000891 -0.004065 0.028052 -0.007420 -0.000849
# 5 0.001838 0.002318 0.006968 -0.007420 0.034158 -0.003168
# 6 -0.002242 -0.003824 -0.003572 -0.000849 -0.003168 0.025764
#
#
# Mechanical properties :
#
#
# Convention : Reuss Voigt Hill
#
# Bulk Modulus (GPa) = 31.59077 40.25433 35.92255
# Shear Modulus (GPa) = 32.75446 37.27423 35.01434
#
# Velocity S-wave (km/s) = 3.91181 4.17298 4.04450
# Velocity P-wave (km/s) = 5.92972 6.48262 6.21232
#
# Compressibility (1/GPa) = 0.03165482
#
# Stress axis : x y z
#
# Youngs Moduli (GPa) = 68.64153 84.90798 60.44329
#
# Poissons Ratio (x) = 0.12481 0.23225
# Poissons Ratio (y) = 0.10090 0.01846
# Poissons Ratio (z) = 0.26375 0.02593
#
# Static dielectric constant tensor:
#      x y z
#    x 3.999520 0.105380 -0.036470 
#    y 0.105380 3.917900 0.011810 
#    z -0.036470 0.011810 3.671910 
# 
# 
# High freq. dielectric constant tensor:
#      x y z
#    x 1.854320 0.009200 -0.006890 
#    y 0.009200 1.861220 -0.000620 
#    z -0.006890 -0.000620 1.814760 
# 
# From -- ./inp_files/186715.got.cif
#   From: 2010.06.25/outbox.cif.g09.slc.cpg/sg2_94_cif.got.tgz:186715.got - 2010.06.27 13:26:56.
