data_PCOD8031833
_publ_section_title
;
Structure prediction by ZEFSAII (Michael W. Deem and Ramdas Pophale) SiO2 
 PCOD8031833
Probable space group: P -1
;
_chemical_formula_sum "Si O2"
_cell_formula_units_Z 14
_cell_length_a 13.967820
_cell_length_b 12.430503
_cell_length_c 7.889454
_cell_angle_alpha 115.613896
_cell_angle_beta 34.936985
_cell_angle_gamma 128.975868
_cell_volume 599.071736
_symmetry_space_group_name_H-M "P -1"
_symmetry_group_IT_number 2
_symmetry_cell_setting 'triclinic'
loop_
_space_group_symop_operation_xyz
x,y,z
-x,-y,-z
loop_
_atom_site_type_symbol
_atom_site_label
_atom_site_fract_x
_atom_site_fract_y
_atom_site_fract_z
Si Si1 0.253440 0.386642 0.449025
Si Si2 0.825487 0.021424 0.215835
Si Si3 0.663051 0.435888 0.872292
Si Si4 0.803729 0.274441 0.377286
Si Si5 0.381179 0.834873 0.784040
Si Si6 0.787924 0.473670 0.086889
Si Si7 0.102190 0.923724 0.221868
O O1 0.221507 0.445752 0.360062
O O2 0.320521 0.498667 0.582778
O O3 0.060104 0.240949 0.686507
O O4 0.429225 0.361002 0.145746
O O5 0.883149 0.180923 0.280032
O O6 0.615043 0.914730 0.538043
O O7 0.802127 0.992602 0.031227
O O8 0.000000 0.000000 0.000000
O O9 0.699156 0.309197 0.701855
O O10 0.739016 0.507472 0.994595
O O11 0.653507 0.187110 0.383495
O O12 0.979426 0.422481 0.147656
O O13 0.274293 0.687144 0.934761
O O14 0.282985 0.923099 0.055599
O O15 0.000000 0.000000 0.500000
#
# Coordination Sequence:
#
# PCOD8031833 Si02
#       7
#     2   2   2   2   2   2   2
#     4  11  24  45  67 108 148 181 238 297 358 419
#     4  11  27  45  70 104 141 190 242 294 352 429
#     4  11  26  39  72 109 141 186 235 300 352 428
#     4  11  22  47  69 101 147 187 237 293 362 424
#     4  11  24  45  74 101 143 193 231 300 361 418
#     4  12  23  44  76 103 143 186 245 289 361 415
#     4  11  25  44  71  98 142 189 239 283 368 425
#
# _framework density 23.369486999999999
#
# number of rings (size 3 to 8) (size 9 to 14) (size 15 to 20)
#    0.000    0.857    4.286    3.857    6.000    3.429 
#    0.000    1.429    0.000    0.000    0.000    0.000 
#    0.000    0.000    0.000    0.000    0.000    0.000 
#
# Total GULP energy -173534.758613 kJ/mol
# GULP energy per Si atom -12395.339901 kJ/mol
# Density = 2.331630 g / cm^3
# Si number density = 23.369487 Si / 1000 Ang^3
#
#
#
# Elastic Constant Matrix: (Units=GPa)
#
#
# Indices 1 2 3 4 5 6 
#
# 1 100.0317 39.8855 41.8704 11.2578 3.8901 -11.3214
# 2 39.8855 109.5422 69.6374 10.2594 -15.6464 -21.7475
# 3 41.8704 69.6374 147.7009 19.1637 -26.3531 -13.3063
# 4 11.2578 10.2594 19.1637 49.3856 1.4774 -5.4212
# 5 3.8901 -15.6464 -26.3531 1.4774 50.6413 4.7368
# 6 -11.3214 -21.7475 -13.3063 -5.4212 4.7368 26.0603
#
#
#
# Elastic Compliance Matrix: (Units=1/GPa)
#
#
# Indices 1 2 3 4 5 6 
#
# 1 0.012718 -0.003032 -0.002455 -0.000980 -0.003364 0.002149
# 2 -0.003032 0.015649 -0.005557 0.000519 0.001341 0.008769
# 3 -0.002455 -0.005557 0.011133 -0.002898 0.004484 -0.001437
# 4 -0.000980 0.000519 -0.002898 0.021940 -0.002240 0.003499
# 5 -0.003364 0.001341 0.004484 -0.002240 0.023072 -0.002712
# 6 0.002149 0.008769 -0.001437 0.003499 -0.002712 0.047111
#
#
# Mechanical properties :
#
#
# Convention : Reuss Voigt Hill
#
# Bulk Modulus (GPa) = 57.43163 73.34017 65.38590
# Shear Modulus (GPa) = 31.34508 38.94288 35.14398
#
# Velocity S-wave (km/s) = 3.66633 4.08658 3.88215
# Velocity P-wave (km/s) = 6.52314 7.32925 6.93791
#
# Compressibility (1/GPa) = 0.01741201
#
# Stress axis : x y z
#
# Youngs Moduli (GPa) = 78.63043 63.90066 89.82365
#
# Poissons Ratio (x) = 0.19374 0.22053
# Poissons Ratio (y) = 0.23840 0.49913
# Poissons Ratio (z) = 0.19305 0.35508
#
# Static dielectric constant tensor:
#      x y z
#    x 4.039090 -0.254940 -0.077300 
#    y -0.254940 4.168100 0.231420 
#    z -0.077300 0.231420 4.435770 
# 
# 
# High freq. dielectric constant tensor:
#      x y z
#    x 1.900280 -0.017040 -0.004130 
#    y -0.017040 1.919790 0.007750 
#    z -0.004130 0.007750 1.946180 
# 
# From -- ./inp_files/180764.got.cif
#   From: 2010.06.25/outbox.cif.g09.slc.cpg/sg2_91_cif.got.tgz:180764.got - 2010.06.27 13:26:56.
