data_PCOD8031761
_publ_section_title
;
Structure prediction by ZEFSAII (Michael W. Deem and Ramdas Pophale) SiO2 
 PCOD8031761
Probable space group: P -1
;
_chemical_formula_sum "Si O2"
_cell_formula_units_Z 16
_cell_length_a 8.080236
_cell_length_b 13.090724
_cell_length_c 15.483969
_cell_angle_alpha 27.826172
_cell_angle_beta 99.177820
_cell_angle_gamma 110.255582
_cell_volume 675.818043
_symmetry_space_group_name_H-M "P -1"
_symmetry_group_IT_number 2
_symmetry_cell_setting 'triclinic'
loop_
_space_group_symop_operation_xyz
x,y,z
-x,-y,-z
loop_
_atom_site_type_symbol
_atom_site_label
_atom_site_fract_x
_atom_site_fract_y
_atom_site_fract_z
Si Si1 0.721285 0.385764 0.651795
Si Si2 0.695096 0.986931 0.525409
Si Si3 0.160964 0.767093 0.826741
Si Si4 0.045252 0.883420 0.899523
Si Si5 0.269133 0.102477 0.040200
Si Si6 0.026883 0.409462 0.319820
Si Si7 0.684706 0.721729 0.265068
Si Si8 0.352091 0.527993 0.124860
O O1 0.899833 0.534487 0.617229
O O2 0.745294 0.527689 0.457658
O O3 0.537603 0.374424 0.692866
O O4 0.692160 0.118323 0.824552
O O5 0.787201 0.075792 0.372675
O O6 0.841055 0.151075 0.488625
O O7 0.500000 0.000000 0.500000
O O8 0.656184 0.708700 0.748645
O O9 0.087568 0.910006 0.780789
O O10 0.330985 0.722836 0.912887
O O11 0.000000 0.500000 0.000000
O O12 0.242979 0.038557 0.847436
O O13 0.960215 0.605531 0.132141
O O14 0.898656 0.987625 0.836709
O O15 0.214705 0.212568 0.868523
O O16 0.447298 0.324587 0.927722
O O17 0.193378 0.424641 0.261467
#
# Coordination Sequence:
#
# PCOD8031761 Si02
#       8
#     2   2   2   2   2   2   2   2
#     4  11  24  42  71 104 136 187 239 281 352 421
#     4  12  27  49  74 107 143 180 239 300 351 417
#     4  11  25  47  74 100 141 189 236 288 358 423
#     4  11  24  43  70 101 141 186 229 290 354 412
#     4  12  24  46  67 104 146 183 234 292 347 414
#     4  11  22  46  70 103 139 187 230 289 353 419
#     4  11  24  42  70  99 142 188 232 287 348 420
#     4  11  25  43  74 101 140 191 231 287 354 419
#
# _framework density 23.675013
#
# number of rings (size 3 to 8) (size 9 to 14) (size 15 to 20)
#    0.000    0.750    5.000    3.375    1.750    2.000 
#    2.250    0.000    0.000    0.000    0.000    0.000 
#    0.000    0.000    0.000    0.000    0.000    0.000 
#
# Total GULP energy -198415.724340 kJ/mol
# GULP energy per Si atom -12400.982771 kJ/mol
# Density = 2.362113 g / cm^3
# Si number density = 23.675013 Si / 1000 Ang^3
#
#
#
# Elastic Constant Matrix: (Units=GPa)
#
#
# Indices 1 2 3 4 5 6 
#
# 1 95.8815 35.3692 16.0627 -1.1501 -7.0070 7.2912
# 2 35.3692 120.8679 37.0164 -12.9007 -15.1397 21.4783
# 3 16.0627 37.0164 91.0933 -3.9478 2.3315 5.5854
# 4 -1.1501 -12.9007 -3.9478 42.8246 6.0167 -9.8702
# 5 -7.0070 -15.1397 2.3315 6.0167 26.4944 -4.6719
# 6 7.2912 21.4783 5.5854 -9.8702 -4.6719 33.8057
#
#
#
# Elastic Compliance Matrix: (Units=1/GPa)
#
#
# Indices 1 2 3 4 5 6 
#
# 1 0.011836 -0.002981 -0.000927 -0.001030 0.001640 -0.000580
# 2 -0.002981 0.012164 -0.004175 0.001231 0.005315 -0.005301
# 3 -0.000927 -0.004175 0.012938 0.000526 -0.003829 0.000339
# 4 -0.001030 0.001231 0.000526 0.025805 -0.004367 0.006284
# 5 0.001640 0.005315 -0.003829 -0.004367 0.042816 0.001544
# 6 -0.000580 -0.005301 0.000339 0.006284 0.001544 0.035066
#
#
# Mechanical properties :
#
#
# Convention : Reuss Voigt Hill
#
# Bulk Modulus (GPa) = 48.14180 53.85992 51.00086
# Shear Modulus (GPa) = 30.54124 35.25122 32.89623
#
# Velocity S-wave (km/s) = 3.59558 3.86289 3.73163
# Velocity P-wave (km/s) = 6.13320 6.53414 6.33684
#
# Compressibility (1/GPa) = 0.02077197
#
# Stress axis : x y z
#
# Youngs Moduli (GPa) = 84.48735 82.21237 77.29408
#
# Poissons Ratio (x) = 0.24510 0.07163
# Poissons Ratio (y) = 0.25188 0.32268
# Poissons Ratio (z) = 0.07829 0.34321
#
# Static dielectric constant tensor:
#      x y z
#    x 4.189670 0.183380 0.085990 
#    y 0.183380 4.830030 0.411880 
#    z 0.085990 0.411880 4.864950 
# 
# 
# High freq. dielectric constant tensor:
#      x y z
#    x 1.932080 0.011760 0.003770 
#    y 0.011760 1.946740 -0.008590 
#    z 0.003770 -0.008590 1.938910 
# 
# From -- ./inp_files/499751.got.cif
#   From: 2010.06.25/outbox.cif.g09.slc.cpg/sg2_250_cif.got.tgz:499751.got - 2010.06.27 13:26:56.
