data_PCOD8031078
_publ_section_title
;
Structure prediction by ZEFSAII (Michael W. Deem and Ramdas Pophale) SiO2 
 PCOD8031078
Probable space group: P -1
;
_chemical_formula_sum "Si O2"
_cell_formula_units_Z 16
_cell_length_a 9.263974
_cell_length_b 21.886495
_cell_length_c 10.009597
_cell_angle_alpha 54.737653
_cell_angle_beta 127.206632
_cell_angle_gamma 152.117576
_cell_volume 750.918589
_symmetry_space_group_name_H-M "P -1"
_symmetry_group_IT_number 2
_symmetry_cell_setting 'triclinic'
loop_
_space_group_symop_operation_xyz
x,y,z
-x,-y,-z
loop_
_atom_site_type_symbol
_atom_site_label
_atom_site_fract_x
_atom_site_fract_y
_atom_site_fract_z
Si Si1 0.743064 0.449513 0.517187
Si Si2 0.146826 0.336227 0.693103
Si Si3 0.197663 0.753584 0.652710
Si Si4 0.815401 0.847228 0.500841
Si Si5 0.838512 0.905608 0.726867
Si Si6 0.209519 0.522001 0.188993
Si Si7 0.793514 0.101129 0.936359
Si Si8 0.601097 0.048456 0.342948
O O1 0.735424 0.537587 0.379711
O O2 0.406208 0.294662 0.497719
O O3 0.824943 0.457354 0.706273
O O4 0.000000 0.500000 0.500000
O O5 0.426772 0.369912 0.785917
O O6 0.904938 0.245375 0.547767
O O7 0.950039 0.237798 0.835892
O O8 0.552059 0.841331 0.733185
O O9 0.189759 0.805953 0.709077
O O10 0.930789 0.607013 0.731321
O O11 0.691354 0.835443 0.587761
O O12 0.176375 0.940777 0.605878
O O13 0.862145 0.934329 0.317167
O O14 0.939188 0.864110 0.907128
O O15 0.000000 0.500000 0.000000
O O16 0.689914 0.037824 0.811459
O O17 0.500000 0.000000 0.000000
O O18 0.500000 0.000000 0.500000
#
# Coordination Sequence:
#
# PCOD8031078 Si02
#       8
#     2   2   2   2   2   2   2   2
#     4  11  25  42  71  97 130 179 227 268 325 411
#     4  11  23  45  69  95 135 179 221 270 336 403
#     4  11  22  42  68  97 130 173 224 263 337 390
#     4  11  22  42  66  94 130 173 224 259 339 390
#     4  11  24  40  67  97 134 172 212 285 324 393
#     4  11  24  44  68  97 138 175 216 278 333 396
#     4  12  26  43  67  99 137 173 222 277 342 381
#     4  12  22  41  67  97 126 172 215 273 321 404
#
# _framework density 21.307237000000001
#
# number of rings (size 3 to 8) (size 9 to 14) (size 15 to 20)
#    0.000    0.750    3.750    5.250    3.500    1.500 
#    0.000    1.250    0.000    0.000    0.000    0.000 
#    0.000    0.000    0.000    0.000    0.000    0.000 
#
# Total GULP energy -198286.061361 kJ/mol
# GULP energy per Si atom -12392.878835 kJ/mol
# Density = 2.125874 g / cm^3
# Si number density = 21.307237 Si / 1000 Ang^3
#
#
#
# Elastic Constant Matrix: (Units=GPa)
#
#
# Indices 1 2 3 4 5 6 
#
# 1 93.7854 14.2075 29.7250 2.9310 0.6284 5.6666
# 2 14.2075 104.6073 40.7071 -8.4682 -2.4792 -11.8663
# 3 29.7250 40.7071 115.2871 -5.9784 9.4602 5.2815
# 4 2.9310 -8.4682 -5.9784 31.0725 4.2326 0.0048
# 5 0.6284 -2.4792 9.4602 4.2326 33.4004 2.9299
# 6 5.6666 -11.8663 5.2815 0.0048 2.9299 42.1668
#
#
#
# Elastic Compliance Matrix: (Units=1/GPa)
#
#
# Indices 1 2 3 4 5 6 
#
# 1 0.011846 -0.000801 -0.002882 -0.002016 0.000923 -0.001520
# 2 -0.000801 0.011967 -0.004196 0.002331 0.001454 0.003899
# 3 -0.002882 -0.004196 0.011372 0.001798 -0.003533 -0.001973
# 4 -0.002016 0.002331 0.001798 0.033994 -0.004696 0.001024
# 5 0.000923 0.001454 -0.003533 -0.004696 0.031756 -0.001478
# 6 -0.001520 0.003899 -0.001973 0.001024 -0.001478 0.025367
#
#
# Mechanical properties :
#
#
# Convention : Reuss Voigt Hill
#
# Bulk Modulus (GPa) = 51.47544 53.66213 52.56878
# Shear Modulus (GPa) = 33.66214 36.59728 35.12971
#
# Velocity S-wave (km/s) = 3.97904 4.14889 4.06485
# Velocity P-wave (km/s) = 6.73212 6.94195 6.83784
#
# Compressibility (1/GPa) = 0.01942674
#
# Stress axis : x y z
#
# Youngs Moduli (GPa) = 84.41563 83.56543 87.93409
#
# Poissons Ratio (x) = 0.06695 0.25343
# Poissons Ratio (y) = 0.06763 0.36896
# Poissons Ratio (z) = 0.24329 0.35063
#
# Static dielectric constant tensor:
#      x y z
#    x 4.154020 -0.326040 0.098670 
#    y -0.326040 4.262360 -0.179540 
#    z 0.098670 -0.179540 3.751730 
# 
# 
# High freq. dielectric constant tensor:
#      x y z
#    x 1.838860 0.001600 0.005370 
#    y 0.001600 1.852350 -0.011720 
#    z 0.005370 -0.011720 1.826010 
# 
# From -- ./inp_files/223488.got.cif
#   From: 2010.06.25/outbox.cif.g09.slc.cpg/sg2_112_cif.got.tgz:223488.got - 2010.06.27 13:26:56.
