data_PCOD8031587
_publ_section_title
;
Structure prediction by ZEFSAII (Michael W. Deem and Ramdas Pophale) SiO2 
 PCOD8031587
Probable space group: P -1
;
_chemical_formula_sum "Si O2"
_cell_formula_units_Z 16
_cell_length_a 9.190084
_cell_length_b 18.039129
_cell_length_c 11.761072
_cell_angle_alpha 149.739894
_cell_angle_beta 52.366825
_cell_angle_gamma 127.406485
_cell_volume 762.288896
_symmetry_space_group_name_H-M "P -1"
_symmetry_group_IT_number 2
_symmetry_cell_setting 'triclinic'
loop_
_space_group_symop_operation_xyz
x,y,z
-x,-y,-z
loop_
_atom_site_type_symbol
_atom_site_label
_atom_site_fract_x
_atom_site_fract_y
_atom_site_fract_z
Si Si1 0.414053 0.643129 0.365270
Si Si2 0.112478 0.669020 0.154386
Si Si3 0.057360 0.146882 0.352067
Si Si4 0.522916 0.831696 0.780186
Si Si5 0.115520 0.193979 0.978703
Si Si6 0.840395 0.318903 0.114894
Si Si7 0.490136 0.678560 0.119114
Si Si8 0.004516 0.353373 0.453066
O O1 0.517730 0.758548 0.561417
O O2 0.464096 0.710640 0.306423
O O3 0.192293 0.615616 0.457136
O O4 0.481827 0.488105 0.140029
O O5 0.308506 0.700796 0.168241
O O6 0.987539 0.781360 0.412248
O O7 0.152537 0.713374 0.064141
O O8 0.000000 0.500000 0.000000
O O9 0.279876 0.173590 0.262901
O O10 0.968160 0.223690 0.393002
O O11 0.971252 0.971618 0.157420
O O12 0.364941 0.745501 0.824890
O O13 0.500000 0.000000 0.000000
O O14 0.328906 0.201145 0.848406
O O15 0.116864 0.308145 0.233130
O O16 0.995982 0.240853 0.994407
O O17 0.877054 0.496799 0.350474
#
# Coordination Sequence:
#
# PCOD8031587 Si02
#       8
#     2   2   2   2   2   2   2   2
#     4  11  22  44  73  96 136 181 229 283 338 413
#     4  12  26  48  68 103 144 178 235 286 342 409
#     4  12  27  46  70  99 145 185 221 292 350 398
#     4  12  26  45  68 104 140 181 226 281 351 412
#     4  12  26  45  69 106 137 180 234 285 347 411
#     4  12  25  45  74 100 140 183 230 287 341 414
#     4  11  25  43  71 103 132 183 232 281 341 411
#     4  12  23  47  71 101 139 179 233 285 342 410
#
# _framework density 20.989417
#
# number of rings (size 3 to 8) (size 9 to 14) (size 15 to 20)
#    0.000    0.250    6.250    2.250    5.250    2.500 
#    0.000    0.000    0.000    0.000    0.000    0.000 
#    0.000    0.000    0.000    0.000    0.000    0.000 
#
# Total GULP energy -198529.590855 kJ/mol
# GULP energy per Si atom -12408.099428 kJ/mol
# Density = 2.094164 g / cm^3
# Si number density = 20.989417 Si / 1000 Ang^3
#
#
#
# Elastic Constant Matrix: (Units=GPa)
#
#
# Indices 1 2 3 4 5 6 
#
# 1 82.3252 41.5843 11.2486 -0.4367 -10.1734 4.9422
# 2 41.5843 114.1907 16.5297 -7.2002 -2.8853 5.7945
# 3 11.2486 16.5297 57.0730 -4.9369 -7.9362 -3.3917
# 4 -0.4367 -7.2002 -4.9369 31.8544 -3.1338 -3.9289
# 5 -10.1734 -2.8853 -7.9362 -3.1338 29.9426 -7.1033
# 6 4.9422 5.7945 -3.3917 -3.9289 -7.1033 48.2986
#
#
#
# Elastic Compliance Matrix: (Units=1/GPa)
#
#
# Indices 1 2 3 4 5 6 
#
# 1 0.015593 -0.005455 -0.000988 -0.000801 0.004322 -0.000440
# 2 -0.005455 0.011203 -0.002267 0.001843 -0.001420 -0.001004
# 3 -0.000988 -0.002267 0.019631 0.003430 0.005688 0.002867
# 4 -0.000801 0.001843 0.003430 0.033275 0.005143 0.003565
# 5 0.004322 -0.001420 0.005688 0.005143 0.038238 0.006170
# 6 -0.000440 -0.001004 0.002867 0.003565 0.006170 0.022269
#
#
# Mechanical properties :
#
#
# Convention : Reuss Voigt Hill
#
# Bulk Modulus (GPa) = 34.47383 43.59045 39.03214
# Shear Modulus (GPa) = 29.88660 34.30087 32.09374
#
# Velocity S-wave (km/s) = 3.77754 4.04691 3.91454
# Velocity P-wave (km/s) = 5.95705 6.53066 6.25044
#
# Compressibility (1/GPa) = 0.02900751
#
# Stress axis : x y z
#
# Youngs Moduli (GPa) = 64.12939 89.26087 50.94029
#
# Poissons Ratio (x) = 0.48688 0.05033
# Poissons Ratio (y) = 0.34980 0.11550
# Poissons Ratio (z) = 0.06336 0.20239
#
# Static dielectric constant tensor:
#      x y z
#    x 5.434980 -3.182230 -0.614840 
#    y -3.182230 10.697780 1.122320 
#    z -0.614840 1.122320 4.236540 
# 
# 
# High freq. dielectric constant tensor:
#      x y z
#    x 1.828730 0.001570 -0.000690 
#    y 0.001570 1.832810 -0.009270 
#    z -0.000690 -0.009270 1.833220 
# 
# From -- ./inp_files/190852.got.cif
#   From: 2010.06.25/outbox.cif.g09.slc.cpg/sg2_96_cif.got.tgz:190852.got - 2010.06.27 13:26:56.
