data_PCOD8031648
_publ_section_title
;
Structure prediction by ZEFSAII (Michael W. Deem and Ramdas Pophale) SiO2 
 PCOD8031648
Probable space group: P -1
;
_chemical_formula_sum "Si O2"
_cell_formula_units_Z 16
_cell_length_a 11.942725
_cell_length_b 17.274610
_cell_length_c 9.561406
_cell_angle_alpha 116.886936
_cell_angle_beta 129.071071
_cell_angle_gamma 31.622276
_cell_volume 785.480298
_symmetry_space_group_name_H-M "P -1"
_symmetry_group_IT_number 2
_symmetry_cell_setting 'triclinic'
loop_
_space_group_symop_operation_xyz
x,y,z
-x,-y,-z
loop_
_atom_site_type_symbol
_atom_site_label
_atom_site_fract_x
_atom_site_fract_y
_atom_site_fract_z
Si Si1 0.453627 0.945115 0.523023
Si Si2 0.308100 0.854489 0.743469
Si Si3 0.907311 0.017704 0.791268
Si Si4 0.136075 0.404261 0.390502
Si Si5 0.808368 0.547414 0.988078
Si Si6 0.734167 0.392198 0.699148
Si Si7 0.585308 0.289268 0.578708
Si Si8 0.281928 0.061604 0.790914
O O1 0.218017 0.014320 0.321972
O O2 0.692362 0.764539 0.584779
O O3 0.500000 0.000000 0.500000
O O4 0.375167 0.019623 0.672076
O O5 0.305130 0.796678 0.554673
O O6 0.242626 0.983930 0.752785
O O7 0.564813 0.727472 0.929010
O O8 0.109950 0.913742 0.743542
O O9 0.693455 0.189204 0.717299
O O10 0.000000 0.000000 0.000000
O O11 0.290017 0.409889 0.448888
O O12 0.000000 0.500000 0.500000
O O13 0.914442 0.489621 0.179806
O O14 0.729150 0.489130 0.839890
O O15 0.000000 0.500000 0.000000
O O16 0.500000 0.500000 0.500000
O O17 0.661687 0.351472 0.717414
O O18 0.013238 0.241767 0.733482
O O19 0.500000 0.000000 0.000000
#
# Coordination Sequence:
#
# PCOD8031648 Si02
#       8
#     2   2   2   2   2   2   2   2
#     4  11  26  45  67  98 139 179 232 283 341 416
#     4  12  22  44  74  94 136 181 233 283 339 408
#     4  11  25  41  68  99 133 176 228 277 345 402
#     4  11  25  46  67  96 142 185 224 280 356 414
#     4  12  24  43  68 102 138 174 229 281 347 418
#     4  12  24  40  70 108 136 173 234 298 347 404
#     4  11  22  45  68  96 134 180 229 285 338 408
#     4  12  25  43  74 104 135 185 238 288 344 412
#
# _framework density 20.369702
#
# number of rings (size 3 to 8) (size 9 to 14) (size 15 to 20)
#    0.000    0.500    6.250    2.625    5.250    3.000 
#    0.000    0.625    0.000    0.000    0.000    0.000 
#    0.000    0.000    0.000    0.000    0.000    0.000 
#
# Total GULP energy -198326.185077 kJ/mol
# GULP energy per Si atom -12395.386567 kJ/mol
# Density = 2.032334 g / cm^3
# Si number density = 20.369702 Si / 1000 Ang^3
#
#
#
# Elastic Constant Matrix: (Units=GPa)
#
#
# Indices 1 2 3 4 5 6 
#
# 1 142.8704 27.0149 60.1435 5.1864 4.4033 0.2491
# 2 27.0149 80.6007 35.0357 -16.8115 -6.4850 -11.1680
# 3 60.1435 35.0357 173.1513 -9.1326 -4.6766 -7.0351
# 4 5.1864 -16.8115 -9.1326 36.3489 -1.8328 0.0194
# 5 4.4033 -6.4850 -4.6766 -1.8328 38.1765 2.3704
# 6 0.2491 -11.1680 -7.0351 0.0194 2.3704 27.9619
#
#
#
# Elastic Compliance Matrix: (Units=1/GPa)
#
#
# Indices 1 2 3 4 5 6 
#
# 1 0.008915 -0.002872 -0.002819 -0.003404 -0.001915 -0.001771
# 2 -0.002872 0.016826 -0.001662 0.007922 0.002989 0.006069
# 3 -0.002819 -0.001662 0.007240 0.001499 0.000933 0.001103
# 4 -0.003404 0.007922 0.001499 0.032200 0.003265 0.003272
# 5 -0.001915 0.002989 0.000933 0.003265 0.027248 -0.000866
# 6 -0.001771 0.006069 0.001103 0.003272 -0.000866 0.038551
#
#
# Mechanical properties :
#
#
# Convention : Reuss Voigt Hill
#
# Bulk Modulus (GPa) = 54.72008 71.22340 62.97174
# Shear Modulus (GPa) = 32.94345 38.79270 35.86807
#
# Velocity S-wave (km/s) = 4.02590 4.36871 4.20081
# Velocity P-wave (km/s) = 6.96651 7.77746 7.38313
#
# Compressibility (1/GPa) = 0.01827483
#
# Stress axis : x y z
#
# Youngs Moduli (GPa) = 112.17512 59.43344 138.12920
#
# Poissons Ratio (x) = 0.17071 0.38932
# Poissons Ratio (y) = 0.32220 0.22953
# Poissons Ratio (z) = 0.31617 0.09876
#
# Static dielectric constant tensor:
#      x y z
#    x 4.249830 0.304100 0.411460 
#    y 0.304100 4.091330 -0.184880 
#    z 0.411460 -0.184880 4.316920 
# 
# 
# High freq. dielectric constant tensor:
#      x y z
#    x 1.807020 0.001970 0.012700 
#    y 0.001970 1.798360 -0.018950 
#    z 0.012700 -0.018950 1.806910 
# 
# From -- ./inp_files/263372.got.cif
#   From: 2010.06.25/outbox.cif.g09.slc.cpg/sg2_132_cif.got.tgz:263372.got - 2010.06.27 13:26:56.
