data_PCOD8031960
_publ_section_title
;
Structure prediction by ZEFSAII (Michael W. Deem and Ramdas Pophale) SiO2 
 PCOD8031960
Probable space group: P -1
;
_chemical_formula_sum "Si O2"
_cell_formula_units_Z 16
_cell_length_a 11.895503
_cell_length_b 13.630168
_cell_length_c 14.460454
_cell_angle_alpha 151.012738
_cell_angle_beta 138.889554
_cell_angle_gamma 48.871338
_cell_volume 747.073609
_symmetry_space_group_name_H-M "P -1"
_symmetry_group_IT_number 2
_symmetry_cell_setting 'triclinic'
loop_
_space_group_symop_operation_xyz
x,y,z
-x,-y,-z
loop_
_atom_site_type_symbol
_atom_site_label
_atom_site_fract_x
_atom_site_fract_y
_atom_site_fract_z
Si Si1 0.916512 0.835927 0.058920
Si Si2 0.567767 0.694289 0.257287
Si Si3 0.303918 0.895459 0.382760
Si Si4 0.718840 0.501461 0.551922
Si Si5 0.199994 0.521205 0.631565
Si Si6 0.336114 0.949797 0.798942
Si Si7 0.506921 0.181334 0.385610
Si Si8 0.837191 0.039965 0.997234
O O1 0.110541 0.822078 0.198096
O O2 0.810132 0.892117 0.131960
O O3 0.896228 0.015537 0.119902
O O4 0.855351 0.626936 0.801568
O O5 0.398212 0.808617 0.279998
O O6 0.691935 0.638623 0.373542
O O7 0.671098 0.859164 0.394023
O O8 0.500000 0.500000 0.000000
O O9 0.376398 0.780982 0.422951
O O10 0.762940 0.499218 0.469553
O O11 0.724618 0.278654 0.411659
O O12 0.531609 0.613226 0.529139
O O13 0.244305 0.739631 0.882305
O O14 0.000000 0.500000 0.500000
O O15 0.391799 0.975717 0.747596
O O16 0.500000 0.000000 0.000000
O O17 0.319707 0.109071 0.245476
O O18 0.000000 0.000000 0.000000
#
# Coordination Sequence:
#
# PCOD8031960 Si02
#       8
#     2   2   2   2   2   2   2   2
#     4  11  25  41  67  96 132 176 214 276 325 390
#     4  11  26  41  65  94 137 182 213 264 331 404
#     4  11  26  45  60  95 141 174 220 265 335 395
#     4  11  23  42  67 100 126 165 224 273 325 384
#     4  12  22  38  65  99 130 167 220 269 323 387
#     4  12  23  44  71  99 126 167 227 276 329 380
#     4  11  23  44  67  93 131 177 213 275 326 389
#     4  11  23  39  67 101 134 167 220 276 327 385
#
# _framework density 21.416898
#
# number of rings (size 3 to 8) (size 9 to 14) (size 15 to 20)
#    0.000    0.750    5.000    3.375    7.000    0.500 
#    0.000    0.625    0.000    0.000    0.000    0.000 
#    0.000    0.000    0.000    0.000    0.000    0.000 
#
# Total GULP energy -198343.309025 kJ/mol
# GULP energy per Si atom -12396.456814 kJ/mol
# Density = 2.136815 g / cm^3
# Si number density = 21.416898 Si / 1000 Ang^3
#
#
#
# Elastic Constant Matrix: (Units=GPa)
#
#
# Indices 1 2 3 4 5 6 
#
# 1 106.1628 14.2020 36.3964 -10.1164 -7.9576 -21.2429
# 2 14.2020 77.0372 50.4987 -11.6152 13.0322 -13.8119
# 3 36.3964 50.4987 137.8618 -2.6799 1.8987 -10.1844
# 4 -10.1164 -11.6152 -2.6799 45.0369 -6.8109 2.7091
# 5 -7.9576 13.0322 1.8987 -6.8109 31.9202 -0.7081
# 6 -21.2429 -13.8119 -10.1844 2.7091 -0.7081 32.5059
#
#
#
# Elastic Compliance Matrix: (Units=1/GPa)
#
#
# Indices 1 2 3 4 5 6 
#
# 1 0.012368 0.000828 -0.003021 0.002933 0.003713 0.007324
# 2 0.000828 0.020264 -0.006997 0.003584 -0.006741 0.006513
# 3 -0.003021 -0.006997 0.010456 -0.001603 0.001106 -0.001514
# 4 0.002933 0.003584 -0.001603 0.024323 0.004575 0.001010
# 5 0.003713 -0.006741 0.001106 0.004575 0.035923 0.000310
# 6 0.007324 0.006513 -0.001514 0.001010 0.000310 0.037766
#
#
# Mechanical properties :
#
#
# Convention : Reuss Voigt Hill
#
# Bulk Modulus (GPa) = 40.47693 58.13957 49.30825
# Shear Modulus (GPa) = 29.81205 36.55691 33.18448
#
# Velocity S-wave (km/s) = 3.73498 4.13597 3.94058
# Velocity P-wave (km/s) = 6.12705 7.07205 6.61644
#
# Compressibility (1/GPa) = 0.02470543
#
# Stress axis : x y z
#
# Youngs Moduli (GPa) = 80.85389 49.34968 95.63679
#
# Poissons Ratio (x) = -0.04085 0.28896
# Poissons Ratio (y) = -0.06692 0.66921
# Poissons Ratio (z) = 0.24430 0.34532
#
# Static dielectric constant tensor:
#      x y z
#    x 7.118670 -2.495240 -0.107680 
#    y -2.495240 5.894090 0.286920 
#    z -0.107680 0.286920 3.854690 
# 
# 
# High freq. dielectric constant tensor:
#      x y z
#    x 1.848650 -0.010090 -0.007930 
#    y -0.010090 1.828120 0.007290 
#    z -0.007930 0.007290 1.846370 
# 
# From -- ./inp_files/521973.got.cif
#   From: 2010.06.25/outbox.cif.g09.slc.cpg/sg2_261_cif.got.tgz:521973.got - 2010.06.27 13:26:56.
