data_PCOD8031838
_publ_section_title
;
Structure prediction by ZEFSAII (Michael W. Deem and Ramdas Pophale) SiO2 
 PCOD8031838
Probable space group: P -1
;
_chemical_formula_sum "Si O2"
_cell_formula_units_Z 16
_cell_length_a 14.005409
_cell_length_b 13.308965
_cell_length_c 9.540565
_cell_angle_alpha 71.586114
_cell_angle_beta 96.564097
_cell_angle_gamma 35.909031
_cell_volume 738.900865
_symmetry_space_group_name_H-M "P -1"
_symmetry_group_IT_number 2
_symmetry_cell_setting 'triclinic'
loop_
_space_group_symop_operation_xyz
x,y,z
-x,-y,-z
loop_
_atom_site_type_symbol
_atom_site_label
_atom_site_fract_x
_atom_site_fract_y
_atom_site_fract_z
Si Si1 0.959014 0.804595 0.625844
Si Si2 0.668298 0.613679 0.351555
Si Si3 0.747941 0.771643 0.311635
Si Si4 0.775608 0.460359 0.747402
Si Si5 0.413059 0.975898 0.552906
Si Si6 0.277338 0.852701 0.801867
Si Si7 0.761637 0.946093 0.055035
Si Si8 0.229734 0.668073 0.944851
O O1 0.150203 0.581615 0.649832
O O2 0.055037 0.765159 0.796428
O O3 0.810915 0.849930 0.630766
O O4 0.799338 0.044832 0.413825
O O5 0.628910 0.777275 0.298150
O O6 0.720938 0.501115 0.555124
O O7 0.432880 0.806790 0.173792
O O8 0.713447 0.870239 0.117963
O O9 0.000000 0.500000 0.500000
O O10 0.642442 0.955574 0.324392
O O11 0.606092 0.702173 0.692000
O O12 0.012588 0.277233 0.892842
O O13 0.770209 0.354572 0.877473
O O14 0.500000 0.000000 0.500000
O O15 0.164480 0.854621 0.829782
O O16 0.193753 0.028579 0.810277
O O17 0.536644 0.585738 0.972951
#
# Coordination Sequence:
#
# PCOD8031838 Si02
#       8
#     2   2   2   2   2   2   2   2
#     4  12  23  46  71  98 135 178 227 273 333 409
#     4  12  25  42  69  97 133 184 223 266 333 409
#     4  12  20  43  66  96 134 181 218 268 332 400
#     4  12  25  44  63  97 141 170 216 289 327 390
#     4  12  23  40  69  96 141 176 214 274 336 387
#     4  11  22  47  70  97 135 176 227 283 331 404
#     4  12  24  43  68  97 134 180 223 270 338 404
#     4  11  26  42  73 100 130 177 231 280 342 387
#
# _framework density 21.653784000000002
#
# number of rings (size 3 to 8) (size 9 to 14) (size 15 to 20)
#    0.000    0.250    8.750    0.750    1.750    0.500 
#    0.000    1.875    0.000    0.000    0.000    0.000 
#    0.000    0.000    0.000    0.000    0.000    0.000 
#
# Total GULP energy -198363.470736 kJ/mol
# GULP energy per Si atom -12397.716921 kJ/mol
# Density = 2.160450 g / cm^3
# Si number density = 21.653784 Si / 1000 Ang^3
#
#
#
# Elastic Constant Matrix: (Units=GPa)
#
#
# Indices 1 2 3 4 5 6 
#
# 1 115.3849 17.8172 48.6202 15.1938 -3.7961 -16.2183
# 2 17.8172 85.4777 26.3509 -9.0730 5.9993 -15.8384
# 3 48.6202 26.3509 124.1555 -0.9429 1.9085 -15.3483
# 4 15.1938 -9.0730 -0.9429 31.8112 -8.0297 0.7769
# 5 -3.7961 5.9993 1.9085 -8.0297 33.4914 -2.5588
# 6 -16.2183 -15.8384 -15.3483 0.7769 -2.5588 30.9562
#
#
#
# Elastic Compliance Matrix: (Units=1/GPa)
#
#
# Indices 1 2 3 4 5 6 
#
# 1 0.011894 -0.001233 -0.003978 -0.006085 0.000630 0.003833
# 2 -0.001233 0.014030 -0.001772 0.004115 -0.001149 0.005456
# 3 -0.003978 -0.001772 0.010255 0.001604 -0.000178 0.002039
# 4 -0.006085 0.004115 0.001604 0.037449 0.007413 -0.000615
# 5 0.000630 -0.001149 -0.000178 0.007413 0.032085 0.002120
# 6 0.003833 0.005456 0.002039 -0.000615 0.002120 0.038305
#
#
# Mechanical properties :
#
#
# Convention : Reuss Voigt Hill
#
# Bulk Modulus (GPa) = 45.01544 56.73274 50.87409
# Shear Modulus (GPa) = 30.23169 34.73372 32.48270
#
# Velocity S-wave (km/s) = 3.74055 4.00940 3.87731
# Velocity P-wave (km/s) = 6.28406 6.90583 6.60227
#
# Compressibility (1/GPa) = 0.02221460
#
# Stress axis : x y z
#
# Youngs Moduli (GPa) = 84.07545 71.27364 97.51028
#
# Poissons Ratio (x) = 0.08786 0.38792
# Poissons Ratio (y) = 0.10364 0.17276
# Poissons Ratio (z) = 0.33447 0.12628
#
# Static dielectric constant tensor:
#      x y z
#    x 4.138600 -0.090880 -0.035130 
#    y -0.090880 3.970160 -0.122890 
#    z -0.035130 -0.122890 3.949060 
# 
# 
# High freq. dielectric constant tensor:
#      x y z
#    x 1.846690 -0.013890 -0.002810 
#    y -0.013890 1.850600 -0.012950 
#    z -0.002810 -0.012950 1.849500 
# 
# From -- ./inp_files/314901.got.cif
#   From: 2010.06.25/outbox.cif.g09.slc.cpg/sg2_158_cif.got.tgz:314901.got - 2010.06.27 13:26:56.
