data_PCOD8031204
_publ_section_title
;
Structure prediction by ZEFSAII (Michael W. Deem and Ramdas Pophale) SiO2 
 PCOD8031204
Probable space group: P -1
;
_chemical_formula_sum "Si O2"
_cell_formula_units_Z 16
_cell_length_a 13.674470
_cell_length_b 11.045011
_cell_length_c 10.951567
_cell_angle_alpha 65.079809
_cell_angle_beta 31.369485
_cell_angle_gamma 53.310277
_cell_volume 674.646262
_symmetry_space_group_name_H-M "P -1"
_symmetry_group_IT_number 2
_symmetry_cell_setting 'triclinic'
loop_
_space_group_symop_operation_xyz
x,y,z
-x,-y,-z
loop_
_atom_site_type_symbol
_atom_site_label
_atom_site_fract_x
_atom_site_fract_y
_atom_site_fract_z
Si Si1 0.524014 0.812540 0.867575
Si Si2 0.909076 0.548780 0.213483
Si Si3 0.532052 0.354653 0.446597
Si Si4 0.902064 0.686059 0.675787
Si Si5 0.283795 0.650560 0.130415
Si Si6 0.213459 0.992185 0.320580
Si Si7 0.962245 0.238418 0.893698
Si Si8 0.675627 0.032294 0.519058
O O1 0.768810 0.671872 0.705084
O O2 0.535468 0.946525 0.722654
O O3 0.368695 0.772609 0.970773
O O4 0.420656 0.853711 0.095067
O O5 0.666725 0.572866 0.468922
O O6 0.064494 0.425294 0.200388
O O7 0.898615 0.705481 0.200413
O O8 0.000000 0.500000 0.000000
O O9 0.500000 0.500000 0.500000
O O10 0.514897 0.215755 0.589712
O O11 0.769995 0.257221 0.177479
O O12 0.124150 0.677434 0.400682
O O13 0.764380 0.859520 0.800847
O O14 0.160197 0.651093 0.138741
O O15 0.500000 0.500000 0.000000
O O16 0.201468 0.976176 0.484645
O O17 0.000000 0.000000 0.500000
O O18 0.133996 0.062310 0.744833
#
# Coordination Sequence:
#
# PCOD8031204 Si02
#       8
#     2   2   2   2   2   2   2   2
#     4  11  24  45  74 110 149 190 243 307 376 442
#     4  12  29  48  73 109 148 203 250 301 367 448
#     4  12  29  51  74 103 148 205 250 304 373 447
#     4  11  24  44  70 109 145 184 248 296 370 439
#     4  12  25  43  75 112 148 196 238 309 380 440
#     4  11  22  42  72 106 142 189 237 299 375 438
#     4  12  26  51  73 111 150 190 258 304 376 440
#     4  11  26  47  75 109 148 192 255 310 370 439
#
# _framework density 23.716131000000001
#
# number of rings (size 3 to 8) (size 9 to 14) (size 15 to 20)
#    0.000    0.500    5.000    3.375    8.750    2.500 
#    2.250    0.000    0.000    0.000    0.000    0.000 
#    0.000    0.000    0.000    0.000    0.000    0.000 
#
# Total GULP energy -198216.485462 kJ/mol
# GULP energy per Si atom -12388.530341 kJ/mol
# Density = 2.366215 g / cm^3
# Si number density = 23.716131 Si / 1000 Ang^3
#
#
#
# Elastic Constant Matrix: (Units=GPa)
#
#
# Indices 1 2 3 4 5 6 
#
# 1 114.0450 30.0313 33.9729 -1.5003 -8.5216 18.5828
# 2 30.0313 101.3896 24.4439 5.3976 12.3334 -5.6951
# 3 33.9729 24.4439 113.0924 -0.0770 -9.8799 14.2038
# 4 -1.5003 5.3976 -0.0770 33.2493 -2.2047 3.2916
# 5 -8.5216 12.3334 -9.8799 -2.2047 39.3239 -1.2379
# 6 18.5828 -5.6951 14.2038 3.2916 -1.2379 30.0129
#
#
#
# Elastic Compliance Matrix: (Units=1/GPa)
#
#
# Indices 1 2 3 4 5 6 
#
# 1 0.011766 -0.004088 -0.001415 0.002156 0.003362 -0.007489
# 2 -0.004088 0.013005 -0.002897 -0.003322 -0.005674 0.006500
# 3 -0.001415 -0.002897 0.010774 0.001116 0.003222 -0.004762
# 4 0.002156 -0.003322 0.001116 0.031514 0.003374 -0.005811
# 5 0.003362 -0.005674 0.003222 0.003374 0.028815 -0.003864
# 6 -0.007489 0.006500 -0.004762 -0.005811 -0.003864 0.041921
#
#
# Mechanical properties :
#
#
# Convention : Reuss Voigt Hill
#
# Bulk Modulus (GPa) = 53.35145 56.15814 54.75480
# Shear Modulus (GPa) = 31.08607 36.52248 33.80428
#
# Velocity S-wave (km/s) = 3.62436 3.92852 3.77950
# Velocity P-wave (km/s) = 6.32925 6.65646 6.49491
#
# Compressibility (1/GPa) = 0.01874363
#
# Stress axis : x y z
#
# Youngs Moduli (GPa) = 84.98725 76.89608 92.81687
#
# Poissons Ratio (x) = 0.31438 0.13136
# Poissons Ratio (y) = 0.34746 0.26890
# Poissons Ratio (z) = 0.12028 0.22277
#
# Static dielectric constant tensor:
#      x y z
#    x 4.414420 0.413040 0.387770 
#    y 0.413040 6.351220 2.486380 
#    z 0.387770 2.486380 5.860810 
# 
# 
# High freq. dielectric constant tensor:
#      x y z
#    x 1.940700 0.012410 -0.016630 
#    y 0.012410 1.931810 0.006560 
#    z -0.016630 0.006560 1.954780 
# 
# From -- ./inp_files/451212.got.cif
#   From: 2010.06.25/outbox.cif.g09.slc.cpg/sg2_226_cif.got.tgz:451212.got - 2010.06.27 13:26:56.
