data_PCOD8031207
_publ_section_title
;
Structure prediction by ZEFSAII (Michael W. Deem and Ramdas Pophale) SiO2 
 PCOD8031207
Probable space group: P -1
;
_chemical_formula_sum "Si O2"
_cell_formula_units_Z 16
_cell_length_a 7.833510
_cell_length_b 9.648915
_cell_length_c 13.408977
_cell_angle_alpha 89.624131
_cell_angle_beta 45.740098
_cell_angle_gamma 77.714386
_cell_volume 694.494004
_symmetry_space_group_name_H-M "P -1"
_symmetry_group_IT_number 2
_symmetry_cell_setting 'triclinic'
loop_
_space_group_symop_operation_xyz
x,y,z
-x,-y,-z
loop_
_atom_site_type_symbol
_atom_site_label
_atom_site_fract_x
_atom_site_fract_y
_atom_site_fract_z
Si Si1 0.280662 0.627833 0.128259
Si Si2 0.177700 0.858873 0.478652
Si Si3 0.787431 0.445030 0.633348
Si Si4 0.527050 0.255185 0.232204
Si Si5 0.596469 0.832157 0.068341
Si Si6 0.774767 0.861838 0.785798
Si Si7 0.571587 0.002367 0.355821
Si Si8 0.974819 0.794683 0.083071
O O1 0.148173 0.579255 0.276020
O O2 0.396218 0.752870 0.117466
O O3 0.083171 0.666715 0.118355
O O4 0.500000 0.500000 0.000000
O O5 0.218793 0.707049 0.408060
O O6 0.056949 0.854271 0.638033
O O7 0.443815 0.885666 0.365535
O O8 0.000000 0.000000 0.500000
O O9 0.525250 0.573485 0.720852
O O10 0.000000 0.500000 0.500000
O O11 0.313367 0.259947 0.236910
O O12 0.477399 0.165088 0.349245
O O13 0.798907 0.181206 0.074768
O O14 0.774027 0.760625 0.089072
O O15 0.433135 0.991967 0.164710
O O16 0.780033 0.837536 0.901729
O O17 0.500000 0.000000 0.500000
O O18 0.857076 0.934601 0.202433
#
# Coordination Sequence:
#
# PCOD8031207 Si02
#       8
#     2   2   2   2   2   2   2   2
#     4  12  26  48  73 105 149 199 248 301 377 444
#     4  12  24  46  72 105 146 193 250 298 372 449
#     4  12  25  45  77 107 147 194 245 308 379 441
#     4  12  24  49  71 110 146 195 246 310 374 439
#     4  11  25  43  73 109 142 195 250 305 368 437
#     4  11  22  42  72 107 144 187 250 305 371 434
#     4  12  29  45  72 111 148 196 248 308 374 440
#     4  12  26  47  75 109 149 189 256 307 365 452
#
# _framework density 23.038356
#
# number of rings (size 3 to 8) (size 9 to 14) (size 15 to 20)
#    0.000    0.250    6.250    1.875    7.000    0.500 
#    2.250    0.625    0.000    0.000    0.000    0.000 
#    0.000    0.000    0.000    0.000    0.000    0.000 
#
# Total GULP energy -198279.345100 kJ/mol
# GULP energy per Si atom -12392.459069 kJ/mol
# Density = 2.298592 g / cm^3
# Si number density = 23.038356 Si / 1000 Ang^3
#
#
#
# Elastic Constant Matrix: (Units=GPa)
#
#
# Indices 1 2 3 4 5 6 
#
# 1 109.2954 52.4460 39.2438 -6.8636 18.5219 -30.7055
# 2 52.4460 148.4356 57.9563 10.2347 13.2619 -7.5298
# 3 39.2438 57.9563 175.5749 -8.8007 20.0316 -17.1521
# 4 -6.8636 10.2347 -8.8007 41.6435 -1.4816 -0.0438
# 5 18.5219 13.2619 20.0316 -1.4816 33.7538 -5.4168
# 6 -30.7055 -7.5298 -17.1521 -0.0438 -5.4168 29.4843
#
#
#
# Elastic Compliance Matrix: (Units=1/GPa)
#
#
# Indices 1 2 3 4 5 6 
#
# 1 0.016982 -0.005119 0.000155 0.003938 -0.004722 0.015607
# 2 -0.005119 0.009632 -0.002627 -0.003781 -0.000299 -0.004459
# 3 0.000155 -0.002627 0.007262 0.002111 -0.002754 0.003212
# 4 0.003938 -0.003781 0.002111 0.026040 -0.000081 0.004387
# 5 -0.004722 -0.000299 -0.002754 -0.000081 0.033907 -0.000367
# 6 0.015607 -0.004459 0.003212 0.004387 -0.000367 0.050838
#
#
# Mechanical properties :
#
#
# Convention : Reuss Voigt Hill
#
# Bulk Modulus (GPa) = 53.48957 81.39980 67.44469
# Shear Modulus (GPa) = 30.10708 39.88696 34.99702
#
# Velocity S-wave (km/s) = 3.61892 4.16544 3.90176
# Velocity P-wave (km/s) = 6.38202 7.65137 7.04534
#
# Compressibility (1/GPa) = 0.01869523
#
# Stress axis : x y z
#
# Youngs Moduli (GPa) = 58.88500 103.81876 137.70566
#
# Poissons Ratio (x) = 0.53140 -0.02128
# Poissons Ratio (y) = 0.30141 0.36169
# Poissons Ratio (z) = -0.00910 0.27268
#
# Static dielectric constant tensor:
#      x y z
#    x 4.599650 -0.319980 0.413470 
#    y -0.319980 3.855010 0.102680 
#    z 0.413470 0.102680 4.581440 
# 
# 
# High freq. dielectric constant tensor:
#      x y z
#    x 1.883410 -0.003850 0.012950 
#    y -0.003850 1.909520 -0.003510 
#    z 0.012950 -0.003510 1.945460 
# 
# From -- ./inp_files/495018.got.cif
#   From: 2010.06.25/outbox.cif.g09.slc.cpg/sg2_248_cif.got.tgz:495018.got - 2010.06.27 13:26:56.
