data_PCOD8031148
_publ_section_title
;
Structure prediction by ZEFSAII (Michael W. Deem and Ramdas Pophale) SiO2 
 PCOD8031148
Probable space group: P -1
;
_chemical_formula_sum "Si O2"
_cell_formula_units_Z 16
_cell_length_a 11.117627
_cell_length_b 19.842365
_cell_length_c 15.961835
_cell_angle_alpha 31.079118
_cell_angle_beta 23.196516
_cell_angle_gamma 41.726792
_cell_volume 701.341949
_symmetry_space_group_name_H-M "P -1"
_symmetry_group_IT_number 2
_symmetry_cell_setting 'triclinic'
loop_
_space_group_symop_operation_xyz
x,y,z
-x,-y,-z
loop_
_atom_site_type_symbol
_atom_site_label
_atom_site_fract_x
_atom_site_fract_y
_atom_site_fract_z
Si Si1 0.310756 0.965424 0.930119
Si Si2 0.659353 0.329243 0.909127
Si Si3 0.598182 0.939544 0.415036
Si Si4 0.677673 0.618241 0.601286
Si Si5 0.379626 0.752904 0.512637
Si Si6 0.700457 0.341233 0.060993
Si Si7 0.678996 0.750332 0.941411
Si Si8 0.585206 0.532681 0.506348
O O1 0.496956 0.865031 0.966279
O O2 0.410882 0.976131 0.755007
O O3 0.381536 0.105654 0.786378
O O4 0.943959 0.909774 0.234937
O O5 0.713848 0.481668 0.680478
O O6 0.982433 0.281683 0.726896
O O7 0.594075 0.306556 0.071962
O O8 0.365471 0.250171 0.130520
O O9 0.354609 0.800555 0.704326
O O10 0.500000 0.000000 0.500000
O O11 0.418235 0.674631 0.656140
O O12 0.546829 0.582143 0.817508
O O13 0.433521 0.656773 0.503076
O O14 0.039874 0.787745 0.691977
O O15 0.046884 0.423634 0.760975
O O16 0.531613 0.604589 0.224874
O O17 0.500000 0.500000 0.500000
#
# Coordination Sequence:
#
# PCOD8031148 Si02
#       8
#     2   2   2   2   2   2   2   2
#     4  11  26  48  74 105 147 193 244 302 357 437
#     4  11  23  41  68 108 143 176 240 302 354 417
#     4  11  24  44  75 107 145 193 245 294 367 434
#     4  11  22  42  69  98 140 189 231 295 354 428
#     4  12  24  50  73  98 149 203 238 294 371 433
#     4  12  23  42  73 106 142 185 239 298 364 423
#     4  12  26  46  73 107 149 192 243 299 369 429
#     4  12  27  46  74 109 147 190 252 299 363 444
#
# _framework density 22.813407999999999
#
# number of rings (size 3 to 8) (size 9 to 14) (size 15 to 20)
#    0.000    0.500    3.750    4.875    3.500    1.000 
#    2.250    0.625    0.000    0.000    0.000    0.000 
#    0.000    0.000    0.000    0.000    0.000    0.000 
#
# Total GULP energy -198271.425223 kJ/mol
# GULP energy per Si atom -12391.964076 kJ/mol
# Density = 2.276148 g / cm^3
# Si number density = 22.813408 Si / 1000 Ang^3
#
#
#
# Elastic Constant Matrix: (Units=GPa)
#
#
# Indices 1 2 3 4 5 6 
#
# 1 119.1195 35.9049 19.7190 11.6621 -4.6160 10.7067
# 2 35.9049 127.1563 21.1401 4.9509 0.7860 3.8379
# 3 19.7190 21.1401 67.0232 5.9962 -3.9161 2.5006
# 4 11.6621 4.9509 5.9962 41.6199 0.1594 -3.8742
# 5 -4.6160 0.7860 -3.9161 0.1594 27.3166 9.7364
# 6 10.7067 3.8379 2.5006 -3.8742 9.7364 45.0903
#
#
#
# Elastic Compliance Matrix: (Units=1/GPa)
#
#
# Indices 1 2 3 4 5 6 
#
# 1 0.009996 -0.002369 -0.001711 -0.002547 0.002541 -0.002844
# 2 -0.002369 0.008898 -0.002168 -0.000066 -0.001016 0.000139
# 3 -0.001711 -0.002168 0.016447 -0.001736 0.002501 -0.001010
# 4 -0.002547 -0.000066 -0.001736 0.025315 -0.002007 0.003315
# 5 0.002541 -0.001016 0.002501 -0.002007 0.040878 -0.009655
# 6 -0.002844 0.000139 -0.001010 0.003315 -0.009655 0.025267
#
#
# Mechanical properties :
#
#
# Convention : Reuss Voigt Hill
#
# Bulk Modulus (GPa) = 43.77537 51.86966 47.82251
# Shear Modulus (GPa) = 34.03403 38.57434 36.30419
#
# Velocity S-wave (km/s) = 3.86663 4.11647 3.99350
# Velocity P-wave (km/s) = 6.25816 6.73644 6.50170
#
# Compressibility (1/GPa) = 0.02284390
#
# Stress axis : x y z
#
# Youngs Moduli (GPa) = 100.04362 112.38081 60.80210
#
# Poissons Ratio (x) = 0.26619 0.10405
# Poissons Ratio (y) = 0.23697 0.13185
# Poissons Ratio (z) = 0.17121 0.24370
#
# Static dielectric constant tensor:
#      x y z
#    x 4.212100 0.120360 -0.041480 
#    y 0.120360 4.580940 -0.136090 
#    z -0.041480 -0.136090 4.055980 
# 
# 
# High freq. dielectric constant tensor:
#      x y z
#    x 1.897070 0.006300 -0.002900 
#    y 0.006300 1.919530 -0.011250 
#    z -0.002900 -0.011250 1.898830 
# 
# From -- ./inp_files/570732.got.cif
#   From: 2010.06.25/outbox.cif.g09.slc.cpg/sg2_286_cif.got.tgz:570732.got - 2010.06.27 13:26:56.
