data_PCOD8031120
_publ_section_title
;
Structure prediction by ZEFSAII (Michael W. Deem and Ramdas Pophale) SiO2 
 PCOD8031120
Probable space group: P -1
;
_chemical_formula_sum "Si O2"
_cell_formula_units_Z 14
_cell_length_a 9.387454
_cell_length_b 9.012752
_cell_length_c 17.669501
_cell_angle_alpha 62.138685
_cell_angle_beta 100.197068
_cell_angle_gamma 46.747297
_cell_volume 611.572557
_symmetry_space_group_name_H-M "P -1"
_symmetry_group_IT_number 2
_symmetry_cell_setting 'triclinic'
loop_
_space_group_symop_operation_xyz
x,y,z
-x,-y,-z
loop_
_atom_site_type_symbol
_atom_site_label
_atom_site_fract_x
_atom_site_fract_y
_atom_site_fract_z
Si Si1 0.779070 0.874623 0.506144
Si Si2 0.821713 0.989661 0.938515
Si Si3 0.747383 0.176114 0.041808
Si Si4 0.408658 0.198743 0.240996
Si Si5 0.417592 0.513192 0.409454
Si Si6 0.932725 0.758080 0.279508
Si Si7 0.524572 0.747759 0.293475
O O1 0.819609 0.647471 0.600323
O O2 0.111589 0.603793 0.578310
O O3 0.556940 0.097361 0.359133
O O4 0.650282 0.130837 0.495673
O O5 0.086241 0.616884 0.096450
O O6 0.618527 0.276937 0.920074
O O7 0.968741 0.984697 0.901165
O O8 0.603447 0.092150 0.842794
O O9 0.855959 0.884358 0.155322
O O10 0.500000 0.500000 0.000000
O O11 0.632812 0.020471 0.235931
O O12 0.365174 0.041492 0.266749
O O13 0.500000 0.500000 0.500000
O O14 0.423951 0.661108 0.317971
O O15 0.080833 0.776243 0.323248
#
# Coordination Sequence:
#
# PCOD8031120 Si02
#       7
#     2   2   2   2   2   2   2
#     4  11  25  44  67  97 136 183 222 275 352 406
#     4  11  24  43  71 101 137 183 225 281 346 399
#     4  11  23  42  69 101 138 182 228 279 338 412
#     4  11  23  45  71  95 138 182 224 276 347 413
#     4  12  24  39  63  99 135 173 227 287 332 399
#     4  11  22  42  68  96 133 179 230 273 338 413
#     4  11  24  44  66 101 134 173 227 285 342 393
#
# _framework density 22.891805000000002
#
# number of rings (size 3 to 8) (size 9 to 14) (size 15 to 20)
#    0.000    0.857    2.857    5.571    2.000    2.286 
#    0.000    2.857    0.000    0.000    0.000    0.000 
#    0.000    0.000    0.000    0.000    0.000    0.000 
#
# Total GULP energy -173531.989485 kJ/mol
# GULP energy per Si atom -12395.142106 kJ/mol
# Density = 2.283970 g / cm^3
# Si number density = 22.891805 Si / 1000 Ang^3
#
#
#
# Elastic Constant Matrix: (Units=GPa)
#
#
# Indices 1 2 3 4 5 6 
#
# 1 107.5472 29.9655 32.6842 1.6696 -16.2740 17.2631
# 2 29.9655 144.0272 45.6432 16.8749 -1.6784 14.8667
# 3 32.6842 45.6432 128.5694 14.3281 -2.3425 10.0311
# 4 1.6696 16.8749 14.3281 34.7433 9.2055 2.9716
# 5 -16.2740 -1.6784 -2.3425 9.2055 36.8304 9.8544
# 6 17.2631 14.8667 10.0311 2.9716 9.8544 34.2899
#
#
#
# Elastic Compliance Matrix: (Units=1/GPa)
#
#
# Indices 1 2 3 4 5 6 
#
# 1 0.012530 -0.001044 -0.002037 -0.000608 0.007480 -0.007357
# 2 -0.001044 0.008521 -0.002160 -0.003324 0.001324 -0.002630
# 3 -0.002037 -0.002160 0.009440 -0.002817 0.000493 -0.000697
# 4 -0.000608 -0.003324 -0.002817 0.033960 -0.009736 0.002426
# 5 0.007480 0.001324 0.000493 -0.009736 0.036784 -0.014211
# 6 -0.007357 -0.002630 -0.000697 0.002426 -0.014211 0.038085
#
#
# Mechanical properties :
#
#
# Convention : Reuss Voigt Hill
#
# Bulk Modulus (GPa) = 49.97520 66.30330 58.13925
# Shear Modulus (GPa) = 31.95479 39.29610 35.62544
#
# Velocity S-wave (km/s) = 3.74023 4.14768 3.94922
# Velocity P-wave (km/s) = 6.36639 7.20863 6.80056
#
# Compressibility (1/GPa) = 0.02000992
#
# Stress axis : x y z
#
# Youngs Moduli (GPa) = 79.80696 117.35592 105.93450
#
# Poissons Ratio (x) = 0.12249 0.21577
# Poissons Ratio (y) = 0.08330 0.22882
# Poissons Ratio (z) = 0.16255 0.25349
#
# Static dielectric constant tensor:
#      x y z
#    x 3.861650 0.580650 -0.015940 
#    y 0.580650 3.838100 -0.246510 
#    z -0.015940 -0.246510 4.353490 
# 
# 
# High freq. dielectric constant tensor:
#      x y z
#    x 1.907170 0.006470 -0.009580 
#    y 0.006470 1.907960 0.006320 
#    z -0.009580 0.006320 1.910810 
# 
# From -- ./inp_files/382087.got.cif
#   From: 2010.06.25/outbox.cif.g09.slc.cpg/sg2_192_cif.got.tgz:382087.got - 2010.06.27 13:26:56.
