data_PCOD8031381
_publ_section_title
;
Structure prediction by ZEFSAII (Michael W. Deem and Ramdas Pophale) SiO2 
 PCOD8031381
Probable space group: P -1
;
_chemical_formula_sum "Si O2"
_cell_formula_units_Z 14
_cell_length_a 9.037981
_cell_length_b 9.545957
_cell_length_c 11.746162
_cell_angle_alpha 37.379619
_cell_angle_beta 91.138226
_cell_angle_gamma 92.184790
_cell_volume 614.698659
_symmetry_space_group_name_H-M "P -1"
_symmetry_group_IT_number 2
_symmetry_cell_setting 'triclinic'
loop_
_space_group_symop_operation_xyz
x,y,z
-x,-y,-z
loop_
_atom_site_type_symbol
_atom_site_label
_atom_site_fract_x
_atom_site_fract_y
_atom_site_fract_z
Si Si1 0.122455 0.359782 0.439762
Si Si2 0.468191 0.638857 0.796207
Si Si3 0.070033 0.231945 0.904197
Si Si4 0.883866 0.035176 0.722838
Si Si5 0.737372 0.973342 0.519811
Si Si6 0.649620 0.308535 0.652598
Si Si7 0.394876 0.374292 0.750579
O O1 0.167485 0.159863 0.483515
O O2 0.266729 0.470794 0.429958
O O3 0.032374 0.552906 0.250022
O O4 0.014599 0.232266 0.612938
O O5 0.602842 0.816168 0.663873
O O6 0.458573 0.436661 0.834342
O O7 0.318327 0.787880 0.692110
O O8 0.500000 0.500000 0.000000
O O9 0.228980 0.271212 0.820654
O O10 0.074597 0.204211 0.061289
O O11 0.000000 0.000000 0.000000
O O12 0.752878 0.097605 0.768019
O O13 0.841731 0.026084 0.596129
O O14 0.512055 0.212713 0.790946
O O15 0.596131 0.388856 0.475847
#
# Coordination Sequence:
#
# PCOD8031381 Si02
#       7
#     2   2   2   2   2   2   2
#     4  12  24  46  68 100 145 178 232 287 343 412
#     4  11  23  44  70 101 143 178 230 289 339 410
#     4  12  25  42  69 104 137 180 234 285 346 409
#     4  12  24  43  71  99 140 185 228 285 349 406
#     4  11  25  43  68 102 136 187 232 274 352 411
#     4  11  22  43  72  96 138 182 225 284 344 407
#     4  11  23  43  70 101 137 181 229 288 345 406
#
# _framework density 22.775386999999998
#
# number of rings (size 3 to 8) (size 9 to 14) (size 15 to 20)
#    0.000    0.571    5.714    2.571    0.000    2.286 
#    0.000    0.000    0.000    0.000    0.000    0.000 
#    0.000    0.000    0.000    0.000    0.000    0.000 
#
# Total GULP energy -173554.275781 kJ/mol
# GULP energy per Si atom -12396.733984 kJ/mol
# Density = 2.272355 g / cm^3
# Si number density = 22.775387 Si / 1000 Ang^3
#
#
#
# Elastic Constant Matrix: (Units=GPa)
#
#
# Indices 1 2 3 4 5 6 
#
# 1 71.5392 11.8049 43.1745 15.3324 10.3286 1.7753
# 2 11.8049 86.6707 28.6256 14.8210 13.1625 -3.7604
# 3 43.1745 28.6256 135.8195 20.5103 17.6594 -13.8042
# 4 15.3324 14.8210 20.5103 28.2152 8.6819 4.8776
# 5 10.3286 13.1625 17.6594 8.6819 22.4645 -7.7299
# 6 1.7753 -3.7604 -13.8042 4.8776 -7.7299 37.3740
#
#
#
# Elastic Compliance Matrix: (Units=1/GPa)
#
#
# Indices 1 2 3 4 5 6 
#
# 1 0.018664 0.000455 -0.005054 -0.005003 -0.003928 -0.002867
# 2 0.000455 0.013587 -0.001612 -0.004750 -0.004948 0.000346
# 3 -0.005054 -0.001612 0.010632 -0.004224 -0.002034 0.004135
# 4 -0.005003 -0.004750 -0.004224 0.050321 -0.014990 -0.011468
# 5 -0.003928 -0.004948 -0.002034 -0.014990 0.061280 0.013568
# 6 -0.002867 0.000346 0.004135 -0.011468 0.013568 0.032758
#
#
# Mechanical properties :
#
#
# Convention : Reuss Voigt Hill
#
# Bulk Modulus (GPa) = 32.83046 51.24882 42.03964
# Shear Modulus (GPa) = 23.83016 31.63904 27.73460
#
# Velocity S-wave (km/s) = 3.23818 3.73121 3.49341
# Velocity P-wave (km/s) = 5.33172 6.41196 5.89663
#
# Compressibility (1/GPa) = 0.03045952
#
# Stress axis : x y z
#
# Youngs Moduli (GPa) = 53.57951 73.59874 94.05794
#
# Poissons Ratio (x) = -0.03347 0.47536
# Poissons Ratio (y) = -0.02437 0.15166
# Poissons Ratio (z) = 0.27079 0.11867
#
# Static dielectric constant tensor:
#      x y z
#    x 4.515270 -0.001790 0.191230 
#    y -0.001790 4.028000 0.114280 
#    z 0.191230 0.114280 4.282680 
# 
# 
# High freq. dielectric constant tensor:
#      x y z
#    x 1.916040 0.004930 0.004540 
#    y 0.004930 1.890620 0.011280 
#    z 0.004540 0.011280 1.904320 
# 
# From -- ./inp_files/183781.got.cif
#   From: 2010.06.25/outbox.cif.g09.slc.cpg/sg2_92_cif.got.tgz:183781.got - 2010.06.27 13:26:56.
