data_PCOD8031034
_publ_section_title
;
Structure prediction by ZEFSAII (Michael W. Deem and Ramdas Pophale) SiO2 
 PCOD8031034
Probable space group: P -1
;
_chemical_formula_sum "Si O2"
_cell_formula_units_Z 16
_cell_length_a 17.065184
_cell_length_b 12.014132
_cell_length_c 8.260178
_cell_angle_alpha 40.296889
_cell_angle_beta 100.099388
_cell_angle_gamma 127.825153
_cell_volume 709.450140
_symmetry_space_group_name_H-M "P -1"
_symmetry_group_IT_number 2
_symmetry_cell_setting 'triclinic'
loop_
_space_group_symop_operation_xyz
x,y,z
-x,-y,-z
loop_
_atom_site_type_symbol
_atom_site_label
_atom_site_fract_x
_atom_site_fract_y
_atom_site_fract_z
Si Si1 0.137282 0.262858 0.736586
Si Si2 0.996590 0.289955 0.224694
Si Si3 0.651417 0.957422 0.765225
Si Si4 0.273142 0.711818 0.896419
Si Si5 0.229818 0.190933 0.116141
Si Si6 0.755434 0.206229 0.860159
Si Si7 0.170380 0.030464 0.760071
Si Si8 0.374146 0.508039 0.112544
O O1 0.149225 0.483971 0.463020
O O2 0.186116 0.228969 0.645509
O O3 0.213716 0.330530 0.843729
O O4 0.000000 0.000000 0.000000
O O5 0.899078 0.054820 0.573890
O O6 0.954435 0.164548 0.169527
O O7 0.000000 0.500000 0.000000
O O8 0.129700 0.432114 0.150680
O O9 0.693663 0.134470 0.427272
O O10 0.667053 0.074777 0.817071
O O11 0.730369 0.913120 0.851792
O O12 0.511661 0.683361 0.000124
O O13 0.305658 0.872439 0.894762
O O14 0.349283 0.661686 0.990832
O O15 0.341509 0.435106 0.994254
O O16 0.828501 0.145819 0.944177
O O17 0.290760 0.226653 0.476784
#
# Coordination Sequence:
#
# PCOD8031034 Si02
#       8
#     2   2   2   2   2   2   2   2
#     4  12  27  43  70 110 147 185 237 301 363 437
#     4  11  22  41  74 103 140 187 232 294 366 430
#     4  12  26  47  75 103 144 196 245 300 351 429
#     4  12  24  46  71 108 146 183 242 297 361 429
#     4  11  24  45  70 104 143 188 241 294 364 430
#     4  12  26  48  72 108 144 188 247 293 362 427
#     4  11  25  46  70 104 147 190 234 298 366 428
#     4  11  26  47  70 104 144 193 246 297 359 422
#
# _framework density 22.552676999999999
#
# number of rings (size 3 to 8) (size 9 to 14) (size 15 to 20)
#    0.000    0.500    5.000    3.000    3.500    2.500 
#    2.250    0.000    0.000    0.000    0.000    0.000 
#    0.000    0.000    0.000    0.000    0.000    0.000 
#
# Total GULP energy -198347.163294 kJ/mol
# GULP energy per Si atom -12396.697706 kJ/mol
# Density = 2.250135 g / cm^3
# Si number density = 22.552677 Si / 1000 Ang^3
#
#
#
# Elastic Constant Matrix: (Units=GPa)
#
#
# Indices 1 2 3 4 5 6 
#
# 1 76.5517 18.8539 34.8108 3.3040 7.9581 6.5112
# 2 18.8539 171.8433 46.2456 6.4806 -11.4484 -4.7249
# 3 34.8108 46.2456 79.4024 -0.4745 3.5661 9.2955
# 4 3.3040 6.4806 -0.4745 34.5706 4.4683 1.7335
# 5 7.9581 -11.4484 3.5661 4.4683 32.9585 -5.4501
# 6 6.5112 -4.7249 9.2955 1.7335 -5.4501 31.9843
#
#
#
# Elastic Compliance Matrix: (Units=1/GPa)
#
#
# Indices 1 2 3 4 5 6 
#
# 1 0.016829 -0.000263 -0.006831 -0.001085 -0.003605 -0.002035
# 2 -0.000263 0.007623 -0.004923 -0.002174 0.004106 0.003428
# 3 -0.006831 -0.004923 0.019289 0.002568 -0.003433 -0.005667
# 4 -0.001085 -0.002174 0.002568 0.030349 -0.005451 -0.003420
# 5 -0.003605 0.004106 -0.003433 -0.005451 0.035175 0.008627
# 6 -0.002035 0.003428 -0.005667 -0.003420 0.008627 0.035488
#
#
# Mechanical properties :
#
#
# Convention : Reuss Voigt Hill
#
# Bulk Modulus (GPa) = 50.74505 58.62421 54.68463
# Shear Modulus (GPa) = 28.51349 35.09515 31.80432
#
# Velocity S-wave (km/s) = 3.55957 3.94908 3.75937
# Velocity P-wave (km/s) = 6.28041 6.84429 6.56841
#
# Compressibility (1/GPa) = 0.01970636
#
# Stress axis : x y z
#
# Youngs Moduli (GPa) = 59.42161 131.18690 51.84333
#
# Poissons Ratio (x) = 0.03455 0.35414
# Poissons Ratio (y) = 0.01565 0.25522
# Poissons Ratio (z) = 0.40590 0.64581
#
# Static dielectric constant tensor:
#      x y z
#    x 4.523150 -0.193210 -0.022870 
#    y -0.193210 4.453160 0.211760 
#    z -0.022870 0.211760 4.092800 
# 
# 
# High freq. dielectric constant tensor:
#      x y z
#    x 1.884520 -0.004390 0.016210 
#    y -0.004390 1.907430 0.006980 
#    z 0.016210 0.006980 1.886430 
# 
# From -- ./inp_files/332744.got.cif
#   From: 2010.06.25/outbox.cif.g09.slc.cpg/sg2_167_cif.got.tgz:332744.got - 2010.06.27 13:26:56.
