data_PCOD8031117
_publ_section_title
;
Structure prediction by ZEFSAII (Michael W. Deem and Ramdas Pophale) SiO2 
 PCOD8031117
Probable space group: P -1
;
_chemical_formula_sum "Si O2"
_cell_formula_units_Z 16
_cell_length_a 6.444897
_cell_length_b 9.790342
_cell_length_c 14.426966
_cell_angle_alpha 75.226056
_cell_angle_beta 70.701912
_cell_angle_gamma 101.800622
_cell_volume 788.067062
_symmetry_space_group_name_H-M "P -1"
_symmetry_group_IT_number 2
_symmetry_cell_setting 'triclinic'
loop_
_space_group_symop_operation_xyz
x,y,z
-x,-y,-z
loop_
_atom_site_type_symbol
_atom_site_label
_atom_site_fract_x
_atom_site_fract_y
_atom_site_fract_z
Si Si1 0.730156 0.898502 0.053455
Si Si2 0.198439 0.603784 0.891290
Si Si3 0.535734 0.885295 0.885248
Si Si4 0.327195 0.090439 0.495509
Si Si5 0.022522 0.403634 0.272157
Si Si6 0.514385 0.575741 0.204431
Si Si7 0.120693 0.099043 0.331261
Si Si8 0.425628 0.565897 0.590294
O O1 0.683445 0.745252 0.143523
O O2 0.561246 0.977757 0.111196
O O3 0.648108 0.850736 0.969243
O O4 0.000000 0.000000 0.000000
O O5 0.316351 0.751669 0.906405
O O6 0.391969 0.526617 0.858749
O O7 0.093758 0.637271 0.804262
O O8 0.000000 0.500000 0.000000
O O9 0.742621 0.922124 0.775340
O O10 0.249225 0.060771 0.406688
O O11 0.429712 0.263419 0.464565
O O12 0.500000 0.000000 0.500000
O O13 0.128122 0.026612 0.612677
O O14 0.250969 0.550129 0.212764
O O15 0.096257 0.262944 0.318727
O O16 0.844373 0.443064 0.362357
O O17 0.508515 0.522472 0.319742
O O18 0.500000 0.500000 0.500000
#
# Coordination Sequence:
#
# PCOD8031117 Si02
#       8
#     2   2   2   2   2   2   2   2
#     4  11  27  45  65  94 139 175 215 269 332 397
#     4  11  23  38  69 100 127 171 224 267 328 385
#     4  11  25  43  65 100 131 168 226 266 326 402
#     4  11  23  42  67  96 132 169 223 276 322 390
#     4  11  22  42  68  95 135 167 220 280 320 388
#     4  11  24  44  65  96 132 171 223 271 324 396
#     4  11  23  40  69  96 126 170 223 274 326 379
#     4  11  25  43  63  98 133 174 218 269 335 392
#
# _framework density 20.302841000000001
#
# number of rings (size 3 to 8) (size 9 to 14) (size 15 to 20)
#    0.000    1.000    3.750    2.250    3.500    7.500 
#    0.000    0.000    0.000    0.000    0.000    0.000 
#    0.000    0.000    0.000    0.000    0.000    0.000 
#
# Total GULP energy -198400.977577 kJ/mol
# GULP energy per Si atom -12400.061099 kJ/mol
# Density = 2.025663 g / cm^3
# Si number density = 20.302841 Si / 1000 Ang^3
#
#
#
# Elastic Constant Matrix: (Units=GPa)
#
#
# Indices 1 2 3 4 5 6 
#
# 1 130.5372 46.9355 65.9578 -3.9331 -13.8806 7.2518
# 2 46.9355 97.3925 71.6511 -15.9756 -1.0972 10.0746
# 3 65.9578 71.6511 150.4726 5.6580 -19.1352 1.6256
# 4 -3.9331 -15.9756 5.6580 44.7551 -1.9395 -8.0165
# 5 -13.8806 -1.0972 -19.1352 -1.9395 31.6618 -6.6793
# 6 7.2518 10.0746 1.6256 -8.0165 -6.6793 36.9861
#
#
#
# Elastic Compliance Matrix: (Units=1/GPa)
#
#
# Indices 1 2 3 4 5 6 
#
# 1 0.010454 -0.002700 -0.002974 0.000326 0.002575 -0.000648
# 2 -0.002700 0.020001 -0.009402 0.007057 -0.006621 -0.004171
# 3 -0.002974 -0.009402 0.013431 -0.004519 0.006802 0.002803
# 4 0.000326 0.007057 -0.004519 0.026165 0.000082 0.003898
# 5 0.002575 -0.006621 0.006802 0.000082 0.038272 0.007929
# 6 -0.000648 -0.004171 0.002803 0.003898 0.007929 0.030454
#
#
# Mechanical properties :
#
#
# Convention : Reuss Voigt Hill
#
# Bulk Modulus (GPa) = 72.82253 83.05457 77.93855
# Shear Modulus (GPa) = 28.81706 35.60446 32.21076
#
# Velocity S-wave (km/s) = 3.77153 4.19223 3.98743
# Velocity P-wave (km/s) = 7.41026 8.02681 7.72469
#
# Compressibility (1/GPa) = 0.01373201
#
# Stress axis : x y z
#
# Youngs Moduli (GPa) = 95.65614 49.99797 74.45243
#
# Poissons Ratio (x) = 0.13500 0.22146
# Poissons Ratio (y) = 0.25829 0.70004
# Poissons Ratio (z) = 0.28452 0.47011
#
# Static dielectric constant tensor:
#      x y z
#    x 3.918930 0.050050 -0.101190 
#    y 0.050050 3.613190 -0.043840 
#    z -0.101190 -0.043840 3.935060 
# 
# 
# High freq. dielectric constant tensor:
#      x y z
#    x 1.808900 -0.000970 -0.010180 
#    y -0.000970 1.791530 -0.008460 
#    z -0.010180 -0.008460 1.806050 
# 
# From -- ./inp_files/97579.got.cif
#   From: 2010.06.25/outbox.cif.g09.slc.cpg/sg2_49_cif.got.tgz:97579.got - 2010.06.27 13:26:56.
