data_PCOD8031873
_publ_section_title
;
Structure prediction by ZEFSAII (Michael W. Deem and Ramdas Pophale) SiO2 
 PCOD8031873
Probable space group: P -1
;
_chemical_formula_sum "Si O2"
_cell_formula_units_Z 16
_cell_length_a 26.493469
_cell_length_b 8.930099
_cell_length_c 9.676436
_cell_angle_alpha 122.402107
_cell_angle_beta 153.175836
_cell_angle_gamma 47.169499
_cell_volume 740.071838
_symmetry_space_group_name_H-M "P -1"
_symmetry_group_IT_number 2
_symmetry_cell_setting 'triclinic'
loop_
_space_group_symop_operation_xyz
x,y,z
-x,-y,-z
loop_
_atom_site_type_symbol
_atom_site_label
_atom_site_fract_x
_atom_site_fract_y
_atom_site_fract_z
Si Si1 0.014298 0.856025 0.588339
Si Si2 0.986953 0.513505 0.639561
Si Si3 0.768196 0.928461 0.407322
Si Si4 0.744135 0.294956 0.693623
Si Si5 0.287073 0.975133 0.978868
Si Si6 0.726935 0.685380 0.702142
Si Si7 0.530861 0.503894 0.734040
Si Si8 0.368198 0.216092 0.790116
O O1 0.075897 0.626743 0.554475
O O2 0.123710 0.827913 0.951605
O O3 0.000000 0.000000 0.500000
O O4 0.868298 0.945885 0.342524
O O5 0.913838 0.746924 0.630665
O O6 0.000000 0.500000 0.500000
O O7 0.121534 0.403422 0.996514
O O8 0.730641 0.824424 0.385620
O O9 0.768844 0.132525 0.552922
O O10 0.683705 0.984421 0.087128
O O11 0.713490 0.514533 0.668867
O O12 0.610754 0.347717 0.468591
O O13 0.383463 0.729941 0.115628
O O14 0.332545 0.098946 0.250083
O O15 0.666604 0.719189 0.421283
O O16 0.500000 0.500000 0.500000
O O17 0.617733 0.607333 0.013946
O O18 0.500000 0.000000 0.000000
#
# Coordination Sequence:
#
# PCOD8031873 Si02
#       8
#     2   2   2   2   2   2   2   2
#     4  11  24  44  74 102 145 183 240 297 357 429
#     4  11  22  49  71 107 140 184 241 292 359 440
#     4  12  26  44  75 103 145 187 236 296 365 416
#     4  12  26  45  71 106 144 191 238 299 360 431
#     4  11  25  47  75 105 138 195 238 290 367 435
#     4  11  25  48  75 102 146 187 240 296 359 432
#     4  12  28  46  72 106 143 187 251 294 360 429
#     4  12  28  48  68 103 150 186 241 308 352 424
#
# _framework density 21.619523999999998
#
# number of rings (size 3 to 8) (size 9 to 14) (size 15 to 20)
#    0.000    0.500    5.000    2.250   10.500    5.000 
#    0.000    0.000    0.000    0.000    0.000    0.000 
#    0.000    0.000    0.000    0.000    0.000    0.000 
#
# Total GULP energy -198271.576941 kJ/mol
# GULP energy per Si atom -12391.973559 kJ/mol
# Density = 2.157032 g / cm^3
# Si number density = 21.619524 Si / 1000 Ang^3
#
#
#
# Elastic Constant Matrix: (Units=GPa)
#
#
# Indices 1 2 3 4 5 6 
#
# 1 93.3140 32.9710 30.0753 2.1710 -18.1464 11.7691
# 2 32.9710 157.7564 35.4187 10.0369 -7.7237 -5.1824
# 3 30.0753 35.4187 105.2205 3.8541 -22.9674 -2.2724
# 4 2.1710 10.0369 3.8541 45.9697 3.0686 -0.3278
# 5 -18.1464 -7.7237 -22.9674 3.0686 38.3085 -5.7747
# 6 11.7691 -5.1824 -2.2724 -0.3278 -5.7747 46.7131
#
#
#
# Elastic Compliance Matrix: (Units=1/GPa)
#
#
# Indices 1 2 3 4 5 6 
#
# 1 0.013430 -0.002186 -0.002269 -0.000263 0.004094 -0.003232
# 2 -0.002186 0.007315 -0.001846 -0.001305 -0.000380 0.001216
# 3 -0.002269 -0.001846 0.012197 -0.000914 0.006198 0.001720
# 4 -0.000263 -0.001305 -0.000914 0.022310 -0.002769 -0.000309
# 5 0.004094 -0.000380 0.006198 -0.002769 0.032389 0.003212
# 6 -0.003232 0.001216 0.001720 -0.000309 0.003212 0.022835
#
#
# Mechanical properties :
#
#
# Convention : Reuss Voigt Hill
#
# Bulk Modulus (GPa) = 49.16697 61.46900 55.31798
# Shear Modulus (GPa) = 38.50294 43.38667 40.94480
#
# Velocity S-wave (km/s) = 4.22469 4.48462 4.35660
# Velocity P-wave (km/s) = 6.82559 7.43705 7.13787
#
# Compressibility (1/GPa) = 0.02033886
#
# Stress axis : x y z
#
# Youngs Moduli (GPa) = 74.45757 136.71049 81.98415
#
# Poissons Ratio (x) = 0.29891 0.18605
# Poissons Ratio (y) = 0.16280 0.15135
# Poissons Ratio (z) = 0.16897 0.25238
#
# Static dielectric constant tensor:
#      x y z
#    x 3.603710 0.240740 -0.078470 
#    y 0.240740 4.293660 0.072640 
#    z -0.078470 0.072640 5.020980 
# 
# 
# High freq. dielectric constant tensor:
#      x y z
#    x 1.849430 0.007020 -0.008830 
#    y 0.007020 1.877950 -0.001650 
#    z -0.008830 -0.001650 1.852560 
# 
# From -- ./inp_files/316177.got.cif
#   From: 2010.06.25/outbox.cif.g09.slc.cpg/sg2_159_cif.got.tgz:316177.got - 2010.06.27 13:26:56.
