data_PCOD8031713
_publ_section_title
;
Structure prediction by ZEFSAII (Michael W. Deem and Ramdas Pophale) SiO2 
 PCOD8031713
Probable space group: P -1
;
_chemical_formula_sum "Si O2"
_cell_formula_units_Z 14
_cell_length_a 10.545433
_cell_length_b 8.747855
_cell_length_c 7.898808
_cell_angle_alpha 68.597653
_cell_angle_beta 89.109237
_cell_angle_gamma 59.725411
_cell_volume 572.895959
_symmetry_space_group_name_H-M "P -1"
_symmetry_group_IT_number 2
_symmetry_cell_setting 'triclinic'
loop_
_space_group_symop_operation_xyz
x,y,z
-x,-y,-z
loop_
_atom_site_type_symbol
_atom_site_label
_atom_site_fract_x
_atom_site_fract_y
_atom_site_fract_z
Si Si1 0.658199 0.115247 0.228525
Si Si2 0.619973 0.512733 0.782429
Si Si3 0.770508 0.625057 0.217771
Si Si4 0.146508 0.730947 0.839086
Si Si5 0.168245 0.185778 0.166828
Si Si6 0.253284 0.267417 0.471446
Si Si7 0.576507 0.179847 0.836178
O O1 0.519684 0.337027 0.159112
O O2 0.811057 0.109998 0.269530
O O3 0.644160 0.965845 0.406903
O O4 0.659148 0.062035 0.053805
O O5 0.646162 0.639940 0.595473
O O6 0.581651 0.373522 0.737786
O O7 0.763589 0.390898 0.947721
O O8 0.810596 0.408307 0.268508
O O9 0.841704 0.635221 0.392279
O O10 0.591241 0.772886 0.181586
O O11 0.838441 0.679135 0.038839
O O12 0.969710 0.844299 0.835775
O O13 0.151404 0.301166 0.295528
O O14 0.324197 0.974796 0.250563
#
# Coordination Sequence:
#
# PCOD8031713 Si02
#       7
#     2   2   2   2   2   2   2
#     4  11  22  45  73 108 134 182 235 288 339 419
#     4  11  23  44  72 108 133 184 234 287 339 419
#     4  12  24  46  72 102 136 189 226 288 338 410
#     4  11  24  48  74  95 149 183 227 283 352 408
#     4  12  27  46  69 107 141 186 225 288 347 410
#     4  12  28  41  73 106 141 175 241 283 345 408
#     4  11  23  45  73 100 142 181 234 280 350 404
#
# _framework density 24.437248
#
# number of rings (size 3 to 8) (size 9 to 14) (size 15 to 20)
#    0.000    0.571    5.714    2.143    4.000    5.143 
#    0.000    0.000    0.000    0.000    0.000    0.000 
#    0.000    0.000    0.000    0.000    0.000    0.000 
#
# Total GULP energy -173627.719095 kJ/mol
# GULP energy per Si atom -12401.979935 kJ/mol
# Density = 2.438163 g / cm^3
# Si number density = 24.437248 Si / 1000 Ang^3
#
#
#
# Elastic Constant Matrix: (Units=GPa)
#
#
# Indices 1 2 3 4 5 6 
#
# 1 131.0998 19.2657 38.4204 -4.3019 -13.1594 7.7872
# 2 19.2657 72.9797 40.6498 15.7844 -5.8617 19.3356
# 3 38.4204 40.6498 116.4903 16.1183 -17.3702 19.9463
# 4 -4.3019 15.7844 16.1183 43.0407 11.3959 -3.8432
# 5 -13.1594 -5.8617 -17.3702 11.3959 24.8942 -6.8830
# 6 7.7872 19.3356 19.9463 -3.8432 -6.8830 42.0667
#
#
#
# Elastic Compliance Matrix: (Units=1/GPa)
#
#
# Indices 1 2 3 4 5 6 
#
# 1 0.008774 -0.001344 -0.002515 0.001870 0.001895 0.000667
# 2 -0.001344 0.019950 -0.003849 -0.007365 0.002644 -0.007336
# 3 -0.002515 -0.003849 0.013677 -0.006770 0.009490 -0.003316
# 4 0.001870 -0.007365 -0.006770 0.034371 -0.019490 0.006200
# 5 0.001895 0.002644 0.009490 -0.019490 0.057783 0.001608
# 6 0.000667 -0.007336 -0.003316 0.006200 0.001608 0.029422
#
#
# Mechanical properties :
#
#
# Convention : Reuss Voigt Hill
#
# Bulk Modulus (GPa) = 37.05831 57.47129 47.26480
# Shear Modulus (GPa) = 26.54097 36.81591 31.67844
#
# Velocity S-wave (km/s) = 3.29916 3.88564 3.60435
# Velocity P-wave (km/s) = 5.45071 6.61059 6.05847
#
# Compressibility (1/GPa) = 0.02698450
#
# Stress axis : x y z
#
# Youngs Moduli (GPa) = 113.96803 50.12527 73.11751
#
# Poissons Ratio (x) = 0.06738 0.18390
# Poissons Ratio (y) = 0.15320 0.28142
# Poissons Ratio (z) = 0.28665 0.19292
#
# Static dielectric constant tensor:
#      x y z
#    x 4.319910 0.320900 -0.120690 
#    y 0.320900 4.440030 0.182470 
#    z -0.120690 0.182470 4.242130 
# 
# 
# High freq. dielectric constant tensor:
#      x y z
#    x 1.966070 0.021850 -0.008270 
#    y 0.021850 1.976390 0.007530 
#    z -0.008270 0.007530 1.962440 
# 
# From -- ./inp_files/157388.got.cif
#   From: 2010.06.25/outbox.cif.g09.slc.cpg/sg2_79_cif.got.tgz:157388.got - 2010.06.27 13:26:56.
