data_PCOD8031155
_publ_section_title
;
Structure prediction by ZEFSAII (Michael W. Deem and Ramdas Pophale) SiO2 
 PCOD8031155
Probable space group: P -1
;
_chemical_formula_sum "Si O2"
_cell_formula_units_Z 14
_cell_length_a 15.407817
_cell_length_b 12.626125
_cell_length_c 8.848130
_cell_angle_alpha 132.767976
_cell_angle_beta 121.168615
_cell_angle_gamma 30.289303
_cell_volume 626.245569
_symmetry_space_group_name_H-M "P -1"
_symmetry_group_IT_number 2
_symmetry_cell_setting 'triclinic'
loop_
_space_group_symop_operation_xyz
x,y,z
-x,-y,-z
loop_
_atom_site_type_symbol
_atom_site_label
_atom_site_fract_x
_atom_site_fract_y
_atom_site_fract_z
Si Si1 0.435670 0.847401 0.871241
Si Si2 0.946591 0.795918 0.145008
Si Si3 0.240993 0.649134 0.133820
Si Si4 0.778373 0.494623 0.319331
Si Si5 0.068244 0.141623 0.464471
Si Si6 0.142390 0.370393 0.706894
Si Si7 0.513086 0.919621 0.718882
O O1 0.593419 0.582802 0.839493
O O2 0.493222 0.812698 0.717301
O O3 0.263732 0.944124 0.812792
O O4 0.382138 0.064230 0.105512
O O5 0.996773 0.743808 0.315583
O O6 0.055976 0.796369 0.164248
O O7 0.999985 0.581869 0.909440
O O8 0.219690 0.846142 0.313417
O O9 0.273935 0.564007 0.908251
O O10 0.880220 0.513851 0.356364
O O11 0.602146 0.754253 0.489674
O O12 0.903522 0.279085 0.350084
O O13 0.143494 0.199144 0.511450
O O14 0.327654 0.203387 0.781878
#
# Coordination Sequence:
#
# PCOD8031155 Si02
#       7
#     2   2   2   2   2   2   2
#     4  11  23  42  73  99 134 169 224 279 329 389
#     4  11  23  44  72 100 129 173 225 276 331 386
#     4  11  26  47  64 100 139 175 219 270 334 401
#     4  11  24  43  68  92 138 179 220 270 329 390
#     4  12  24  43  68  98 136 174 221 273 333 395
#     4  11  23  43  68 102 131 170 229 273 329 390
#     4  11  22  42  70 102 132 169 226 281 323 385
#
# _framework density 22.355447000000002
#
# number of rings (size 3 to 8) (size 9 to 14) (size 15 to 20)
#    0.000    0.857    4.286    3.857    2.000    1.714 
#    2.571    0.714    0.000    0.000    0.000    0.000 
#    0.000    0.000    0.000    0.000    0.000    0.000 
#
# Total GULP energy -173618.389550 kJ/mol
# GULP energy per Si atom -12401.313539 kJ/mol
# Density = 2.230457 g / cm^3
# Si number density = 22.355447 Si / 1000 Ang^3
#
#
#
# Elastic Constant Matrix: (Units=GPa)
#
#
# Indices 1 2 3 4 5 6 
#
# 1 68.7387 48.6876 68.3150 4.0394 -8.4140 2.1261
# 2 48.6876 145.4684 41.6326 -2.7660 -8.2400 2.9190
# 3 68.3150 41.6326 112.5838 13.8299 -15.8391 8.8596
# 4 4.0394 -2.7660 13.8299 34.0255 6.1787 5.5187
# 5 -8.4140 -8.2400 -15.8391 6.1787 36.6347 3.6941
# 6 2.1261 2.9190 8.8596 5.5187 3.6941 27.4110
#
#
#
# Elastic Compliance Matrix: (Units=1/GPa)
#
#
# Indices 1 2 3 4 5 6 
#
# 1 0.044924 -0.007882 -0.025854 0.004376 -0.003911 0.005357
# 2 -0.007882 0.009188 0.001452 0.001136 0.000811 -0.001174
# 3 -0.025854 0.001452 0.026619 -0.008059 0.007881 -0.006193
# 4 0.004376 0.001136 -0.008059 0.034225 -0.007621 -0.003719
# 5 -0.003911 0.000811 0.007881 -0.007621 0.031786 -0.005080
# 6 0.005357 -0.001174 -0.006193 -0.003719 -0.005080 0.039626
#
#
# Mechanical properties :
#
#
# Convention : Reuss Voigt Hill
#
# Bulk Modulus (GPa) = 61.86935 71.56238 66.71586
# Shear Modulus (GPa) = 19.50652 30.82464 25.16558
#
# Velocity S-wave (km/s) = 2.95712 3.71731 3.35879
# Velocity P-wave (km/s) = 6.27653 7.10670 6.70447
#
# Compressibility (1/GPa) = 0.01616309
#
# Stress axis : x y z
#
# Youngs Moduli (GPa) = 22.25975 108.83782 37.56659
#
# Poissons Ratio (x) = 0.85790 0.97125
# Poissons Ratio (y) = 0.17546 -0.05456
# Poissons Ratio (z) = 0.57551 -0.15807
#
# Static dielectric constant tensor:
#      x y z
#    x 3.840360 0.063240 -0.082540 
#    y 0.063240 3.981850 -0.148710 
#    z -0.082540 -0.148710 3.997900 
# 
# 
# High freq. dielectric constant tensor:
#      x y z
#    x 1.865810 0.003390 -0.007330 
#    y 0.003390 1.886850 -0.009840 
#    z -0.007330 -0.009840 1.883170 
# 
# From -- ./inp_files/255947.got.cif
#   From: 2010.06.25/outbox.cif.g09.slc.cpg/sg2_128_cif.got.tgz:255947.got - 2010.06.27 13:26:56.
