data_PCOD8031828
_publ_section_title
;
Structure prediction by ZEFSAII (Michael W. Deem and Ramdas Pophale) SiO2 
 PCOD8031828
Probable space group: P -1
;
_chemical_formula_sum "Si O2"
_cell_formula_units_Z 16
_cell_length_a 16.489608
_cell_length_b 11.422135
_cell_length_c 9.098970
_cell_angle_alpha 112.910060
_cell_angle_beta 43.776556
_cell_angle_gamma 78.166801
_cell_volume 706.144367
_symmetry_space_group_name_H-M "P -1"
_symmetry_group_IT_number 2
_symmetry_cell_setting 'triclinic'
loop_
_space_group_symop_operation_xyz
x,y,z
-x,-y,-z
loop_
_atom_site_type_symbol
_atom_site_label
_atom_site_fract_x
_atom_site_fract_y
_atom_site_fract_z
Si Si1 0.998499 0.016830 0.783972
Si Si2 0.572133 0.746877 0.246652
Si Si3 0.382893 0.331479 0.187326
Si Si4 0.602229 0.296903 0.336574
Si Si5 0.055034 0.753256 0.784372
Si Si6 0.808075 0.722565 0.403586
Si Si7 0.735108 0.052534 0.764869
Si Si8 0.748841 0.815729 0.204821
O O1 0.065242 0.821875 0.651411
O O2 0.110618 0.967758 0.470359
O O3 0.785597 0.193872 0.120112
O O4 0.049362 0.075201 0.874911
O O5 0.531126 0.651086 0.340669
O O6 0.734093 0.689092 0.088436
O O7 0.386527 0.979563 0.602999
O O8 0.637463 0.668977 0.959599
O O9 0.251225 0.559644 0.501838
O O10 0.317643 0.263173 0.328715
O O11 0.584904 0.197889 0.906100
O O12 0.500000 0.500000 0.500000
O O13 0.646490 0.150131 0.087424
O O14 0.950425 0.706501 0.872245
O O15 0.698255 0.844756 0.457636
O O16 0.829185 0.835766 0.523997
O O17 0.000000 0.500000 0.000000
#
# Coordination Sequence:
#
# PCOD8031828 Si02
#       8
#     2   2   2   2   2   2   2   2
#     4  11  24  46  71  99 141 188 237 290 350 415
#     4  11  26  43  73 100 142 182 231 294 351 414
#     4  12  25  43  72 107 135 186 234 287 354 422
#     4  12  28  49  70 104 147 187 234 293 349 417
#     4  11  23  43  72 102 139 182 237 293 347 418
#     4  12  24  45  72 103 141 182 231 289 354 420
#     4  12  26  45  72 103 140 187 240 287 350 422
#     4  11  22  47  68 101 142 182 227 296 353 408
#
# _framework density 22.658255
#
# number of rings (size 3 to 8) (size 9 to 14) (size 15 to 20)
#    0.000    0.500    5.000    2.250    7.000    2.000 
#    2.250    0.000    0.000    0.000    0.000    0.000 
#    0.000    0.000    0.000    0.000    0.000    0.000 
#
# Total GULP energy -198451.157476 kJ/mol
# GULP energy per Si atom -12403.197342 kJ/mol
# Density = 2.260668 g / cm^3
# Si number density = 22.658255 Si / 1000 Ang^3
#
#
#
# Elastic Constant Matrix: (Units=GPa)
#
#
# Indices 1 2 3 4 5 6 
#
# 1 107.6744 33.1531 28.8906 -12.4457 -4.2945 3.7400
# 2 33.1531 156.0574 42.6249 -12.8920 -7.8879 9.0441
# 3 28.8906 42.6249 79.9979 -2.5217 -5.1808 16.6848
# 4 -12.4457 -12.8920 -2.5217 45.7717 -5.0782 -0.5685
# 5 -4.2945 -7.8879 -5.1808 -5.0782 40.3424 -7.5163
# 6 3.7400 9.0441 16.6848 -0.5685 -7.5163 25.4706
#
#
#
# Elastic Compliance Matrix: (Units=1/GPa)
#
#
# Indices 1 2 3 4 5 6 
#
# 1 0.010866 -0.001185 -0.003446 0.002569 0.001077 0.001458
# 2 -0.001185 0.007861 -0.003662 0.001826 0.001204 0.000178
# 3 -0.003446 -0.003662 0.017703 -0.001211 -0.000837 -0.010064
# 4 0.002569 0.001826 -0.001211 0.023419 0.003679 0.001376
# 5 0.001077 0.001204 -0.000837 0.003679 0.026986 0.008008
# 6 0.001458 0.000178 -0.010064 0.001376 0.008008 0.047970
#
#
# Mechanical properties :
#
#
# Convention : Reuss Voigt Hill
#
# Bulk Modulus (GPa) = 50.39450 61.45186 55.92318
# Shear Modulus (GPa) = 31.64436 38.25435 34.94936
#
# Velocity S-wave (km/s) = 3.74116 4.11337 3.93167
# Velocity P-wave (km/s) = 6.39930 7.05265 6.73390
#
# Compressibility (1/GPa) = 0.01984344
#
# Stress axis : x y z
#
# Youngs Moduli (GPa) = 92.03036 127.20493 56.48801
#
# Poissons Ratio (x) = 0.15074 0.19466
# Poissons Ratio (y) = 0.10905 0.20688
# Poissons Ratio (z) = 0.31715 0.46586
#
# Static dielectric constant tensor:
#      x y z
#    x 4.091700 -0.014480 -0.061550 
#    y -0.014480 4.280550 0.022510 
#    z -0.061550 0.022510 3.907520 
# 
# 
# High freq. dielectric constant tensor:
#      x y z
#    x 1.890960 -0.000530 -0.005340 
#    y -0.000530 1.907640 -0.004180 
#    z -0.005340 -0.004180 1.887400 
# 
# From -- ./inp_files/307909.got.cif
#   From: 2010.06.25/outbox.cif.g09.slc.cpg/sg2_154_cif.got.tgz:307909.got - 2010.06.27 13:26:56.
