data_PCOD8031534
_publ_section_title
;
Structure prediction by ZEFSAII (Michael W. Deem and Ramdas Pophale) SiO2 
 PCOD8031534
Probable space group: P -1
;
_chemical_formula_sum "Si O2"
_cell_formula_units_Z 16
_cell_length_a 6.617543
_cell_length_b 15.690436
_cell_length_c 18.801860
_cell_angle_alpha 21.374266
_cell_angle_beta 77.767687
_cell_angle_gamma 77.976208
_cell_volume 695.023316
_symmetry_space_group_name_H-M "P -1"
_symmetry_group_IT_number 2
_symmetry_cell_setting 'triclinic'
loop_
_space_group_symop_operation_xyz
x,y,z
-x,-y,-z
loop_
_atom_site_type_symbol
_atom_site_label
_atom_site_fract_x
_atom_site_fract_y
_atom_site_fract_z
Si Si1 0.073827 0.534171 0.674141
Si Si2 0.885922 0.995781 0.620863
Si Si3 0.721680 0.108226 0.397743
Si Si4 0.530277 0.789095 0.105031
Si Si5 0.585090 0.596424 0.993844
Si Si6 0.984751 0.788238 0.336591
Si Si7 0.727575 0.243650 0.989210
Si Si8 0.680878 0.439499 0.585572
O O1 0.171687 0.751771 0.538553
O O2 0.233702 0.311046 0.838634
O O3 0.026575 0.626951 0.527143
O O4 0.859032 0.459222 0.783923
O O5 0.830833 0.988333 0.548953
O O6 0.136894 0.945521 0.641989
O O7 0.753097 0.797710 0.821945
O O8 0.700454 0.387158 0.190130
O O9 0.500000 0.000000 0.500000
O O10 0.395447 0.585741 0.308333
O O11 0.431350 0.843649 0.992280
O O12 0.500000 0.000000 0.000000
O O13 0.500000 0.500000 0.000000
O O14 0.392444 0.684864 0.986344
O O15 0.827492 0.657771 0.398641
O O16 0.200119 0.798966 0.267539
O O17 0.890796 0.044085 0.159581
O O18 0.500000 0.500000 0.500000
#
# Coordination Sequence:
#
# PCOD8031534 Si02
#       8
#     2   2   2   2   2   2   2   2
#     4  12  27  47  72 110 151 195 248 312 378 448
#     4  11  27  44  77 106 143 196 248 305 380 446
#     4  11  23  48  74 105 145 188 247 309 371 444
#     4  12  26  46  76 106 153 198 249 307 378 444
#     4  12  27  48  76 107 149 197 250 311 377 443
#     4  11  26  43  74 104 144 194 245 304 373 447
#     4  12  29  47  71 111 154 191 257 312 374 447
#     4  11  22  44  71 103 142 190 246 299 369 442
#
# _framework density 23.020809
#
# number of rings (size 3 to 8) (size 9 to 14) (size 15 to 20)
#    0.000    0.500    3.750    3.375    7.000    5.000 
#    0.000    0.000    0.000    0.000    0.000    0.000 
#    0.000    0.000    0.000    0.000    0.000    0.000 
#
# Total GULP energy -198319.878034 kJ/mol
# GULP energy per Si atom -12394.992377 kJ/mol
# Density = 2.296841 g / cm^3
# Si number density = 23.020809 Si / 1000 Ang^3
#
#
#
# Elastic Constant Matrix: (Units=GPa)
#
#
# Indices 1 2 3 4 5 6 
#
# 1 116.4796 56.6601 36.2247 3.1383 -4.4598 -16.5312
# 2 56.6601 140.9739 35.1695 -1.5555 -7.0416 -23.7635
# 3 36.2247 35.1695 103.2487 -7.3347 -0.5817 -14.4280
# 4 3.1383 -1.5555 -7.3347 43.9736 -3.0542 -1.4548
# 5 -4.4598 -7.0416 -0.5817 -3.0542 40.1514 -2.1463
# 6 -16.5312 -23.7635 -14.4280 -1.4548 -2.1463 45.3985
#
#
#
# Elastic Compliance Matrix: (Units=1/GPa)
#
#
# Indices 1 2 3 4 5 6 
#
# 1 0.011463 -0.003698 -0.002659 -0.001308 0.000560 0.001378
# 2 -0.003698 0.009578 -0.001456 0.000571 0.001467 0.003292
# 3 -0.002659 -0.001456 0.011544 0.002122 -0.000115 0.002001
# 4 -0.001308 0.000571 0.002122 0.023380 0.001835 0.001333
# 5 0.000560 0.001467 -0.000115 0.001835 0.025481 0.002199
# 6 0.001378 0.003292 0.002001 0.001333 0.002199 0.025034
#
#
# Mechanical properties :
#
#
# Convention : Reuss Voigt Hill
#
# Bulk Modulus (GPa) = 58.97036 68.53452 63.75244
# Shear Modulus (GPa) = 39.13585 41.41456 40.27520
#
# Velocity S-wave (km/s) = 4.12760 4.24607 4.18726
# Velocity P-wave (km/s) = 6.95614 7.33990 7.15059
#
# Compressibility (1/GPa) = 0.01695767
#
# Stress axis : x y z
#
# Youngs Moduli (GPa) = 87.23403 104.41090 86.62424
#
# Poissons Ratio (x) = 0.38612 0.23038
# Poissons Ratio (y) = 0.32260 0.12614
# Poissons Ratio (z) = 0.23200 0.15204
#
# Static dielectric constant tensor:
#      x y z
#    x 3.860180 0.092340 0.262120 
#    y 0.092340 4.467510 0.462670 
#    z 0.262120 0.462670 4.850150 
# 
# 
# High freq. dielectric constant tensor:
#      x y z
#    x 1.921430 -0.017000 -0.001930 
#    y -0.017000 1.913870 0.005120 
#    z -0.001930 0.005120 1.918390 
# 
# From -- ./inp_files/584018.got.cif
#   From: 2010.06.25/outbox.cif.g09.slc.cpg/sg2_293_cif.got.tgz:584018.got - 2010.06.27 13:26:56.
