data_PCOD8031667
_publ_section_title
;
Structure prediction by ZEFSAII (Michael W. Deem and Ramdas Pophale) SiO2 
 PCOD8031667
Probable space group: P -1
;
_chemical_formula_sum "Si O2"
_cell_formula_units_Z 16
_cell_length_a 19.259028
_cell_length_b 11.721968
_cell_length_c 17.088375
_cell_angle_alpha 29.460771
_cell_angle_beta 20.916223
_cell_angle_gamma 39.802011
_cell_volume 654.679551
_symmetry_space_group_name_H-M "P -1"
_symmetry_group_IT_number 2
_symmetry_cell_setting 'triclinic'
loop_
_space_group_symop_operation_xyz
x,y,z
-x,-y,-z
loop_
_atom_site_type_symbol
_atom_site_label
_atom_site_fract_x
_atom_site_fract_y
_atom_site_fract_z
Si Si1 0.000747 0.582071 0.539991
Si Si2 0.602113 0.985297 0.511580
Si Si3 0.934226 0.346482 0.277057
Si Si4 0.993718 0.328562 0.852856
Si Si5 0.718165 0.614768 0.234909
Si Si6 0.289459 0.145634 0.247905
Si Si7 0.592432 0.078343 0.088058
Si Si8 0.549879 0.647161 0.632700
O O1 0.926552 0.373473 0.807949
O O2 0.000000 0.500000 0.500000
O O3 0.864639 0.770469 0.581405
O O4 0.235698 0.682557 0.255447
O O5 0.517171 0.220477 0.449556
O O6 0.544707 0.880994 0.719816
O O7 0.491882 0.768899 0.700049
O O8 0.843874 0.079845 0.189378
O O9 0.013824 0.441421 0.222502
O O10 0.771767 0.488595 0.332703
O O11 0.832662 0.059738 0.559783
O O12 0.123564 0.405524 0.985645
O O13 0.213118 0.295736 0.649248
O O14 0.500000 0.500000 0.500000
O O15 0.719949 0.888021 0.087404
O O16 0.435714 0.016013 0.219031
O O17 0.430616 0.368268 0.919473
#
# Coordination Sequence:
#
# PCOD8031667 Si02
#       8
#     2   2   2   2   2   2   2   2
#     4  12  28  48  73 107 148 191 250 309 367 432
#     4  11  26  45  73 106 145 189 249 309 356 441
#     4  11  26  43  74 107 152 188 248 297 361 452
#     4  12  26  48  71 109 146 197 238 307 370 429
#     4  11  22  45  70 109 144 194 238 300 364 428
#     4  12  25  48  72 109 144 194 246 296 369 442
#     4  12  25  45  76 105 143 196 241 299 372 432
#     4  11  25  47  70 104 144 191 248 298 372 424
#
# _framework density 24.439437000000002
#
# number of rings (size 3 to 8) (size 9 to 14) (size 15 to 20)
#    0.000    0.500    5.000    2.625    5.250    3.000 
#    0.000    0.000    0.000    0.000    0.000    0.000 
#    0.000    0.000    0.000    0.000    0.000    0.000 
#
# Total GULP energy -198394.866203 kJ/mol
# GULP energy per Si atom -12399.679138 kJ/mol
# Density = 2.438381 g / cm^3
# Si number density = 24.439437 Si / 1000 Ang^3
#
#
#
# Elastic Constant Matrix: (Units=GPa)
#
#
# Indices 1 2 3 4 5 6 
#
# 1 66.5973 1.3780 14.5372 7.0807 -3.8050 7.6259
# 2 1.3780 57.9237 18.4077 -0.3175 1.6712 -4.3274
# 3 14.5372 18.4077 103.3847 3.8822 -15.9343 -13.3135
# 4 7.0807 -0.3175 3.8822 39.8406 0.7484 -9.9233
# 5 -3.8050 1.6712 -15.9343 0.7484 36.5231 0.7998
# 6 7.6259 -4.3274 -13.3135 -9.9233 0.7998 34.7437
#
#
#
# Elastic Compliance Matrix: (Units=1/GPa)
#
#
# Indices 1 2 3 4 5 6 
#
# 1 0.016821 0.000020 -0.002874 -0.004220 0.000716 -0.006013
# 2 0.000020 0.018562 -0.003556 0.000846 -0.002443 0.001243
# 3 -0.002874 -0.003556 0.012090 0.000411 0.005024 0.004823
# 4 -0.004220 0.000846 0.000411 0.028141 -0.001078 0.009252
# 5 0.000716 -0.002443 0.005024 -0.001078 0.029770 0.000470
# 6 -0.006013 0.001243 0.004823 0.009252 0.000470 0.034736
#
#
# Mechanical properties :
#
#
# Convention : Reuss Voigt Hill
#
# Bulk Modulus (GPa) = 28.85840 32.95017 30.90429
# Shear Modulus (GPa) = 30.39689 35.12701 32.76195
#
# Velocity S-wave (km/s) = 3.53053 3.79530 3.66531
# Velocity P-wave (km/s) = 5.33416 5.71991 5.53040
#
# Compressibility (1/GPa) = 0.03465196
#
# Stress axis : x y z
#
# Youngs Moduli (GPa) = 59.45049 53.87449 82.71409
#
# Poissons Ratio (x) = -0.00109 0.23775
# Poissons Ratio (y) = -0.00121 0.29414
# Poissons Ratio (z) = 0.17088 0.19158
#
# Static dielectric constant tensor:
#      x y z
#    x 4.302370 -0.121230 -0.116520 
#    y -0.121230 4.843960 -0.084640 
#    z -0.116520 -0.084640 4.584710 
# 
# 
# High freq. dielectric constant tensor:
#      x y z
#    x 1.960500 -0.004630 -0.012530 
#    y -0.004630 1.974000 0.009660 
#    z -0.012530 0.009660 1.986960 
# 
# From -- ./inp_files/577906.got.cif
#   From: 2010.06.25/outbox.cif.g09.slc.cpg/sg2_289_cif.got.tgz:577906.got - 2010.06.27 13:26:56.
