data_PCOD8031394
_publ_section_title
;
Structure prediction by ZEFSAII (Michael W. Deem and Ramdas Pophale) SiO2 
 PCOD8031394
Probable space group: P -1
;
_chemical_formula_sum "Si O2"
_cell_formula_units_Z 14
_cell_length_a 20.458512
_cell_length_b 20.306089
_cell_length_c 9.251322
_cell_angle_alpha 150.936030
_cell_angle_beta 29.283936
_cell_angle_gamma 160.183040
_cell_volume 603.207759
_symmetry_space_group_name_H-M "P -1"
_symmetry_group_IT_number 2
_symmetry_cell_setting 'triclinic'
loop_
_space_group_symop_operation_xyz
x,y,z
-x,-y,-z
loop_
_atom_site_type_symbol
_atom_site_label
_atom_site_fract_x
_atom_site_fract_y
_atom_site_fract_z
Si Si1 0.068147 0.344184 0.503340
Si Si2 0.066617 0.944384 0.034263
Si Si3 0.376288 0.767194 0.616045
Si Si4 0.359077 0.400696 0.224090
Si Si5 0.667962 0.988718 0.723107
Si Si6 0.325086 0.221653 0.469747
Si Si7 0.417574 0.086868 0.784223
O O1 0.149481 0.543888 0.656127
O O2 0.198108 0.396657 0.492488
O O3 0.841200 0.203037 0.716672
O O4 0.065079 0.220104 0.155782
O O5 0.231801 0.171634 0.080118
O O6 0.186547 0.918643 0.844432
O O7 0.889411 0.872935 0.343437
O O8 0.437321 0.751376 0.314195
O O9 0.511289 0.808085 0.563753
O O10 0.417991 0.960916 0.906729
O O11 0.497639 0.542325 0.367873
O O12 0.500000 0.500000 0.000000
O O13 0.749407 0.925732 0.534759
O O14 0.426816 0.204241 0.118760
O O15 0.500000 0.000000 0.500000
#
# Coordination Sequence:
#
# PCOD8031394 Si02
#       7
#     2   2   2   2   2   2   2
#     4  12  22  41  73 110 138 174 237 291 356 411
#     4  12  26  45  72 101 144 187 227 293 348 416
#     4  11  24  44  72 102 143 186 233 290 351 408
#     4  12  23  41  73 108 142 177 232 294 352 412
#     4  11  22  43  73 103 140 184 232 296 347 411
#     4  12  25  46  74 104 144 186 232 286 355 414
#     4  12  27  51  70  98 146 192 233 286 349 419
#
# _framework density 23.209250999999998
#
# number of rings (size 3 to 8) (size 9 to 14) (size 15 to 20)
#    0.000    0.286    7.143    3.000    0.000    0.571 
#    5.143    0.714    0.000    0.000    0.000    0.000 
#    0.000    0.000    0.000    0.000    0.000    0.000 
#
# Total GULP energy -173451.792741 kJ/mol
# GULP energy per Si atom -12389.413767 kJ/mol
# Density = 2.315643 g / cm^3
# Si number density = 23.209251 Si / 1000 Ang^3
#
#
#
# Elastic Constant Matrix: (Units=GPa)
#
#
# Indices 1 2 3 4 5 6 
#
# 1 78.2733 27.4944 37.5657 11.2525 -10.6223 17.5247
# 2 27.4944 123.0380 31.9071 13.0839 9.9348 4.9218
# 3 37.5657 31.9071 103.3490 -3.5489 8.8579 0.9336
# 4 11.2525 13.0839 -3.5489 27.2107 4.8689 -4.9714
# 5 -10.6223 9.9348 8.8579 4.8689 44.1374 -5.0950
# 6 17.5247 4.9218 0.9336 -4.9714 -5.0950 27.6457
#
#
#
# Elastic Compliance Matrix: (Units=1/GPa)
#
#
# Indices 1 2 3 4 5 6 
#
# 1 0.024907 -0.001414 -0.009684 -0.015334 0.008045 -0.016485
# 2 -0.001414 0.009784 -0.002492 -0.004474 -0.001767 -0.001892
# 3 -0.009684 -0.002492 0.014644 0.009246 -0.004939 0.006840
# 4 -0.015334 -0.004474 0.009246 0.051173 -0.008116 0.017911
# 5 0.008045 -0.001767 -0.004939 -0.008116 0.026744 -0.001149
# 6 -0.016485 -0.001892 0.006840 0.017911 -0.001149 0.049736
#
#
# Mechanical properties :
#
#
# Convention : Reuss Voigt Hill
#
# Bulk Modulus (GPa) = 45.13484 55.39941 50.26713
# Shear Modulus (GPa) = 23.63474 33.64498 28.63986
#
# Velocity S-wave (km/s) = 3.19459 3.81154 3.51662
# Velocity P-wave (km/s) = 5.75295 6.57965 6.18014
#
# Compressibility (1/GPa) = 0.02215583
#
# Stress axis : x y z
#
# Youngs Moduli (GPa) = 40.14960 102.20929 68.28658
#
# Poissons Ratio (x) = 0.14452 0.66128
# Poissons Ratio (y) = 0.05677 0.17015
# Poissons Ratio (z) = 0.38880 0.25467
#
# Static dielectric constant tensor:
#      x y z
#    x 4.299070 0.084470 -0.024410 
#    y 0.084470 4.193410 -0.029610 
#    z -0.024410 -0.029610 4.262240 
# 
# 
# High freq. dielectric constant tensor:
#      x y z
#    x 1.908460 0.007690 -0.003520 
#    y 0.007690 1.916430 -0.005790 
#    z -0.003520 -0.005790 1.927580 
# 
# From -- ./inp_files/77534.got.cif
#   From: 2010.06.25/outbox.cif.g09.slc.cpg/sg2_39_cif.got.tgz:77534.got - 2010.06.27 13:26:56.
