data_PCOD8031555
_publ_section_title
;
Structure prediction by ZEFSAII (Michael W. Deem and Ramdas Pophale) SiO2 
 PCOD8031555
Probable space group: P -1
;
_chemical_formula_sum "Si O2"
_cell_formula_units_Z 16
_cell_length_a 10.643591
_cell_length_b 9.233247
_cell_length_c 12.715920
_cell_angle_alpha 78.880569
_cell_angle_beta 142.621853
_cell_angle_gamma 87.245767
_cell_volume 700.596116
_symmetry_space_group_name_H-M "P -1"
_symmetry_group_IT_number 2
_symmetry_cell_setting 'triclinic'
loop_
_space_group_symop_operation_xyz
x,y,z
-x,-y,-z
loop_
_atom_site_type_symbol
_atom_site_label
_atom_site_fract_x
_atom_site_fract_y
_atom_site_fract_z
Si Si1 0.782098 0.524126 0.416258
Si Si2 0.283303 0.962893 0.891790
Si Si3 0.613237 0.372805 0.007520
Si Si4 0.738029 0.377192 0.698039
Si Si5 0.834318 0.200735 0.572179
Si Si6 0.927553 0.613010 0.722537
Si Si7 0.776734 0.100445 0.896717
Si Si8 0.611391 0.952831 0.471665
O O1 0.562072 0.636052 0.197365
O O2 0.738526 0.359934 0.420752
O O3 0.820713 0.592691 0.543180
O O4 0.000000 0.500000 0.500000
O O5 0.295993 0.804083 0.859234
O O6 0.221271 0.927870 0.974335
O O7 0.082410 0.117125 0.705927
O O8 0.500000 0.000000 0.000000
O O9 0.500000 0.500000 0.000000
O O10 0.813878 0.423273 0.094205
O O11 0.500000 0.500000 0.500000
O O12 0.819819 0.243925 0.680456
O O13 0.893983 0.482985 0.797568
O O14 0.738779 0.284051 0.819968
O O15 0.700943 0.086489 0.470438
O O16 0.807520 0.791962 0.649244
O O17 0.566215 0.058980 0.726941
O O18 0.000000 0.000000 0.000000
O O19 0.500000 0.000000 0.500000
#
# Coordination Sequence:
#
# PCOD8031555 Si02
#       8
#     2   2   2   2   2   2   2   2
#     4  11  24  46  70 103 144 192 238 295 372 435
#     4  12  27  48  72 105 149 195 242 305 366 439
#     4  12  26  46  74 105 145 191 250 300 360 447
#     4  11  22  44  72 100 143 192 238 297 377 430
#     4  11  24  44  70 101 145 187 236 300 367 432
#     4  11  24  44  74 100 148 189 238 304 368 432
#     4  12  25  45  76 107 146 194 248 301 373 442
#     4  12  22  44  69 105 144 185 239 309 361 435
#
# _framework density 22.837695
#
# number of rings (size 3 to 8) (size 9 to 14) (size 15 to 20)
#    0.000    0.500    6.250    1.500    3.500    2.000 
#    0.000    2.500    0.000    0.000    0.000    0.000 
#    0.000    0.000    0.000    0.000    0.000    0.000 
#
# Total GULP energy -198336.609585 kJ/mol
# GULP energy per Si atom -12396.038099 kJ/mol
# Density = 2.278572 g / cm^3
# Si number density = 22.837695 Si / 1000 Ang^3
#
#
#
# Elastic Constant Matrix: (Units=GPa)
#
#
# Indices 1 2 3 4 5 6 
#
# 1 105.9542 43.6898 20.7931 -1.8367 27.9866 11.3529
# 2 43.6898 141.0896 15.7249 -5.5290 21.7732 13.0581
# 3 20.7931 15.7249 90.5941 1.7063 32.9056 1.4292
# 4 -1.8367 -5.5290 1.7063 42.3751 4.0059 12.2982
# 5 27.9866 21.7732 32.9056 4.0059 47.4798 2.2848
# 6 11.3529 13.0581 1.4292 12.2982 2.2848 48.8130
#
#
#
# Elastic Compliance Matrix: (Units=1/GPa)
#
#
# Indices 1 2 3 4 5 6 
#
# 1 0.012409 -0.002633 -0.000214 0.001421 -0.005970 -0.002254
# 2 -0.002633 0.008533 -0.000002 0.001812 -0.002416 -0.002014
# 3 -0.000214 -0.000002 0.014762 0.000353 -0.010134 0.000003
# 4 0.001421 0.001812 0.000353 0.026356 -0.003787 -0.007289
# 5 -0.005970 -0.002416 -0.010134 -0.003787 0.032947 0.001743
# 6 -0.002254 -0.002014 0.000003 -0.007289 0.001743 0.023304
#
#
# Mechanical properties :
#
#
# Convention : Reuss Voigt Hill
#
# Bulk Modulus (GPa) = 33.32556 55.33927 44.33242
# Shear Modulus (GPa) = 37.31053 44.89559 41.10306
#
# Velocity S-wave (km/s) = 4.04632 4.43861 4.24700
# Velocity P-wave (km/s) = 6.03774 7.11002 6.59571
#
# Compressibility (1/GPa) = 0.03000700
#
# Stress axis : x y z
#
# Youngs Moduli (GPa) = 80.58786 117.18532 67.74319
#
# Poissons Ratio (x) = 0.30855 0.01448
# Poissons Ratio (y) = 0.21219 0.00011
# Poissons Ratio (z) = 0.01723 0.00019
#
# Static dielectric constant tensor:
#      x y z
#    x 6.452800 1.479740 0.684440 
#    y 1.479740 5.342620 0.011150 
#    z 0.684440 0.011150 4.111970 
# 
# 
# High freq. dielectric constant tensor:
#      x y z
#    x 1.907110 0.004490 0.029170 
#    y 0.004490 1.923930 -0.011310 
#    z 0.029170 -0.011310 1.893660 
# 
# From -- ./inp_files/216780.got.cif
#   From: 2010.06.25/outbox.cif.g09.slc.cpg/sg2_109_cif.got.tgz:216780.got - 2010.06.27 13:26:56.
