data_PCOD8031116
_publ_section_title
;
Structure prediction by ZEFSAII (Michael W. Deem and Ramdas Pophale) SiO2 
 PCOD8031116
Probable space group: P -1
;
_chemical_formula_sum "Si O2"
_cell_formula_units_Z 16
_cell_length_a 25.184525
_cell_length_b 15.621908
_cell_length_c 8.941409
_cell_angle_alpha 31.713393
_cell_angle_beta 133.550274
_cell_angle_gamma 154.494406
_cell_volume 746.471603
_symmetry_space_group_name_H-M "P -1"
_symmetry_group_IT_number 2
_symmetry_cell_setting 'triclinic'
loop_
_space_group_symop_operation_xyz
x,y,z
-x,-y,-z
loop_
_atom_site_type_symbol
_atom_site_label
_atom_site_fract_x
_atom_site_fract_y
_atom_site_fract_z
Si Si1 0.748058 0.264190 0.847622
Si Si2 0.485103 0.809883 0.841295
Si Si3 0.411238 0.206363 0.187533
Si Si4 0.968264 0.934942 0.209424
Si Si5 0.791491 0.038958 0.067290
Si Si6 0.754466 0.651228 0.733247
Si Si7 0.002157 0.678351 0.164200
Si Si8 0.724142 0.257432 0.151371
O O1 0.840797 0.588999 0.509655
O O2 0.597681 0.015650 0.879342
O O3 0.809174 0.222626 0.940918
O O4 0.735138 0.201850 0.090935
O O5 0.504688 0.700119 0.927648
O O6 0.500000 0.000000 0.500000
O O7 0.337566 0.526207 0.036746
O O8 0.386579 0.025692 0.536437
O O9 0.500000 0.500000 0.000000
O O10 0.279261 0.040951 0.106562
O O11 0.093032 0.088290 0.311344
O O12 0.929228 0.046566 0.019874
O O13 0.000000 0.000000 0.000000
O O14 0.720203 0.759972 0.428757
O O15 0.932220 0.224819 0.015064
O O16 0.707602 0.422668 0.867444
O O17 0.000000 0.500000 0.500000
O O18 0.855231 0.465684 0.185421
#
# Coordination Sequence:
#
# PCOD8031116 Si02
#       8
#     2   2   2   2   2   2   2   2
#     4  11  26  42  68 101 135 169 223 278 327 388
#     4  11  24  46  68  94 135 177 217 272 331 394
#     4  11  26  43  67  95 136 173 223 266 330 395
#     4  11  24  42  69 100 135 173 223 272 331 394
#     4  11  25  44  67  99 135 171 218 276 329 391
#     4  11  25  43  69  96 133 176 221 272 330 390
#     4  11  22  42  68  95 133 175 216 268 328 390
#     4  11  24  45  66  98 134 173 217 278 325 392
#
# _framework density 21.434172
#
# number of rings (size 3 to 8) (size 9 to 14) (size 15 to 20)
#    0.000    1.000    2.500    3.000    7.000    9.500 
#    0.000    0.000    0.000    0.000    0.000    0.000 
#    0.000    0.000    0.000    0.000    0.000    0.000 
#
# Total GULP energy -198363.892285 kJ/mol
# GULP energy per Si atom -12397.743268 kJ/mol
# Density = 2.138539 g / cm^3
# Si number density = 21.434172 Si / 1000 Ang^3
#
#
#
# Elastic Constant Matrix: (Units=GPa)
#
#
# Indices 1 2 3 4 5 6 
#
# 1 125.8338 33.7559 52.1002 -9.8020 6.7807 -12.3557
# 2 33.7559 54.5695 27.2505 -9.7637 10.4762 -20.7951
# 3 52.1002 27.2505 139.0214 -0.1114 16.6417 -17.4266
# 4 -9.8020 -9.7637 -0.1114 33.3742 -2.7681 -1.9172
# 5 6.7807 10.4762 16.6417 -2.7681 46.0023 -0.6034
# 6 -12.3557 -20.7951 -17.4266 -1.9172 -0.6034 37.4664
#
#
#
# Elastic Compliance Matrix: (Units=1/GPa)
#
#
# Indices 1 2 3 4 5 6 
#
# 1 0.010654 -0.005149 -0.003173 0.001640 0.000839 -0.000723
# 2 -0.005149 0.030203 -0.001561 0.007754 -0.004896 0.014657
# 3 -0.003173 -0.001561 0.009285 -0.001441 -0.002592 0.002290
# 4 0.001640 0.007754 -0.001441 0.033095 0.000582 0.005877
# 5 0.000839 -0.004896 -0.002592 0.000582 0.023660 -0.003235
# 6 -0.000723 0.014657 0.002290 0.005877 -0.003235 0.035901
#
#
# Mechanical properties :
#
#
# Convention : Reuss Voigt Hill
#
# Bulk Modulus (GPa) = 32.92193 60.62643 46.77418
# Shear Modulus (GPa) = 28.95414 37.12311 33.03862
#
# Velocity S-wave (km/s) = 3.67937 4.16620 3.93033
# Velocity P-wave (km/s) = 5.78301 7.17560 6.51661
#
# Compressibility (1/GPa) = 0.03037489
#
# Stress axis : x y z
#
# Youngs Moduli (GPa) = 93.86580 33.10976 107.70629
#
# Poissons Ratio (x) = 0.17047 0.34176
# Poissons Ratio (y) = 0.48328 0.16814
# Poissons Ratio (z) = 0.29784 0.05169
#
# Static dielectric constant tensor:
#      x y z
#    x 6.203020 1.522230 0.314870 
#    y 1.522230 4.869290 -0.038190 
#    z 0.314870 -0.038190 4.140690 
# 
# 
# High freq. dielectric constant tensor:
#      x y z
#    x 1.859970 0.000420 0.000150 
#    y 0.000420 1.829490 -0.001750 
#    z 0.000150 -0.001750 1.856220 
# 
# From -- ./inp_files/178695.got.cif
#   From: 2010.06.25/outbox.cif.g09.slc.cpg/sg2_90_cif.got.tgz:178695.got - 2010.06.27 13:26:56.
