data_PCOD8031945
_publ_section_title
;
Structure prediction by ZEFSAII (Michael W. Deem and Ramdas Pophale) SiO2 
 PCOD8031945
Probable space group: P -1
;
_chemical_formula_sum "Si O2"
_cell_formula_units_Z 16
_cell_length_a 19.672015
_cell_length_b 16.666496
_cell_length_c 8.444747
_cell_angle_alpha 125.165578
_cell_angle_beta 54.265767
_cell_angle_gamma 159.886042
_cell_volume 769.109982
_symmetry_space_group_name_H-M "P -1"
_symmetry_group_IT_number 2
_symmetry_cell_setting 'triclinic'
loop_
_space_group_symop_operation_xyz
x,y,z
-x,-y,-z
loop_
_atom_site_type_symbol
_atom_site_label
_atom_site_fract_x
_atom_site_fract_y
_atom_site_fract_z
Si Si1 0.614432 0.573239 0.672246
Si Si2 0.657621 0.560146 0.247505
Si Si3 0.375671 0.162538 0.711837
Si Si4 0.680177 0.063085 0.710322
Si Si5 0.302678 0.697018 0.031979
Si Si6 0.932364 0.006610 0.969801
Si Si7 0.928550 0.314827 0.933030
Si Si8 0.542783 0.827933 0.050087
O O1 0.700362 0.641246 0.459475
O O2 0.420403 0.435778 0.756307
O O3 0.544783 0.400763 0.657763
O O4 0.782071 0.801718 0.811671
O O5 0.487838 0.294019 0.173602
O O6 0.867797 0.743444 0.104820
O O7 0.468503 0.233155 0.833761
O O8 0.339299 0.020284 0.515005
O O9 0.173213 0.010775 0.828562
O O10 0.745836 0.243340 0.783089
O O11 0.848000 0.186071 0.729485
O O12 0.481318 0.866806 0.860458
O O13 0.351138 0.694549 0.128725
O O14 0.109185 0.447648 0.919092
O O15 0.000000 0.000000 0.000000
O O16 0.000000 0.500000 0.000000
O O17 0.742820 0.105927 0.070403
#
# Coordination Sequence:
#
# PCOD8031945 Si02
#       8
#     2   2   2   2   2   2   2   2
#     4  11  23  45  66  93 130 172 221 268 312 381
#     4  11  24  43  69  93 125 176 222 261 313 388
#     4  12  24  43  62  98 139 165 210 275 327 375
#     4   9  20  41  64  94 126 164 211 265 316 382
#     4   9  19  40  67  90 124 169 213 256 319 382
#     4  12  24  44  66  92 135 175 210 265 333 377
#     4   9  19  41  66  90 122 168 213 265 313 375
#     4  11  23  39  64  95 133 167 209 269 321 380
#
# _framework density 20.803266000000001
#
# number of rings (size 3 to 8) (size 9 to 14) (size 15 to 20)
#    0.000    1.500    2.500    3.750    1.750    0.500 
#    6.750    2.500    0.000    0.000    0.000    0.000 
#    0.000    0.000    0.000    0.000    0.000    0.000 
#
# Total GULP energy -198239.961444 kJ/mol
# GULP energy per Si atom -12389.997590 kJ/mol
# Density = 2.075592 g / cm^3
# Si number density = 20.803266 Si / 1000 Ang^3
#
#
#
# Elastic Constant Matrix: (Units=GPa)
#
#
# Indices 1 2 3 4 5 6 
#
# 1 152.6071 38.9499 38.9370 2.0538 9.6731 16.7254
# 2 38.9499 94.1435 32.0873 5.7001 2.3425 11.0784
# 3 38.9370 32.0873 111.6386 14.9305 -6.7977 8.8825
# 4 2.0538 5.7001 14.9305 24.5605 3.1578 1.4177
# 5 9.6731 2.3425 -6.7977 3.1578 28.7488 1.4209
# 6 16.7254 11.0784 8.8825 1.4177 1.4209 31.4639
#
#
#
# Elastic Compliance Matrix: (Units=1/GPa)
#
#
# Indices 1 2 3 4 5 6 
#
# 1 0.008249 -0.002280 -0.002449 0.001908 -0.003239 -0.002831
# 2 -0.002280 0.012821 -0.002601 -0.000974 -0.000662 -0.002494
# 3 -0.002449 -0.002601 0.011852 -0.006935 0.004651 -0.001026
# 4 0.001908 -0.000974 -0.006935 0.045954 -0.007227 -0.000457
# 5 -0.003239 -0.000662 0.004651 -0.007227 0.037858 -0.000742
# 6 -0.002831 -0.002494 -0.001026 -0.000457 -0.000742 0.034509
#
#
# Mechanical properties :
#
#
# Convention : Reuss Voigt Hill
#
# Bulk Modulus (GPa) = 54.76140 64.25974 59.51057
# Shear Modulus (GPa) = 29.07134 33.51563 31.29348
#
# Velocity S-wave (km/s) = 3.74229 4.01817 3.88268
# Velocity P-wave (km/s) = 6.71220 7.24458 6.98346
#
# Compressibility (1/GPa) = 0.01826104
#
# Stress axis : x y z
#
# Youngs Moduli (GPa) = 121.22056 77.99682 84.37719
#
# Poissons Ratio (x) = 0.17785 0.20664
# Poissons Ratio (y) = 0.27640 0.21949
# Poissons Ratio (z) = 0.29687 0.20290
#
# Static dielectric constant tensor:
#      x y z
#    x 4.187130 0.186320 0.054440 
#    y 0.186320 3.883310 0.200900 
#    z 0.054440 0.200900 3.554750 
# 
# 
# High freq. dielectric constant tensor:
#      x y z
#    x 1.836180 0.005230 0.009630 
#    y 0.005230 1.816850 0.017320 
#    z 0.009630 0.017320 1.787950 
# 
# From -- ./inp_files/348876.got.cif
#   From: 2010.06.25/outbox.cif.g09.slc.cpg/sg2_175_cif.got.tgz:348876.got - 2010.06.27 13:26:56.
