data_PCOD8031537
_publ_section_title
;
Structure prediction by ZEFSAII (Michael W. Deem and Ramdas Pophale) SiO2 
 PCOD8031537
Probable space group: P -1
;
_chemical_formula_sum "Si O2"
_cell_formula_units_Z 14
_cell_length_a 17.647830
_cell_length_b 11.520745
_cell_length_c 11.472666
_cell_angle_alpha 38.182169
_cell_angle_beta 150.194073
_cell_angle_gamma 146.835133
_cell_volume 618.803512
_symmetry_space_group_name_H-M "P -1"
_symmetry_group_IT_number 2
_symmetry_cell_setting 'triclinic'
loop_
_space_group_symop_operation_xyz
x,y,z
-x,-y,-z
loop_
_atom_site_type_symbol
_atom_site_label
_atom_site_fract_x
_atom_site_fract_y
_atom_site_fract_z
Si Si1 0.647655 0.838974 0.498049
Si Si2 0.968652 0.965667 0.122653
Si Si3 0.163928 0.393211 0.392469
Si Si4 0.492111 0.387718 0.738827
Si Si5 0.847716 0.173439 0.979044
Si Si6 0.530405 0.147758 0.196168
Si Si7 0.702171 0.558792 0.217567
O O1 0.641448 0.639266 0.719624
O O2 0.527511 0.753176 0.290497
O O3 0.569996 0.955641 0.381496
O O4 0.850745 0.006370 0.604232
O O5 0.806932 0.724916 0.122131
O O6 0.930138 0.141996 0.994611
O O7 0.000000 0.000000 0.000000
O O8 0.310588 0.387245 0.513964
O O9 0.190755 0.632259 0.240088
O O10 0.185910 0.334989 0.600015
O O11 0.974335 0.218838 0.224366
O O12 0.549017 0.285335 0.997319
O O13 0.666610 0.949862 0.938874
O O14 0.678379 0.321428 0.345456
O O15 0.500000 0.500000 0.000000
#
# Coordination Sequence:
#
# PCOD8031537 Si02
#       7
#     2   2   2   2   2   2   2
#     4  11  26  44  69 105 146 190 232 298 372 411
#     4  12  27  46  69 105 148 189 236 302 366 422
#     4  11  24  45  74 106 142 184 253 293 352 439
#     4  11  22  44  71 104 142 184 241 301 346 441
#     4  11  25  46  75 105 139 197 241 298 359 430
#     4  12  25  45  75 105 139 193 245 289 365 432
#     4  12  26  46  73 105 143 191 244 296 357 435
#
# _framework density 22.624303999999999
#
# number of rings (size 3 to 8) (size 9 to 14) (size 15 to 20)
#    0.000    0.571    5.714    1.286    4.000    2.286 
#    2.571    0.000    0.000    0.000    0.000    0.000 
#    0.000    0.000    0.000    0.000    0.000    0.000 
#
# Total GULP energy -173613.459745 kJ/mol
# GULP energy per Si atom -12400.961410 kJ/mol
# Density = 2.257281 g / cm^3
# Si number density = 22.624304 Si / 1000 Ang^3
#
#
#
# Elastic Constant Matrix: (Units=GPa)
#
#
# Indices 1 2 3 4 5 6 
#
# 1 127.1192 52.2418 24.1680 2.3738 -6.9376 -5.8521
# 2 52.2418 128.0778 26.2332 16.4961 -2.5214 -0.4473
# 3 24.1680 26.2332 59.6242 6.7145 -2.0026 0.7717
# 4 2.3738 16.4961 6.7145 23.5750 0.4488 7.1394
# 5 -6.9376 -2.5214 -2.0026 0.4488 37.8336 -1.1274
# 6 -5.8521 -0.4473 0.7717 7.1394 -1.1274 48.1024
#
#
#
# Elastic Compliance Matrix: (Units=1/GPa)
#
#
# Indices 1 2 3 4 5 6 
#
# 1 0.009996 -0.003782 -0.002584 0.002060 0.001448 0.000951
# 2 -0.003782 0.010704 -0.002441 -0.006614 -0.000011 0.000660
# 3 -0.002584 -0.002441 0.019303 -0.003502 0.000423 -0.000117
# 4 0.002060 -0.006614 -0.003502 0.050038 -0.001057 -0.007206
# 5 0.001448 -0.000011 0.000423 -0.001057 0.026760 0.000953
# 6 0.000951 0.000660 -0.000117 -0.007206 0.000953 0.022005
#
#
# Mechanical properties :
#
#
# Convention : Reuss Voigt Hill
#
# Bulk Modulus (GPa) = 44.66072 57.78968 51.22520
# Shear Modulus (GPa) = 30.50980 36.04742 33.27861
#
# Velocity S-wave (km/s) = 3.67623 3.99595 3.83942
# Velocity P-wave (km/s) = 6.14838 6.84754 6.50736
#
# Compressibility (1/GPa) = 0.02239104
#
# Stress axis : x y z
#
# Youngs Moduli (GPa) = 100.03666 93.42191 51.80535
#
# Poissons Ratio (x) = 0.35330 0.13385
# Poissons Ratio (y) = 0.37831 0.12645
# Poissons Ratio (z) = 0.25846 0.22803
#
# Static dielectric constant tensor:
#      x y z
#    x 4.225100 -0.238300 0.030850 
#    y -0.238300 4.379020 0.194260 
#    z 0.030850 0.194260 3.862050 
# 
# 
# High freq. dielectric constant tensor:
#      x y z
#    x 1.901530 -0.013490 0.001910 
#    y -0.013490 1.909850 0.007290 
#    z 0.001910 0.007290 1.879020 
# 
# From -- ./inp_files/261900.got.cif
#   From: 2010.06.25/outbox.cif.g09.slc.cpg/sg2_131_cif.got.tgz:261900.got - 2010.06.27 13:26:56.
