data_PCOD8031929
_publ_section_title
;
Structure prediction by ZEFSAII (Michael W. Deem and Ramdas Pophale) SiO2 
 PCOD8031929
Probable space group: P -1
;
_chemical_formula_sum "Si O2"
_cell_formula_units_Z 16
_cell_length_a 23.027649
_cell_length_b 9.305926
_cell_length_c 11.465081
_cell_angle_alpha 140.852389
_cell_angle_beta 151.096669
_cell_angle_gamma 48.848900
_cell_volume 747.935925
_symmetry_space_group_name_H-M "P -1"
_symmetry_group_IT_number 2
_symmetry_cell_setting 'triclinic'
loop_
_space_group_symop_operation_xyz
x,y,z
-x,-y,-z
loop_
_atom_site_type_symbol
_atom_site_label
_atom_site_fract_x
_atom_site_fract_y
_atom_site_fract_z
Si Si1 0.179987 0.624249 0.820633
Si Si2 0.019752 0.171187 0.251088
Si Si3 0.448338 0.630818 0.384008
Si Si4 0.829333 0.642586 0.849062
Si Si5 0.457315 0.871319 0.147888
Si Si6 0.194279 0.910770 0.786663
Si Si7 0.063195 0.796540 0.256366
Si Si8 0.560446 0.556657 0.300595
O O1 0.106820 0.752405 0.872043
O O2 0.195435 0.775361 0.825595
O O3 0.107007 0.389107 0.506808
O O4 0.308929 0.567786 0.065773
O O5 0.088598 0.036698 0.387995
O O6 0.000000 0.000000 0.000000
O O7 0.500000 0.500000 0.500000
O O8 0.539419 0.550176 0.396029
O O9 0.462584 0.901529 0.600612
O O10 0.866062 0.397164 0.807725
O O11 0.698734 0.607393 0.539596
O O12 0.920362 0.723742 0.955939
O O13 0.831571 0.826665 0.072025
O O14 0.490839 0.771017 0.268798
O O15 0.317771 0.914710 0.934748
O O16 0.489070 0.684789 0.990522
O O17 0.094625 0.807310 0.456487
#
# Coordination Sequence:
#
# PCOD8031929 Si02
#       8
#     2   2   2   2   2   2   2   2
#     4  11  27  47  69 102 132 182 229 270 341 402
#     4  11  28  47  69  96 143 181 220 276 337 404
#     4  12  27  45  69  99 141 180 219 276 338 404
#     4  11  23  38  70 100 133 167 231 277 336 382
#     4  11  24  42  72  99 131 173 226 277 337 388
#     4  12  22  44  74  97 136 170 227 289 323 397
#     4  11  26  41  67 105 131 176 225 282 335 392
#     4  11  23  43  69 100 130 176 225 279 329 402
#
# _framework density 21.392206000000002
#
# number of rings (size 3 to 8) (size 9 to 14) (size 15 to 20)
#    0.000    0.750    5.000    1.500    5.250    3.500 
#    0.000    0.000    0.000    0.000    0.000    0.000 
#    0.000    0.000    0.000    0.000    0.000    0.000 
#
# Total GULP energy -198389.974685 kJ/mol
# GULP energy per Si atom -12399.373418 kJ/mol
# Density = 2.134352 g / cm^3
# Si number density = 21.392206 Si / 1000 Ang^3
#
#
#
# Elastic Constant Matrix: (Units=GPa)
#
#
# Indices 1 2 3 4 5 6 
#
# 1 70.1793 56.6326 50.2241 1.7655 -19.1269 5.7582
# 2 56.6326 123.6547 49.4778 8.5893 -14.4134 -9.8025
# 3 50.2241 49.4778 117.2283 3.4240 -0.9117 -3.2562
# 4 1.7655 8.5893 3.4240 42.0831 -2.9252 -5.4102
# 5 -19.1269 -14.4134 -0.9117 -2.9252 25.8959 -3.3883
# 6 5.7582 -9.8025 -3.2562 -5.4102 -3.3883 32.8183
#
#
#
# Elastic Compliance Matrix: (Units=1/GPa)
#
#
# Indices 1 2 3 4 5 6 
#
# 1 0.037712 -0.011066 -0.011625 0.001926 0.020371 -0.008655
# 2 -0.011066 0.014170 -0.001030 -0.001575 0.000264 0.005839
# 3 -0.011625 -0.001030 0.013960 -0.000755 -0.008476 0.002118
# 4 0.001926 -0.001575 -0.000755 0.024790 0.003790 0.003595
# 5 0.020371 0.000264 -0.008476 0.003790 0.054185 0.001882
# 6 -0.008655 0.005839 0.002118 0.003595 0.001882 0.034731
#
#
# Mechanical properties :
#
#
# Convention : Reuss Voigt Hill
#
# Bulk Modulus (GPa) = 54.34104 69.30347 61.82225
# Shear Modulus (GPa) = 21.44805 30.47464 25.96134
#
# Velocity S-wave (km/s) = 3.16984 3.77844 3.48744
# Velocity P-wave (km/s) = 6.23334 7.17652 6.72149
#
# Compressibility (1/GPa) = 0.01840230
#
# Stress axis : x y z
#
# Youngs Moduli (GPa) = 26.51694 70.57197 71.63207
#
# Poissons Ratio (x) = 0.78092 0.83270
# Poissons Ratio (y) = 0.29342 0.07375
# Poissons Ratio (z) = 0.30825 0.07266
#
# Static dielectric constant tensor:
#      x y z
#    x 3.766930 -0.213430 0.023720 
#    y -0.213430 4.056810 0.092220 
#    z 0.023720 0.092220 3.943480 
# 
# 
# High freq. dielectric constant tensor:
#      x y z
#    x 1.829480 -0.021000 0.000580 
#    y -0.021000 1.850580 0.006510 
#    z 0.000580 0.006510 1.848960 
# 
# From -- ./inp_files/474365.got.cif
#   From: 2010.06.25/outbox.cif.g09.slc.cpg/sg2_238_cif.got.tgz:474365.got - 2010.06.27 13:26:56.
