data_PCOD8031099
_publ_section_title
;
Structure prediction by ZEFSAII (Michael W. Deem and Ramdas Pophale) SiO2 
 PCOD8031099
Probable space group: P -1
;
_chemical_formula_sum "Si O2"
_cell_formula_units_Z 16
_cell_length_a 16.199820
_cell_length_b 12.965168
_cell_length_c 8.740191
_cell_angle_alpha 73.733528
_cell_angle_beta 110.202048
_cell_angle_gamma 45.247583
_cell_volume 757.792644
_symmetry_space_group_name_H-M "P -1"
_symmetry_group_IT_number 2
_symmetry_cell_setting 'triclinic'
loop_
_space_group_symop_operation_xyz
x,y,z
-x,-y,-z
loop_
_atom_site_type_symbol
_atom_site_label
_atom_site_fract_x
_atom_site_fract_y
_atom_site_fract_z
Si Si1 0.029480 0.706403 0.335605
Si Si2 0.008903 0.011567 0.821234
Si Si3 0.648906 0.133945 0.087088
Si Si4 0.045629 0.293813 0.040227
Si Si5 0.613093 0.783923 0.074862
Si Si6 0.556602 0.436075 0.737888
Si Si7 0.757142 0.101760 0.487957
Si Si8 0.707130 0.765586 0.808214
O O1 0.197625 0.447814 0.610813
O O2 0.006092 0.719191 0.134578
O O3 0.080168 0.776073 0.366387
O O4 0.830138 0.889727 0.212424
O O5 0.225846 0.770476 0.007229
O O6 0.902976 0.039191 0.640539
O O7 0.000000 0.000000 0.000000
O O8 0.727233 0.120791 0.281555
O O9 0.521232 0.174018 0.045787
O O10 0.520433 0.353605 0.809062
O O11 0.843471 0.544103 0.883366
O O12 0.183094 0.241454 0.100188
O O13 0.166414 0.093387 0.319487
O O14 0.679079 0.746671 0.965029
O O15 0.500000 0.000000 0.000000
O O16 0.500000 0.500000 0.500000
O O17 0.442870 0.651392 0.664238
O O18 0.500000 0.000000 0.500000
#
# Coordination Sequence:
#
# PCOD8031099 Si02
#       8
#     2   2   2   2   2   2   2   2
#     4  11  24  44  67  95 135 172 220 272 328 397
#     4  11  22  42  67  98 129 173 218 260 329 397
#     4  11  26  43  64 100 134 173 222 270 335 390
#     4  11  24  43  69  97 130 172 222 278 332 390
#     4  12  26  44  69  96 132 177 222 274 332 396
#     4  11  23  40  67  95 135 176 218 270 325 395
#     4  12  23  41  66  97 135 169 215 277 326 393
#     4  11  25  45  67  97 130 172 226 277 335 391
#
# _framework density 21.113955000000001
#
# number of rings (size 3 to 8) (size 9 to 14) (size 15 to 20)
#    0.000    0.750    2.500    4.875    0.000    9.000 
#    0.000    0.000    0.000    0.000    0.000    0.000 
#    0.000    0.000    0.000    0.000    0.000    0.000 
#
# Total GULP energy -198461.960610 kJ/mol
# GULP energy per Si atom -12403.872538 kJ/mol
# Density = 2.106590 g / cm^3
# Si number density = 21.113955 Si / 1000 Ang^3
#
#
#
# Elastic Constant Matrix: (Units=GPa)
#
#
# Indices 1 2 3 4 5 6 
#
# 1 138.5657 48.6541 40.8470 -1.6695 -4.3823 -4.6998
# 2 48.6541 125.4050 52.0072 -5.5610 2.4845 -4.3161
# 3 40.8470 52.0072 125.2322 -9.7754 -14.4874 -2.9567
# 4 -1.6695 -5.5610 -9.7754 51.1686 0.5941 0.1710
# 5 -4.3823 2.4845 -14.4874 0.5941 35.3554 0.5438
# 6 -4.6998 -4.3161 -2.9567 0.1710 0.5438 33.1592
#
#
#
# Elastic Compliance Matrix: (Units=1/GPa)
#
#
# Indices 1 2 3 4 5 6 
#
# 1 0.008687 -0.002683 -0.001661 -0.000335 0.000579 0.000726
# 2 -0.002683 0.010698 -0.003831 0.000372 -0.002671 0.000712
# 3 -0.001661 -0.003831 0.010755 0.001532 0.004442 0.000144
# 4 -0.000335 0.000372 0.001532 0.019863 0.000226 0.000031
# 5 0.000579 -0.002671 0.004442 0.000226 0.030366 -0.000369
# 6 0.000726 0.000712 0.000144 0.000031 -0.000369 0.030372
#
#
# Mechanical properties :
#
#
# Convention : Reuss Voigt Hill
#
# Bulk Modulus (GPa) = 72.51643 74.69108 73.60375
# Shear Modulus (GPa) = 37.96886 40.44963 39.20924
#
# Velocity S-wave (km/s) = 4.24522 4.38171 4.31400
# Velocity P-wave (km/s) = 7.64519 7.81352 7.72982
#
# Compressibility (1/GPa) = 0.01378998
#
# Stress axis : x y z
#
# Youngs Moduli (GPa) = 115.10808 93.47887 92.98174
#
# Poissons Ratio (x) = 0.25079 0.15449
# Poissons Ratio (y) = 0.30881 0.35618
# Poissons Ratio (z) = 0.19125 0.35809
#
# Static dielectric constant tensor:
#      x y z
#    x 4.212020 -0.003710 -0.162790 
#    y -0.003710 3.896220 -0.153870 
#    z -0.162790 -0.153870 3.961680 
# 
# 
# High freq. dielectric constant tensor:
#      x y z
#    x 1.839460 -0.005850 -0.004310 
#    y -0.005850 1.840440 -0.006580 
#    z -0.004310 -0.006580 1.842570 
# 
# From -- ./inp_files/307088.got.cif
#   From: 2010.06.25/outbox.cif.g09.slc.cpg/sg2_154_cif.got.tgz:307088.got - 2010.06.27 13:26:56.
