data_PCOD8031122
_publ_section_title
;
Structure prediction by ZEFSAII (Michael W. Deem and Ramdas Pophale) SiO2 
 PCOD8031122
Probable space group: P -1
;
_chemical_formula_sum "Si O2"
_cell_formula_units_Z 16
_cell_length_a 9.491029
_cell_length_b 15.437908
_cell_length_c 8.133927
_cell_angle_alpha 133.498939
_cell_angle_beta 84.591473
_cell_angle_gamma 73.100566
_cell_volume 749.107494
_symmetry_space_group_name_H-M "P -1"
_symmetry_group_IT_number 2
_symmetry_cell_setting 'triclinic'
loop_
_space_group_symop_operation_xyz
x,y,z
-x,-y,-z
loop_
_atom_site_type_symbol
_atom_site_label
_atom_site_fract_x
_atom_site_fract_y
_atom_site_fract_z
Si Si1 0.269185 0.869464 0.500189
Si Si2 0.882282 0.458540 0.878130
Si Si3 0.507261 0.635500 0.641391
Si Si4 0.459059 0.394829 0.776731
Si Si5 0.992489 0.840653 0.623769
Si Si6 0.186314 0.871038 0.141305
Si Si7 0.106524 0.158857 0.994703
Si Si8 0.171699 0.401146 0.273614
O O1 0.455286 0.747271 0.314514
O O2 0.183860 0.884115 0.354276
O O3 0.164095 0.840052 0.610800
O O4 0.259504 0.011403 0.738758
O O5 0.813569 0.526674 0.798022
O O6 0.972932 0.294317 0.656839
O O7 0.733273 0.526627 0.108791
O O8 0.000000 0.500000 0.000000
O O9 0.500000 0.500000 0.500000
O O10 0.474614 0.655278 0.477585
O O11 0.679315 0.623311 0.657157
O O12 0.364998 0.763291 0.918742
O O13 0.500000 0.500000 0.000000
O O14 0.927547 0.827780 0.790629
O O15 0.859549 0.981255 0.737085
O O16 0.057831 0.819997 0.046514
O O17 0.166874 0.261702 0.057724
O O18 0.000000 0.500000 0.500000
#
# Coordination Sequence:
#
# PCOD8031122 Si02
#       8
#     2   2   2   2   2   2   2   2
#     4  11  23  42  70 102 130 176 226 276 327 395
#     4  12  27  42  67 100 137 176 219 272 336 393
#     4  12  26  45  70  99 133 176 224 276 331 399
#     4  12  24  45  70  96 132 171 227 275 326 396
#     4  11  22  42  68  97 136 174 224 266 330 394
#     4  11  24  43  71 100 132 177 225 273 331 393
#     4  11  23  42  69  99 136 175 219 276 332 396
#     4  12  25  45  67 102 136 174 222 273 338 392
#
# _framework density 21.358751000000002
#
# number of rings (size 3 to 8) (size 9 to 14) (size 15 to 20)
#    0.000    0.500    2.500    8.250    3.500    0.000 
#    2.250    2.500    0.000    0.000    0.000    0.000 
#    0.000    0.000    0.000    0.000    0.000    0.000 
#
# Total GULP energy -198363.443376 kJ/mol
# GULP energy per Si atom -12397.715211 kJ/mol
# Density = 2.131014 g / cm^3
# Si number density = 21.358751 Si / 1000 Ang^3
#
#
#
# Elastic Constant Matrix: (Units=GPa)
#
#
# Indices 1 2 3 4 5 6 
#
# 1 112.6945 22.0730 41.0518 30.7632 1.9106 -5.5448
# 2 22.0730 86.2062 30.4860 23.3950 6.7573 -0.6104
# 3 41.0518 30.4860 123.8356 41.4328 -9.1251 -1.5412
# 4 30.7632 23.3950 41.4328 50.4668 2.4639 1.9260
# 5 1.9106 6.7573 -9.1251 2.4639 35.0984 5.0787
# 6 -5.5448 -0.6104 -1.5412 1.9260 5.0787 34.5997
#
#
#
# Elastic Compliance Matrix: (Units=1/GPa)
#
#
# Indices 1 2 3 4 5 6 
#
# 1 0.011184 -0.000763 -0.001912 -0.004930 -0.000917 0.002103
# 2 -0.000763 0.013873 -0.001948 -0.004250 -0.002939 0.000704
# 3 -0.001912 -0.001948 0.012241 -0.008189 0.004231 0.000039
# 4 -0.004930 -0.004250 -0.008189 0.031753 -0.002899 -0.002572
# 5 -0.000917 -0.002939 0.004231 -0.002899 0.031048 -0.004406
# 6 0.002103 0.000704 0.000039 -0.002572 -0.004406 0.030043
#
#
# Mechanical properties :
#
#
# Convention : Reuss Voigt Hill
#
# Bulk Modulus (GPa) = 35.64794 56.66198 46.15496
# Shear Modulus (GPa) = 33.61589 39.30801 36.46195
#
# Velocity S-wave (km/s) = 3.97151 4.29461 4.13621
# Velocity P-wave (km/s) = 6.14466 7.15387 6.66838
#
# Compressibility (1/GPa) = 0.02805211
#
# Stress axis : x y z
#
# Youngs Moduli (GPa) = 89.41240 72.08143 81.69442
#
# Poissons Ratio (x) = 0.05500 0.15618
# Poissons Ratio (y) = 0.06822 0.15916
# Poissons Ratio (z) = 0.17093 0.14044
#
# Static dielectric constant tensor:
#      x y z
#    x 3.780290 0.029520 -0.030160 
#    y 0.029520 5.638530 -0.022070 
#    z -0.030160 -0.022070 4.146320 
# 
# 
# High freq. dielectric constant tensor:
#      x y z
#    x 1.823540 -0.007320 -0.004710 
#    y -0.007320 1.846640 0.005520 
#    z -0.004710 0.005520 1.864910 
# 
# From -- ./inp_files/204207.got.cif
#   From: 2010.06.25/outbox.cif.g09.slc.cpg/sg2_103_cif.got.tgz:204207.got - 2010.06.27 13:26:56.
