data_PCOD8031508
_publ_section_title
;
Structure prediction by ZEFSAII (Michael W. Deem and Ramdas Pophale) SiO2 
 PCOD8031508
Probable space group: P -1
;
_chemical_formula_sum "Si O2"
_cell_formula_units_Z 14
_cell_length_a 14.882128
_cell_length_b 12.141894
_cell_length_c 20.976380
_cell_angle_alpha 31.130188
_cell_angle_beta 18.613804
_cell_angle_gamma 29.656729
_cell_volume 585.863423
_symmetry_space_group_name_H-M "P -1"
_symmetry_group_IT_number 2
_symmetry_cell_setting 'triclinic'
loop_
_space_group_symop_operation_xyz
x,y,z
-x,-y,-z
loop_
_atom_site_type_symbol
_atom_site_label
_atom_site_fract_x
_atom_site_fract_y
_atom_site_fract_z
Si Si1 0.816596 0.013349 0.393879
Si Si2 0.654640 0.283013 0.046446
Si Si3 0.757737 0.747192 0.049981
Si Si4 0.215379 0.378418 0.644262
Si Si5 0.181947 0.191609 0.884452
Si Si6 0.506150 0.289621 0.286316
Si Si7 0.212314 0.691216 0.382856
O O1 0.565736 0.257320 0.454395
O O2 0.672112 0.888049 0.501864
O O3 0.915939 0.879628 0.460256
O O4 0.109433 0.052631 0.150121
O O5 0.014769 0.227161 0.833724
O O6 0.500000 0.500000 0.000000
O O7 0.503396 0.356202 0.180840
O O8 0.621017 0.049570 0.160585
O O9 0.648577 0.771117 0.185009
O O10 0.475337 0.790078 0.171996
O O11 0.000000 0.500000 0.000000
O O12 0.166220 0.400134 0.743379
O O13 0.110590 0.609134 0.558933
O O14 0.850063 0.195089 0.126437
O O15 0.321337 0.498026 0.351480
#
# Coordination Sequence:
#
# PCOD8031508 Si02
#       7
#     2   2   2   2   2   2   2
#     4  12  24  45  71 102 139 177 236 288 339 406
#     4  11  23  41  70 107 139 177 230 287 349 407
#     4  12  26  47  69  99 144 190 227 279 345 419
#     4  11  23  43  69 100 138 175 228 291 340 402
#     4  11  23  44  71  99 142 182 224 285 356 398
#     4  11  22  44  70 102 136 176 234 289 341 404
#     4  12  27  45  69 106 136 188 233 280 348 412
#
# _framework density 23.896355
#
# number of rings (size 3 to 8) (size 9 to 14) (size 15 to 20)
#    0.000    0.571    5.714    2.571    4.000    1.714 
#    0.000    0.714    0.000    0.000    0.000    0.000 
#    0.000    0.000    0.000    0.000    0.000    0.000 
#
# Total GULP energy -173555.380129 kJ/mol
# GULP energy per Si atom -12396.812866 kJ/mol
# Density = 2.384197 g / cm^3
# Si number density = 23.896355 Si / 1000 Ang^3
#
#
#
# Elastic Constant Matrix: (Units=GPa)
#
#
# Indices 1 2 3 4 5 6 
#
# 1 125.4398 31.6808 25.4541 -5.6380 -0.4322 4.4495
# 2 31.6808 46.9243 2.5246 -4.8704 8.0181 -11.0835
# 3 25.4541 2.5246 104.7640 -9.2611 -1.2722 13.3019
# 4 -5.6380 -4.8704 -9.2611 29.7794 -8.3860 0.1357
# 5 -0.4322 8.0181 -1.2722 -8.3860 39.6484 -3.6880
# 6 4.4495 -11.0835 13.3019 0.1357 -3.6880 30.9685
#
#
#
# Elastic Compliance Matrix: (Units=1/GPa)
#
#
# Indices 1 2 3 4 5 6 
#
# 1 0.010521 -0.008002 -0.001867 0.000532 0.001469 -0.003401
# 2 -0.008002 0.030469 -0.000132 0.002037 -0.004749 0.011537
# 3 -0.001867 -0.000132 0.010848 0.003194 0.000623 -0.004378
# 4 0.000532 0.002037 0.003194 0.037134 0.007552 0.000017
# 5 0.001469 -0.004749 0.000623 0.007552 0.027919 0.001113
# 6 -0.003401 0.011537 -0.004378 0.000017 0.001113 0.038922
#
#
# Mechanical properties :
#
#
# Convention : Reuss Voigt Hill
#
# Bulk Modulus (GPa) = 31.41195 44.04968 37.73081
# Shear Modulus (GPa) = 26.82011 34.57716 30.69864
#
# Velocity S-wave (km/s) = 3.35379 3.80802 3.58810
# Velocity P-wave (km/s) = 5.30762 6.14885 5.74366
#
# Compressibility (1/GPa) = 0.03183502
#
# Stress axis : x y z
#
# Youngs Moduli (GPa) = 95.04432 32.82064 92.18412
#
# Poissons Ratio (x) = 0.26264 0.17209
# Poissons Ratio (y) = 0.76057 0.01220
# Poissons Ratio (z) = 0.17743 0.00434
#
# Static dielectric constant tensor:
#      x y z
#    x 4.550430 -0.191800 -0.075240 
#    y -0.191800 3.860220 -0.072760 
#    z -0.075240 -0.072760 4.544880 
# 
# 
# High freq. dielectric constant tensor:
#      x y z
#    x 1.960510 -0.015690 0.000360 
#    y -0.015690 1.911660 -0.000550 
#    z 0.000360 -0.000550 1.960450 
# 
# From -- ./inp_files/261399.got.cif
#   From: 2010.06.25/outbox.cif.g09.slc.cpg/sg2_131_cif.got.tgz:261399.got - 2010.06.27 13:26:56.
