data_PCOD8031354
_publ_section_title
;
Structure prediction by ZEFSAII (Michael W. Deem and Ramdas Pophale) SiO2 
 PCOD8031354
Probable space group: P -1
;
_chemical_formula_sum "Si O2"
_cell_formula_units_Z 12
_cell_length_a 9.304255
_cell_length_b 13.024086
_cell_length_c 18.832942
_cell_angle_alpha 163.040877
_cell_angle_beta 44.255185
_cell_angle_gamma 133.600993
_cell_volume 464.434993
_symmetry_space_group_name_H-M "P -1"
_symmetry_group_IT_number 2
_symmetry_cell_setting 'triclinic'
loop_
_space_group_symop_operation_xyz
x,y,z
-x,-y,-z
loop_
_atom_site_type_symbol
_atom_site_label
_atom_site_fract_x
_atom_site_fract_y
_atom_site_fract_z
Si Si1 0.574555 0.498023 0.344698
Si Si2 0.872189 0.284729 0.343770
Si Si3 0.031099 0.517604 0.209234
Si Si4 0.849630 0.314560 0.576043
Si Si5 0.818163 0.539801 0.036197
Si Si6 0.498860 0.792660 0.971976
O O1 0.376250 0.750229 0.580141
O O2 0.799292 0.672064 0.395985
O O3 0.610545 0.331317 0.143861
O O4 0.530677 0.209847 0.230986
O O5 0.000000 0.500000 0.500000
O O6 0.918662 0.532470 0.421841
O O7 0.963234 0.896915 0.049625
O O8 0.164104 0.727527 0.361417
O O9 0.133111 0.600675 0.152171
O O10 0.716079 0.617621 0.789690
O O11 0.775055 0.957554 0.326552
O O12 0.628680 0.306728 0.978021
O O13 0.000000 0.500000 0.000000
#
# Coordination Sequence:
#
# PCOD8031354 Si02
#       6
#     2   2   2   2   2   2
#     4  11  22  43  75 104 134 185 233 280 344 415
#     4  12  21  43  74 105 138 184 230 283 345 410
#     4  12  26  47  71 105 143 178 233 292 343 408
#     4  12  26  44  72 105 141 180 234 291 343 409
#     4  12  25  46  71  99 139 188 231 283 351 413
#     4  11  22  43  71 101 138 183 232 282 344 412
#
# _framework density 25.837848999999999
#
# number of rings (size 3 to 8) (size 9 to 14) (size 15 to 20)
#    0.000    0.333    6.667    3.000    0.000    2.000 
#    3.000    0.000    0.000    0.000    0.000    0.000 
#    0.000    0.000    0.000    0.000    0.000    0.000 
#
# Total GULP energy -148751.085814 kJ/mol
# GULP energy per Si atom -12395.923818 kJ/mol
# Density = 2.577904 g / cm^3
# Si number density = 25.837849 Si / 1000 Ang^3
#
#
#
# Elastic Constant Matrix: (Units=GPa)
#
#
# Indices 1 2 3 4 5 6 
#
# 1 94.0927 17.0718 30.2653 -10.0192 -14.2825 -5.3865
# 2 17.0718 164.7978 22.5191 -7.1004 -4.1579 -10.9083
# 3 30.2653 22.5191 49.6693 -9.2929 -15.4590 7.6154
# 4 -10.0192 -7.1004 -9.2929 28.2984 -0.2555 -6.5460
# 5 -14.2825 -4.1579 -15.4590 -0.2555 35.0889 -5.9421
# 6 -5.3865 -10.9083 7.6154 -6.5460 -5.9421 36.5791
#
#
#
# Elastic Compliance Matrix: (Units=1/GPa)
#
#
# Indices 1 2 3 4 5 6 
#
# 1 0.014294 0.000162 -0.007840 0.003707 0.003253 0.004977
# 2 0.000162 0.006768 -0.003414 0.001320 -0.000124 0.002969
# 3 -0.007840 -0.003414 0.031250 0.005267 0.009152 -0.006249
# 4 0.003707 0.001320 0.005267 0.040619 0.005641 0.008028
# 5 0.003253 -0.000124 0.009152 0.005641 0.034761 0.005193
# 6 0.004977 0.002969 -0.006249 0.008028 0.005193 0.032538
#
#
# Mechanical properties :
#
#
# Convention : Reuss Voigt Hill
#
# Bulk Modulus (GPa) = 33.19188 49.80800 41.49994
# Shear Modulus (GPa) = 25.97990 35.90687 30.94338
#
# Velocity S-wave (km/s) = 3.17440 3.73191 3.46439
# Velocity P-wave (km/s) = 5.12931 6.15537 5.66562
#
# Compressibility (1/GPa) = 0.03012785
#
# Stress axis : x y z
#
# Youngs Moduli (GPa) = 69.96076 147.75303 31.99980
#
# Poissons Ratio (x) = -0.02392 0.25088
# Poissons Ratio (y) = -0.01132 0.10924
# Poissons Ratio (z) = 0.54850 0.50441
#
# Static dielectric constant tensor:
#      x y z
#    x 4.423840 -0.532890 -0.257440 
#    y -0.532890 4.142420 -0.585560 
#    z -0.257440 -0.585560 4.585080 
# 
# 
# High freq. dielectric constant tensor:
#      x y z
#    x 2.033410 -0.014020 -0.013900 
#    y -0.014020 2.044420 -0.005360 
#    z -0.013900 -0.005360 2.020660 
# 
# From -- ./inp_files/175630.got.cif
#   From: 2010.06.25/outbox.cif.g09.slc.cpg/sg2_88_cif.got.tgz:175630.got - 2010.06.27 13:26:56.
