data_PCOD8031766
_publ_section_title
;
Structure prediction by ZEFSAII (Michael W. Deem and Ramdas Pophale) SiO2 
 PCOD8031766
Probable space group: P -1
;
_chemical_formula_sum "Si O2"
_cell_formula_units_Z 16
_cell_length_a 21.565879
_cell_length_b 9.416082
_cell_length_c 17.600687
_cell_angle_alpha 128.497966
_cell_angle_beta 18.801735
_cell_angle_gamma 137.902631
_cell_volume 717.455004
_symmetry_space_group_name_H-M "P -1"
_symmetry_group_IT_number 2
_symmetry_cell_setting 'triclinic'
loop_
_space_group_symop_operation_xyz
x,y,z
-x,-y,-z
loop_
_atom_site_type_symbol
_atom_site_label
_atom_site_fract_x
_atom_site_fract_y
_atom_site_fract_z
Si Si1 0.627210 0.191511 0.353999
Si Si2 0.184246 0.592325 0.022229
Si Si3 0.733246 0.928100 0.506035
Si Si4 0.043663 0.311551 0.809530
Si Si5 0.223888 0.750090 0.306601
Si Si6 0.081451 0.803309 0.329028
Si Si7 0.868982 0.067214 0.228587
Si Si8 0.384099 0.300404 0.129356
O O1 0.718513 0.434818 0.362411
O O2 0.420457 0.106239 0.503096
O O3 0.500000 0.000000 0.500000
O O4 0.857573 0.211940 0.062711
O O5 0.464627 0.705213 0.720781
O O6 0.155353 0.651465 0.160311
O O7 0.101872 0.703831 0.099117
O O8 0.999677 0.323904 0.135011
O O9 0.871205 0.842908 0.359024
O O10 0.895075 0.059336 0.286613
O O11 0.716980 0.091560 0.635653
O O12 0.178325 0.850478 0.319745
O O13 0.000000 0.500000 0.500000
O O14 0.428052 0.711197 0.043170
O O15 0.791965 0.664485 0.608197
O O16 0.203696 0.040718 0.219803
O O17 0.000000 0.000000 0.000000
O O18 0.500000 0.500000 0.000000
#
# Coordination Sequence:
#
# PCOD8031766 Si02
#       8
#     2   2   2   2   2   2   2   2
#     4  11  22  46  71 100 140 180 232 290 347 415
#     4  12  26  47  72 105 145 185 237 290 345 418
#     4  12  28  46  70 107 144 183 237 292 349 416
#     4  11  26  43  74 102 138 187 231 285 354 412
#     4  12  25  48  72 103 147 187 234 294 351 418
#     4  11  26  45  73 104 142 190 235 286 354 414
#     4  12  26  46  74 104 144 185 234 291 354 419
#     4  11  24  44  73  98 135 188 236 286 351 411
#
# _framework density 22.301051000000001
#
# number of rings (size 3 to 8) (size 9 to 14) (size 15 to 20)
#    0.000    0.500    5.000    2.625    5.250    1.000 
#    2.250    0.000    0.000    0.000    0.000    0.000 
#    0.000    0.000    0.000    0.000    0.000    0.000 
#
# Total GULP energy -198255.011174 kJ/mol
# GULP energy per Si atom -12390.938198 kJ/mol
# Density = 2.225029 g / cm^3
# Si number density = 22.301051 Si / 1000 Ang^3
#
#
#
# Elastic Constant Matrix: (Units=GPa)
#
#
# Indices 1 2 3 4 5 6 
#
# 1 100.9941 37.8716 35.9719 6.4916 1.9604 -8.2257
# 2 37.8716 99.3598 48.9471 -6.0146 5.0430 -13.7180
# 3 35.9719 48.9471 138.0944 -3.1517 -7.7553 -14.6865
# 4 6.4916 -6.0146 -3.1517 46.4501 -5.1801 -2.4817
# 5 1.9604 5.0430 -7.7553 -5.1801 39.1339 2.6461
# 6 -8.2257 -13.7180 -14.6865 -2.4817 2.6461 35.6186
#
#
#
# Elastic Compliance Matrix: (Units=1/GPa)
#
#
# Indices 1 2 3 4 5 6 
#
# 1 0.012192 -0.003746 -0.001899 -0.002387 -0.000853 0.000487
# 2 -0.003746 0.014024 -0.003727 0.002005 -0.002317 0.003311
# 3 -0.001899 -0.003727 0.009411 0.000791 0.002418 0.001882
# 4 -0.002387 0.002005 0.000791 0.022599 0.002880 0.001908
# 5 -0.000853 -0.002317 0.002418 0.002880 0.026883 -0.001889
# 6 0.000487 0.003311 0.001882 0.001908 -0.001889 0.030512
#
#
# Mechanical properties :
#
#
# Convention : Reuss Voigt Hill
#
# Bulk Modulus (GPa) = 59.22763 64.89218 62.05990
# Shear Modulus (GPa) = 35.71606 38.61769 37.16688
#
# Velocity S-wave (km/s) = 4.00627 4.16583 4.08683
# Velocity P-wave (km/s) = 6.92937 7.23189 7.08225
#
# Compressibility (1/GPa) = 0.01688401
#
# Stress axis : x y z
#
# Youngs Moduli (GPa) = 82.02021 71.30414 106.25599
#
# Poissons Ratio (x) = 0.26708 0.20177
# Poissons Ratio (y) = 0.30721 0.39606
# Poissons Ratio (z) = 0.15575 0.26578
#
# Static dielectric constant tensor:
#      x y z
#    x 4.242390 0.113040 -0.523920 
#    y 0.113040 4.130950 -0.183800 
#    z -0.523920 -0.183800 4.882270 
# 
# 
# High freq. dielectric constant tensor:
#      x y z
#    x 1.869100 -0.013510 -0.001390 
#    y -0.013510 1.879110 -0.006550 
#    z -0.001390 -0.006550 1.902760 
# 
# From -- ./inp_files/577420.got.cif
#   From: 2010.06.25/outbox.cif.g09.slc.cpg/sg2_289_cif.got.tgz:577420.got - 2010.06.27 13:26:56.
