data_PCOD8031175
_publ_section_title
;
Structure prediction by ZEFSAII (Michael W. Deem and Ramdas Pophale) SiO2 
 PCOD8031175
Probable space group: P -1
;
_chemical_formula_sum "Si O2"
_cell_formula_units_Z 14
_cell_length_a 11.432997
_cell_length_b 14.177371
_cell_length_c 10.158739
_cell_angle_alpha 63.707377
_cell_angle_beta 129.543086
_cell_angle_gamma 149.331202
_cell_volume 624.342822
_symmetry_space_group_name_H-M "P -1"
_symmetry_group_IT_number 2
_symmetry_cell_setting 'triclinic'
loop_
_space_group_symop_operation_xyz
x,y,z
-x,-y,-z
loop_
_atom_site_type_symbol
_atom_site_label
_atom_site_fract_x
_atom_site_fract_y
_atom_site_fract_z
Si Si1 0.191825 0.882483 0.229160
Si Si2 0.658272 0.527345 0.207259
Si Si3 0.553342 0.801129 0.634919
Si Si4 0.777178 0.313085 0.769045
Si Si5 0.647039 0.332930 0.929153
Si Si6 0.945668 0.047154 0.138602
Si Si7 0.629132 0.555722 0.697006
O O1 0.278756 0.840150 0.218689
O O2 0.981162 0.716009 0.289713
O O3 0.447127 0.083030 0.369175
O O4 0.056116 0.899244 0.038702
O O5 0.569828 0.353795 0.253911
O O6 0.593795 0.539732 0.294522
O O7 0.500000 0.500000 0.000000
O O8 0.373669 0.698314 0.436358
O O9 0.870535 0.952328 0.734842
O O10 0.651222 0.251194 0.863838
O O11 0.101207 0.535163 0.868012
O O12 0.702611 0.477267 0.813679
O O13 0.359877 0.159590 0.906554
O O14 0.090214 0.213482 0.238051
O O15 0.500000 0.500000 0.500000
#
# Coordination Sequence:
#
# PCOD8031175 Si02
#       7
#     2   2   2   2   2   2   2
#     4  12  24  43  68 103 139 187 231 285 347 426
#     4  11  22  42  71 102 140 177 232 287 355 400
#     4  11  25  43  71 106 135 174 236 300 336 414
#     4  11  26  48  65 103 146 184 229 281 364 415
#     4  11  24  47  72  92 147 189 222 288 351 420
#     4  11  24  43  75 101 129 184 246 276 347 408
#     4  11  23  43  71 108 137 176 239 295 334 415
#
# _framework density 22.423579
#
# number of rings (size 3 to 8) (size 9 to 14) (size 15 to 20)
#    0.000    0.857    4.286    3.429    4.000    4.571 
#    2.571    0.000    0.000    0.000    0.000    0.000 
#    0.000    0.000    0.000    0.000    0.000    0.000 
#
# Total GULP energy -173614.635483 kJ/mol
# GULP energy per Si atom -12401.045392 kJ/mol
# Density = 2.237254 g / cm^3
# Si number density = 22.423579 Si / 1000 Ang^3
#
#
#
# Elastic Constant Matrix: (Units=GPa)
#
#
# Indices 1 2 3 4 5 6 
#
# 1 122.0464 54.7502 37.6999 0.8615 -8.7552 -14.3563
# 2 54.7502 127.8975 48.1015 5.3881 -6.4158 -1.5197
# 3 37.6999 48.1015 114.2489 11.9845 -16.5746 4.5569
# 4 0.8615 5.3881 11.9845 30.5989 -5.9029 -0.5401
# 5 -8.7552 -6.4158 -16.5746 -5.9029 35.7611 6.4779
# 6 -14.3563 -1.5197 4.5569 -0.5401 6.4779 34.8813
#
#
#
# Elastic Compliance Matrix: (Units=1/GPa)
#
#
# Indices 1 2 3 4 5 6 
#
# 1 0.011248 -0.003918 -0.002352 0.001444 0.000343 0.004725
# 2 -0.003918 0.010689 -0.003189 -0.000632 -0.000507 -0.000646
# 3 -0.002352 -0.003189 0.012013 -0.003267 0.004527 -0.003568
# 4 0.001444 -0.000632 -0.003267 0.034884 0.004353 0.000725
# 5 0.000343 -0.000507 0.004527 0.004353 0.031920 -0.006333
# 6 0.004725 -0.000646 -0.003568 0.000725 -0.006333 0.032238
#
#
# Mechanical properties :
#
#
# Convention : Reuss Voigt Hill
#
# Bulk Modulus (GPa) = 66.52400 71.69954 69.11177
# Shear Modulus (GPa) = 31.86318 35.15767 33.51043
#
# Velocity S-wave (km/s) = 3.77366 3.96395 3.86998
# Velocity P-wave (km/s) = 6.97988 7.27977 7.13140
#
# Compressibility (1/GPa) = 0.01503217
#
# Stress axis : x y z
#
# Youngs Moduli (GPa) = 88.90533 93.55638 83.24059
#
# Poissons Ratio (x) = 0.36654 0.19580
# Poissons Ratio (y) = 0.34831 0.26544
# Poissons Ratio (z) = 0.20913 0.29834
#
# Static dielectric constant tensor:
#      x y z
#    x 4.017310 -0.322270 -0.003310 
#    y -0.322270 3.477990 0.208020 
#    z -0.003310 0.208020 4.080830 
# 
# 
# High freq. dielectric constant tensor:
#      x y z
#    x 1.887230 -0.016110 -0.001470 
#    y -0.016110 1.880090 0.006450 
#    z -0.001470 0.006450 1.890060 
# 
# From -- ./inp_files/272244.got.cif
#   From: 2010.06.25/outbox.cif.g09.slc.cpg/sg2_137_cif.got.tgz:272244.got - 2010.06.27 13:26:56.
