data_PCOD8031146
_publ_section_title
;
Structure prediction by ZEFSAII (Michael W. Deem and Ramdas Pophale) SiO2 
 PCOD8031146
Probable space group: P -1
;
_chemical_formula_sum "Si O2"
_cell_formula_units_Z 16
_cell_length_a 10.854925
_cell_length_b 23.570904
_cell_length_c 29.335358
_cell_angle_alpha 10.553216
_cell_angle_beta 32.157984
_cell_angle_gamma 32.126047
_cell_volume 723.404113
_symmetry_space_group_name_H-M "P -1"
_symmetry_group_IT_number 2
_symmetry_cell_setting 'triclinic'
loop_
_space_group_symop_operation_xyz
x,y,z
-x,-y,-z
loop_
_atom_site_type_symbol
_atom_site_label
_atom_site_fract_x
_atom_site_fract_y
_atom_site_fract_z
Si Si1 0.356613 0.320661 0.651418
Si Si2 0.510049 0.396465 0.803336
Si Si3 0.236772 0.341282 0.073107
Si Si4 0.634368 0.698009 0.672646
Si Si5 0.943533 0.374114 0.910398
Si Si6 0.976926 0.645304 0.779405
Si Si7 0.399202 0.632394 0.556984
Si Si8 0.866069 0.721627 0.489778
O O1 0.500000 0.500000 0.500000
O O2 0.440746 0.361382 0.541685
O O3 0.082529 0.444633 0.640713
O O4 0.383749 0.960536 0.940561
O O5 0.232824 0.436999 0.869525
O O6 0.555702 0.487295 0.664986
O O7 0.640250 0.618987 0.617995
O O8 0.210199 0.429261 0.065628
O O9 0.270282 0.974920 0.341076
O O10 0.454883 0.495724 0.864252
O O11 0.000000 0.500000 0.000000
O O12 0.771576 0.471709 0.845750
O O13 0.803914 0.803623 0.497336
O O14 0.500000 0.000000 0.500000
O O15 0.870674 0.592828 0.804558
O O16 0.203319 0.412086 0.782473
O O17 0.939339 0.016441 0.207778
O O18 0.000000 0.000000 0.500000
#
# Coordination Sequence:
#
# PCOD8031146 Si02
#       8
#     2   2   2   2   2   2   2   2
#     4  12  26  46  72  97 134 179 231 284 336 401
#     4  11  25  45  71 101 137 175 229 281 338 407
#     4  12  23  41  68  97 135 180 225 278 335 406
#     4  12  27  42  67 102 140 177 224 279 340 406
#     4  11  25  43  68 100 140 175 227 277 339 404
#     4  11  22  42  69  98 136 180 221 274 336 402
#     4  11  24  44  68  99 129 178 231 273 338 403
#     4  12  27  46  69 101 139 180 223 283 344 395
#
# _framework density 22.117652
#
# number of rings (size 3 to 8) (size 9 to 14) (size 15 to 20)
#    0.000    0.500    2.500    7.125    1.750    4.500 
#    0.000    0.000    0.000    0.000    0.000    0.000 
#    0.000    0.000    0.000    0.000    0.000    0.000 
#
# Total GULP energy -198465.669874 kJ/mol
# GULP energy per Si atom -12404.104367 kJ/mol
# Density = 2.206731 g / cm^3
# Si number density = 22.117652 Si / 1000 Ang^3
#
#
#
# Elastic Constant Matrix: (Units=GPa)
#
#
# Indices 1 2 3 4 5 6 
#
# 1 102.0633 53.2651 40.9251 6.4888 6.0045 1.2808
# 2 53.2651 132.9193 40.3113 1.5626 22.1195 12.4394
# 3 40.9251 40.3113 148.3290 -8.3098 13.7576 -3.8978
# 4 6.4888 1.5626 -8.3098 30.6162 0.0295 1.5589
# 5 6.0045 22.1195 13.7576 0.0295 42.6285 3.5401
# 6 1.2808 12.4394 -3.8978 1.5589 3.5401 35.9582
#
#
#
# Elastic Compliance Matrix: (Units=1/GPa)
#
#
# Indices 1 2 3 4 5 6 
#
# 1 0.013561 -0.004897 -0.002710 -0.003408 0.001431 0.000924
# 2 -0.004897 0.010894 -0.001283 0.000307 -0.004273 -0.003326
# 3 -0.002710 -0.001283 0.008193 0.002790 -0.001721 0.001477
# 4 -0.003408 0.000307 0.002790 0.034184 -0.000511 -0.001114
# 5 0.001431 -0.004273 -0.001721 -0.000511 0.026139 -0.001311
# 6 0.000924 -0.003326 0.001477 -0.001114 -0.001311 0.029265
#
#
# Mechanical properties :
#
#
# Convention : Reuss Voigt Hill
#
# Bulk Modulus (GPa) = 67.26405 72.47941 69.87173
# Shear Modulus (GPa) = 34.48948 38.42793 36.45870
#
# Velocity S-wave (km/s) = 3.95316 4.17277 4.06445
# Velocity P-wave (km/s) = 7.16342 7.48713 7.32706
#
# Compressibility (1/GPa) = 0.01486678
#
# Stress axis : x y z
#
# Youngs Moduli (GPa) = 73.74017 91.79662 122.05474
#
# Poissons Ratio (x) = 0.44953 0.33079
# Poissons Ratio (y) = 0.36111 0.15664
# Poissons Ratio (z) = 0.19985 0.11781
#
# Static dielectric constant tensor:
#      x y z
#    x 4.290460 0.179620 0.027450 
#    y 0.179620 4.396700 0.217590 
#    z 0.027450 0.217590 4.257520 
# 
# 
# High freq. dielectric constant tensor:
#      x y z
#    x 1.882330 0.006590 0.005950 
#    y 0.006590 1.871750 0.006090 
#    z 0.005950 0.006090 1.884690 
# 
# From -- ./inp_files/623198.got.cif
#   From: 2010.06.25/outbox.cif.g09.slc.cpg/sg2_312_cif.got.tgz:623198.got - 2010.06.27 13:26:56.
