data_PCOD8031925
_publ_section_title
;
Structure prediction by ZEFSAII (Michael W. Deem and Ramdas Pophale) SiO2 
 PCOD8031925
Probable space group: P -1
;
_chemical_formula_sum "Si O2"
_cell_formula_units_Z 16
_cell_length_a 11.150513
_cell_length_b 12.236643
_cell_length_c 11.215791
_cell_angle_alpha 78.225407
_cell_angle_beta 135.047895
_cell_angle_gamma 67.826186
_cell_volume 694.695162
_symmetry_space_group_name_H-M "P -1"
_symmetry_group_IT_number 2
_symmetry_cell_setting 'triclinic'
loop_
_space_group_symop_operation_xyz
x,y,z
-x,-y,-z
loop_
_atom_site_type_symbol
_atom_site_label
_atom_site_fract_x
_atom_site_fract_y
_atom_site_fract_z
Si Si1 0.194917 0.137307 0.272730
Si Si2 0.093427 0.938738 0.901567
Si Si3 0.464339 0.024023 0.108403
Si Si4 0.741780 0.092383 0.236579
Si Si5 0.160612 0.309120 0.427536
Si Si6 0.349771 0.473117 0.843431
Si Si7 0.964071 0.236220 0.835899
Si Si8 0.618411 0.571172 0.403250
O O1 0.098946 0.279557 0.265733
O O2 0.124236 0.046260 0.287906
O O3 0.500000 0.000000 0.500000
O O4 0.041717 0.236720 0.021765
O O5 0.204188 0.947042 0.859255
O O6 0.321213 0.757412 0.172037
O O7 0.969362 0.097822 0.860866
O O8 0.657521 0.029361 0.271824
O O9 0.562464 0.868010 0.285754
O O10 0.168631 0.190956 0.898416
O O11 0.500000 0.000000 0.000000
O O12 0.499739 0.292643 0.038367
O O13 0.000000 0.000000 0.500000
O O14 0.186547 0.429616 0.411242
O O15 0.943540 0.382931 0.352458
O O16 0.342566 0.480981 0.694698
O O17 0.500000 0.500000 0.000000
O O18 0.686337 0.426668 0.560797
#
# Coordination Sequence:
#
# PCOD8031925 Si02
#       8
#     2   2   2   2   2   2   2   2
#     4  12  26  48  72 100 140 193 242 290 351 414
#     4  11  24  48  69 102 144 180 237 298 350 420
#     4  12  20  39  67 101 134 177 229 276 353 413
#     4  11  23  38  67 104 138 181 225 285 356 422
#     4  12  23  44  67  99 150 184 229 297 344 419
#     4  11  23  40  63 103 145 181 228 294 354 416
#     4  12  25  44  75 102 139 194 234 289 350 425
#     4  11  24  45  70 106 140 184 235 287 364 417
#
# _framework density 23.031686000000001
#
# number of rings (size 3 to 8) (size 9 to 14) (size 15 to 20)
#    0.000    0.500    3.750    6.000    1.750    1.000 
#    0.000    0.000    0.000    0.000    0.000    0.000 
#    0.000    0.000    0.000    0.000    0.000    0.000 
#
# Total GULP energy -198372.061549 kJ/mol
# GULP energy per Si atom -12398.253847 kJ/mol
# Density = 2.297927 g / cm^3
# Si number density = 23.031686 Si / 1000 Ang^3
#
#
#
# Elastic Constant Matrix: (Units=GPa)
#
#
# Indices 1 2 3 4 5 6 
#
# 1 70.9592 35.3862 20.9161 0.4065 8.6062 0.2861
# 2 35.3862 152.9062 55.0642 17.2797 -12.6150 -3.2711
# 3 20.9161 55.0642 114.2039 -6.0188 -16.4837 3.3216
# 4 0.4065 17.2797 -6.0188 47.3420 6.7055 -5.2099
# 5 8.6062 -12.6150 -16.4837 6.7055 45.4223 9.4048
# 6 0.2861 -3.2711 3.3216 -5.2099 9.4048 38.3356
#
#
#
# Elastic Compliance Matrix: (Units=1/GPa)
#
#
# Indices 1 2 3 4 5 6 
#
# 1 0.017332 -0.003946 -0.002029 0.001992 -0.005695 0.001378
# 2 -0.003946 0.009485 -0.003685 -0.004288 0.002695 -0.000086
# 3 -0.002029 -0.003685 0.011599 0.002109 0.003655 -0.001915
# 4 0.001992 -0.004288 0.002109 0.024112 -0.005188 0.003986
# 5 -0.005695 0.002695 0.003655 -0.005188 0.027487 -0.007493
# 6 0.001378 -0.000086 -0.001915 0.003986 -0.007493 0.028614
#
#
# Mechanical properties :
#
#
# Convention : Reuss Voigt Hill
#
# Bulk Modulus (GPa) = 52.36539 62.31137 57.33838
# Shear Modulus (GPa) = 34.64632 41.33351 37.98991
#
# Velocity S-wave (km/s) = 3.88272 4.24091 4.06576
# Velocity P-wave (km/s) = 6.54877 7.14799 6.85493
#
# Compressibility (1/GPa) = 0.01909658
#
# Stress axis : x y z
#
# Youngs Moduli (GPa) = 57.69598 105.42559 86.21344
#
# Poissons Ratio (x) = 0.41600 0.17492
# Poissons Ratio (y) = 0.22766 0.31771
# Poissons Ratio (z) = 0.11706 0.38851
#
# Static dielectric constant tensor:
#      x y z
#    x 3.525200 -0.161410 0.326960 
#    y -0.161410 4.669090 0.488000 
#    z 0.326960 0.488000 4.553960 
# 
# 
# High freq. dielectric constant tensor:
#      x y z
#    x 1.917680 0.000780 0.009330 
#    y 0.000780 1.918710 0.008810 
#    z 0.009330 0.008810 1.912530 
# 
# From -- ./inp_files/285873.got.cif
#   From: 2010.06.25/outbox.cif.g09.slc.cpg/sg2_143_cif.got.tgz:285873.got - 2010.06.27 13:26:56.
