data_PCOD8031401
_publ_section_title
;
Structure prediction by ZEFSAII (Michael W. Deem and Ramdas Pophale) SiO2 
 PCOD8031401
Probable space group: P -1
;
_chemical_formula_sum "Si O2"
_cell_formula_units_Z 14
_cell_length_a 15.852853
_cell_length_b 12.805489
_cell_length_c 8.212649
_cell_angle_alpha 125.582455
_cell_angle_beta 116.697075
_cell_angle_gamma 27.612897
_cell_volume 618.647290
_symmetry_space_group_name_H-M "P -1"
_symmetry_group_IT_number 2
_symmetry_cell_setting 'triclinic'
loop_
_space_group_symop_operation_xyz
x,y,z
-x,-y,-z
loop_
_atom_site_type_symbol
_atom_site_label
_atom_site_fract_x
_atom_site_fract_y
_atom_site_fract_z
Si Si1 0.241817 0.834222 0.636399
Si Si2 0.864023 0.281977 0.135465
Si Si3 0.815875 0.335319 0.776486
Si Si4 0.294330 0.988558 0.594480
Si Si5 0.944484 0.451257 0.529160
Si Si6 0.623359 0.769245 0.778656
Si Si7 0.538565 0.529825 0.220830
O O1 0.276057 0.688157 0.391590
O O2 0.272631 0.944693 0.709116
O O3 0.394629 0.640460 0.731572
O O4 0.035609 0.060748 0.726990
O O5 0.956248 0.304851 0.303974
O O6 0.698567 0.448955 0.267999
O O7 0.766929 0.416611 0.996810
O O8 0.000000 0.000000 0.000000
O O9 0.753862 0.524837 0.778924
O O10 0.468323 0.878499 0.640571
O O11 0.341976 0.823234 0.354689
O O12 0.102347 0.277497 0.644996
O O13 0.752732 0.691321 0.684974
O O14 0.000000 0.500000 0.500000
O O15 0.500000 0.000000 0.000000
O O16 0.500000 0.500000 0.000000
#
# Coordination Sequence:
#
# PCOD8031401 Si02
#       7
#     2   2   2   2   2   2   2
#     4  11  22  43  73 108 150 189 238 312 382 453
#     4  12  24  45  74 110 152 192 245 322 385 445
#     4  11  23  43  75 106 146 194 249 304 380 455
#     4  12  26  47  75 104 152 193 252 309 380 456
#     4  12  29  53  76 109 155 205 259 321 385 454
#     4  12  29  52  75 105 150 207 264 312 372 464
#     4  12  24  40  70 118 154 186 241 309 395 455
#
# _framework density 22.630018
#
# number of rings (size 3 to 8) (size 9 to 14) (size 15 to 20)
#    0.000    0.286    5.714    3.000    4.000    3.429 
#    0.000    0.000    0.000    0.000    0.000    0.000 
#    0.000    0.000    0.000    0.000    0.000    0.000 
#
# Total GULP energy -173504.670377 kJ/mol
# GULP energy per Si atom -12393.190741 kJ/mol
# Density = 2.257851 g / cm^3
# Si number density = 22.630018 Si / 1000 Ang^3
#
#
#
# Elastic Constant Matrix: (Units=GPa)
#
#
# Indices 1 2 3 4 5 6 
#
# 1 160.5382 50.5380 32.2871 0.3325 -6.3934 3.2432
# 2 50.5380 107.8490 45.3568 -10.6258 0.9383 -13.9013
# 3 32.2871 45.3568 102.0876 -4.1743 -6.2888 6.9249
# 4 0.3325 -10.6258 -4.1743 37.5762 0.9171 -2.0351
# 5 -6.3934 0.9383 -6.2888 0.9171 32.2399 2.2928
# 6 3.2432 -13.9013 6.9249 -2.0351 2.2928 26.5194
#
#
#
# Elastic Compliance Matrix: (Units=1/GPa)
#
#
# Indices 1 2 3 4 5 6 
#
# 1 0.007717 -0.004037 -0.000374 -0.001472 0.001847 -0.003235
# 2 -0.004037 0.015819 -0.006537 0.004470 -0.003455 0.011134
# 3 -0.000374 -0.006537 0.013478 -0.000820 0.003284 -0.007247
# 4 -0.001472 0.004470 -0.000820 0.028114 -0.001741 0.005045
# 5 0.001847 -0.003455 0.003284 -0.001741 0.032590 -0.005846
# 6 -0.003235 0.011134 -0.007247 0.005045 -0.005846 0.046726
#
#
# Mechanical properties :
#
#
# Convention : Reuss Voigt Hill
#
# Bulk Modulus (GPa) = 66.14321 69.64873 67.89597
# Shear Modulus (GPa) = 29.17512 35.41995 32.29753
#
# Velocity S-wave (km/s) = 3.59447 3.96052 3.78193
# Velocity P-wave (km/s) = 6.82045 7.19432 7.00988
#
# Compressibility (1/GPa) = 0.01511871
#
# Stress axis : x y z
#
# Youngs Moduli (GPa) = 129.58299 63.21653 74.19297
#
# Poissons Ratio (x) = 0.25520 0.02775
# Poissons Ratio (y) = 0.52311 0.48498
# Poissons Ratio (z) = 0.04847 0.41323
#
# Static dielectric constant tensor:
#      x y z
#    x 4.508170 -0.347870 -0.186250 
#    y -0.347870 4.505430 0.141950 
#    z -0.186250 0.141950 4.326460 
# 
# 
# High freq. dielectric constant tensor:
#      x y z
#    x 1.906590 -0.013620 -0.013710 
#    y -0.013620 1.899530 -0.007820 
#    z -0.013710 -0.007820 1.885620 
# 
# From -- ./inp_files/257835.got.cif
#   From: 2010.06.25/outbox.cif.g09.slc.cpg/sg2_129_cif.got.tgz:257835.got - 2010.06.27 13:26:56.
