data_PCOD8031160
_publ_section_title
;
Structure prediction by ZEFSAII (Michael W. Deem and Ramdas Pophale) SiO2 
 PCOD8031160
Probable space group: P -1
;
_chemical_formula_sum "Si O2"
_cell_formula_units_Z 16
_cell_length_a 23.051430
_cell_length_b 14.264439
_cell_length_c 8.873829
_cell_angle_alpha 50.762146
_cell_angle_beta 30.828388
_cell_angle_gamma 30.466807
_cell_volume 690.122904
_symmetry_space_group_name_H-M "P -1"
_symmetry_group_IT_number 2
_symmetry_cell_setting 'triclinic'
loop_
_space_group_symop_operation_xyz
x,y,z
-x,-y,-z
loop_
_atom_site_type_symbol
_atom_site_label
_atom_site_fract_x
_atom_site_fract_y
_atom_site_fract_z
Si Si1 0.560552 0.071292 0.213479
Si Si2 0.644808 0.628164 0.383380
Si Si3 0.449410 0.920722 0.271775
Si Si4 0.970980 0.783979 0.479375
Si Si5 0.394040 0.355526 0.050362
Si Si6 0.965578 0.778158 0.135688
Si Si7 0.518850 0.475308 0.163640
Si Si8 0.930408 0.057035 0.766108
O O1 0.473963 0.259331 0.311297
O O2 0.448289 0.185327 0.191329
O O3 0.500000 0.000000 0.500000
O O4 0.788110 0.880074 0.871307
O O5 0.626077 0.506788 0.481703
O O6 0.564209 0.809707 0.282847
O O7 0.872243 0.449175 0.064668
O O8 0.227494 0.112135 0.607085
O O9 0.500000 0.000000 0.000000
O O10 0.511922 0.746505 0.217814
O O11 0.166031 0.562097 0.339416
O O12 0.965630 0.774496 0.321040
O O13 0.966590 0.928327 0.382092
O O14 0.508357 0.370424 0.855041
O O15 0.990790 0.887711 0.895517
O O16 0.500000 0.500000 0.000000
O O17 0.708060 0.261889 0.035179
O O18 0.000000 0.000000 0.500000
#
# Coordination Sequence:
#
# PCOD8031160 Si02
#       8
#     2   2   2   2   2   2   2   2
#     4  12  27  47  73 103 144 192 243 293 353 425
#     4  12  26  44  73 109 140 188 238 297 362 414
#     4  12  27  48  71 104 147 189 242 292 349 433
#     4  11  26  46  71 103 144 187 237 295 355 429
#     4  11  25  46  73 105 141 191 237 294 361 418
#     4  12  26  45  72 105 142 190 234 292 363 425
#     4  11  22  42  70 103 146 176 232 300 355 421
#     4  11  24  41  70 108 144 182 235 294 360 425
#
# _framework density 23.184273999999998
#
# number of rings (size 3 to 8) (size 9 to 14) (size 15 to 20)
#    0.000    0.500    5.000    2.625    3.500    3.500 
#    0.000    0.000    0.000    0.000    0.000    0.000 
#    0.000    0.000    0.000    0.000    0.000    0.000 
#
# Total GULP energy -198268.952344 kJ/mol
# GULP energy per Si atom -12391.809521 kJ/mol
# Density = 2.313151 g / cm^3
# Si number density = 23.184274 Si / 1000 Ang^3
#
#
#
# Elastic Constant Matrix: (Units=GPa)
#
#
# Indices 1 2 3 4 5 6 
#
# 1 50.7592 18.9317 15.0088 13.6609 4.5671 -4.9051
# 2 18.9317 101.7667 57.7874 4.3057 -17.0210 -22.5063
# 3 15.0088 57.7874 138.4776 15.4250 -7.7078 -6.7983
# 4 13.6609 4.3057 15.4250 46.7599 -0.8753 1.1164
# 5 4.5671 -17.0210 -7.7078 -0.8753 34.4218 6.6050
# 6 -4.9051 -22.5063 -6.7983 1.1164 6.6050 36.0196
#
#
#
# Elastic Compliance Matrix: (Units=1/GPa)
#
#
# Indices 1 2 3 4 5 6 
#
# 1 0.024015 -0.004777 -0.000124 -0.006686 -0.006049 0.001579
# 2 -0.004777 0.016696 -0.005934 0.001753 0.006171 0.007476
# 3 -0.000124 -0.005934 0.009899 -0.002651 -0.000444 -0.001693
# 4 -0.006686 0.001753 -0.002651 0.024125 0.002050 -0.001439
# 5 -0.006049 0.006171 -0.000444 0.002050 0.033483 -0.003255
# 6 0.001579 0.007476 -0.001693 -0.001439 -0.003255 0.032971
#
#
# Mechanical properties :
#
#
# Convention : Reuss Voigt Hill
#
# Bulk Modulus (GPa) = 34.55446 52.71768 43.63607
# Shear Modulus (GPa) = 28.98451 36.72530 32.85491
#
# Velocity S-wave (km/s) = 3.53962 3.98434 3.76855
# Velocity P-wave (km/s) = 5.62511 6.62982 6.14803
#
# Compressibility (1/GPa) = 0.02893983
#
# Stress axis : x y z
#
# Youngs Moduli (GPa) = 41.63980 59.89403 101.02364
#
# Poissons Ratio (x) = 0.28612 0.01251
# Poissons Ratio (y) = 0.19891 0.59951
# Poissons Ratio (z) = 0.00516 0.35543
#
# Static dielectric constant tensor:
#      x y z
#    x 4.153840 0.035430 0.199970 
#    y 0.035430 4.232790 0.163660 
#    z 0.199970 0.163660 4.520760 
# 
# 
# High freq. dielectric constant tensor:
#      x y z
#    x 1.919000 -0.011910 0.003930 
#    y -0.011910 1.934990 0.003150 
#    z 0.003930 0.003150 1.917860 
# 
# From -- ./inp_files/273107.got.cif
#   From: 2010.06.25/outbox.cif.g09.slc.cpg/sg2_137_cif.got.tgz:273107.got - 2010.06.27 13:26:56.
