data_PCOD8031068
_publ_section_title
;
Structure prediction by ZEFSAII (Michael W. Deem and Ramdas Pophale) SiO2 
 PCOD8031068
Probable space group: P -1
;
_chemical_formula_sum "Si O2"
_cell_formula_units_Z 16
_cell_length_a 15.492547
_cell_length_b 9.358964
_cell_length_c 20.420116
_cell_angle_alpha 36.007471
_cell_angle_beta 152.488769
_cell_angle_gamma 142.805205
_cell_volume 769.152181
_symmetry_space_group_name_H-M "P -1"
_symmetry_group_IT_number 2
_symmetry_cell_setting 'triclinic'
loop_
_space_group_symop_operation_xyz
x,y,z
-x,-y,-z
loop_
_atom_site_type_symbol
_atom_site_label
_atom_site_fract_x
_atom_site_fract_y
_atom_site_fract_z
Si Si1 0.055611 0.616881 0.901123
Si Si2 0.956960 0.394647 0.317726
Si Si3 0.148896 0.474744 0.666359
Si Si4 0.467143 0.283434 0.114623
Si Si5 0.699509 0.911452 0.165154
Si Si6 0.124017 0.284949 0.967897
Si Si7 0.300158 0.735207 0.150615
Si Si8 0.715819 0.845454 0.344932
O O1 0.140197 0.400306 0.008814
O O2 0.822229 0.494906 0.799753
O O3 0.107411 0.845406 0.798860
O O4 0.169513 0.731679 0.000453
O O5 0.965693 0.567725 0.325130
O O6 0.987164 0.580613 0.207553
O O7 0.129842 0.266890 0.474628
O O8 0.758113 0.151932 0.270595
O O9 0.329190 0.726660 0.710543
O O10 0.266069 0.269120 0.803864
O O11 0.000000 0.500000 0.500000
O O12 0.336115 0.011580 0.102961
O O13 0.500000 0.500000 0.000000
O O14 0.343411 0.346587 0.067408
O O15 0.714836 0.775884 0.293589
O O16 0.500000 0.000000 0.000000
O O17 0.000000 0.000000 0.000000
O O18 0.506457 0.692106 0.289725
#
# Coordination Sequence:
#
# PCOD8031068 Si02
#       8
#     2   2   2   2   2   2   2   2
#     4  11  24  40  63 102 135 175 228 281 346 409
#     4  11  24  41  68  97 136 178 231 288 347 411
#     4  12  25  42  69 106 141 177 230 299 349 407
#     4  12  23  41  69 100 131 178 232 285 340 402
#     4  12  23  39  70 102 130 177 234 284 337 410
#     4  12  24  42  67  99 135 177 230 285 342 416
#     4  11  23  41  63  96 137 175 217 288 342 407
#     4  11  22  42  65  95 133 176 226 285 348 405
#
# _framework density 20.802125
#
# number of rings (size 3 to 8) (size 9 to 14) (size 15 to 20)
#    0.000    0.500    7.500    1.500    0.000    0.000 
#    0.000    1.875    0.000    2.250    0.000    0.000 
#    0.000    0.000    0.000    0.000    0.000    0.000 
#
# Total GULP energy -198218.699176 kJ/mol
# GULP energy per Si atom -12388.668699 kJ/mol
# Density = 2.075478 g / cm^3
# Si number density = 20.802125 Si / 1000 Ang^3
#
#
#
# Elastic Constant Matrix: (Units=GPa)
#
#
# Indices 1 2 3 4 5 6 
#
# 1 115.6016 54.2636 29.3975 4.6728 15.3545 10.7722
# 2 54.2636 123.7190 43.8060 9.9877 6.7080 9.8503
# 3 29.3975 43.8060 96.8228 9.4408 -0.8925 11.4068
# 4 4.6728 9.9877 9.4408 32.6705 -1.9376 5.0255
# 5 15.3545 6.7080 -0.8925 -1.9376 29.9879 4.5230
# 6 10.7722 9.8503 11.4068 5.0255 4.5230 52.6476
#
#
#
# Elastic Compliance Matrix: (Units=1/GPa)
#
#
# Indices 1 2 3 4 5 6 
#
# 1 0.011807 -0.004269 -0.001593 -0.000093 -0.005019 -0.000832
# 2 -0.004269 0.011458 -0.003686 -0.001822 -0.000567 -0.000249
# 3 -0.001593 -0.003686 0.012901 -0.001972 0.002165 -0.001777
# 4 -0.000093 -0.001822 -0.001972 0.032310 0.002868 -0.002543
# 5 -0.005019 -0.000567 0.002165 0.002868 0.036710 -0.002764
# 6 -0.000832 -0.000249 -0.001777 -0.002543 -0.002764 0.020076
#
#
# Mechanical properties :
#
#
# Convention : Reuss Voigt Hill
#
# Bulk Modulus (GPa) = 58.57911 65.67527 62.12719
# Shear Modulus (GPa) = 33.32268 36.97296 35.14782
#
# Velocity S-wave (km/s) = 4.00670 4.22045 4.11497
# Velocity P-wave (km/s) = 7.04458 7.44242 7.24623
#
# Compressibility (1/GPa) = 0.01707093
#
# Stress axis : x y z
#
# Youngs Moduli (GPa) = 84.69488 87.27521 77.51326
#
# Poissons Ratio (x) = 0.37256 0.12345
# Poissons Ratio (y) = 0.36155 0.28572
# Poissons Ratio (z) = 0.13489 0.32170
#
# Static dielectric constant tensor:
#      x y z
#    x 4.306090 -0.085280 0.145790 
#    y -0.085280 4.057120 0.126170 
#    z 0.145790 0.126170 3.555440 
# 
# 
# High freq. dielectric constant tensor:
#      x y z
#    x 1.838560 -0.016010 0.015480 
#    y -0.016010 1.816530 0.012660 
#    z 0.015480 0.012660 1.785690 
# 
# From -- ./inp_files/597120.got.cif
#   From: 2010.06.25/outbox.cif.g09.slc.cpg/sg2_299_cif.got.tgz:597120.got - 2010.06.27 13:26:56.
