data_PCOD8031010
_publ_section_title
;
Structure prediction by ZEFSAII (Michael W. Deem and Ramdas Pophale) SiO2 
 PCOD8031010
Probable space group: P -1
;
_chemical_formula_sum "Si O2"
_cell_formula_units_Z 14
_cell_length_a 9.988576
_cell_length_b 9.479269
_cell_length_c 12.313203
_cell_angle_alpha 34.517072
_cell_angle_beta 131.808061
_cell_angle_gamma 124.186831
_cell_volume 492.210676
_symmetry_space_group_name_H-M "P -1"
_symmetry_group_IT_number 2
_symmetry_cell_setting 'triclinic'
loop_
_space_group_symop_operation_xyz
x,y,z
-x,-y,-z
loop_
_atom_site_type_symbol
_atom_site_label
_atom_site_fract_x
_atom_site_fract_y
_atom_site_fract_z
Si Si1 0.303235 0.828934 0.669299
Si Si2 0.471148 0.179130 0.005747
Si Si3 0.652830 0.322485 0.653088
Si Si4 0.838895 0.671089 0.738107
Si Si5 0.039339 0.373770 0.490092
Si Si6 0.813938 0.149461 0.079277
Si Si7 0.514606 0.288145 0.373168
O O1 0.439294 0.719576 0.898339
O O2 0.413695 0.881617 0.581197
O O3 0.138342 0.643663 0.670142
O O4 0.222604 0.084904 0.515410
O O5 0.625003 0.074610 0.077697
O O6 0.326721 0.939893 0.092089
O O7 0.383277 0.432939 0.754143
O O8 0.500000 0.500000 0.500000
O O9 0.828807 0.480157 0.612319
O O10 0.573489 0.183198 0.589656
O O11 0.701793 0.664324 0.773544
O O12 0.050882 0.697819 0.862031
O O13 0.797888 0.396833 0.827953
O O14 0.000000 0.500000 0.500000
O O15 0.091913 0.103718 0.736398
#
# Coordination Sequence:
#
# PCOD8031010 Si02
#       7
#     2   2   2   2   2   2   2
#     4  11  22  41  71  99 138 182 231 284 350 403
#     4  11  24  41  69 103 136 182 240 283 337 416
#     4  12  25  45  70 100 138 189 231 277 353 414
#     4   9  19  36  66  97 127 178 225 284 333 396
#     4  11  23  43  71 100 144 186 223 288 355 410
#     4   9  20  39  61 101 134 172 233 281 338 403
#     4  11  23  42  67 101 142 176 232 292 341 404
#
# _framework density 28.443104000000002
#
# number of rings (size 3 to 8) (size 9 to 14) (size 15 to 20)
#    0.000    1.429    4.286    0.857    0.000    4.000 
#    0.000    0.714    6.286    0.000    0.000    0.000 
#    0.000    0.000    0.000    0.000    0.000    0.000 
#
# Total GULP energy -173472.458363 kJ/mol
# GULP energy per Si atom -12390.889883 kJ/mol
# Density = 2.837837 g / cm^3
# Si number density = 28.443104 Si / 1000 Ang^3
#
#
#
# Elastic Constant Matrix: (Units=GPa)
#
#
# Indices 1 2 3 4 5 6 
#
# 1 132.7983 58.9504 35.3897 1.1520 -13.6525 14.2045
# 2 58.9504 176.8716 39.6124 -25.7163 -8.3437 13.5541
# 3 35.3897 39.6124 110.9146 -15.0490 -15.6559 3.2018
# 4 1.1520 -25.7163 -15.0490 45.9191 -6.3287 0.5173
# 5 -13.6525 -8.3437 -15.6559 -6.3287 40.7176 -7.8918
# 6 14.2045 13.5541 3.2018 0.5173 -7.8918 53.8799
#
#
#
# Elastic Compliance Matrix: (Units=1/GPa)
#
#
# Indices 1 2 3 4 5 6 
#
# 1 0.009711 -0.002933 -0.002174 -0.002423 0.001152 -0.001501
# 2 -0.002933 0.007573 -0.001110 0.004041 0.000572 -0.001021
# 3 -0.002174 -0.001110 0.011148 0.003635 0.004040 0.000747
# 4 -0.002423 0.004041 0.003635 0.026044 0.005452 -0.000045
# 5 0.001152 0.000572 0.004040 0.005452 0.028118 0.003379
# 6 -0.001501 -0.001021 0.000747 -0.000045 0.003379 0.019663
#
#
# Mechanical properties :
#
#
# Convention : Reuss Voigt Hill
#
# Bulk Modulus (GPa) = 62.50859 76.49881 69.50370
# Shear Modulus (GPa) = 41.65797 47.21213 44.43505
#
# Velocity S-wave (km/s) = 3.83117 4.07858 3.95681
# Velocity P-wave (km/s) = 6.44941 7.00953 6.73530
#
# Compressibility (1/GPa) = 0.01599780
#
# Stress axis : x y z
#
# Youngs Moduli (GPa) = 102.97079 132.05302 89.70267
#
# Poissons Ratio (x) = 0.38728 0.19502
# Poissons Ratio (y) = 0.30199 0.09960
# Poissons Ratio (z) = 0.22387 0.14662
#
# Static dielectric constant tensor:
#      x y z
#    x 5.080510 0.258700 -0.323660 
#    y 0.258700 6.304060 0.008270 
#    z -0.323660 0.008270 5.946160 
# 
# 
# High freq. dielectric constant tensor:
#      x y z
#    x 2.134870 0.010580 -0.013950 
#    y 0.010580 2.225060 -0.015620 
#    z -0.013950 -0.015620 2.173610 
# 
# From -- ./inp_files/498721.got.cif
#   From: 2010.06.25/outbox.cif.g09.slc.cpg/sg2_250_cif.got.tgz:498721.got - 2010.06.27 13:26:56.
