data_PCOD8031150
_publ_section_title
;
Structure prediction by ZEFSAII (Michael W. Deem and Ramdas Pophale) SiO2 
 PCOD8031150
Probable space group: P -1
;
_chemical_formula_sum "Si O2"
_cell_formula_units_Z 16
_cell_length_a 9.011098
_cell_length_b 16.456929
_cell_length_c 13.923886
_cell_angle_alpha 130.221685
_cell_angle_beta 151.994657
_cell_angle_gamma 51.551683
_cell_volume 732.575153
_symmetry_space_group_name_H-M "P -1"
_symmetry_group_IT_number 2
_symmetry_cell_setting 'triclinic'
loop_
_space_group_symop_operation_xyz
x,y,z
-x,-y,-z
loop_
_atom_site_type_symbol
_atom_site_label
_atom_site_fract_x
_atom_site_fract_y
_atom_site_fract_z
Si Si1 0.852094 0.726514 0.243234
Si Si2 0.102918 0.511032 0.954857
Si Si3 0.921618 0.240752 0.403625
Si Si4 0.685916 0.228715 0.617587
Si Si5 0.752812 0.598306 0.401073
Si Si6 0.221967 0.266212 0.095668
Si Si7 0.287955 0.106627 0.186107
Si Si8 0.235887 0.876378 0.947748
O O1 0.861148 0.599291 0.168218
O O2 0.908111 0.791958 0.422482
O O3 0.150674 0.725928 0.344827
O O4 0.527997 0.780015 0.049101
O O5 0.856782 0.604890 0.835538
O O6 0.437993 0.550977 0.156776
O O7 0.000000 0.500000 0.000000
O O8 0.540193 0.254232 0.205204
O O9 0.991028 0.149192 0.290557
O O10 0.066691 0.347662 0.539261
O O11 0.358824 0.309978 0.513241
O O12 0.568104 0.116745 0.432358
O O13 0.934196 0.216922 0.839192
O O14 0.000000 0.500000 0.500000
O O15 0.278925 0.203366 0.179489
O O16 0.946866 0.116774 0.050633
O O17 0.362208 0.990460 0.088199
#
# Coordination Sequence:
#
# PCOD8031150 Si02
#       8
#     2   2   2   2   2   2   2   2
#     4  12  25  44  70 102 139 180 225 276 349 401
#     4  11  22  42  69  99 139 182 219 278 336 402
#     4  12  25  43  66 103 137 180 227 283 338 405
#     4  11  23  44  69 100 140 177 225 282 336 407
#     4  11  23  39  69  98 142 181 223 279 333 401
#     4  11  24  44  70  99 140 175 230 279 333 416
#     4  11  26  47  73  99 128 191 222 282 358 392
#     4  11  26  48  70  98 142 168 235 293 330 412
#
# _framework density 21.840762999999999
#
# number of rings (size 3 to 8) (size 9 to 14) (size 15 to 20)
#    0.000    0.750    6.250    1.500    3.500    4.000 
#    0.000    2.500    0.000    0.000    0.000    0.000 
#    0.000    0.000    0.000    0.000    0.000    0.000 
#
# Total GULP energy -198255.382116 kJ/mol
# GULP energy per Si atom -12390.961382 kJ/mol
# Density = 2.179105 g / cm^3
# Si number density = 21.840763 Si / 1000 Ang^3
#
#
#
# Elastic Constant Matrix: (Units=GPa)
#
#
# Indices 1 2 3 4 5 6 
#
# 1 90.8734 24.5676 27.0473 -4.9688 1.3753 -0.8743
# 2 24.5676 83.9450 28.7832 13.3420 -3.9520 -0.1117
# 3 27.0473 28.7832 103.3182 16.3109 -9.9196 -3.4529
# 4 -4.9688 13.3420 16.3109 30.0715 -3.6564 -5.0926
# 5 1.3753 -3.9520 -9.9196 -3.6564 45.3615 6.9171
# 6 -0.8743 -0.1117 -3.4529 -5.0926 6.9171 20.6174
#
#
#
# Elastic Compliance Matrix: (Units=1/GPa)
#
#
# Indices 1 2 3 4 5 6 
#
# 1 0.013405 -0.003733 -0.003464 0.005908 -0.001297 0.001862
# 2 -0.003733 0.014775 -0.002147 -0.006296 0.000767 -0.002250
# 3 -0.003464 -0.002147 0.012346 -0.006108 0.002176 -0.000330
# 4 0.005908 -0.006296 -0.006108 0.041945 -0.000147 0.009603
# 5 -0.001297 0.000767 0.002176 -0.000147 0.023790 -0.007704
# 6 0.001862 -0.002250 -0.000330 0.009603 -0.007704 0.053471
#
#
# Mechanical properties :
#
#
# Convention : Reuss Voigt Hill
#
# Bulk Modulus (GPa) = 45.79130 48.77033 47.28081
# Shear Modulus (GPa) = 26.92533 32.39265 29.65899
#
# Velocity S-wave (km/s) = 3.51494 3.85532 3.68906
# Velocity P-wave (km/s) = 6.12246 6.49588 6.31193
#
# Compressibility (1/GPa) = 0.02183821
#
# Stress axis : x y z
#
# Youngs Moduli (GPa) = 74.59783 67.68299 80.99873
#
# Poissons Ratio (x) = 0.25266 0.28061
# Poissons Ratio (y) = 0.27847 0.17387
# Poissons Ratio (z) = 0.25843 0.14529
#
# Static dielectric constant tensor:
#      x y z
#    x 3.817700 0.035300 0.087120 
#    y 0.035300 3.817040 0.227370 
#    z 0.087120 0.227370 4.330790 
# 
# 
# High freq. dielectric constant tensor:
#      x y z
#    x 1.865350 -0.006540 0.013120 
#    y -0.006540 1.840470 0.015810 
#    z 0.013120 0.015810 1.869590 
# 
# From -- ./inp_files/505526.got.cif
#   From: 2010.06.25/outbox.cif.g09.slc.cpg/sg2_253_cif.got.tgz:505526.got - 2010.06.27 13:26:56.
