data_PCOD8031933
_publ_section_title
;
Structure prediction by ZEFSAII (Michael W. Deem and Ramdas Pophale) SiO2 
 PCOD8031933
Probable space group: P -1
;
_chemical_formula_sum "Si O2"
_cell_formula_units_Z 16
_cell_length_a 8.603152
_cell_length_b 9.151035
_cell_length_c 11.401306
_cell_angle_alpha 116.723426
_cell_angle_beta 115.791543
_cell_angle_gamma 63.378150
_cell_volume 685.372992
_symmetry_space_group_name_H-M "P -1"
_symmetry_group_IT_number 2
_symmetry_cell_setting 'triclinic'
loop_
_space_group_symop_operation_xyz
x,y,z
-x,-y,-z
loop_
_atom_site_type_symbol
_atom_site_label
_atom_site_fract_x
_atom_site_fract_y
_atom_site_fract_z
Si Si1 0.812764 0.970010 0.908217
Si Si2 0.839304 0.306096 0.639012
Si Si3 0.937180 0.592870 0.890065
Si Si4 0.475386 0.820349 0.950197
Si Si5 0.845512 0.983625 0.655976
Si Si6 0.669907 0.569960 0.090660
Si Si7 0.737954 0.170435 0.333382
Si Si8 0.254195 0.151498 0.649483
O O1 0.778339 0.955879 0.753346
O O2 0.817661 0.794515 0.918223
O O3 0.665475 0.139444 0.972502
O O4 0.000000 0.000000 0.000000
O O5 0.728821 0.310852 0.482968
O O6 0.812137 0.497048 0.746878
O O7 0.048466 0.219285 0.648059
O O8 0.785916 0.186791 0.676528
O O9 0.132423 0.572583 0.882569
O O10 0.000000 0.500000 0.000000
O O11 0.397866 0.743106 0.785591
O O12 0.660719 0.676979 0.003042
O O13 0.500000 0.000000 0.000000
O O14 0.739607 0.888801 0.501468
O O15 0.061888 0.902518 0.683211
O O16 0.644236 0.707699 0.239000
O O17 0.500000 0.500000 0.000000
O O18 0.663250 0.022343 0.310188
#
# Coordination Sequence:
#
# PCOD8031933 Si02
#       8
#     2   2   2   2   2   2   2   2
#     4  12  23  37  61  94 118 150 202 251 293 337
#     4   8  17  34  61  89 112 153 201 246 289 341
#     4  11  23  40  62  87 120 156 198 247 296 348
#     4  12  23  38  63  86 120 160 200 237 288 368
#     4   9  17  34  61  89 114 146 204 256 281 335
#     4  11  23  39  56  89 123 157 191 238 307 349
#     4   9  16  34  62  88 111 155 207 240 278 354
#     4   8  16  34  58  85 115 158 196 235 290 358
#
# _framework density 23.344951999999999
#
# number of rings (size 3 to 8) (size 9 to 14) (size 15 to 20)
#    0.000    2.000    2.500    3.750    1.750    0.000 
#    2.250    2.500    2.750    1.500    0.000    0.000 
#    0.000    0.000    0.000    0.000    0.000    0.000 
#
# Total GULP energy -198264.550868 kJ/mol
# GULP energy per Si atom -12391.534429 kJ/mol
# Density = 2.329182 g / cm^3
# Si number density = 23.344952 Si / 1000 Ang^3
#
#
#
# Elastic Constant Matrix: (Units=GPa)
#
#
# Indices 1 2 3 4 5 6 
#
# 1 28.0219 0.7664 14.3882 0.6958 3.8195 4.4435
# 2 0.7664 77.0864 36.6822 -0.6058 2.4479 3.5206
# 3 14.3882 36.6822 175.0283 -3.3080 6.4382 9.2032
# 4 0.6958 -0.6058 -3.3080 42.6336 13.7750 4.2639
# 5 3.8195 2.4479 6.4382 13.7750 32.6903 -1.7811
# 6 4.4435 3.5206 9.2032 4.2639 -1.7811 34.1086
#
#
#
# Elastic Compliance Matrix: (Units=1/GPa)
#
#
# Indices 1 2 3 4 5 6 
#
# 1 0.038575 0.001433 -0.003024 0.001174 -0.004772 -0.004753
# 2 0.001433 0.014490 -0.003069 0.000305 -0.000828 -0.000936
# 3 -0.003024 -0.003069 0.006741 0.001069 -0.001266 -0.001308
# 4 0.001174 0.000305 0.001069 0.027999 -0.012420 -0.004621
# 5 -0.004772 -0.000828 -0.001266 -0.012420 0.036940 0.004530
# 6 -0.004753 -0.000936 -0.001308 -0.004621 0.004530 0.031201
#
#
# Mechanical properties :
#
#
# Convention : Reuss Voigt Hill
#
# Bulk Modulus (GPa) = 19.80740 42.64558 31.22649
# Shear Modulus (GPa) = 27.45838 37.10648 32.28243
#
# Velocity S-wave (km/s) = 3.43330 3.99116 3.72270
# Velocity P-wave (km/s) = 4.92136 6.28859 5.64651
#
# Compressibility (1/GPa) = 0.05048619
#
# Stress axis : x y z
#
# Youngs Moduli (GPa) = 25.92361 69.01249 148.35254
#
# Poissons Ratio (x) = -0.09891 0.44858
# Poissons Ratio (y) = -0.03715 0.45533
# Poissons Ratio (z) = 0.07839 0.21182
#
# Static dielectric constant tensor:
#      x y z
#    x 3.730830 -0.106060 0.432500 
#    y -0.106060 4.690310 0.096060 
#    z 0.432500 0.096060 4.749610 
# 
# 
# High freq. dielectric constant tensor:
#      x y z
#    x 1.906580 0.003370 0.007330 
#    y 0.003370 1.902340 0.000560 
#    z 0.007330 0.000560 1.939700 
# 
# From -- ./inp_files/380078.got.cif
#   From: 2010.06.25/outbox.cif.g09.slc.cpg/sg2_191_cif.got.tgz:380078.got - 2010.06.27 13:26:56.
