data_PCOD8031616
_publ_section_title
;
Structure prediction by ZEFSAII (Michael W. Deem and Ramdas Pophale) SiO2 
 PCOD8031616
Probable space group: P -1
;
_chemical_formula_sum "Si O2"
_cell_formula_units_Z 14
_cell_length_a 20.318910
_cell_length_b 14.016174
_cell_length_c 12.277724
_cell_angle_alpha 139.358641
_cell_angle_beta 152.658243
_cell_angle_gamma 23.580922
_cell_volume 612.668676
_symmetry_space_group_name_H-M "P -1"
_symmetry_group_IT_number 2
_symmetry_cell_setting 'triclinic'
loop_
_space_group_symop_operation_xyz
x,y,z
-x,-y,-z
loop_
_atom_site_type_symbol
_atom_site_label
_atom_site_fract_x
_atom_site_fract_y
_atom_site_fract_z
Si Si1 0.746584 0.699733 0.102625
Si Si2 0.437622 0.858142 0.372563
Si Si3 0.878659 0.141497 0.554221
Si Si4 0.169869 0.478258 0.169584
Si Si5 0.608828 0.610928 0.011889
Si Si6 0.276692 0.310457 0.559488
Si Si7 0.744039 0.275008 0.090302
O O1 0.989970 0.590232 0.398313
O O2 0.787979 0.602736 0.960816
O O3 0.739216 0.570954 0.064657
O O4 0.500000 0.000000 0.000000
O O5 0.570644 0.733749 0.574680
O O6 0.626666 0.683578 0.398530
O O7 0.286097 0.132630 0.386420
O O8 0.254514 0.875808 0.106587
O O9 0.927652 0.273677 0.759761
O O10 0.601661 0.317197 0.284696
O O11 0.000000 0.000000 0.500000
O O12 0.009231 0.934506 0.658015
O O13 0.000000 0.500000 0.000000
O O14 0.553327 0.792172 0.172832
O O15 0.777708 0.373975 0.135576
O O16 0.500000 0.500000 0.000000
#
# Coordination Sequence:
#
# PCOD8031616 Si02
#       7
#     2   2   2   2   2   2   2
#     4  12  29  47  75 111 154 203 251 309 384 447
#     4  11  22  44  76 107 143 187 257 316 364 438
#     4  12  26  45  77 112 150 194 254 313 375 445
#     4  12  26  47  77 109 148 194 258 310 367 449
#     4  12  27  46  71 105 152 195 247 303 382 446
#     4  11  24  45  73 107 147 194 251 310 373 445
#     4  12  23  44  70 106 147 192 244 308 376 442
#
# _framework density 22.850850999999999
#
# number of rings (size 3 to 8) (size 9 to 14) (size 15 to 20)
#    0.000    0.286    5.714    2.143    8.000    0.571 
#    0.000    1.429    0.000    0.000    0.000    0.000 
#    0.000    0.000    0.000    0.000    0.000    0.000 
#
# Total GULP energy -173467.295132 kJ/mol
# GULP energy per Si atom -12390.521081 kJ/mol
# Density = 2.279884 g / cm^3
# Si number density = 22.850851 Si / 1000 Ang^3
#
#
#
# Elastic Constant Matrix: (Units=GPa)
#
#
# Indices 1 2 3 4 5 6 
#
# 1 174.4883 54.2116 54.0138 8.8347 -21.8563 14.1061
# 2 54.2116 103.1828 45.0692 8.3039 3.3131 8.1448
# 3 54.0138 45.0692 138.1482 8.0072 -16.0303 4.8097
# 4 8.8347 8.3039 8.0072 49.5742 7.3186 -7.8379
# 5 -21.8563 3.3131 -16.0303 7.3186 39.0025 -1.2528
# 6 14.1061 8.1448 4.8097 -7.8379 -1.2528 31.1501
#
#
#
# Elastic Compliance Matrix: (Units=1/GPa)
#
#
# Indices 1 2 3 4 5 6 
#
# 1 0.008098 -0.003463 -0.001309 -0.001767 0.004535 -0.002822
# 2 -0.003463 0.013333 -0.003405 -0.000692 -0.004399 -0.001743
# 3 -0.001309 -0.003405 0.009362 -0.001266 0.003636 -0.000135
# 4 -0.001767 -0.000692 -0.001266 0.022671 -0.005492 0.006660
# 5 0.004535 -0.004399 0.003636 -0.005492 0.031028 -0.001599
# 6 -0.002822 -0.001743 -0.000135 0.006660 -0.001599 0.035469
#
#
# Mechanical properties :
#
#
# Convention : Reuss Voigt Hill
#
# Bulk Modulus (GPa) = 69.26876 80.26760 74.76818
# Shear Modulus (GPa) = 35.42859 41.44700 38.43779
#
# Velocity S-wave (km/s) = 3.94182 4.26350 4.10581
# Velocity P-wave (km/s) = 7.14818 7.70971 7.43425
#
# Compressibility (1/GPa) = 0.01443652
#
# Stress axis : x y z
#
# Youngs Moduli (GPa) = 123.48644 75.00107 106.81978
#
# Poissons Ratio (x) = 0.25976 0.13987
# Poissons Ratio (y) = 0.42768 0.36375
# Poissons Ratio (z) = 0.16170 0.25540
#
# Static dielectric constant tensor:
#      x y z
#    x 4.198240 0.142220 -0.210850 
#    y 0.142220 4.177510 0.116710 
#    z -0.210850 0.116710 4.291100 
# 
# 
# High freq. dielectric constant tensor:
#      x y z
#    x 1.901160 0.021390 -0.014280 
#    y 0.021390 1.890560 0.018260 
#    z -0.014280 0.018260 1.927370 
# 
# From -- ./inp_files/244949.got.cif
#   From: 2010.06.25/outbox.cif.g09.slc.cpg/sg2_123_cif.got.tgz:244949.got - 2010.06.27 13:26:56.
