data_PCOD8031286
_publ_section_title
;
Structure prediction by ZEFSAII (Michael W. Deem and Ramdas Pophale) SiO2 
 PCOD8031286
Probable space group: P -1
;
_chemical_formula_sum "Si O2"
_cell_formula_units_Z 14
_cell_length_a 22.014245
_cell_length_b 9.317500
_cell_length_c 14.805249
_cell_angle_alpha 130.346852
_cell_angle_beta 29.901736
_cell_angle_gamma 149.143102
_cell_volume 718.721001
_symmetry_space_group_name_H-M "P -1"
_symmetry_group_IT_number 2
_symmetry_cell_setting 'triclinic'
loop_
_space_group_symop_operation_xyz
x,y,z
-x,-y,-z
loop_
_atom_site_type_symbol
_atom_site_label
_atom_site_fract_x
_atom_site_fract_y
_atom_site_fract_z
Si Si1 0.035933 0.204428 0.463980
Si Si2 0.568608 0.140956 0.566606
Si Si3 0.536241 0.368385 0.964469
Si Si4 0.325686 0.774729 0.902340
Si Si5 0.424919 0.280440 0.426718
Si Si6 0.650223 0.667969 0.648679
Si Si7 0.096535 0.648623 0.676370
O O1 0.241721 0.429065 0.241735
O O2 0.024381 0.392063 0.602279
O O3 0.000000 0.000000 0.500000
O O4 0.873933 0.999130 0.511102
O O5 0.623281 0.424115 0.618368
O O6 0.760317 0.252730 0.389583
O O7 0.500000 0.000000 0.500000
O O8 0.392319 0.887400 0.759426
O O9 0.397446 0.030368 0.976995
O O10 0.500000 0.500000 0.000000
O O11 0.489955 0.367085 0.126374
O O12 0.417966 0.692392 0.785650
O O13 0.090472 0.478334 0.088247
O O14 0.500000 0.500000 0.500000
O O15 0.404461 0.383672 0.406556
O O16 0.212342 0.939546 0.585197
#
# Coordination Sequence:
#
# PCOD8031286 Si02
#       7
#     2   2   2   2   2   2   2
#     4  12  20  38  66 100 134 159 207 276 334 387
#     4  11  23  41  65  97 131 177 221 266 320 389
#     4  12  20  38  66 100 134 159 207 276 334 387
#     4  11  22  43  68  92 132 173 214 276 330 377
#     4  11  27  49  63  89 139 183 223 263 310 394
#     4  12  24  38  70  98 130 174 217 266 336 385
#     4  11  22  43  68  92 132 173 214 276 330 377
#
# _framework density 19.479046
#
# number of rings (size 3 to 8) (size 9 to 14) (size 15 to 20)
#    0.000    0.571    8.571    1.714    0.000    3.429 
#    0.000    2.857    0.000    0.000    0.000    0.000 
#    0.000    0.000    0.000    0.000    0.000    0.000 
#
# Total GULP energy -173664.629608 kJ/mol
# GULP energy per Si atom -12404.616401 kJ/mol
# Density = 1.943471 g / cm^3
# Si number density = 19.479046 Si / 1000 Ang^3
#
#
#
# Elastic Constant Matrix: (Units=GPa)
#
#
# Indices 1 2 3 4 5 6 
#
# 1 96.1438 4.8288 32.7330 -5.6907 3.9675 9.1020
# 2 4.8288 62.8924 22.1296 5.0478 0.5457 4.2136
# 3 32.7330 22.1296 155.2224 -30.5203 -8.0067 4.9572
# 4 -5.6907 5.0478 -30.5203 20.6461 1.3755 2.7971
# 5 3.9675 0.5457 -8.0067 1.3755 26.0299 4.0795
# 6 9.1020 4.2136 4.9572 2.7971 4.0795 38.3784
#
#
#
# Elastic Compliance Matrix: (Units=1/GPa)
#
#
# Indices 1 2 3 4 5 6 
#
# 1 0.011543 0.000186 -0.002538 -0.000174 -0.002192 -0.002184
# 2 0.000186 0.018674 -0.005094 -0.011900 -0.001290 -0.000432
# 3 -0.002538 -0.005094 0.011354 0.017367 0.003371 -0.001929
# 4 -0.000174 -0.011900 0.017367 0.077724 0.002582 -0.006835
# 5 -0.002192 -0.001290 0.003371 0.002582 0.040345 -0.004251
# 6 -0.002184 -0.000432 -0.001929 -0.006835 -0.004251 0.027821
#
#
# Mechanical properties :
#
#
# Convention : Reuss Voigt Hill
#
# Bulk Modulus (GPa) = 37.48371 48.18239 42.83305
# Shear Modulus (GPa) = 23.66912 33.98202 28.82557
#
# Velocity S-wave (km/s) = 3.48962 4.18130 3.85102
# Velocity P-wave (km/s) = 5.95999 6.93543 6.46613
#
# Compressibility (1/GPa) = 0.02667826
#
# Stress axis : x y z
#
# Youngs Moduli (GPa) = 86.63351 53.55155 88.07345
#
# Poissons Ratio (x) = -0.00997 0.22356
# Poissons Ratio (y) = -0.01613 0.44866
# Poissons Ratio (z) = 0.21990 0.27280
#
# Static dielectric constant tensor:
#      x y z
#    x 3.326840 -0.055420 -0.078590 
#    y -0.055420 3.797410 -0.042740 
#    z -0.078590 -0.042740 3.925070 
# 
# 
# High freq. dielectric constant tensor:
#      x y z
#    x 1.747470 -0.000500 -0.002280 
#    y -0.000500 1.770690 0.000260 
#    z -0.002280 0.000260 1.768350 
# 
# From -- ./inp_files/251410.got.cif
#   From: 2010.06.25/outbox.cif.g09.slc.cpg/sg2_126_cif.got.tgz:251410.got - 2010.06.27 13:26:56.
