data_PCOD8031004
_publ_section_title
;
Structure prediction by ZEFSAII (Michael W. Deem and Ramdas Pophale) SiO2 
 PCOD8031004
Probable space group: P -1
;
_chemical_formula_sum "Si O2"
_cell_formula_units_Z 16
_cell_length_a 19.883524
_cell_length_b 9.093622
_cell_length_c 20.295030
_cell_angle_alpha 141.415942
_cell_angle_beta 20.134726
_cell_angle_gamma 141.095593
_cell_volume 770.866483
_symmetry_space_group_name_H-M "P -1"
_symmetry_group_IT_number 2
_symmetry_cell_setting 'triclinic'
loop_
_space_group_symop_operation_xyz
x,y,z
-x,-y,-z
loop_
_atom_site_type_symbol
_atom_site_label
_atom_site_fract_x
_atom_site_fract_y
_atom_site_fract_z
Si Si1 0.044609 0.912107 0.764977
Si Si2 0.914049 0.575805 0.039186
Si Si3 0.959781 0.120829 0.399105
Si Si4 0.823999 0.626463 0.374151
Si Si5 0.399054 0.777802 0.469006
Si Si6 0.606748 0.799403 0.159729
Si Si7 0.328455 0.535729 0.218644
Si Si8 0.532071 0.301428 0.349082
O O1 0.055481 0.949721 0.689740
O O2 0.222835 0.795249 0.586031
O O3 0.825416 0.751904 0.925130
O O4 0.080238 0.144587 0.860844
O O5 0.689488 0.416894 0.187514
O O6 0.000000 0.500000 0.000000
O O7 0.048766 0.536199 0.839242
O O8 0.782865 0.254636 0.629911
O O9 0.170377 0.287425 0.282488
O O10 0.964957 0.880554 0.355172
O O11 0.687428 0.463244 0.495477
O O12 0.682181 0.765991 0.510641
O O13 0.581304 0.751713 0.244591
O O14 0.500000 0.000000 0.500000
O O15 0.434365 0.607752 0.215990
O O16 0.595711 0.074905 0.246608
O O17 0.500000 0.500000 0.000000
O O18 0.500000 0.500000 0.500000
#
# Coordination Sequence:
#
# PCOD8031004 Si02
#       8
#     2   2   2   2   2   2   2   2
#     4  12  22  41  65  95 131 172 212 258 323 380
#     4  12  21  33  62  95 126 160 212 265 310 372
#     4  11  22  41  71  96 122 158 221 280 320 371
#     4  12  24  40  60  95 130 173 211 258 317 383
#     4  12  27  42  60  92 143 182 207 246 312 401
#     4  12  23  41  66  94 127 168 210 269 322 376
#     4  11  23  41  70 102 118 154 219 287 332 361
#     4  12  20  36  63  91 123 160 214 266 315 372
#
# _framework density 20.755863000000002
#
# number of rings (size 3 to 8) (size 9 to 14) (size 15 to 20)
#    0.000    0.250    7.500    3.000    0.000    3.000 
#    0.000    0.625    0.000    1.500    0.000    0.000 
#    0.000    0.000    0.000    0.000    0.000    0.000 
#
# Total GULP energy -198216.376652 kJ/mol
# GULP energy per Si atom -12388.523541 kJ/mol
# Density = 2.070862 g / cm^3
# Si number density = 20.755863 Si / 1000 Ang^3
#
#
#
# Elastic Constant Matrix: (Units=GPa)
#
#
# Indices 1 2 3 4 5 6 
#
# 1 61.8327 38.9234 21.1379 -16.3332 7.5954 9.9433
# 2 38.9234 147.3330 35.9137 -17.5890 14.8562 6.4565
# 3 21.1379 35.9137 120.4973 -23.5330 10.9179 1.8227
# 4 -16.3332 -17.5890 -23.5330 33.1293 1.3071 5.1107
# 5 7.5954 14.8562 10.9179 1.3071 29.7038 -8.8717
# 6 9.9433 6.4565 1.8227 5.1107 -8.8717 30.3098
#
#
#
# Elastic Compliance Matrix: (Units=1/GPa)
#
#
# Indices 1 2 3 4 5 6 
#
# 1 0.024746 -0.003678 0.000180 0.012571 -0.008695 -0.012010
# 2 -0.003678 0.008813 -0.001102 0.002567 -0.003819 -0.002155
# 3 0.000180 -0.001102 0.010561 0.007669 -0.004644 -0.003112
# 4 0.012571 0.002567 0.007669 0.046419 -0.014498 -0.017202
# 5 -0.008695 -0.003819 -0.004644 -0.014498 0.046081 0.019878
# 6 -0.012010 -0.002155 -0.003112 -0.017202 0.019878 0.046298
#
#
# Mechanical properties :
#
#
# Convention : Reuss Voigt Hill
#
# Bulk Modulus (GPa) = 28.63529 57.95700 43.29615
# Shear Modulus (GPa) = 24.53880 34.20778 29.37329
#
# Velocity S-wave (km/s) = 3.44213 4.06409 3.76597
# Velocity P-wave (km/s) = 5.44278 7.07151 6.30992
#
# Compressibility (1/GPa) = 0.03492194
#
# Stress axis : x y z
#
# Youngs Moduli (GPa) = 40.40983 113.46238 94.68479
#
# Poissons Ratio (x) = 0.41727 -0.01701
# Poissons Ratio (y) = 0.14861 0.10432
# Poissons Ratio (z) = -0.00726 0.12500
#
# Static dielectric constant tensor:
#      x y z
#    x 4.719790 0.478560 1.085200 
#    y 0.478560 3.789560 0.120880 
#    z 1.085200 0.120880 4.706590 
# 
# 
# High freq. dielectric constant tensor:
#      x y z
#    x 1.776710 0.018400 -0.004470 
#    y 0.018400 1.815400 -0.020170 
#    z -0.004470 -0.020170 1.836520 
# 
# From -- ./inp_files/270810.got.cif
#   From: 2010.06.25/outbox.cif.g09.slc.cpg/sg2_136_cif.got.tgz:270810.got - 2010.06.27 13:26:56.
