data_PCOD8031059
_publ_section_title
;
Structure prediction by ZEFSAII (Michael W. Deem and Ramdas Pophale) SiO2 
 PCOD8031059
Probable space group: P -1
;
_chemical_formula_sum "Si O2"
_cell_formula_units_Z 16
_cell_length_a 17.630764
_cell_length_b 6.526355
_cell_length_c 8.776127
_cell_angle_alpha 74.224823
_cell_angle_beta 104.144349
_cell_angle_gamma 58.073808
_cell_volume 725.705891
_symmetry_space_group_name_H-M "P -1"
_symmetry_group_IT_number 2
_symmetry_cell_setting 'triclinic'
loop_
_space_group_symop_operation_xyz
x,y,z
-x,-y,-z
loop_
_atom_site_type_symbol
_atom_site_label
_atom_site_fract_x
_atom_site_fract_y
_atom_site_fract_z
Si Si1 0.101104 0.280200 0.187728
Si Si2 0.100040 0.910990 0.491769
Si Si3 0.401723 0.310439 0.440017
Si Si4 0.250677 0.896979 0.761987
Si Si5 0.285521 0.896396 0.131783
Si Si6 0.784727 0.632421 0.543079
Si Si7 0.454379 0.349978 0.990198
Si Si8 0.548030 0.064749 0.799122
O O1 0.135681 0.422223 0.278435
O O2 0.072511 0.132520 0.308299
O O3 0.190551 0.049291 0.166113
O O4 0.000000 0.500000 0.000000
O O5 0.154078 0.929524 0.657427
O O6 0.161900 0.615060 0.501394
O O7 0.000000 0.000000 0.500000
O O8 0.363433 0.564790 0.259653
O O9 0.307217 0.322158 0.424748
O O10 0.448866 0.335322 0.611066
O O11 0.500000 0.000000 0.500000
O O12 0.341706 0.580835 0.826009
O O13 0.261580 0.092297 0.630160
O O14 0.246611 0.960281 0.926275
O O15 0.346481 0.007026 0.181328
O O16 0.534856 0.111003 0.962417
O O17 0.500000 0.500000 0.000000
O O18 0.446797 0.204782 0.164329
#
# Coordination Sequence:
#
# PCOD8031059 Si02
#       8
#     2   2   2   2   2   2   2   2
#     4  11  28  49  74 105 146 183 237 305 364 431
#     4  11  27  49  76 102 138 190 241 299 366 425
#     4  12  25  44  72 102 150 195 234 293 361 427
#     4  11  26  42  73 102 145 181 245 293 349 433
#     4  12  26  46  68 113 146 189 243 298 365 431
#     4  11  26  49  72 107 143 190 242 291 360 438
#     4  11  22  42  65 104 138 190 240 287 340 420
#     4  11  25  39  69  99 145 189 239 289 353 417
#
# _framework density 22.047499999999999
#
# number of rings (size 3 to 8) (size 9 to 14) (size 15 to 20)
#    0.000    0.750    2.500    3.375   10.500    2.500 
#    0.000    0.000    0.000    0.000    0.000    0.000 
#    0.000    0.000    0.000    0.000    0.000    0.000 
#
# Total GULP energy -198260.413543 kJ/mol
# GULP energy per Si atom -12391.275846 kJ/mol
# Density = 2.199732 g / cm^3
# Si number density = 22.047500 Si / 1000 Ang^3
#
#
#
# Elastic Constant Matrix: (Units=GPa)
#
#
# Indices 1 2 3 4 5 6 
#
# 1 166.5489 39.6305 53.7633 -9.9014 -4.8276 8.6025
# 2 39.6305 87.7669 27.5833 -2.7830 -4.3196 1.5143
# 3 53.7633 27.5833 143.6579 -7.1892 9.6684 16.9914
# 4 -9.9014 -2.7830 -7.1892 35.1805 -0.7131 0.3743
# 5 -4.8276 -4.3196 9.6684 -0.7131 26.4488 -2.0498
# 6 8.6025 1.5143 16.9914 0.3743 -2.0498 36.7706
#
#
#
# Elastic Compliance Matrix: (Units=1/GPa)
#
#
# Indices 1 2 3 4 5 6 
#
# 1 0.007519 -0.002522 -0.002318 0.001485 0.001809 -0.000498
# 2 -0.002522 0.013229 -0.001888 -0.000010 0.002472 0.001056
# 3 -0.002318 -0.001888 0.008975 0.000986 -0.004278 -0.003776
# 4 0.001485 -0.000010 0.000986 0.029067 0.000610 -0.001064
# 5 0.001809 0.002472 -0.004278 0.000610 0.040410 0.003698
# 6 -0.000498 0.001056 -0.003776 -0.001064 0.003698 0.029230
#
#
# Mechanical properties :
#
#
# Convention : Reuss Voigt Hill
#
# Bulk Modulus (GPa) = 61.47509 71.10310 66.28909
# Shear Modulus (GPa) = 33.94219 38.14642 36.04430
#
# Velocity S-wave (km/s) = 3.92791 4.16407 4.04771
# Velocity P-wave (km/s) = 6.96526 7.44576 7.20951
#
# Compressibility (1/GPa) = 0.01626675
#
# Stress axis : x y z
#
# Youngs Moduli (GPa) = 132.99338 75.59130 111.42113
#
# Poissons Ratio (x) = 0.19063 0.25831
# Poissons Ratio (y) = 0.33539 0.21036
# Poissons Ratio (z) = 0.30832 0.14272
#
# Static dielectric constant tensor:
#      x y z
#    x 4.164490 0.255050 -0.091910 
#    y 0.255050 3.896710 0.314380 
#    z -0.091910 0.314380 4.426240 
# 
# 
# High freq. dielectric constant tensor:
#      x y z
#    x 1.880770 0.009040 -0.007280 
#    y 0.009040 1.875080 0.003960 
#    z -0.007280 0.003960 1.883140 
# 
# From -- ./inp_files/323461.got.cif
#   From: 2010.06.25/outbox.cif.g09.slc.cpg/sg2_162_cif.got.tgz:323461.got - 2010.06.27 13:26:56.
