data_PCOD8031891
_publ_section_title
;
Structure prediction by ZEFSAII (Michael W. Deem and Ramdas Pophale) SiO2 
 PCOD8031891
Probable space group: P -1
;
_chemical_formula_sum "Si O2"
_cell_formula_units_Z 14
_cell_length_a 19.868866
_cell_length_b 22.197017
_cell_length_c 12.339198
_cell_angle_alpha 22.844291
_cell_angle_beta 156.680795
_cell_angle_gamma 161.925723
_cell_volume 613.872663
_symmetry_space_group_name_H-M "P -1"
_symmetry_group_IT_number 2
_symmetry_cell_setting 'triclinic'
loop_
_space_group_symop_operation_xyz
x,y,z
-x,-y,-z
loop_
_atom_site_type_symbol
_atom_site_label
_atom_site_fract_x
_atom_site_fract_y
_atom_site_fract_z
Si Si1 0.796764 0.164577 0.600640
Si Si2 0.250618 0.269707 0.612525
Si Si3 0.237223 0.494575 0.043141
Si Si4 0.465594 0.073305 0.594404
Si Si5 0.011180 0.147568 0.685122
Si Si6 0.723738 0.532562 0.282135
Si Si7 0.806865 0.077113 0.996832
O O1 0.707169 0.078141 0.732241
O O2 0.069874 0.287101 0.793083
O O3 0.647123 0.964739 0.628360
O O4 0.770469 0.326167 0.256878
O O5 0.199873 0.404382 0.259401
O O6 0.520373 0.415091 0.796290
O O7 0.107730 0.152671 0.704356
O O8 0.168218 0.092519 0.693633
O O9 0.047001 0.311470 0.983549
O O10 0.653903 0.315744 0.507616
O O11 0.613075 0.004048 0.921604
O O12 0.246435 0.940383 0.572267
O O13 0.172831 0.385033 0.579614
O O14 0.000000 0.000000 0.000000
O O15 0.500000 0.500000 0.000000
#
# Coordination Sequence:
#
# PCOD8031891 Si02
#       7
#     2   2   2   2   2   2   2
#     4  11  24  39  68 103 133 171 224 281 328 388
#     4  11  26  46  68  96 140 178 219 275 331 404
#     4  11  25  44  68  99 135 179 221 269 340 393
#     4  11  23  40  62  99 134 167 215 281 334 381
#     4  11  24  41  66  97 133 173 223 272 331 389
#     4  11  23  37  63  97 138 168 217 277 334 390
#     4  12  24  40  73 100 131 171 229 279 326 392
#
# _framework density 22.806032999999999
#
# number of rings (size 3 to 8) (size 9 to 14) (size 15 to 20)
#    0.000    0.857    4.286    3.000    4.000    0.000 
#    0.000    3.571    0.000    0.000    0.000    0.000 
#    0.000    0.000    0.000    0.000    0.000    0.000 
#
# Total GULP energy -173529.735769 kJ/mol
# GULP energy per Si atom -12394.981126 kJ/mol
# Density = 2.275413 g / cm^3
# Si number density = 22.806033 Si / 1000 Ang^3
#
#
#
# Elastic Constant Matrix: (Units=GPa)
#
#
# Indices 1 2 3 4 5 6 
#
# 1 117.2443 41.1912 30.4242 -2.2451 19.9498 15.1368
# 2 41.1912 123.6522 3.5216 -2.0343 11.3312 -22.6589
# 3 30.4242 3.5216 71.7499 -14.7097 4.5128 8.9479
# 4 -2.2451 -2.0343 -14.7097 26.9337 4.2797 4.1517
# 5 19.9498 11.3312 4.5128 4.2797 33.5388 1.7031
# 6 15.1368 -22.6589 8.9479 4.1517 1.7031 47.0020
#
#
#
# Elastic Compliance Matrix: (Units=1/GPa)
#
#
# Indices 1 2 3 4 5 6 
#
# 1 0.012851 -0.004671 -0.004197 0.000093 -0.005238 -0.005410
# 2 -0.004671 0.010979 0.000690 -0.000002 -0.001364 0.006715
# 3 -0.004197 0.000690 0.018203 0.010267 -0.001362 -0.002639
# 4 0.000093 -0.000002 0.010267 0.044708 -0.006852 -0.005686
# 5 -0.005238 -0.001364 -0.001362 -0.006852 0.034418 0.000647
# 6 -0.005410 0.006715 -0.002639 -0.005686 0.000647 0.027236
#
#
# Mechanical properties :
#
#
# Convention : Reuss Voigt Hill
#
# Bulk Modulus (GPa) = 38.94631 51.43560 45.19096
# Shear Modulus (GPa) = 28.85002 37.32888 33.08945
#
# Velocity S-wave (km/s) = 3.56057 4.05013 3.81321
# Velocity P-wave (km/s) = 5.83248 6.66887 6.26465
#
# Compressibility (1/GPa) = 0.02567637
#
# Stress axis : x y z
#
# Youngs Moduli (GPa) = 77.81565 91.08117 54.93732
#
# Poissons Ratio (x) = 0.42546 0.23056
# Poissons Ratio (y) = 0.36349 -0.03790
# Poissons Ratio (z) = 0.32658 -0.06283
#
# Static dielectric constant tensor:
#      x y z
#    x 4.162830 -0.051930 0.450500 
#    y -0.051930 4.603060 0.118850 
#    z 0.450500 0.118850 3.936270 
# 
# 
# High freq. dielectric constant tensor:
#      x y z
#    x 1.892660 -0.004380 0.039680 
#    y -0.004380 1.927600 0.014400 
#    z 0.039680 0.014400 1.872890 
# 
# From -- ./inp_files/467062.got.cif
#   From: 2010.06.25/outbox.cif.g09.slc.cpg/sg2_234_cif.got.tgz:467062.got - 2010.06.27 13:26:56.
