data_PCOD8031602
_publ_section_title
;
Structure prediction by ZEFSAII (Michael W. Deem and Ramdas Pophale) SiO2 
 PCOD8031602
Probable space group: P -1
;
_chemical_formula_sum "Si O2"
_cell_formula_units_Z 16
_cell_length_a 15.110478
_cell_length_b 12.352353
_cell_length_c 15.803501
_cell_angle_alpha 36.792502
_cell_angle_beta 152.360547
_cell_angle_gamma 124.101074
_cell_volume 692.171399
_symmetry_space_group_name_H-M "P -1"
_symmetry_group_IT_number 2
_symmetry_cell_setting 'triclinic'
loop_
_space_group_symop_operation_xyz
x,y,z
-x,-y,-z
loop_
_atom_site_type_symbol
_atom_site_label
_atom_site_fract_x
_atom_site_fract_y
_atom_site_fract_z
Si Si1 0.225733 0.503239 0.282283
Si Si2 0.889872 0.052627 0.120840
Si Si3 0.034077 0.827859 0.205721
Si Si4 0.457815 0.448029 0.183446
Si Si5 0.490254 0.074409 0.850641
Si Si6 0.399879 0.165238 0.182189
Si Si7 0.720543 0.667094 0.750361
Si Si8 0.323225 0.863142 0.716825
O O1 0.364795 0.332890 0.580888
O O2 0.293522 0.369525 0.337067
O O3 0.275711 0.692875 0.200302
O O4 0.963369 0.619785 0.010489
O O5 0.741724 0.970967 0.090196
O O6 0.001944 0.923732 0.211735
O O7 0.086430 0.019484 0.371260
O O8 0.285108 0.618906 0.542465
O O9 0.865486 0.746424 0.098774
O O10 0.000000 0.000000 0.000000
O O11 0.453103 0.260229 0.248362
O O12 0.336191 0.482295 0.149348
O O13 0.319248 0.668690 0.877228
O O14 0.346748 0.004408 0.718899
O O15 0.500000 0.000000 0.000000
O O16 0.469541 0.235356 0.112022
O O17 0.534513 0.910441 0.462404
#
# Coordination Sequence:
#
# PCOD8031602 Si02
#       8
#     2   2   2   2   2   2   2   2
#     4  11  23  46  74 101 138 189 238 288 358 416
#     4  12  26  48  78 102 143 193 234 294 355 421
#     4  12  26  43  75 110 142 183 238 295 352 419
#     4  12  28  42  74 106 143 190 236 292 359 419
#     4  12  29  48  71 108 145 184 237 298 352 424
#     4  12  23  48  71 103 145 184 239 291 346 428
#     4  11  22  44  74 105 136 188 240 293 342 425
#     4  12  26  49  69 104 147 184 238 287 361 421
#
# _framework density 23.115660999999999
#
# number of rings (size 3 to 8) (size 9 to 14) (size 15 to 20)
#    0.000    0.250    6.250    1.875    5.250    3.000 
#    0.000    0.000    0.000    0.000    0.000    0.000 
#    0.000    0.000    0.000    0.000    0.000    0.000 
#
# Total GULP energy -198526.807093 kJ/mol
# GULP energy per Si atom -12407.925443 kJ/mol
# Density = 2.306305 g / cm^3
# Si number density = 23.115661 Si / 1000 Ang^3
#
#
#
# Elastic Constant Matrix: (Units=GPa)
#
#
# Indices 1 2 3 4 5 6 
#
# 1 145.5767 31.7847 44.6901 2.7765 -24.0846 16.2543
# 2 31.7847 65.9970 29.1535 16.3047 7.8344 15.9574
# 3 44.6901 29.1535 94.4980 4.7598 -17.0501 6.8949
# 4 2.7765 16.3047 4.7598 41.3942 5.4046 -5.1990
# 5 -24.0846 7.8344 -17.0501 5.4046 32.5840 -5.0825
# 6 16.2543 15.9574 6.8949 -5.1990 -5.0825 31.3848
#
#
#
# Elastic Compliance Matrix: (Units=1/GPa)
#
#
# Indices 1 2 3 4 5 6 
#
# 1 0.009710 -0.004471 -0.001869 0.000258 0.007051 -0.001160
# 2 -0.004471 0.028452 -0.007785 -0.009893 -0.014837 -0.014482
# 3 -0.001869 -0.007785 0.015196 0.000687 0.008816 0.003129
# 4 0.000258 -0.009893 0.000687 0.029210 -0.000432 0.009514
# 5 0.007051 -0.014837 0.008816 -0.000432 0.045599 0.009269
# 6 -0.001160 -0.014482 0.003129 0.009514 0.009269 0.042216
#
#
# Mechanical properties :
#
#
# Convention : Reuss Voigt Hill
#
# Bulk Modulus (GPa) = 39.82981 57.48091 48.65536
# Shear Modulus (GPa) = 24.15426 34.43549 29.29488
#
# Velocity S-wave (km/s) = 3.23605 3.86386 3.56380
# Velocity P-wave (km/s) = 5.58844 6.69526 6.16673
#
# Compressibility (1/GPa) = 0.02510683
#
# Stress axis : x y z
#
# Youngs Moduli (GPa) = 102.98306 35.14742 65.80814
#
# Poissons Ratio (x) = 0.15715 0.12300
# Poissons Ratio (y) = 0.46045 0.51233
# Poissons Ratio (z) = 0.19248 0.27363
#
# Static dielectric constant tensor:
#      x y z
#    x 4.387830 0.193020 0.011820 
#    y 0.193020 4.051590 0.150740 
#    z 0.011820 0.150740 4.197080 
# 
# 
# High freq. dielectric constant tensor:
#      x y z
#    x 1.929820 0.011860 0.000070 
#    y 0.011860 1.910630 0.010540 
#    z 0.000070 0.010540 1.913890 
# 
# From -- ./inp_files/532332.got.cif
#   From: 2010.06.25/outbox.cif.g09.slc.cpg/sg2_267_cif.got.tgz:532332.got - 2010.06.27 13:26:56.
