data_PCOD8031077
_publ_section_title
;
Structure prediction by ZEFSAII (Michael W. Deem and Ramdas Pophale) SiO2 
 PCOD8031077
Probable space group: P -1
;
_chemical_formula_sum "Si O2"
_cell_formula_units_Z 16
_cell_length_a 8.617993
_cell_length_b 9.026592
_cell_length_c 12.740009
_cell_angle_alpha 48.935747
_cell_angle_beta 85.082848
_cell_angle_gamma 85.442340
_cell_volume 744.128578
_symmetry_space_group_name_H-M "P -1"
_symmetry_group_IT_number 2
_symmetry_cell_setting 'triclinic'
loop_
_space_group_symop_operation_xyz
x,y,z
-x,-y,-z
loop_
_atom_site_type_symbol
_atom_site_label
_atom_site_fract_x
_atom_site_fract_y
_atom_site_fract_z
Si Si1 0.728737 0.148942 0.172044
Si Si2 0.233442 0.757618 0.431624
Si Si3 0.030762 0.600399 0.699239
Si Si4 0.451634 0.134053 0.538188
Si Si5 0.267035 0.523476 0.329839
Si Si6 0.750692 0.568649 0.068444
Si Si7 0.067104 0.153333 0.215818
Si Si8 0.549596 0.200159 0.953582
O O1 0.696539 0.359920 0.127969
O O2 0.909698 0.082644 0.202307
O O3 0.620715 0.994296 0.306531
O O4 0.687040 0.157425 0.048201
O O5 0.400643 0.754612 0.478173
O O6 0.235030 0.597398 0.414604
O O7 0.101600 0.703062 0.546499
O O8 0.192883 0.974896 0.288828
O O9 0.890770 0.465139 0.734003
O O10 0.970312 0.775194 0.697643
O O11 0.159336 0.458054 0.813947
O O12 0.325970 0.297571 0.431848
O O13 0.500000 0.000000 0.500000
O O14 0.394510 0.657621 0.207065
O O15 0.598672 0.704970 0.023925
O O16 0.866681 0.661483 0.935173
O O17 0.500000 0.000000 0.000000
#
# Coordination Sequence:
#
# PCOD8031077 Si02
#       8
#     2   2   2   2   2   2   2   2
#     4  11  23  41  65  93 123 163 210 260 309 366
#     4  12  25  42  63  94 129 166 207 257 314 373
#     4  11  23  42  66  92 124 166 210 259 310 369
#     4  12  24  42  66  94 125 166 212 260 310 369
#     4  12  25  43  64  93 129 168 207 256 313 372
#     4  11  23  42  66  93 124 163 210 261 310 366
#     4  11  22  42  66  94 125 163 210 261 310 369
#     4  12  25  42  63  93 129 167 206 254 312 374
#
# _framework density 21.501660999999999
#
# number of rings (size 3 to 8) (size 9 to 14) (size 15 to 20)
#    0.000    0.500    0.000   11.250    0.000    2.000 
#    0.000    2.500    0.000    0.000    0.000    0.000 
#    0.000    0.000    0.000    0.000    0.000    0.000 
#
# Total GULP energy -198551.200457 kJ/mol
# GULP energy per Si atom -12409.450029 kJ/mol
# Density = 2.145272 g / cm^3
# Si number density = 21.501661 Si / 1000 Ang^3
#
#
#
# Elastic Constant Matrix: (Units=GPa)
#
#
# Indices 1 2 3 4 5 6 
#
# 1 98.3755 38.2251 24.6431 9.2775 -1.5283 17.3337
# 2 38.2251 109.3597 48.6311 11.0514 0.6423 16.4359
# 3 24.6431 48.6311 110.5996 -0.1788 -5.5870 -7.4358
# 4 9.2775 11.0514 -0.1788 34.4894 7.9622 4.8077
# 5 -1.5283 0.6423 -5.5870 7.9622 38.4477 11.3702
# 6 17.3337 16.4359 -7.4358 4.8077 11.3702 29.1167
#
#
#
# Elastic Compliance Matrix: (Units=1/GPa)
#
#
# Indices 1 2 3 4 5 6 
#
# 1 0.013321 -0.002109 -0.002435 -0.002507 0.003148 -0.008177
# 2 -0.002109 0.014314 -0.006311 -0.003307 0.002010 -0.008675
# 3 -0.002435 -0.006311 0.012877 0.001800 -0.000972 0.008383
# 4 -0.002507 -0.003307 0.001800 0.032142 -0.006782 0.001160
# 5 0.003148 0.002010 -0.000972 -0.006782 0.031652 -0.014497
# 6 -0.008177 -0.008675 0.008383 0.001160 -0.014497 0.051720
#
#
# Mechanical properties :
#
#
# Convention : Reuss Voigt Hill
#
# Bulk Modulus (GPa) = 53.19109 60.14817 56.66963
# Shear Modulus (GPa) = 27.17353 34.19979 30.68666
#
# Velocity S-wave (km/s) = 3.55884 3.99252 3.78190
# Velocity P-wave (km/s) = 6.45592 7.02054 6.74414
#
# Compressibility (1/GPa) = 0.01880014
#
# Stress axis : x y z
#
# Youngs Moduli (GPa) = 75.07014 69.86171 77.66017
#
# Poissons Ratio (x) = 0.14737 0.18913
# Poissons Ratio (y) = 0.15835 0.49011
# Poissons Ratio (z) = 0.18282 0.44089
#
# Static dielectric constant tensor:
#      x y z
#    x 4.143200 0.093230 0.063350 
#    y 0.093230 3.853420 0.119070 
#    z 0.063350 0.119070 4.051170 
# 
# 
# High freq. dielectric constant tensor:
#      x y z
#    x 1.860970 0.006040 -0.001730 
#    y 0.006040 1.842520 0.000870 
#    z -0.001730 0.000870 1.859320 
# 
# From -- ./inp_files/158693.got.cif
#   From: 2010.06.25/outbox.cif.g09.slc.cpg/sg2_80_cif.got.tgz:158693.got - 2010.06.27 13:26:56.
