data_PCOD8031840
_publ_section_title
;
Structure prediction by ZEFSAII (Michael W. Deem and Ramdas Pophale) SiO2 
 PCOD8031840
Probable space group: P -1
;
_chemical_formula_sum "Si O2"
_cell_formula_units_Z 14
_cell_length_a 16.373319
_cell_length_b 13.630184
_cell_length_c 8.203987
_cell_angle_alpha 56.561774
_cell_angle_beta 132.581182
_cell_angle_gamma 154.580405
_cell_volume 568.118982
_symmetry_space_group_name_H-M "P -1"
_symmetry_group_IT_number 2
_symmetry_cell_setting 'triclinic'
loop_
_space_group_symop_operation_xyz
x,y,z
-x,-y,-z
loop_
_atom_site_type_symbol
_atom_site_label
_atom_site_fract_x
_atom_site_fract_y
_atom_site_fract_z
Si Si1 0.675620 0.754620 0.455936
Si Si2 0.277790 0.058986 0.949646
Si Si3 0.492861 0.823906 0.282843
Si Si4 0.034379 0.128361 0.060851
Si Si5 0.206259 0.691519 0.766692
Si Si6 0.068556 0.401283 0.313099
Si Si7 0.770962 0.495813 0.229365
O O1 0.500000 0.500000 0.500000
O O2 0.686005 0.790175 0.245753
O O3 0.630055 0.830522 0.430648
O O4 0.893618 0.881451 0.676981
O O5 0.516934 0.224966 0.157506
O O6 0.181173 0.999980 0.051688
O O7 0.113209 0.823563 0.842520
O O8 0.299585 0.630551 0.328221
O O9 0.672159 0.082782 0.350267
O O10 0.390864 0.774485 0.020143
O O11 0.205133 0.379974 0.987488
O O12 0.000000 0.000000 0.000000
O O13 0.105072 0.512352 0.653727
O O14 0.030055 0.564729 0.785901
O O15 0.118697 0.367537 0.573620
#
# Coordination Sequence:
#
# PCOD8031840 Si02
#       7
#     2   2   2   2   2   2   2
#     4  12  22  46  72 102 145 190 238 298 356 427
#     4  12  25  49  74 104 147 193 238 295 366 426
#     4  11  24  43  73 107 142 194 244 294 363 427
#     4  12  29  47  75 107 146 188 245 301 358 436
#     4  11  22  47  71 104 152 183 244 304 351 430
#     4  12  26  44  79 107 145 194 240 292 370 430
#     4  12  27  48  72 113 146 188 243 300 358 434
#
# _framework density 24.642727000000001
#
# number of rings (size 3 to 8) (size 9 to 14) (size 15 to 20)
#    0.000    0.286    4.286    4.714    2.000    3.429 
#    0.000    0.000    0.000    0.000    0.000    0.000 
#    0.000    0.000    0.000    0.000    0.000    0.000 
#
# Total GULP energy -173529.077092 kJ/mol
# GULP energy per Si atom -12394.934078 kJ/mol
# Density = 2.458664 g / cm^3
# Si number density = 24.642727 Si / 1000 Ang^3
#
#
#
# Elastic Constant Matrix: (Units=GPa)
#
#
# Indices 1 2 3 4 5 6 
#
# 1 161.0223 67.9243 18.6491 3.1322 4.3042 4.0884
# 2 67.9243 129.6873 8.2290 -11.1074 1.7784 3.0387
# 3 18.6491 8.2290 53.7659 -7.6001 10.2450 -2.4405
# 4 3.1322 -11.1074 -7.6001 35.2215 -4.3820 6.7916
# 5 4.3042 1.7784 10.2450 -4.3820 40.2207 3.5877
# 6 4.0884 3.0387 -2.4405 6.7916 3.5877 45.1166
#
#
#
# Elastic Compliance Matrix: (Units=1/GPa)
#
#
# Indices 1 2 3 4 5 6 
#
# 1 0.008474 -0.004501 -0.002582 -0.002740 -0.000334 -0.000165
# 2 -0.004501 0.010400 0.000411 0.003997 0.000434 -0.000907
# 3 -0.002582 0.000411 0.020961 0.004080 -0.004735 0.001102
# 4 -0.002740 0.003997 0.004080 0.032090 0.003008 -0.004870
# 5 -0.000334 0.000434 -0.004735 0.003008 0.026665 -0.002828
# 6 -0.000165 -0.000907 0.001102 -0.004870 -0.002828 0.023258
#
#
# Mechanical properties :
#
#
# Convention : Reuss Voigt Hill
#
# Bulk Modulus (GPa) = 37.74823 59.34227 48.54525
# Shear Modulus (GPa) = 34.71679 40.75664 37.73672
#
# Velocity S-wave (km/s) = 3.75748 4.07123 3.91750
# Velocity P-wave (km/s) = 5.84605 6.79950 6.34072
#
# Compressibility (1/GPa) = 0.02649131
#
# Stress axis : x y z
#
# Youngs Moduli (GPa) = 118.00324 96.15575 47.70812
#
# Poissons Ratio (x) = 0.43278 0.12317
# Poissons Ratio (y) = 0.53112 -0.01959
# Poissons Ratio (z) = 0.30465 -0.03949
#
# Static dielectric constant tensor:
#      x y z
#    x 4.611400 -0.120660 0.071180 
#    y -0.120660 4.845680 -0.016100 
#    z 0.071180 -0.016100 4.268770 
# 
# 
# High freq. dielectric constant tensor:
#      x y z
#    x 1.987910 0.008090 0.011200 
#    y 0.008090 1.981420 0.004180 
#    z 0.011200 0.004180 1.988530 
# 
# From -- ./inp_files/296956.got.cif
#   From: 2010.06.25/outbox.cif.g09.slc.cpg/sg2_149_cif.got.tgz:296956.got - 2010.06.27 13:26:56.
