data_PCOD8031271
_publ_section_title
;
Structure prediction by ZEFSAII (Michael W. Deem and Ramdas Pophale) SiO2 
 PCOD8031271
Probable space group: P -1
;
_chemical_formula_sum "Si O2"
_cell_formula_units_Z 16
_cell_length_a 11.713646
_cell_length_b 9.199510
_cell_length_c 18.008334
_cell_angle_alpha 29.835938
_cell_angle_beta 125.849062
_cell_angle_gamma 124.338229
_cell_volume 774.978711
_symmetry_space_group_name_H-M "P -1"
_symmetry_group_IT_number 2
_symmetry_cell_setting 'triclinic'
loop_
_space_group_symop_operation_xyz
x,y,z
-x,-y,-z
loop_
_atom_site_type_symbol
_atom_site_label
_atom_site_fract_x
_atom_site_fract_y
_atom_site_fract_z
Si Si1 0.004387 0.802830 0.268582
Si Si2 0.155745 0.268897 0.615039
Si Si3 0.628868 0.415904 0.633768
Si Si4 0.225205 0.402015 0.849718
Si Si5 0.469849 0.639299 0.073040
Si Si6 0.838408 0.972576 0.427816
Si Si7 0.456930 0.302535 0.762925
Si Si8 0.749994 0.843314 0.877300
O O1 0.931288 0.888719 0.278999
O O2 0.888184 0.758940 0.179211
O O3 0.071589 0.505278 0.438655
O O4 0.124639 0.067368 0.173711
O O5 0.175595 0.027081 0.667187
O O6 0.311641 0.428111 0.629106
O O7 0.500000 0.500000 0.500000
O O8 0.760094 0.674952 0.566482
O O9 0.581781 0.373851 0.719495
O O10 0.674962 0.121456 0.748465
O O11 0.379082 0.317182 0.929153
O O12 0.232390 0.753681 0.689939
O O13 0.181862 0.290985 0.965140
O O14 0.486337 0.542416 0.207633
O O15 0.364823 0.395946 0.098530
O O16 0.410709 0.951405 0.910445
O O17 0.000000 0.000000 0.500000
#
# Coordination Sequence:
#
# PCOD8031271 Si02
#       8
#     2   2   2   2   2   2   2   2
#     4  11  24  43  67  96 134 178 216 267 335 395
#     4  11  22  43  67  90 137 176 209 272 331 388
#     4  12  23  41  68  96 133 171 220 272 323 388
#     4  12  23  44  68  98 134 175 221 269 331 395
#     4  11  25  42  68  98 131 174 222 271 337 386
#     4  12  24  41  64 101 131 172 219 266 326 387
#     4  11  23  45  67  96 133 176 218 274 332 391
#     4  12  24  43  67 102 130 172 226 273 324 393
#
# _framework density 20.645728999999999
#
# number of rings (size 3 to 8) (size 9 to 14) (size 15 to 20)
#    0.000    0.500    6.250    2.250    0.000    1.000 
#    0.000    4.375    0.000    0.000    0.000    0.000 
#    0.000    0.000    0.000    0.000    0.000    0.000 
#
# Total GULP energy -198484.936537 kJ/mol
# GULP energy per Si atom -12405.308534 kJ/mol
# Density = 2.059874 g / cm^3
# Si number density = 20.645729 Si / 1000 Ang^3
#
#
#
# Elastic Constant Matrix: (Units=GPa)
#
#
# Indices 1 2 3 4 5 6 
#
# 1 123.4417 37.2849 20.5976 6.0617 -32.1705 7.7908
# 2 37.2849 92.2714 44.1325 19.6678 -15.7979 18.1939
# 3 20.5976 44.1325 66.8099 3.2044 -14.4853 8.4490
# 4 6.0617 19.6678 3.2044 34.3109 -7.3168 0.4002
# 5 -32.1705 -15.7979 -14.4853 -7.3168 38.2534 5.3368
# 6 7.7908 18.1939 8.4490 0.4002 5.3368 36.5791
#
#
#
# Elastic Compliance Matrix: (Units=1/GPa)
#
#
# Indices 1 2 3 4 5 6 
#
# 1 0.011444 -0.003434 0.000948 0.001856 0.009244 -0.002317
# 2 -0.003434 0.021553 -0.011620 -0.010443 0.000632 -0.007283
# 3 0.000948 -0.011620 0.023502 0.005604 0.006082 -0.000800
# 4 0.001856 -0.010443 0.005604 0.035500 0.005845 0.002263
# 5 0.009244 0.000632 0.006082 0.005845 0.038912 -0.009429
# 6 -0.002317 -0.007283 -0.000800 0.002263 -0.009429 0.032989
#
#
# Mechanical properties :
#
#
# Convention : Reuss Voigt Hill
#
# Bulk Modulus (GPa) = 35.35034 54.06145 44.70590
# Shear Modulus (GPa) = 24.80886 33.86253 29.33569
#
# Velocity S-wave (km/s) = 3.47024 4.05430 3.77358
# Velocity P-wave (km/s) = 5.76335 6.93964 6.37867
#
# Compressibility (1/GPa) = 0.02828827
#
# Stress axis : x y z
#
# Youngs Moduli (GPa) = 87.38149 46.39760 42.54963
#
# Poissons Ratio (x) = 0.15933 -0.04035
# Poissons Ratio (y) = 0.30007 0.49441
# Poissons Ratio (z) = -0.08287 0.53912
#
# Static dielectric constant tensor:
#      x y z
#    x 3.933260 -0.109520 0.181920 
#    y -0.109520 3.771390 0.095720 
#    z 0.181920 0.095720 3.554140 
# 
# 
# High freq. dielectric constant tensor:
#      x y z
#    x 1.822360 -0.003290 0.000910 
#    y -0.003290 1.807750 0.017870 
#    z 0.000910 0.017870 1.809900 
# 
# From -- ./inp_files/186721.got.cif
#   From: 2010.06.25/outbox.cif.g09.slc.cpg/sg2_94_cif.got.tgz:186721.got - 2010.06.27 13:26:56.
