data_PCOD8031642
_publ_section_title
;
Structure prediction by ZEFSAII (Michael W. Deem and Ramdas Pophale) SiO2 
 PCOD8031642
Probable space group: P -1
;
_chemical_formula_sum "Si O2"
_cell_formula_units_Z 16
_cell_length_a 11.507665
_cell_length_b 18.201855
_cell_length_c 8.727497
_cell_angle_alpha 132.478882
_cell_angle_beta 97.368975
_cell_angle_gamma 45.400628
_cell_volume 722.307010
_symmetry_space_group_name_H-M "P -1"
_symmetry_group_IT_number 2
_symmetry_cell_setting 'triclinic'
loop_
_space_group_symop_operation_xyz
x,y,z
-x,-y,-z
loop_
_atom_site_type_symbol
_atom_site_label
_atom_site_fract_x
_atom_site_fract_y
_atom_site_fract_z
Si Si1 0.373491 0.077969 0.927270
Si Si2 0.556478 0.650972 0.522518
Si Si3 0.026462 0.762960 0.984808
Si Si4 0.886157 0.453798 0.786090
Si Si5 0.940893 0.857441 0.458869
Si Si6 0.266064 0.317044 0.626240
Si Si7 0.479199 0.207770 0.994535
Si Si8 0.906060 0.057387 0.235008
O O1 0.132775 0.203971 0.075837
O O2 0.512158 0.899597 0.599502
O O3 0.354253 0.196095 0.002469
O O4 0.500000 0.000000 0.000000
O O5 0.697736 0.632139 0.432378
O O6 0.440883 0.788068 0.838856
O O7 0.356355 0.750031 0.532013
O O8 0.725547 0.443648 0.303937
O O9 0.999714 0.786581 0.196457
O O10 0.988129 0.896013 0.090414
O O11 0.682946 0.599925 0.844813
O O12 0.944033 0.300098 0.625207
O O13 0.090650 0.359538 0.604531
O O14 0.820411 0.563285 0.075781
O O15 0.016228 0.913472 0.594636
O O16 0.682110 0.034544 0.679596
O O17 0.000000 0.000000 0.000000
#
# Coordination Sequence:
#
# PCOD8031642 Si02
#       8
#     2   2   2   2   2   2   2   2
#     4  12  24  42  74 106 147 186 229 291 360 423
#     4  12  26  47  73 108 139 190 243 293 352 424
#     4  12  28  47  77 102 142 191 239 290 362 427
#     4  11  26  42  71 108 150 180 235 293 351 432
#     4  12  27  49  71 105 144 191 238 294 359 417
#     4  11  22  45  68 104 149 183 226 293 355 418
#     4  12  26  41  74 108 144 189 232 289 361 428
#     4  12  28  51  74 103 142 184 247 310 346 410
#
# _framework density 22.151243999999998
#
# number of rings (size 3 to 8) (size 9 to 14) (size 15 to 20)
#    0.000    0.250    6.250    1.875    5.250    4.000 
#    0.000    0.000    0.000    0.000    0.000    0.000 
#    0.000    0.000    0.000    0.000    0.000    0.000 
#
# Total GULP energy -198456.879125 kJ/mol
# GULP energy per Si atom -12403.554945 kJ/mol
# Density = 2.210083 g / cm^3
# Si number density = 22.151244 Si / 1000 Ang^3
#
#
#
# Elastic Constant Matrix: (Units=GPa)
#
#
# Indices 1 2 3 4 5 6 
#
# 1 129.9844 50.9208 20.1086 8.9337 6.6443 4.2753
# 2 50.9208 101.2209 24.8078 26.1492 5.6001 8.4791
# 3 20.1086 24.8078 112.4564 37.1334 13.4034 8.8896
# 4 8.9337 26.1492 37.1334 59.8645 9.3581 12.6244
# 5 6.6443 5.6001 13.4034 9.3581 36.8136 -1.4546
# 6 4.2753 8.4791 8.8896 12.6244 -1.4546 28.3266
#
#
#
# Elastic Compliance Matrix: (Units=1/GPa)
#
#
# Indices 1 2 3 4 5 6 
#
# 1 0.009760 -0.004981 -0.001016 0.001607 -0.001059 -0.000434
# 2 -0.004981 0.013827 -0.000517 -0.004770 0.000153 -0.001091
# 3 -0.001016 -0.000517 0.011608 -0.006315 -0.002385 -0.000643
# 4 0.001607 -0.004770 -0.006315 0.024775 -0.003882 -0.008074
# 5 -0.001059 0.000153 -0.002385 -0.003882 0.029349 0.004100
# 6 -0.000434 -0.001091 -0.000643 -0.008074 0.004100 0.039705
#
#
# Mechanical properties :
#
#
# Convention : Reuss Voigt Hill
#
# Bulk Modulus (GPa) = 45.11165 59.48179 52.29672
# Shear Modulus (GPa) = 33.45831 41.52258 37.49044
#
# Velocity S-wave (km/s) = 3.89066 4.33425 4.11843
# Velocity P-wave (km/s) = 6.37123 7.20822 6.80261
#
# Compressibility (1/GPa) = 0.02216722
#
# Stress axis : x y z
#
# Youngs Moduli (GPa) = 102.46281 72.32334 86.14576
#
# Poissons Ratio (x) = 0.36023 0.08756
# Poissons Ratio (y) = 0.51034 0.04450
# Poissons Ratio (z) = 0.10414 0.03736
#
# Static dielectric constant tensor:
#      x y z
#    x 4.128270 0.259700 -0.127070 
#    y 0.259700 4.584500 -0.155020 
#    z -0.127070 -0.155020 4.358010 
# 
# 
# High freq. dielectric constant tensor:
#      x y z
#    x 1.871320 0.002560 0.001630 
#    y 0.002560 1.872860 0.007240 
#    z 0.001630 0.007240 1.889620 
# 
# From -- ./inp_files/245884.got.cif
#   From: 2010.06.25/outbox.cif.g09.slc.cpg/sg2_123_cif.got.tgz:245884.got - 2010.06.27 13:26:56.
