data_PCOD8031053
_publ_section_title
;
Structure prediction by ZEFSAII (Michael W. Deem and Ramdas Pophale) SiO2 
 PCOD8031053
Probable space group: P -1
;
_chemical_formula_sum "Si O2"
_cell_formula_units_Z 14
_cell_length_a 13.985211
_cell_length_b 14.770547
_cell_length_c 14.323001
_cell_angle_alpha 150.478076
_cell_angle_beta 30.243605
_cell_angle_gamma 149.810995
_cell_volume 654.335634
_symmetry_space_group_name_H-M "P -1"
_symmetry_group_IT_number 2
_symmetry_cell_setting 'triclinic'
loop_
_space_group_symop_operation_xyz
x,y,z
-x,-y,-z
loop_
_atom_site_type_symbol
_atom_site_label
_atom_site_fract_x
_atom_site_fract_y
_atom_site_fract_z
Si Si1 0.843786 0.123038 0.169250
Si Si2 0.555012 0.583937 0.633757
Si Si3 0.114076 0.213021 0.851080
Si Si4 0.144899 0.579090 0.039379
Si Si5 0.285707 0.329613 0.078303
Si Si6 0.990070 0.093632 0.494908
Si Si7 0.419315 0.624040 0.391805
O O1 0.676151 0.214752 0.391718
O O2 0.061262 0.289984 0.185063
O O3 0.917977 0.086873 0.971826
O O4 0.720689 0.896607 0.116529
O O5 0.500000 0.500000 0.500000
O O6 0.386765 0.659746 0.877386
O O7 0.564577 0.418610 0.549906
O O8 0.775081 0.783890 0.631992
O O9 0.075875 0.401337 0.014924
O O10 0.342996 0.285293 0.773254
O O11 0.135732 0.085339 0.631652
O O12 0.129497 0.766717 0.270733
O O13 0.000000 0.500000 0.000000
O O14 0.279156 0.415312 0.264672
O O15 0.500000 0.500000 0.000000
O O16 0.000000 0.000000 0.500000
#
# Coordination Sequence:
#
# PCOD8031053 Si02
#       7
#     2   2   2   2   2   2   2
#     4  11  25  45  75 100 137 179 222 287 351 402
#     4  11  23  41  67  96 135 180 223 275 335 401
#     4  11  24  42  64 100 135 173 231 277 333 413
#     4  11  22  42  64  89 134 181 221 281 333 384
#     4  11  24  49  72 103 137 173 230 287 345 415
#     4  12  23  39  61  93 130 178 232 273 329 399
#     4  11  24  45  70 101 137 179 229 277 342 409
#
# _framework density 21.395747
#
# number of rings (size 3 to 8) (size 9 to 14) (size 15 to 20)
#    0.000    0.857    4.286    3.000    0.000    4.571 
#    5.143    0.000    0.000    0.000    0.000    0.000 
#    0.000    0.000    0.000    0.000    0.000    0.000 
#
# Total GULP energy -173573.774041 kJ/mol
# GULP energy per Si atom -12398.126717 kJ/mol
# Density = 2.134705 g / cm^3
# Si number density = 21.395747 Si / 1000 Ang^3
#
#
#
# Elastic Constant Matrix: (Units=GPa)
#
#
# Indices 1 2 3 4 5 6 
#
# 1 106.3470 29.4691 59.0770 10.5162 -11.5355 -4.0586
# 2 29.4691 125.4885 52.3701 -4.4413 -18.6850 -8.7998
# 3 59.0770 52.3701 129.0942 16.7888 -18.9700 -4.5375
# 4 10.5162 -4.4413 16.7888 38.5412 4.4992 2.4928
# 5 -11.5355 -18.6850 -18.9700 4.4992 47.4469 3.0107
# 6 -4.0586 -8.7998 -4.5375 2.4928 3.0107 26.9798
#
#
#
# Elastic Compliance Matrix: (Units=1/GPa)
#
#
# Indices 1 2 3 4 5 6 
#
# 1 0.012758 -0.000684 -0.005223 -0.001437 0.000826 0.000858
# 2 -0.000684 0.010266 -0.003837 0.002675 0.001953 0.002135
# 3 -0.005223 -0.003837 0.012747 -0.004909 0.002765 0.000251
# 4 -0.001437 0.002675 -0.004909 0.029398 -0.003891 -0.002451
# 5 0.000826 0.001953 0.002765 -0.003891 0.023587 -0.001046
# 6 0.000858 0.002135 0.000251 -0.002451 -0.001046 0.038276
#
#
# Mechanical properties :
#
#
# Convention : Reuss Voigt Hill
#
# Bulk Modulus (GPa) = 61.41513 71.41801 66.41657
# Shear Modulus (GPa) = 32.90603 37.26115 35.08359
#
# Velocity S-wave (km/s) = 3.92595 4.17768 4.05377
# Velocity P-wave (km/s) = 7.02264 7.53145 7.28149
#
# Compressibility (1/GPa) = 0.01628263
#
# Stress axis : x y z
#
# Youngs Moduli (GPa) = 78.37938 97.40646 78.45266
#
# Poissons Ratio (x) = 0.06665 0.40972
# Poissons Ratio (y) = 0.05363 0.30106
# Poissons Ratio (z) = 0.40934 0.37380
#
# Static dielectric constant tensor:
#      x y z
#    x 4.268110 0.048070 -0.091560 
#    y 0.048070 3.976290 -0.086600 
#    z -0.091560 -0.086600 3.873310 
# 
# 
# High freq. dielectric constant tensor:
#      x y z
#    x 1.854730 0.001940 0.001920 
#    y 0.001940 1.843700 -0.005720 
#    z 0.001920 -0.005720 1.841770 
# 
# From -- ./inp_files/534530.got.cif
#   From: 2010.06.25/outbox.cif.g09.slc.cpg/sg2_268_cif.got.tgz:534530.got - 2010.06.27 13:26:56.
