data_PCOD8031688
_publ_section_title
;
Structure prediction by ZEFSAII (Michael W. Deem and Ramdas Pophale) SiO2 
 PCOD8031688
Probable space group: P -1
;
_chemical_formula_sum "Si O2"
_cell_formula_units_Z 14
_cell_length_a 8.022038
_cell_length_b 18.668271
_cell_length_c 17.025052
_cell_angle_alpha 158.024805
_cell_angle_beta 43.286836
_cell_angle_gamma 137.402258
_cell_volume 635.362004
_symmetry_space_group_name_H-M "P -1"
_symmetry_group_IT_number 2
_symmetry_cell_setting 'triclinic'
loop_
_space_group_symop_operation_xyz
x,y,z
-x,-y,-z
loop_
_atom_site_type_symbol
_atom_site_label
_atom_site_fract_x
_atom_site_fract_y
_atom_site_fract_z
Si Si1 0.986792 0.928099 0.020444
Si Si2 0.195210 0.291716 0.401559
Si Si3 0.473879 0.646593 0.931570
Si Si4 0.124988 0.848058 0.170353
Si Si5 0.734957 0.273425 0.170721
Si Si6 0.280455 0.515761 0.033809
Si Si7 0.156600 0.283266 0.582913
O O1 0.770311 0.732337 0.911017
O O2 0.963826 0.120352 0.274526
O O3 0.233548 0.864295 0.905528
O O4 0.000000 0.000000 0.000000
O O5 0.446553 0.271944 0.249040
O O6 0.126747 0.500999 0.625303
O O7 0.256822 0.262405 0.440819
O O8 0.375758 0.436975 0.709378
O O9 0.367090 0.816138 0.099741
O O10 0.394707 0.619725 0.021212
O O11 0.104397 0.068125 0.420411
O O12 0.138648 0.797300 0.021576
O O13 0.883756 0.704976 0.148164
O O14 0.100412 0.645899 0.262883
O O15 0.500000 0.500000 0.000000
#
# Coordination Sequence:
#
# PCOD8031688 Si02
#       7
#     2   2   2   2   2   2   2
#     4  12  27  43  66 104 139 175 226 280 340 400
#     4  11  24  43  73  95 133 187 230 268 343 400
#     4  11  26  45  67 102 139 173 226 287 331 397
#     4  11  22  45  72 100 134 179 228 274 336 404
#     4  11  23  44  71  98 138 179 226 283 330 401
#     4  11  25  46  69 100 143 171 222 285 338 400
#     4  11  24  44  75  99 130 186 228 270 342 401
#
# _framework density 22.034682
#
# number of rings (size 3 to 8) (size 9 to 14) (size 15 to 20)
#    0.000    0.857    4.286    3.857    4.000    4.571 
#    0.000    0.000    0.000    0.000    0.000    0.000 
#    0.000    0.000    0.000    0.000    0.000    0.000 
#
# Total GULP energy -173566.551220 kJ/mol
# GULP energy per Si atom -12397.610801 kJ/mol
# Density = 2.198453 g / cm^3
# Si number density = 22.034682 Si / 1000 Ang^3
#
#
#
# Elastic Constant Matrix: (Units=GPa)
#
#
# Indices 1 2 3 4 5 6 
#
# 1 101.1785 21.8869 45.9607 8.1667 3.2361 -16.1235
# 2 21.8869 103.5021 46.0020 10.9795 0.8008 -7.8398
# 3 45.9607 46.0020 134.1578 39.6225 -0.1455 4.0568
# 4 8.1667 10.9795 39.6225 40.0775 -11.3485 -2.2729
# 5 3.2361 0.8008 -0.1455 -11.3485 29.7101 5.4202
# 6 -16.1235 -7.8398 4.0568 -2.2729 5.4202 42.4359
#
#
#
# Elastic Compliance Matrix: (Units=1/GPa)
#
#
# Indices 1 2 3 4 5 6 
#
# 1 0.013131 -0.000216 -0.005365 0.002586 -0.001520 0.005795
# 2 -0.000216 0.011728 -0.004390 0.001228 -0.000322 0.002611
# 3 -0.005365 -0.004390 0.015024 -0.013860 -0.003687 -0.004557
# 4 0.002586 0.001228 -0.013860 0.042269 0.015243 0.002851
# 5 -0.001520 -0.000322 -0.003687 0.015243 0.040483 -0.004639
# 6 0.005795 0.002611 -0.004557 0.002851 -0.004639 0.027430
#
#
# Mechanical properties :
#
#
# Convention : Reuss Voigt Hill
#
# Bulk Modulus (GPa) = 50.14341 62.94864 56.54602
# Shear Modulus (GPa) = 28.30393 37.44397 32.87395
#
# Velocity S-wave (km/s) = 3.58790 4.12675 3.86673
# Velocity P-wave (km/s) = 6.32219 7.16497 6.75673
#
# Compressibility (1/GPa) = 0.01994280
#
# Stress axis : x y z
#
# Youngs Moduli (GPa) = 76.15832 85.26421 66.55864
#
# Poissons Ratio (x) = 0.01840 0.35708
# Poissons Ratio (y) = 0.01643 0.29216
# Poissons Ratio (z) = 0.40858 0.37427
#
# Static dielectric constant tensor:
#      x y z
#    x 3.980760 -0.167620 0.183510 
#    y -0.167620 3.920620 0.665140 
#    z 0.183510 0.665140 3.317320 
# 
# 
# High freq. dielectric constant tensor:
#      x y z
#    x 1.865270 -0.012900 0.000830 
#    y -0.012900 1.873980 0.021210 
#    z 0.000830 0.021210 1.866840 
# 
# From -- ./inp_files/357628.got.cif
#   From: 2010.06.25/outbox.cif.g09.slc.cpg/sg2_179_cif.got.tgz:357628.got - 2010.06.27 13:26:56.
