data_PCOD8031162
_publ_section_title
;
Structure prediction by ZEFSAII (Michael W. Deem and Ramdas Pophale) SiO2 
 PCOD8031162
Probable space group: P -1
;
_chemical_formula_sum "Si O2"
_cell_formula_units_Z 14
_cell_length_a 11.116915
_cell_length_b 9.245633
_cell_length_c 9.292074
_cell_angle_alpha 135.148251
_cell_angle_beta 118.502578
_cell_angle_gamma 77.826389
_cell_volume 579.297115
_symmetry_space_group_name_H-M "P -1"
_symmetry_group_IT_number 2
_symmetry_cell_setting 'triclinic'
loop_
_space_group_symop_operation_xyz
x,y,z
-x,-y,-z
loop_
_atom_site_type_symbol
_atom_site_label
_atom_site_fract_x
_atom_site_fract_y
_atom_site_fract_z
Si Si1 0.660740 0.221479 0.364288
Si Si2 0.945844 0.889935 0.537660
Si Si3 0.952724 0.482884 0.623129
Si Si4 0.583627 0.314897 0.702424
Si Si5 0.144500 0.135018 0.052202
Si Si6 0.714216 0.972374 0.658768
Si Si7 0.385469 0.244529 0.056736
O O1 0.797028 0.347378 0.453201
O O2 0.645112 0.299889 0.569491
O O3 0.537325 0.259554 0.219256
O O4 0.665332 0.975582 0.207765
O O5 0.798475 0.936691 0.537264
O O6 0.939179 0.642832 0.327763
O O7 0.000000 0.000000 0.500000
O O8 0.059409 0.956114 0.775923
O O9 0.959519 0.709762 0.857484
O O10 0.000000 0.500000 0.500000
O O11 0.419519 0.215861 0.542589
O O12 0.608728 0.565927 0.922138
O O13 0.666118 0.196022 0.779230
O O14 0.191266 0.027069 0.145453
O O15 0.280132 0.265916 0.141868
#
# Coordination Sequence:
#
# PCOD8031162 Si02
#       7
#     2   2   2   2   2   2   2
#     4  11  22  42  70 104 144 180 241 292 345 428
#     4  12  28  49  70 103 148 185 237 300 353 429
#     4  12  25  42  73 107 142 189 237 287 359 422
#     4  11  23  46  71 102 144 186 233 295 354 414
#     4  12  24  48  74 103 140 191 238 292 355 425
#     4  11  25  45  72 106 146 182 236 299 352 414
#     4  11  23  40  76 102 136 193 237 283 359 417
#
# _framework density 24.167217999999998
#
# number of rings (size 3 to 8) (size 9 to 14) (size 15 to 20)
#    0.000    0.571    5.714    2.571    0.000    0.571 
#    0.000    4.286    0.000    0.000    0.000    0.000 
#    0.000    0.000    0.000    0.000    0.000    0.000 
#
# Total GULP energy -173588.222045 kJ/mol
# GULP energy per Si atom -12399.158718 kJ/mol
# Density = 2.411221 g / cm^3
# Si number density = 24.167218 Si / 1000 Ang^3
#
#
#
# Elastic Constant Matrix: (Units=GPa)
#
#
# Indices 1 2 3 4 5 6 
#
# 1 137.5442 38.3995 21.4511 7.9392 -2.2075 13.8860
# 2 38.3995 165.3342 34.3135 15.3732 -4.5789 -3.7446
# 3 21.4511 34.3135 60.8886 0.9992 -4.2184 -4.4441
# 4 7.9392 15.3732 0.9992 33.0665 1.7910 -1.7549
# 5 -2.2075 -4.5789 -4.2184 1.7910 22.0594 8.9012
# 6 13.8860 -3.7446 -4.4441 -1.7549 8.9012 46.2648
#
#
#
# Elastic Compliance Matrix: (Units=1/GPa)
#
#
# Indices 1 2 3 4 5 6 
#
# 1 0.008454 -0.001367 -0.002310 -0.001580 0.001551 -0.003229
# 2 -0.001367 0.007419 -0.003565 -0.003036 0.000807 0.000398
# 3 -0.002310 -0.003565 0.019491 0.001630 0.001821 0.001988
# 4 -0.001580 -0.003036 0.001630 0.032331 -0.004067 0.002394
# 5 0.001551 0.000807 0.001821 -0.004067 0.050399 -0.010076
# 6 -0.003229 0.000398 0.001988 0.002394 -0.010076 0.024836
#
#
# Mechanical properties :
#
#
# Convention : Reuss Voigt Hill
#
# Bulk Modulus (GPa) = 47.89218 61.34389 54.61804
# Shear Modulus (GPa) = 30.41810 38.25167 34.33488
#
# Velocity S-wave (km/s) = 3.55160 3.98275 3.77333
# Velocity P-wave (km/s) = 6.05628 6.82553 6.45238
#
# Compressibility (1/GPa) = 0.02088023
#
# Stress axis : x y z
#
# Youngs Moduli (GPa) = 118.28088 134.78145 51.30643
#
# Poissons Ratio (x) = 0.18430 0.11853
# Poissons Ratio (y) = 0.16174 0.18289
# Poissons Ratio (z) = 0.27325 0.48045
#
# Static dielectric constant tensor:
#      x y z
#    x 4.731320 -0.013450 -0.078180 
#    y -0.013450 4.622590 0.265290 
#    z -0.078180 0.265290 4.107620 
# 
# 
# High freq. dielectric constant tensor:
#      x y z
#    x 1.987190 0.000380 0.000560 
#    y 0.000380 1.976810 0.017540 
#    z 0.000560 0.017540 1.933000 
# 
# From -- ./inp_files/187138.got.cif
#   From: 2010.06.25/outbox.cif.g09.slc.cpg/sg2_94_cif.got.tgz:187138.got - 2010.06.27 13:26:56.
