data_PCOD8031159
_publ_section_title
;
Structure prediction by ZEFSAII (Michael W. Deem and Ramdas Pophale) SiO2 
 PCOD8031159
Probable space group: P -1
;
_chemical_formula_sum "Si O2"
_cell_formula_units_Z 14
_cell_length_a 21.172825
_cell_length_b 8.556479
_cell_length_c 12.763790
_cell_angle_alpha 120.256111
_cell_angle_beta 36.988526
_cell_angle_gamma 146.728116
_cell_volume 662.433072
_symmetry_space_group_name_H-M "P -1"
_symmetry_group_IT_number 2
_symmetry_cell_setting 'triclinic'
loop_
_space_group_symop_operation_xyz
x,y,z
-x,-y,-z
loop_
_atom_site_type_symbol
_atom_site_label
_atom_site_fract_x
_atom_site_fract_y
_atom_site_fract_z
Si Si1 0.206855 0.273415 0.025322
Si Si2 0.588159 0.936165 0.823629
Si Si3 0.665210 0.885695 0.914739
Si Si4 0.953979 0.285110 0.074600
Si Si5 0.003684 0.871897 0.356532
Si Si6 0.305278 0.702851 0.882586
Si Si7 0.709580 0.162924 0.511692
O O1 0.054059 0.055356 0.247562
O O2 0.415599 0.552280 0.893629
O O3 0.193536 0.443442 0.038080
O O4 0.169633 0.053315 0.923410
O O5 0.709466 0.014272 0.780745
O O6 0.720710 0.150232 0.618352
O O7 0.500000 0.000000 0.000000
O O8 0.850178 0.078060 0.793132
O O9 0.500000 0.500000 0.000000
O O10 0.608011 0.980642 0.088677
O O11 0.829790 0.181484 0.300433
O O12 0.000000 0.500000 0.000000
O O13 0.159641 0.508234 0.914222
O O14 0.799913 0.488343 0.477063
O O15 0.000000 0.000000 0.500000
O O16 0.490430 0.848812 0.655298
#
# Coordination Sequence:
#
# PCOD8031159 Si02
#       7
#     2   2   2   2   2   2   2
#     4  11  23  45  69  95 143 182 219 296 334 398
#     4  11  22  42  70 103 140 174 226 288 341 408
#     4  12  22  40  70 100 141 179 219 284 349 401
#     4  12  25  48  68  99 141 178 237 283 335 411
#     4  12  24  41  66 104 138 176 232 279 347 417
#     4  11  25  45  71  98 136 181 231 282 347 404
#     4  11  24  43  71 100 135 181 230 276 346 404
#
# _framework density 21.134208999999998
#
# number of rings (size 3 to 8) (size 9 to 14) (size 15 to 20)
#    0.000    0.571    7.143    2.143    0.000    4.571 
#    0.000    0.000    0.000    0.000    0.000    0.000 
#    0.000    0.000    0.000    0.000    0.000    0.000 
#
# Total GULP energy -173598.393569 kJ/mol
# GULP energy per Si atom -12399.885255 kJ/mol
# Density = 2.108611 g / cm^3
# Si number density = 21.134209 Si / 1000 Ang^3
#
#
#
# Elastic Constant Matrix: (Units=GPa)
#
#
# Indices 1 2 3 4 5 6 
#
# 1 119.5775 13.6462 34.3341 -15.3694 5.1222 2.3162
# 2 13.6462 140.9198 29.5839 0.6953 8.0693 -3.6834
# 3 34.3341 29.5839 105.0755 0.5337 18.7361 -0.9466
# 4 -15.3694 0.6953 0.5337 39.6799 0.8204 1.4239
# 5 5.1222 8.0693 18.7361 0.8204 38.1503 -7.4239
# 6 2.3162 -3.6834 -0.9466 1.4239 -7.4239 36.2282
#
#
#
# Elastic Compliance Matrix: (Units=1/GPa)
#
#
# Indices 1 2 3 4 5 6 
#
# 1 0.009820 -0.000334 -0.003150 0.003883 0.000043 -0.000888
# 2 -0.000334 0.007580 -0.001933 -0.000250 -0.000477 0.000654
# 3 -0.003150 -0.001933 0.012013 -0.001216 -0.005177 -0.000694
# 4 0.003883 -0.000250 -0.001216 0.026796 -0.000741 -0.001511
# 5 0.000043 -0.000477 -0.005177 -0.000741 0.030033 0.005997
# 6 -0.000888 0.000654 -0.000694 -0.001511 0.005997 0.028996
#
#
# Mechanical properties :
#
#
# Convention : Reuss Voigt Hill
#
# Bulk Modulus (GPa) = 53.82402 57.85569 55.83986
# Shear Modulus (GPa) = 37.80285 42.01224 39.90754
#
# Velocity S-wave (km/s) = 4.23390 4.46340 4.35016
# Velocity P-wave (km/s) = 7.03023 7.34829 7.19102
#
# Compressibility (1/GPa) = 0.01857906
#
# Stress axis : x y z
#
# Youngs Moduli (GPa) = 101.83526 131.92649 83.24008
#
# Poissons Ratio (x) = 0.04413 0.26220
# Poissons Ratio (y) = 0.03406 0.16088
# Poissons Ratio (z) = 0.32077 0.25497
#
# Static dielectric constant tensor:
#      x y z
#    x 7.779370 -2.029830 -4.179060 
#    y -2.029830 5.302320 2.326440 
#    z -4.179060 2.326440 8.727450 
# 
# 
# High freq. dielectric constant tensor:
#      x y z
#    x 1.834090 -0.000680 0.012650 
#    y -0.000680 1.845620 -0.007750 
#    z 0.012650 -0.007750 1.811510 
# 
# From -- ./inp_files/177261.got.cif
#   From: 2010.06.25/outbox.cif.g09.slc.cpg/sg2_89_cif.got.tgz:177261.got - 2010.06.27 13:26:56.
