data_PCOD8031473
_publ_section_title
;
Structure prediction by ZEFSAII (Michael W. Deem and Ramdas Pophale) SiO2 
 PCOD8031473
Probable space group: P -1
;
_chemical_formula_sum "Si O2"
_cell_formula_units_Z 14
_cell_length_a 14.339134
_cell_length_b 11.529138
_cell_length_c 7.225499
_cell_angle_alpha 87.376603
_cell_angle_beta 54.339963
_cell_angle_gamma 50.235692
_cell_volume 635.508345
_symmetry_space_group_name_H-M "P -1"
_symmetry_group_IT_number 2
_symmetry_cell_setting 'triclinic'
loop_
_space_group_symop_operation_xyz
x,y,z
-x,-y,-z
loop_
_atom_site_type_symbol
_atom_site_label
_atom_site_fract_x
_atom_site_fract_y
_atom_site_fract_z
Si Si1 0.255806 0.870723 0.836091
Si Si2 0.541014 0.573383 0.815636
Si Si3 0.120635 0.769916 0.756068
Si Si4 0.834853 0.638171 0.399628
Si Si5 0.360817 0.305874 0.048037
Si Si6 0.842551 0.480952 0.068904
Si Si7 0.401789 0.989482 0.477398
O O1 0.388478 0.701984 0.829867
O O2 0.208829 0.818404 0.729653
O O3 0.356753 0.903424 0.634384
O O4 0.068347 0.053512 0.132426
O O5 0.738674 0.399038 0.527548
O O6 0.529102 0.699158 0.939776
O O7 0.500000 0.500000 0.000000
O O8 0.074914 0.708593 0.971691
O O9 0.793586 0.635820 0.658373
O O10 0.041082 0.500973 0.146128
O O11 0.769243 0.816281 0.411156
O O12 0.760555 0.596178 0.346614
O O13 0.296397 0.433385 0.939949
O O14 0.482825 0.114324 0.833241
O O15 0.500000 0.000000 0.500000
#
# Coordination Sequence:
#
# PCOD8031473 Si02
#       7
#     2   2   2   2   2   2   2
#     4  11  25  45  75 104 136 195 232 285 365 416
#     4  12  25  45  68 106 143 180 236 297 350 424
#     4  11  23  47  75  99 142 187 236 291 354 420
#     4  11  23  41  66 100 135 186 235 281 354 413
#     4  12  24  41  67 102 137 183 237 285 356 412
#     4  11  22  44  68  97 140 181 233 291 348 416
#     4  12  23  44  67  98 145 182 234 293 346 424
#
# _framework density 22.029606000000001
#
# number of rings (size 3 to 8) (size 9 to 14) (size 15 to 20)
#    0.000    0.571    4.286    4.714    0.000    0.571 
#    5.143    0.000    0.000    0.000    0.000    0.000 
#    0.000    0.000    0.000    0.000    0.000    0.000 
#
# Total GULP energy -173496.342350 kJ/mol
# GULP energy per Si atom -12392.595882 kJ/mol
# Density = 2.197947 g / cm^3
# Si number density = 22.029606 Si / 1000 Ang^3
#
#
#
# Elastic Constant Matrix: (Units=GPa)
#
#
# Indices 1 2 3 4 5 6 
#
# 1 94.8457 16.6199 49.0952 0.4914 5.0618 15.5838
# 2 16.6199 108.6163 38.4447 -1.6506 -4.9884 2.4130
# 3 49.0952 38.4447 124.4790 9.2502 2.4887 1.4636
# 4 0.4914 -1.6506 9.2502 39.7187 5.2363 -6.4930
# 5 5.0618 -4.9884 2.4887 5.2363 30.3956 -0.1816
# 6 15.5838 2.4130 1.4636 -6.4930 -0.1816 44.2614
#
#
#
# Elastic Compliance Matrix: (Units=1/GPa)
#
#
# Indices 1 2 3 4 5 6 
#
# 1 0.014340 -0.000216 -0.005535 0.000599 -0.002102 -0.004775
# 2 -0.000216 0.010499 -0.003259 0.000911 0.001867 -0.000247
# 3 -0.005535 -0.003259 0.011393 -0.002479 -0.000111 0.001386
# 4 0.000599 0.000911 -0.002479 0.026976 -0.004372 0.003761
# 5 -0.002102 0.001867 -0.000111 -0.004372 0.034319 0.000141
# 6 -0.004775 -0.000247 0.001386 0.003761 0.000141 0.024794
#
#
# Mechanical properties :
#
#
# Convention : Reuss Voigt Hill
#
# Bulk Modulus (GPa) = 54.91432 59.58453 57.24942
# Shear Modulus (GPa) = 34.14981 37.79389 35.97185
#
# Velocity S-wave (km/s) = 3.94150 4.14647 4.04528
# Velocity P-wave (km/s) = 6.75985 7.07322 6.91831
#
# Compressibility (1/GPa) = 0.01821019
#
# Stress axis : x y z
#
# Youngs Moduli (GPa) = 69.73354 95.25130 87.76968
#
# Poissons Ratio (x) = 0.02061 0.48584
# Poissons Ratio (y) = 0.01509 0.28606
# Poissons Ratio (z) = 0.38601 0.31045
#
# Static dielectric constant tensor:
#      x y z
#    x 4.028840 0.094700 -0.151070 
#    y 0.094700 4.155160 0.067220 
#    z -0.151070 0.067220 4.242510 
# 
# 
# High freq. dielectric constant tensor:
#      x y z
#    x 1.868140 0.011180 -0.009840 
#    y 0.011180 1.875650 0.002590 
#    z -0.009840 0.002590 1.866040 
# 
# From -- ./inp_files/47386.got.cif
#   From: 2010.06.25/outbox.cif.g09.slc.cpg/sg2_24_cif.got.tgz:47386.got - 2010.06.27 13:26:56.
