data_PCOD8031938
_publ_section_title
;
Structure prediction by ZEFSAII (Michael W. Deem and Ramdas Pophale) SiO2 
 PCOD8031938
Probable space group: P -1
;
_chemical_formula_sum "Si O2"
_cell_formula_units_Z 12
_cell_length_a 16.743876
_cell_length_b 21.397516
_cell_length_c 13.305282
_cell_angle_alpha 24.693165
_cell_angle_beta 155.699274
_cell_angle_gamma 163.136741
_cell_volume 542.054105
_symmetry_space_group_name_H-M "P -1"
_symmetry_group_IT_number 2
_symmetry_cell_setting 'triclinic'
loop_
_space_group_symop_operation_xyz
x,y,z
-x,-y,-z
loop_
_atom_site_type_symbol
_atom_site_label
_atom_site_fract_x
_atom_site_fract_y
_atom_site_fract_z
Si Si1 0.291186 0.987781 0.402083
Si Si2 0.214973 0.945852 0.151114
Si Si3 0.861934 0.769431 0.406529
Si Si4 0.686122 0.658556 0.693529
Si Si5 0.774213 0.048543 0.249355
Si Si6 0.347841 0.516352 0.882600
O O1 0.153626 0.951100 0.189811
O O2 0.524099 0.244583 0.332507
O O3 0.454205 0.921865 0.676263
O O4 0.029087 0.817241 0.427771
O O5 0.162285 0.064698 0.851949
O O6 0.997898 0.689857 0.237715
O O7 0.539151 0.509630 0.409616
O O8 0.035496 0.803573 0.650085
O O9 0.017385 0.813913 0.810137
O O10 0.649134 0.809117 0.462086
O O11 0.598921 0.505179 0.911104
O O12 0.500000 0.000000 0.000000
O O13 0.500000 0.500000 0.000000
#
# Coordination Sequence:
#
# PCOD8031938 Si02
#       6
#     2   2   2   2   2   2
#     4  11  24  39  65 103 135 170 215 260 327 402
#     4  11  23  39  63 100 135 172 212 262 323 393
#     4  12  23  44  69  95 134 172 214 274 329 384
#     4  11  25  44  69  94 131 171 220 276 325 387
#     4  11  27  47  67  94 125 174 230 274 326 382
#     4  12  21  41  67  96 135 176 211 261 329 392
#
# _framework density 22.138012
#
# number of rings (size 3 to 8) (size 9 to 14) (size 15 to 20)
#    0.000    0.667    5.000    2.500    2.333    2.000 
#    3.000    0.000    0.000    0.000    0.000    0.000 
#    0.000    0.000    0.000    0.000    0.000    0.000 
#
# Total GULP energy -148877.368743 kJ/mol
# GULP energy per Si atom -12406.447395 kJ/mol
# Density = 2.208762 g / cm^3
# Si number density = 22.138012 Si / 1000 Ang^3
#
#
#
# Elastic Constant Matrix: (Units=GPa)
#
#
# Indices 1 2 3 4 5 6 
#
# 1 86.2790 8.1807 41.3188 4.1175 7.0135 0.5055
# 2 8.1807 102.9419 6.9349 13.0908 4.2914 -11.7595
# 3 41.3188 6.9349 75.3948 24.6424 9.8717 6.7116
# 4 4.1175 13.0908 24.6424 31.2664 -2.3408 -3.9852
# 5 7.0135 4.2914 9.8717 -2.3408 27.7918 5.4138
# 6 0.5055 -11.7595 6.7116 -3.9852 5.4138 38.3570
#
#
#
# Elastic Compliance Matrix: (Units=1/GPa)
#
#
# Indices 1 2 3 4 5 6 
#
# 1 0.017132 -0.001348 -0.012240 0.008284 0.000483 0.002295
# 2 -0.001348 0.010869 0.001685 -0.005555 -0.002969 0.002897
# 3 -0.012240 0.001685 0.029035 -0.023322 -0.008349 -0.005647
# 4 0.008284 -0.005555 -0.023322 0.053178 0.010295 0.006341
# 5 0.000483 -0.002969 -0.008349 0.010295 0.040963 -0.004168
# 6 0.002295 0.002897 -0.005647 0.006341 -0.004168 0.029164
#
#
# Mechanical properties :
#
#
# Convention : Reuss Voigt Hill
#
# Bulk Modulus (GPa) = 30.09299 41.94272 36.01786
# Shear Modulus (GPa) = 23.23174 33.36180 28.29677
#
# Velocity S-wave (km/s) = 3.24297 3.88621 3.57907
# Velocity P-wave (km/s) = 5.25788 6.25492 5.77795
#
# Compressibility (1/GPa) = 0.03323033
#
# Stress axis : x y z
#
# Youngs Moduli (GPa) = 58.37122 92.00591 34.44119
#
# Poissons Ratio (x) = 0.12405 0.42155
# Poissons Ratio (y) = 0.07870 -0.05805
# Poissons Ratio (z) = 0.71445 -0.15507
#
# Static dielectric constant tensor:
#      x y z
#    x 3.978270 -0.090710 0.033080 
#    y -0.090710 4.218300 0.086580 
#    z 0.033080 0.086580 3.720710 
# 
# 
# High freq. dielectric constant tensor:
#      x y z
#    x 1.878390 -0.006100 0.004780 
#    y -0.006100 1.885640 0.009000 
#    z 0.004780 0.009000 1.855560 
# 
# From -- ./inp_files/236988.got.cif
#   From: 2010.06.25/outbox.cif.g09.slc.cpg/sg2_119_cif.got.tgz:236988.got - 2010.06.27 13:26:56.
