data_PCOD8031994
_publ_section_title
;
Structure prediction by ZEFSAII (Michael W. Deem and Ramdas Pophale) SiO2 
 PCOD8031994
Probable space group: P -1
;
_chemical_formula_sum "Si O2"
_cell_formula_units_Z 10
_cell_length_a 24.056146
_cell_length_b 8.687697
_cell_length_c 9.362516
_cell_angle_alpha 51.345641
_cell_angle_beta 147.699782
_cell_angle_gamma 149.722153
_cell_volume 485.207066
_symmetry_space_group_name_H-M "P -1"
_symmetry_group_IT_number 2
_symmetry_cell_setting 'triclinic'
loop_
_space_group_symop_operation_xyz
x,y,z
-x,-y,-z
loop_
_atom_site_type_symbol
_atom_site_label
_atom_site_fract_x
_atom_site_fract_y
_atom_site_fract_z
Si Si1 0.453185 0.364005 0.135887
Si Si2 0.471516 0.171503 0.781335
Si Si3 0.101238 0.777183 0.176670
Si Si4 0.692319 0.533513 0.776894
Si Si5 0.128497 0.595059 0.835004
O O1 0.419625 0.507843 0.073273
O O2 0.611585 0.474717 0.482439
O O3 0.500000 0.500000 0.000000
O O4 0.275834 0.972557 0.981598
O O5 0.531269 0.280415 0.684280
O O6 0.266861 0.901142 0.511604
O O7 0.500000 0.000000 0.000000
O O8 0.977037 0.631454 0.124452
O O9 0.166228 0.089507 0.080484
O O10 0.000000 0.500000 0.000000
O O11 0.784335 0.463511 0.011706
O O12 0.000000 0.500000 0.500000
#
# Coordination Sequence:
#
# PCOD8031994 Si02
#       5
#     2   2   2   2   2
#     4  11  23  41  64  92 123 164 207 248 303 372
#     4  11  23  42  64  89 122 166 207 245 301 373
#     4  11  23  40  62  91 122 158 203 256 305 352
#     4  11  23  43  64  88 125 168 203 247 306 370
#     4  12  24  40  62  94 125 158 204 258 305 355
#
# _framework density 20.609756999999998
#
# number of rings (size 3 to 8) (size 9 to 14) (size 15 to 20)
#    0.000    0.800    0.000   10.800    0.000    3.200 
#    0.000    4.000    0.000    0.000    0.000    0.000 
#    0.000    0.000    0.000    0.000    0.000    0.000 
#
# Total GULP energy -124047.776242 kJ/mol
# GULP energy per Si atom -12404.777624 kJ/mol
# Density = 2.056285 g / cm^3
# Si number density = 20.609757 Si / 1000 Ang^3
#
#
#
# Elastic Constant Matrix: (Units=GPa)
#
#
# Indices 1 2 3 4 5 6 
#
# 1 115.6347 38.8765 49.3566 -3.2678 6.5692 -1.9638
# 2 38.8765 138.2230 61.0263 8.8242 4.7276 -19.9458
# 3 49.3566 61.0263 107.5890 -5.6556 2.3925 -27.2109
# 4 -3.2678 8.8242 -5.6556 43.4282 -2.5971 -1.2418
# 5 6.5692 4.7276 2.3925 -2.5971 39.7778 -3.5950
# 6 -1.9638 -19.9458 -27.2109 -1.2418 -3.5950 58.2313
#
#
#
# Elastic Compliance Matrix: (Units=1/GPa)
#
#
# Indices 1 2 3 4 5 6 
#
# 1 0.011283 -0.001274 -0.005035 0.000284 -0.001617 -0.002503
# 2 -0.001274 0.010184 -0.005081 -0.002847 -0.000793 0.000961
# 3 -0.005035 -0.005081 0.016067 0.002981 0.001182 0.005734
# 4 0.000284 -0.002847 0.002981 0.024151 0.001784 0.001052
# 5 -0.001617 -0.000793 0.001182 0.001784 0.025714 0.001852
# 6 -0.002503 0.000961 0.005734 0.001052 0.001852 0.020234
#
#
# Mechanical properties :
#
#
# Convention : Reuss Voigt Hill
#
# Bulk Modulus (GPa) = 67.78151 73.32952 70.55552
# Shear Modulus (GPa) = 36.94625 42.43327 39.68976
#
# Velocity S-wave (km/s) = 4.23857 4.54242 4.39313
# Velocity P-wave (km/s) = 7.54410 7.94788 7.74862
#
# Compressibility (1/GPa) = 0.01475329
#
# Stress axis : x y z
#
# Youngs Moduli (GPa) = 88.62923 98.19459 62.23846
#
# Poissons Ratio (x) = 0.12513 0.31339
# Poissons Ratio (y) = 0.11294 0.31622
# Poissons Ratio (z) = 0.44628 0.49890
#
# Static dielectric constant tensor:
#      x y z
#    x 3.985730 0.016730 -0.008360 
#    y 0.016730 4.090570 0.109350 
#    z -0.008360 0.109350 3.746050 
# 
# 
# High freq. dielectric constant tensor:
#      x y z
#    x 1.818930 -0.001240 0.001270 
#    y -0.001240 1.829790 0.001200 
#    z 0.001270 0.001200 1.803270 
# 
# From -- ./inp_files/58093.got.cif
#   From: 2010.06.25/outbox.cif.g09.slc.cpg/sg2_30_cif.got.tgz:58093.got - 2010.06.27 13:26:56.
