data_PCOD8031474
_publ_section_title
;
Structure prediction by ZEFSAII (Michael W. Deem and Ramdas Pophale) SiO2 
 PCOD8031474
Probable space group: P -1
;
_chemical_formula_sum "Si O2"
_cell_formula_units_Z 14
_cell_length_a 17.806192
_cell_length_b 11.715589
_cell_length_c 9.576884
_cell_angle_alpha 70.418802
_cell_angle_beta 54.101066
_cell_angle_gamma 26.373124
_cell_volume 610.278401
_symmetry_space_group_name_H-M "P -1"
_symmetry_group_IT_number 2
_symmetry_cell_setting 'triclinic'
loop_
_space_group_symop_operation_xyz
x,y,z
-x,-y,-z
loop_
_atom_site_type_symbol
_atom_site_label
_atom_site_fract_x
_atom_site_fract_y
_atom_site_fract_z
Si Si1 0.873714 0.905421 0.207221
Si Si2 0.702729 0.468506 0.156075
Si Si3 0.709867 0.187567 0.563903
Si Si4 0.558636 0.812914 0.927858
Si Si5 0.928889 0.581672 0.884839
Si Si6 0.102987 0.592646 0.524398
Si Si7 0.620060 0.563852 0.513652
O O1 0.048455 0.581454 0.135838
O O2 0.809958 0.002012 0.396068
O O3 0.644163 0.148751 0.268098
O O4 0.015707 0.856453 0.020997
O O5 0.574010 0.491507 0.265036
O O6 0.625468 0.615122 0.331050
O O7 0.598692 0.661342 0.058452
O O8 0.762331 0.267193 0.475694
O O9 0.847967 0.959380 0.635089
O O10 0.780401 0.563826 0.689311
O O11 0.500000 0.000000 0.000000
O O12 0.332554 0.055580 0.982384
O O13 0.089082 0.479706 0.660853
O O14 0.000000 0.500000 0.000000
O O15 0.264946 0.485064 0.483126
#
# Coordination Sequence:
#
# PCOD8031474 Si02
#       7
#     2   2   2   2   2   2   2
#     4  11  23  43  68 101 129 174 227 267 341 393
#     4  11  22  44  68  98 132 173 227 275 326 397
#     4  11  24  45  70  97 131 181 230 276 326 397
#     4  12  25  43  69 101 136 177 226 270 339 409
#     4  12  26  43  70 103 139 174 219 281 344 404
#     4  12  26  45  69 100 140 179 218 282 341 395
#     4  11  27  44  68  98 138 177 229 275 332 393
#
# _framework density 22.940349999999999
#
# number of rings (size 3 to 8) (size 9 to 14) (size 15 to 20)
#    0.000    0.571    4.286    3.857    4.000    4.571 
#    0.000    0.714    0.000    0.000    0.000    0.000 
#    0.000    0.000    0.000    0.000    0.000    0.000 
#
# Total GULP energy -173507.202804 kJ/mol
# GULP energy per Si atom -12393.371629 kJ/mol
# Density = 2.288814 g / cm^3
# Si number density = 22.940350 Si / 1000 Ang^3
#
#
#
# Elastic Constant Matrix: (Units=GPa)
#
#
# Indices 1 2 3 4 5 6 
#
# 1 93.1822 11.9969 39.7212 -0.8213 -18.9794 -13.3354
# 2 11.9969 52.2066 39.7129 2.0980 2.8468 -19.1073
# 3 39.7212 39.7129 117.2631 -8.7189 -18.0026 -15.9446
# 4 -0.8213 2.0980 -8.7189 34.2033 -12.0970 -14.2549
# 5 -18.9794 2.8468 -18.0026 -12.0970 37.7557 4.1707
# 6 -13.3354 -19.1073 -15.9446 -14.2549 4.1707 39.9034
#
#
#
# Elastic Compliance Matrix: (Units=1/GPa)
#
#
# Indices 1 2 3 4 5 6 
#
# 1 0.013862 0.000076 -0.002954 0.003474 0.006216 0.004080
# 2 0.000076 0.032495 -0.011502 -0.004196 -0.010409 0.010578
# 3 -0.002954 -0.011502 0.015823 0.008880 0.009551 0.002002
# 4 0.003474 -0.004196 0.008880 0.045675 0.019051 0.017026
# 5 0.006216 -0.010409 0.009551 0.019051 0.040671 0.003464
# 6 0.004080 0.010578 0.002002 0.017026 0.003464 0.038009
#
#
# Mechanical properties :
#
#
# Convention : Reuss Voigt Hill
#
# Bulk Modulus (GPa) = 29.92313 49.50154 39.71234
# Shear Modulus (GPa) = 22.08152 33.78720 27.93436
#
# Velocity S-wave (km/s) = 3.10588 3.84191 3.49334
# Velocity P-wave (km/s) = 5.09257 6.42694 5.79827
#
# Compressibility (1/GPa) = 0.03341896
#
# Stress axis : x y z
#
# Youngs Moduli (GPa) = 72.14134 30.77439 63.20089
#
# Poissons Ratio (x) = -0.00235 0.18668
# Poissons Ratio (y) = -0.00550 0.72696
# Poissons Ratio (z) = 0.21309 0.35398
#
# Static dielectric constant tensor:
#      x y z
#    x 4.138060 -0.401380 -0.360510 
#    y -0.401380 4.593210 0.204640 
#    z -0.360510 0.204640 4.433420 
# 
# 
# High freq. dielectric constant tensor:
#      x y z
#    x 1.911860 -0.016640 -0.017440 
#    y -0.016640 1.910400 0.002350 
#    z -0.017440 0.002350 1.907120 
# 
# From -- ./inp_files/172604.got.cif
#   From: 2010.06.25/outbox.cif.g09.slc.cpg/sg2_87_cif.got.tgz:172604.got - 2010.06.27 13:26:56.
