data_PCOD8031438
_publ_section_title
;
Structure prediction by ZEFSAII (Michael W. Deem and Ramdas Pophale) SiO2 
 PCOD8031438
Probable space group: P -1
;
_chemical_formula_sum "Si O2"
_cell_formula_units_Z 16
_cell_length_a 9.735292
_cell_length_b 12.655266
_cell_length_c 14.987177
_cell_angle_alpha 46.191798
_cell_angle_beta 101.514064
_cell_angle_gamma 64.419748
_cell_volume 772.866610
_symmetry_space_group_name_H-M "P -1"
_symmetry_group_IT_number 2
_symmetry_cell_setting 'triclinic'
loop_
_space_group_symop_operation_xyz
x,y,z
-x,-y,-z
loop_
_atom_site_type_symbol
_atom_site_label
_atom_site_fract_x
_atom_site_fract_y
_atom_site_fract_z
Si Si1 0.295574 0.617825 0.586772
Si Si2 0.223176 0.889798 0.131918
Si Si3 0.306868 0.481423 0.036583
Si Si4 0.172115 0.011499 0.252022
Si Si5 0.572212 0.917159 0.793081
Si Si6 0.972856 0.617746 0.516978
Si Si7 0.256083 0.715293 0.719555
Si Si8 0.280638 0.169867 0.937746
O O1 0.540838 0.393022 0.699428
O O2 0.336024 0.561617 0.730616
O O3 0.108971 0.657300 0.500629
O O4 0.203834 0.861709 0.419613
O O5 0.208805 0.896781 0.231851
O O6 0.211289 0.060246 0.990166
O O7 0.000000 0.000000 0.000000
O O8 0.252546 0.601978 0.864561
O O9 0.090601 0.698866 0.947691
O O10 0.316672 0.299571 0.129187
O O11 0.552490 0.322417 0.207332
O O12 0.365657 0.978602 0.304406
O O13 0.294858 0.123353 0.645109
O O14 0.673798 0.817734 0.963480
O O15 0.000000 0.500000 0.500000
O O16 0.068521 0.446653 0.712895
O O17 0.000000 0.000000 0.500000
O O18 0.500000 0.000000 0.000000
#
# Coordination Sequence:
#
# PCOD8031438 Si02
#       8
#     2   2   2   2   2   2   2   2
#     4  12  24  43  69  99 136 171 223 279 329 393
#     4  11  25  40  67  95 133 178 217 267 339 396
#     4  11  24  44  72  93 134 179 224 271 328 393
#     4  11  25  45  63  98 138 174 219 272 334 398
#     4  11  25  43  67  96 133 177 220 269 333 391
#     4  12  24  40  69  99 131 172 221 273 330 388
#     4  11  23  43  68 103 128 170 228 276 322 384
#     4  11  22  44  62  97 131 168 221 271 319 395
#
# _framework density 20.702151000000001
#
# number of rings (size 3 to 8) (size 9 to 14) (size 15 to 20)
#    0.000    0.750    3.750    3.750    5.250    0.000 
#    0.000    0.625    0.000    0.000    0.000    0.000 
#    0.000    0.000    0.000    0.000    0.000    0.000 
#
# Total GULP energy -198462.125585 kJ/mol
# GULP energy per Si atom -12403.882849 kJ/mol
# Density = 2.065503 g / cm^3
# Si number density = 20.702151 Si / 1000 Ang^3
#
#
#
# Elastic Constant Matrix: (Units=GPa)
#
#
# Indices 1 2 3 4 5 6 
#
# 1 114.3327 35.3095 49.0760 7.4237 15.1342 14.7424
# 2 35.3095 126.9852 41.1267 -7.3586 11.9723 5.2309
# 3 49.0760 41.1267 124.3341 -8.7068 14.3092 7.0553
# 4 7.4237 -7.3586 -8.7068 36.9716 -3.8432 2.8110
# 5 15.1342 11.9723 14.3092 -3.8432 37.9374 -0.6785
# 6 14.7424 5.2309 7.0553 2.8110 -0.6785 36.7098
#
#
#
# Elastic Compliance Matrix: (Units=1/GPa)
#
#
# Indices 1 2 3 4 5 6 
#
# 1 0.012122 -0.001889 -0.003846 -0.003776 -0.003237 -0.003631
# 2 -0.001889 0.009290 -0.002051 0.001640 -0.001244 -0.000319
# 3 -0.003846 -0.002051 0.010636 0.002741 -0.001561 -0.000446
# 4 -0.003776 0.001640 0.002741 0.029186 0.002886 -0.001425
# 5 -0.003237 -0.001244 -0.001561 0.002886 0.028961 0.002091
# 6 -0.003631 -0.000319 -0.000446 -0.001425 0.002091 0.028978
#
#
# Mechanical properties :
#
#
# Convention : Reuss Voigt Hill
#
# Bulk Modulus (GPa) = 60.69363 68.51961 64.60662
# Shear Modulus (GPa) = 35.65354 38.33308 36.99331
#
# Velocity S-wave (km/s) = 4.15446 4.30775 4.23180
# Velocity P-wave (km/s) = 7.23836 7.60999 7.42650
#
# Compressibility (1/GPa) = 0.01647619
#
# Stress axis : x y z
#
# Youngs Moduli (GPa) = 82.49168 107.64205 94.01944
#
# Poissons Ratio (x) = 0.20337 0.36158
# Poissons Ratio (y) = 0.15585 0.19284
# Poissons Ratio (z) = 0.31725 0.22078
#
# Static dielectric constant tensor:
#      x y z
#    x 3.830430 0.028490 0.029140 
#    y 0.028490 3.752520 -0.023490 
#    z 0.029140 -0.023490 3.850700 
# 
# 
# High freq. dielectric constant tensor:
#      x y z
#    x 1.820070 0.001090 0.003980 
#    y 0.001090 1.824160 -0.003950 
#    z 0.003980 -0.003950 1.812230 
# 
# From -- ./inp_files/428719.got.cif
#   From: 2010.06.25/outbox.cif.g09.slc.cpg/sg2_215_cif.got.tgz:428719.got - 2010.06.27 13:26:56.
