data_PCOD8031883
_publ_section_title
;
Structure prediction by ZEFSAII (Michael W. Deem and Ramdas Pophale) SiO2 
 PCOD8031883
Probable space group: P -1
;
_chemical_formula_sum "Si O2"
_cell_formula_units_Z 16
_cell_length_a 9.655499
_cell_length_b 20.783892
_cell_length_c 18.200630
_cell_angle_alpha 159.738340
_cell_angle_beta 142.860951
_cell_angle_gamma 35.452201
_cell_volume 723.705907
_symmetry_space_group_name_H-M "P -1"
_symmetry_group_IT_number 2
_symmetry_cell_setting 'triclinic'
loop_
_space_group_symop_operation_xyz
x,y,z
-x,-y,-z
loop_
_atom_site_type_symbol
_atom_site_label
_atom_site_fract_x
_atom_site_fract_y
_atom_site_fract_z
Si Si1 0.079506 0.357973 0.594736
Si Si2 0.478167 0.218976 0.729923
Si Si3 0.464512 0.970040 0.841400
Si Si4 0.039118 0.722616 0.045521
Si Si5 0.382695 0.730164 0.680732
Si Si6 0.820407 0.326604 0.783236
Si Si7 0.681774 0.742944 0.137662
Si Si8 0.416651 0.137284 0.383625
O O1 0.323281 0.326127 0.710263
O O2 0.172745 0.294325 0.482539
O O3 0.905705 0.232912 0.410410
O O4 0.942129 0.587803 0.802442
O O5 0.337070 0.292595 0.822920
O O6 0.742457 0.238284 0.863144
O O7 0.500000 0.000000 0.500000
O O8 0.492412 0.794345 0.722626
O O9 0.605764 0.866754 0.717841
O O10 0.181331 0.078126 0.821139
O O11 0.586094 0.130788 0.091237
O O12 0.131225 0.625531 0.059725
O O13 0.500000 0.500000 0.500000
O O14 0.647571 0.195263 0.568571
O O15 0.078127 0.204418 0.725941
O O16 0.710661 0.516882 0.885774
O O17 0.454216 0.915952 0.193694
#
# Coordination Sequence:
#
# PCOD8031883 Si02
#       8
#     2   2   2   2   2   2   2   2
#     4  12  24  41  70  98 138 178 221 280 327 392
#     4  12  22  35  61 102 137 177 217 263 328 399
#     4  11  27  46  74  97 128 177 227 283 330 399
#     4  12  22  42  67 100 141 177 221 268 330 411
#     4  11  26  52  74  96 122 176 238 279 337 397
#     4  11  23  38  60  97 146 180 216 260 326 405
#     4  11  23  36  58  96 144 183 216 258 324 403
#     4  12  25  41  63 104 137 173 217 279 335 388
#
# _framework density 22.108428
#
# number of rings (size 3 to 8) (size 9 to 14) (size 15 to 20)
#    0.000    0.500    6.250    2.250    3.500    1.500 
#    0.000    0.625    0.000    0.000    0.000    0.000 
#    0.000    0.000    0.000    0.000    0.000    0.000 
#
# Total GULP energy -198253.374092 kJ/mol
# GULP energy per Si atom -12390.835881 kJ/mol
# Density = 2.205811 g / cm^3
# Si number density = 22.108428 Si / 1000 Ang^3
#
#
#
# Elastic Constant Matrix: (Units=GPa)
#
#
# Indices 1 2 3 4 5 6 
#
# 1 157.2339 21.1372 69.1331 -1.6912 -23.6749 6.7490
# 2 21.1372 48.4192 36.6662 9.7938 -3.5130 17.2290
# 3 69.1331 36.6662 125.3221 4.6155 -7.7474 8.4421
# 4 -1.6912 9.7938 4.6155 42.8521 -4.1180 7.4554
# 5 -23.6749 -3.5130 -7.7474 -4.1180 48.0098 -4.3140
# 6 6.7490 17.2290 8.4421 7.4554 -4.3140 30.9789
#
#
#
# Elastic Compliance Matrix: (Units=1/GPa)
#
#
# Indices 1 2 3 4 5 6 
#
# 1 0.009068 -0.000262 -0.004719 0.001348 0.003776 -0.000343
# 2 -0.000262 0.033446 -0.008504 -0.004146 -0.000788 -0.015339
# 3 -0.004719 -0.008504 0.012885 -0.000073 -0.000681 0.002169
# 4 0.001348 -0.004146 -0.000073 0.025203 0.002176 -0.003730
# 5 0.003776 -0.000788 -0.000681 0.002176 0.022932 0.002471
# 6 -0.000343 -0.015339 0.002169 -0.003730 0.002471 0.041536
#
#
# Mechanical properties :
#
#
# Convention : Reuss Voigt Hill
#
# Bulk Modulus (GPa) = 35.17419 64.98313 50.07866
# Shear Modulus (GPa) = 27.54588 37.97075 32.75831
#
# Velocity S-wave (km/s) = 3.53362 4.14874 3.85348
# Velocity P-wave (km/s) = 5.70903 7.23921 6.51917
#
# Compressibility (1/GPa) = 0.02842994
#
# Stress axis : x y z
#
# Youngs Moduli (GPa) = 110.28306 29.89865 77.61048
#
# Poissons Ratio (x) = 0.00784 0.36621
# Poissons Ratio (y) = 0.02891 0.65998
# Poissons Ratio (z) = 0.52038 0.25425
#
# Static dielectric constant tensor:
#      x y z
#    x 4.086520 -0.029080 -0.065230 
#    y -0.029080 3.606800 0.172480 
#    z -0.065230 0.172480 4.298050 
# 
# 
# High freq. dielectric constant tensor:
#      x y z
#    x 1.880350 -0.007830 0.000350 
#    y -0.007830 1.844110 0.021020 
#    z 0.000350 0.021020 1.879010 
# 
# From -- ./inp_files/562990.got.cif
#   From: 2010.06.25/outbox.cif.g09.slc.cpg/sg2_282_cif.got.tgz:562990.got - 2010.06.27 13:26:56.
