data_PCOD8031111
_publ_section_title
;
Structure prediction by ZEFSAII (Michael W. Deem and Ramdas Pophale) SiO2 
 PCOD8031111
Probable space group: P -1
;
_chemical_formula_sum "Si O2"
_cell_formula_units_Z 16
_cell_length_a 14.735931
_cell_length_b 12.062611
_cell_length_c 7.865740
_cell_angle_alpha 60.486249
_cell_angle_beta 69.926720
_cell_angle_gamma 117.990187
_cell_volume 713.671500
_symmetry_space_group_name_H-M "P -1"
_symmetry_group_IT_number 2
_symmetry_cell_setting 'triclinic'
loop_
_space_group_symop_operation_xyz
x,y,z
-x,-y,-z
loop_
_atom_site_type_symbol
_atom_site_label
_atom_site_fract_x
_atom_site_fract_y
_atom_site_fract_z
Si Si1 0.125506 0.974176 0.123948
Si Si2 0.887917 0.182144 0.090306
Si Si3 0.373222 0.918396 0.513134
Si Si4 0.171291 0.331477 0.263739
Si Si5 0.218688 0.103157 0.334860
Si Si6 0.799768 0.492522 0.195691
Si Si7 0.650826 0.571291 0.395265
Si Si8 0.533269 0.327474 0.984282
O O1 0.940371 0.792686 0.406291
O O2 0.196805 0.008974 0.237341
O O3 0.153612 0.898891 0.015436
O O4 0.203671 0.185739 0.849360
O O5 0.774115 0.179695 0.213796
O O6 0.870719 0.048746 0.334416
O O7 0.070019 0.406241 0.822391
O O8 0.313805 0.744813 0.561445
O O9 0.500000 0.000000 0.500000
O O10 0.449325 0.103382 0.203012
O O11 0.159161 0.184638 0.284263
O O12 0.347269 0.544082 0.036233
O O13 0.116897 0.389505 0.128565
O O14 0.399509 0.294251 0.122853
O O15 0.695555 0.512512 0.271126
O O16 0.500000 0.500000 0.500000
O O17 0.624958 0.454122 0.660494
#
# Coordination Sequence:
#
# PCOD8031111 Si02
#       8
#     2   2   2   2   2   2   2   2
#     4  12  24  43  69 106 141 179 224 287 359 430
#     4  11  26  45  72 104 142 185 240 292 354 420
#     4  11  26  47  74  97 136 195 245 294 346 408
#     4  12  22  41  70 103 145 182 229 285 362 426
#     4  11  22  42  68 104 144 183 221 293 359 429
#     4  12  24  45  71 101 146 190 234 293 350 414
#     4  12  25  42  71 110 145 181 228 289 364 430
#     4  11  24  43  68 100 141 185 239 288 350 417
#
# _framework density 22.419279
#
# number of rings (size 3 to 8) (size 9 to 14) (size 15 to 20)
#    0.000    0.500    5.000    3.375    1.750    3.000 
#    0.000    1.875    0.000    0.000    0.000    0.000 
#    0.000    0.000    0.000    0.000    0.000    0.000 
#
# Total GULP energy -198316.604003 kJ/mol
# GULP energy per Si atom -12394.787750 kJ/mol
# Density = 2.236825 g / cm^3
# Si number density = 22.419279 Si / 1000 Ang^3
#
#
#
# Elastic Constant Matrix: (Units=GPa)
#
#
# Indices 1 2 3 4 5 6 
#
# 1 85.2245 37.2312 29.8936 -5.2454 -13.4533 -1.9937
# 2 37.2312 126.6666 40.6802 -9.2790 -16.5701 3.0508
# 3 29.8936 40.6802 106.4394 -12.2261 -7.7962 1.2745
# 4 -5.2454 -9.2790 -12.2261 32.2627 10.5030 1.3074
# 5 -13.4533 -16.5701 -7.7962 10.5030 39.0545 -1.6788
# 6 -1.9937 3.0508 1.2745 1.3074 -1.6788 37.2953
#
#
#
# Elastic Compliance Matrix: (Units=1/GPa)
#
#
# Indices 1 2 3 4 5 6 
#
# 1 0.014556 -0.003021 -0.002781 -0.000725 0.003428 0.001300
# 2 -0.003021 0.010048 -0.002733 0.000586 0.002485 -0.000799
# 3 -0.002781 -0.002733 0.011563 0.003406 -0.000745 -0.000473
# 4 -0.000725 0.000586 0.003406 0.035307 -0.008896 -0.001841
# 5 0.003428 0.002485 -0.000745 -0.008896 0.030156 0.001675
# 6 0.001300 -0.000799 -0.000473 -0.001841 0.001675 0.027104
#
#
# Mechanical properties :
#
#
# Convention : Reuss Voigt Hill
#
# Bulk Modulus (GPa) = 52.36616 59.32672 55.84644
# Shear Modulus (GPa) = 32.85818 35.75754 34.30786
#
# Velocity S-wave (km/s) = 3.83250 3.99801 3.91613
# Velocity P-wave (km/s) = 6.55686 6.91606 6.73885
#
# Compressibility (1/GPa) = 0.01909630
#
# Stress axis : x y z
#
# Youngs Moduli (GPa) = 68.70009 99.52580 86.48463
#
# Poissons Ratio (x) = 0.30069 0.24053
# Poissons Ratio (y) = 0.20756 0.23633
# Poissons Ratio (z) = 0.19106 0.27197
#
# Static dielectric constant tensor:
#      x y z
#    x 3.958540 0.087080 -0.103370 
#    y 0.087080 3.878220 -0.148930 
#    z -0.103370 -0.148930 4.313690 
# 
# 
# High freq. dielectric constant tensor:
#      x y z
#    x 1.878020 0.015080 -0.007180 
#    y 0.015080 1.871190 -0.010170 
#    z -0.007180 -0.010170 1.900190 
# 
# From -- ./inp_files/306713.got.cif
#   From: 2010.06.25/outbox.cif.g09.slc.cpg/sg2_154_cif.got.tgz:306713.got - 2010.06.27 13:26:56.
