data_PCOD8031890
_publ_section_title
;
Structure prediction by ZEFSAII (Michael W. Deem and Ramdas Pophale) SiO2 
 PCOD8031890
Probable space group: P -1
;
_chemical_formula_sum "Si O2"
_cell_formula_units_Z 14
_cell_length_a 7.022177
_cell_length_b 14.428321
_cell_length_c 10.257719
_cell_angle_alpha 85.071717
_cell_angle_beta 137.738439
_cell_angle_gamma 75.295349
_cell_volume 613.260092
_symmetry_space_group_name_H-M "P -1"
_symmetry_group_IT_number 2
_symmetry_cell_setting 'triclinic'
loop_
_space_group_symop_operation_xyz
x,y,z
-x,-y,-z
loop_
_atom_site_type_symbol
_atom_site_label
_atom_site_fract_x
_atom_site_fract_y
_atom_site_fract_z
Si Si1 0.213739 0.615438 0.362698
Si Si2 0.959433 0.288415 0.995334
Si Si3 0.680884 0.937746 0.911986
Si Si4 0.680159 0.110674 0.044146
Si Si5 0.298833 0.086661 0.486821
Si Si6 0.337964 0.286328 0.431906
Si Si7 0.711904 0.676809 0.316938
O O1 0.500000 0.500000 0.500000
O O2 0.352190 0.698297 0.445194
O O3 0.005878 0.608123 0.378195
O O4 0.988947 0.657925 0.115238
O O5 0.085477 0.160871 0.052591
O O6 0.128626 0.317678 0.192550
O O7 0.583905 0.349385 0.836214
O O8 0.557728 0.890739 0.967532
O O9 0.366145 0.027564 0.667184
O O10 0.855039 0.000329 0.062331
O O11 0.927274 0.139311 0.244296
O O12 0.442331 0.200647 0.814749
O O13 0.443351 0.167287 0.541734
O O14 0.500000 0.000000 0.500000
O O15 0.153664 0.349496 0.462566
#
# Coordination Sequence:
#
# PCOD8031890 Si02
#       7
#     2   2   2   2   2   2   2
#     4  11  28  51  73  97 131 175 231 295 350 402
#     4  11  24  44  72 102 137 180 223 281 336 405
#     4  11  23  38  62 100 141 184 226 261 325 400
#     4  11  23  37  63  95 139 192 223 267 321 395
#     4  12  23  36  60  97 142 181 221 263 319 401
#     4  11  25  42  70 104 135 180 222 277 339 401
#     4  11  23  44  70  99 134 176 230 279 340 403
#
# _framework density 22.828813
#
# number of rings (size 3 to 8) (size 9 to 14) (size 15 to 20)
#    0.000    0.857    5.714    0.429    4.000    6.286 
#    0.000    1.429    0.000    0.000    0.000    0.000 
#    0.000    0.000    0.000    0.000    0.000    0.000 
#
# Total GULP energy -173452.147899 kJ/mol
# GULP energy per Si atom -12389.439136 kJ/mol
# Density = 2.277685 g / cm^3
# Si number density = 22.828813 Si / 1000 Ang^3
#
#
#
# Elastic Constant Matrix: (Units=GPa)
#
#
# Indices 1 2 3 4 5 6 
#
# 1 84.6779 21.4046 23.1974 20.6507 -1.7581 -29.7577
# 2 21.4046 42.6096 39.0141 2.2534 7.4516 -9.3791
# 3 23.1974 39.0141 119.8762 23.7795 -21.9667 -18.9650
# 4 20.6507 2.2534 23.7795 33.8820 -9.2427 0.9241
# 5 -1.7581 7.4516 -21.9667 -9.2427 36.6621 0.7442
# 6 -29.7577 -9.3791 -18.9650 0.9241 0.7442 35.1903
#
#
#
# Elastic Compliance Matrix: (Units=1/GPa)
#
#
# Indices 1 2 3 4 5 6 
#
# 1 0.026927 -0.015619 0.008453 -0.020920 0.003777 0.023632
# 2 -0.015619 0.052677 -0.023127 0.016885 -0.020819 -0.011634
# 3 0.008453 -0.023127 0.021934 -0.015521 0.014073 0.012915
# 4 -0.020920 0.016885 -0.015521 0.052662 0.000007 -0.022938
# 5 0.003777 -0.020819 0.014073 0.000007 0.040034 0.004382
# 6 0.023632 -0.011634 0.012915 -0.022938 0.004382 0.052770
#
#
# Mechanical properties :
#
#
# Convention : Reuss Voigt Hill
#
# Bulk Modulus (GPa) = 24.41806 46.04399 35.23103
# Shear Modulus (GPa) = 15.56478 32.05004 23.80741
#
# Velocity S-wave (km/s) = 2.61397 3.75097 3.23285
# Velocity P-wave (km/s) = 4.45307 6.24281 5.42229
#
# Compressibility (1/GPa) = 0.04095329
#
# Stress axis : x y z
#
# Youngs Moduli (GPa) = 37.13766 18.98366 45.59223
#
# Poissons Ratio (x) = 0.29650 -0.38539
# Poissons Ratio (y) = 0.58004 1.05439
# Poissons Ratio (z) = -0.31393 0.43903
#
# Static dielectric constant tensor:
#      x y z
#    x 4.272600 -0.060690 -0.598100 
#    y -0.060690 3.788270 -0.224060 
#    z -0.598100 -0.224060 2.710530 
# 
# 
# High freq. dielectric constant tensor:
#      x y z
#    x 1.912030 0.004810 -0.026070 
#    y 0.004810 1.879060 0.010130 
#    z -0.026070 0.010130 1.899760 
# 
# From -- ./inp_files/397513.got.cif
#   From: 2010.06.25/outbox.cif.g09.slc.cpg/sg2_199_cif.got.tgz:397513.got - 2010.06.27 13:26:56.
