data_PCOD8031729
_publ_section_title
;
Structure prediction by ZEFSAII (Michael W. Deem and Ramdas Pophale) SiO2 
 PCOD8031729
Probable space group: P -1
;
_chemical_formula_sum "Si O2"
_cell_formula_units_Z 16
_cell_length_a 8.905996
_cell_length_b 12.044020
_cell_length_c 17.986631
_cell_angle_alpha 39.491156
_cell_angle_beta 36.174397
_cell_angle_gamma 36.063834
_cell_volume 629.701800
_symmetry_space_group_name_H-M "P -1"
_symmetry_group_IT_number 2
_symmetry_cell_setting 'triclinic'
loop_
_space_group_symop_operation_xyz
x,y,z
-x,-y,-z
loop_
_atom_site_type_symbol
_atom_site_label
_atom_site_fract_x
_atom_site_fract_y
_atom_site_fract_z
Si Si1 0.762691 0.293873 0.684749
Si Si2 0.912458 0.901135 0.021211
Si Si3 0.575725 0.144648 0.704347
Si Si4 0.551181 0.334790 0.465898
Si Si5 0.124630 0.316122 0.197830
Si Si6 0.512542 0.650851 0.838863
Si Si7 0.483963 0.327367 0.924059
Si Si8 0.588338 0.962547 0.400559
O O1 0.757748 0.138190 0.707838
O O2 0.743247 0.478203 0.547297
O O3 0.484799 0.381244 0.808722
O O4 0.061416 0.183481 0.670508
O O5 0.758226 0.780915 0.177659
O O6 0.176034 0.742365 0.948831
O O7 0.690177 0.087662 0.963856
O O8 0.000000 0.000000 0.000000
O O9 0.560459 0.306302 0.566092
O O10 0.716066 0.923225 0.728715
O O11 0.589406 0.131755 0.519734
O O12 0.790584 0.397720 0.311916
O O13 0.282930 0.404765 0.141589
O O14 0.176215 0.368420 0.064668
O O15 0.613800 0.448137 0.856072
O O16 0.536342 0.818131 0.696092
O O17 0.500000 0.000000 0.500000
#
# Coordination Sequence:
#
# PCOD8031729 Si02
#       8
#     2   2   2   2   2   2   2   2
#     4  12  28  48  71 113 148 198 247 312 370 440
#     4  11  22  45  75 111 146 194 249 306 370 438
#     4  11  25  46  74 103 154 195 248 305 368 444
#     4  12  26  48  71 109 151 195 250 302 368 454
#     4  11  25  45  77 111 146 194 250 306 368 448
#     4  12  24  47  79 108 150 197 249 311 365 451
#     4  11  26  46  74 113 149 193 250 302 376 437
#     4  12  26  49  75 106 151 198 245 309 381 438
#
# _framework density 25.408852
#
# number of rings (size 3 to 8) (size 9 to 14) (size 15 to 20)
#    0.000    0.500    5.000    3.000    3.500    2.500 
#    2.250    0.000    0.000    0.000    0.000    0.000 
#    0.000    0.000    0.000    0.000    0.000    0.000 
#
# Total GULP energy -198357.923052 kJ/mol
# GULP energy per Si atom -12397.370191 kJ/mol
# Density = 2.535102 g / cm^3
# Si number density = 25.408852 Si / 1000 Ang^3
#
#
#
# Elastic Constant Matrix: (Units=GPa)
#
#
# Indices 1 2 3 4 5 6 
#
# 1 74.3804 9.6664 28.9532 8.6108 5.1726 25.7266
# 2 9.6664 63.9249 32.9430 -4.1645 -0.4472 13.9844
# 3 28.9532 32.9430 122.7925 0.7997 8.1654 12.4831
# 4 8.6108 -4.1645 0.7997 43.5329 -0.7139 1.3686
# 5 5.1726 -0.4472 8.1654 -0.7139 47.2811 1.1833
# 6 25.7266 13.9844 12.4831 1.3686 1.1833 29.0638
#
#
#
# Elastic Compliance Matrix: (Units=1/GPa)
#
#
# Indices 1 2 3 4 5 6 
#
# 1 0.021388 0.002468 -0.003738 -0.003371 -0.001264 -0.018304
# 2 0.002468 0.020167 -0.005075 0.001861 0.001072 -0.009840
# 3 -0.003738 -0.005075 0.010345 -0.000003 -0.001460 0.001368
# 4 -0.003371 0.001861 -0.000003 0.023798 0.000723 0.000940
# 5 -0.001264 0.001072 -0.001460 0.000723 0.021554 0.000318
# 6 -0.018304 -0.009840 0.001368 0.000940 0.000318 0.054699
#
#
# Mechanical properties :
#
#
# Convention : Reuss Voigt Hill
#
# Bulk Modulus (GPa) = 25.50478 44.91366 35.20922
# Shear Modulus (GPa) = 28.13544 36.61124 32.37334
#
# Velocity S-wave (km/s) = 3.33123 3.80002 3.57332
# Velocity P-wave (km/s) = 4.98555 6.08015 5.55986
#
# Compressibility (1/GPa) = 0.03920834
#
# Stress axis : x y z
#
# Youngs Moduli (GPa) = 46.75550 49.58588 96.66483
#
# Poissons Ratio (x) = -0.12238 0.36138
# Poissons Ratio (y) = -0.11540 0.49062
# Poissons Ratio (z) = 0.17479 0.25167
#
# Static dielectric constant tensor:
#      x y z
#    x 4.730680 -0.153050 -0.099770 
#    y -0.153050 4.735980 0.011820 
#    z -0.099770 0.011820 4.934340 
# 
# 
# High freq. dielectric constant tensor:
#      x y z
#    x 1.999520 0.010340 0.007450 
#    y 0.010340 2.017260 -0.012990 
#    z 0.007450 -0.012990 2.035760 
# 
# From -- ./inp_files/559630.got.cif
#   From: 2010.06.25/outbox.cif.g09.slc.cpg/sg2_280_cif.got.tgz:559630.got - 2010.06.27 13:26:56.
