data_PCOD8031222
_publ_section_title
;
Structure prediction by ZEFSAII (Michael W. Deem and Ramdas Pophale) SiO2 
 PCOD8031222
Probable space group: P -1
;
_chemical_formula_sum "Si O2"
_cell_formula_units_Z 12
_cell_length_a 12.672494
_cell_length_b 9.570797
_cell_length_c 9.761316
_cell_angle_alpha 135.029863
_cell_angle_beta 114.603997
_cell_angle_gamma 42.093758
_cell_volume 545.942241
_symmetry_space_group_name_H-M "P -1"
_symmetry_group_IT_number 2
_symmetry_cell_setting 'triclinic'
loop_
_space_group_symop_operation_xyz
x,y,z
-x,-y,-z
loop_
_atom_site_type_symbol
_atom_site_label
_atom_site_fract_x
_atom_site_fract_y
_atom_site_fract_z
Si Si1 0.822345 0.697970 0.598262
Si Si2 0.676011 0.481989 0.461010
Si Si3 0.683596 0.200805 0.033231
Si Si4 0.173987 0.843140 0.424692
Si Si5 0.674013 0.509629 0.998689
Si Si6 0.674627 0.942641 0.404990
O O1 0.801136 0.510542 0.524412
O O2 0.688485 0.892823 0.541957
O O3 0.000000 0.500000 0.500000
O O4 0.804580 0.883852 0.835086
O O5 0.685843 0.407393 0.573001
O O6 0.498525 0.758245 0.511776
O O7 0.732834 0.225226 0.225006
O O8 0.701902 0.362613 0.052742
O O9 0.505495 0.321138 0.032423
O O10 0.197431 0.715295 0.200537
O O11 0.189549 0.061800 0.571288
O O12 0.000000 0.000000 0.500000
O O13 0.700523 0.710587 0.175463
#
# Coordination Sequence:
#
# PCOD8031222 Si02
#       6
#     2   2   2   2   2   2
#     4  12  25  42  70 106 138 172 227 290 338 394
#     4  12  25  43  73 102 132 184 230 277 337 408
#     4  11  22  42  73 103 130 178 233 279 330 403
#     4  12  28  46  66 102 146 175 220 292 348 392
#     4  11  23  42  74  99 134 181 230 276 335 407
#     4  12  23  45  72  98 134 184 233 272 333 416
#
# _framework density 21.980346000000001
#
# number of rings (size 3 to 8) (size 9 to 14) (size 15 to 20)
#    0.000    0.333    6.667    3.000    0.000    4.667 
#    0.000    0.000    0.000    0.000    0.000    0.000 
#    0.000    0.000    0.000    0.000    0.000    0.000 
#
# Total GULP energy -148874.545012 kJ/mol
# GULP energy per Si atom -12406.212084 kJ/mol
# Density = 2.193032 g / cm^3
# Si number density = 21.980346 Si / 1000 Ang^3
#
#
#
# Elastic Constant Matrix: (Units=GPa)
#
#
# Indices 1 2 3 4 5 6 
#
# 1 119.7270 -2.7341 75.1963 6.2351 16.3410 19.1415
# 2 -2.7341 45.5404 14.8905 -12.7794 6.1697 4.5758
# 3 75.1963 14.8905 152.0399 16.7601 22.1961 -0.0500
# 4 6.2351 -12.7794 16.7601 24.4607 0.8661 -7.9948
# 5 16.3410 6.1697 22.1961 0.8661 46.4875 10.3421
# 6 19.1415 4.5758 -0.0500 -7.9948 10.3421 29.7402
#
#
#
# Elastic Compliance Matrix: (Units=1/GPa)
#
#
# Indices 1 2 3 4 5 6 
#
# 1 0.015104 0.004772 -0.008054 0.000780 0.000185 -0.010324
# 2 0.004772 0.030392 -0.007101 0.018997 -0.002259 -0.001867
# 3 -0.008054 -0.007101 0.012677 -0.008549 -0.003262 0.005134
# 4 0.000780 0.018997 -0.008549 0.061159 -0.002976 0.014036
# 5 0.000185 -0.002259 -0.003262 -0.002976 0.025456 -0.009429
# 6 -0.010324 -0.001867 0.005134 0.014036 -0.009429 0.047617
#
#
# Mechanical properties :
#
#
# Convention : Reuss Voigt Hill
#
# Bulk Modulus (GPa) = 26.73484 54.66808 40.70146
# Shear Modulus (GPa) = 22.15906 35.46798 28.81352
#
# Velocity S-wave (km/s) = 3.17855 4.02135 3.62453
# Velocity P-wave (km/s) = 5.06561 6.81814 6.00614
#
# Compressibility (1/GPa) = 0.03740438
#
# Stress axis : x y z
#
# Youngs Moduli (GPa) = 66.20544 32.90391 78.88610
#
# Poissons Ratio (x) = -0.15700 0.63536
# Poissons Ratio (y) = -0.31591 0.56021
# Poissons Ratio (z) = 0.53323 0.23367
#
# Static dielectric constant tensor:
#      x y z
#    x 4.248830 0.189010 0.415950 
#    y 0.189010 3.919800 -0.113970 
#    z 0.415950 -0.113970 4.611650 
# 
# 
# High freq. dielectric constant tensor:
#      x y z
#    x 1.878830 0.006760 0.009270 
#    y 0.006760 1.851330 -0.001140 
#    z 0.009270 -0.001140 1.872020 
# 
# From -- ./inp_files/148627.got.cif
#   From: 2010.06.25/outbox.cif.g09.slc.cpg/sg2_75_cif.got.tgz:148627.got - 2010.06.27 13:26:56.
