data_PCOD8031402
_publ_section_title
;
Structure prediction by ZEFSAII (Michael W. Deem and Ramdas Pophale) SiO2 
 PCOD8031402
Probable space group: P -1
;
_chemical_formula_sum "Si O2"
_cell_formula_units_Z 14
_cell_length_a 20.683358
_cell_length_b 8.379643
_cell_length_c 9.315230
_cell_angle_alpha 76.353972
_cell_angle_beta 132.606188
_cell_angle_gamma 140.083514
_cell_volume 610.105255
_symmetry_space_group_name_H-M "P -1"
_symmetry_group_IT_number 2
_symmetry_cell_setting 'triclinic'
loop_
_space_group_symop_operation_xyz
x,y,z
-x,-y,-z
loop_
_atom_site_type_symbol
_atom_site_label
_atom_site_fract_x
_atom_site_fract_y
_atom_site_fract_z
Si Si1 0.436734 0.398663 0.084684
Si Si2 0.148240 0.470500 0.382022
Si Si3 0.505740 0.877599 0.162515
Si Si4 0.659697 0.304195 0.764562
Si Si5 0.738550 0.669051 0.574849
Si Si6 0.056810 0.690697 0.686971
Si Si7 0.973199 0.632662 0.083112
O O1 0.442907 0.595644 0.099498
O O2 0.557654 0.466161 0.335822
O O3 0.500000 0.500000 0.000000
O O4 0.249972 0.035920 0.891826
O O5 0.221927 0.404862 0.472513
O O6 0.047740 0.311020 0.419889
O O7 0.308485 0.842723 0.556603
O O8 0.036065 0.357724 0.103585
O O9 0.378402 0.740287 0.117746
O O10 0.500000 0.000000 0.000000
O O11 0.741389 0.595675 0.753806
O O12 0.500000 0.000000 0.500000
O O13 0.797191 0.383439 0.947554
O O14 0.883043 0.030091 0.702747
O O15 0.998987 0.505492 0.786452
O O16 0.000000 0.500000 0.500000
#
# Coordination Sequence:
#
# PCOD8031402 Si02
#       7
#     2   2   2   2   2   2   2
#     4  12  28  48  70 106 146 188 236 299 357 428
#     4  11  24  46  72 105 141 191 235 293 356 422
#     4  12  27  45  74 106 147 188 241 291 363 426
#     4  11  22  43  73 109 141 193 234 298 356 424
#     4  11  24  46  76 105 147 183 245 293 356 426
#     4  12  28  47  72 106 146 188 238 295 362 422
#     4  11  24  44  74 101 152 184 242 294 354 426
#
# _framework density 22.946860999999998
#
# number of rings (size 3 to 8) (size 9 to 14) (size 15 to 20)
#    0.000    0.571    2.857    6.429    8.000    0.571 
#    0.000    2.143    0.000    0.000    0.000    0.000 
#    0.000    0.000    0.000    0.000    0.000    0.000 
#
# Total GULP energy -173471.029889 kJ/mol
# GULP energy per Si atom -12390.787849 kJ/mol
# Density = 2.289463 g / cm^3
# Si number density = 22.946861 Si / 1000 Ang^3
#
#
#
# Elastic Constant Matrix: (Units=GPa)
#
#
# Indices 1 2 3 4 5 6 
#
# 1 179.2770 55.7400 54.7716 7.0852 -14.5318 27.3210
# 2 55.7400 114.5201 35.1067 23.5687 -5.2196 -3.4854
# 3 54.7716 35.1067 99.0760 29.7791 -1.6399 -6.7214
# 4 7.0852 23.5687 29.7791 53.4489 0.8432 3.1577
# 5 -14.5318 -5.2196 -1.6399 0.8432 32.9082 5.1841
# 6 27.3210 -3.4854 -6.7214 3.1577 5.1841 41.3928
#
#
#
# Elastic Compliance Matrix: (Units=1/GPa)
#
#
# Indices 1 2 3 4 5 6 
#
# 1 0.010324 -0.004095 -0.006079 0.004283 0.004929 -0.009090
# 2 -0.004095 0.011890 -0.000236 -0.004803 -0.000455 0.004089
# 3 -0.006079 -0.000236 0.016653 -0.008779 -0.002884 0.007727
# 4 0.004283 -0.004803 -0.008779 0.025532 0.001100 -0.006743
# 5 0.004929 -0.000455 -0.002884 0.001100 0.033588 -0.008050
# 6 -0.009090 0.004089 0.007727 -0.006743 -0.008050 0.033280
#
#
# Mechanical properties :
#
#
# Convention : Reuss Voigt Hill
#
# Bulk Modulus (GPa) = 55.41011 76.01220 65.71115
# Shear Modulus (GPa) = 31.62542 42.03364 36.82953
#
# Velocity S-wave (km/s) = 3.71644 4.28458 4.01058
# Velocity P-wave (km/s) = 6.52805 7.59434 7.08130
#
# Compressibility (1/GPa) = 0.01804725
#
# Stress axis : x y z
#
# Youngs Moduli (GPa) = 96.86385 84.10681 60.05103
#
# Poissons Ratio (x) = 0.34441 0.36503
# Poissons Ratio (y) = 0.39665 0.01415
# Poissons Ratio (z) = 0.58881 0.01982
#
# Static dielectric constant tensor:
#      x y z
#    x 4.379290 0.011080 0.066730 
#    y 0.011080 4.226820 -0.000280 
#    z 0.066730 -0.000280 4.215790 
# 
# 
# High freq. dielectric constant tensor:
#      x y z
#    x 1.929890 0.001960 0.008590 
#    y 0.001960 1.907840 0.009950 
#    z 0.008590 0.009950 1.911040 
# 
# From -- ./inp_files/205105.got.cif
#   From: 2010.06.25/outbox.cif.g09.slc.cpg/sg2_103_cif.got.tgz:205105.got - 2010.06.27 13:26:56.
