data_PCOD8031968
_publ_section_title
;
Structure prediction by ZEFSAII (Michael W. Deem and Ramdas Pophale) SiO2 
 PCOD8031968
Probable space group: P -1
;
_chemical_formula_sum "Si O2"
_cell_formula_units_Z 16
_cell_length_a 10.321215
_cell_length_b 6.603987
_cell_length_c 14.794144
_cell_angle_alpha 136.064551
_cell_angle_beta 78.018447
_cell_angle_gamma 98.357060
_cell_volume 684.410817
_symmetry_space_group_name_H-M "P -1"
_symmetry_group_IT_number 2
_symmetry_cell_setting 'triclinic'
loop_
_space_group_symop_operation_xyz
x,y,z
-x,-y,-z
loop_
_atom_site_type_symbol
_atom_site_label
_atom_site_fract_x
_atom_site_fract_y
_atom_site_fract_z
Si Si1 0.788602 0.350714 0.772463
Si Si2 0.380730 0.176794 0.740660
Si Si3 0.957551 0.498409 0.646105
Si Si4 0.542101 0.713034 0.844380
Si Si5 0.203402 0.667900 0.560045
Si Si6 0.952914 0.067497 0.927229
Si Si7 0.184024 0.420120 0.964709
Si Si8 0.385098 0.171942 0.331883
O O1 0.913451 0.279093 0.663214
O O2 0.670589 0.550686 0.813682
O O3 0.740564 0.036570 0.709696
O O4 0.841295 0.506113 0.903897
O O5 0.426434 0.466377 0.773545
O O6 0.330658 0.292614 0.883609
O O7 0.253769 0.005076 0.661322
O O8 0.498666 0.947586 0.660098
O O9 0.882503 0.388518 0.534026
O O10 0.113115 0.560578 0.624312
O O11 0.893552 0.790278 0.794261
O O12 0.567873 0.820396 0.774815
O O13 0.500000 0.000000 0.000000
O O14 0.338846 0.481626 0.477740
O O15 0.075013 0.173765 0.881550
O O16 0.837804 0.313285 0.017365
O O17 0.000000 0.000000 0.000000
#
# Coordination Sequence:
#
# PCOD8031968 Si02
#       8
#     2   2   2   2   2   2   2   2
#     4  11  23  42  70 104 136 176 237 286 352 419
#     4  11  25  44  68 106 137 183 239 279 347 424
#     4  11  23  44  71  99 140 182 235 285 345 412
#     4  11  24  43  71 102 138 183 227 292 356 407
#     4  11  24  46  70  97 144 191 235 285 338 416
#     4  11  23  42  68 101 140 177 222 291 355 413
#     4  11  23  39  69 102 140 172 225 292 354 411
#     4  11  24  45  68  97 141 187 233 290 341 405
#
# _framework density 23.377770999999999
#
# number of rings (size 3 to 8) (size 9 to 14) (size 15 to 20)
#    0.000    1.000    3.750    2.625    1.750    4.000 
#    2.250    0.000    0.000    0.000    0.000    0.000 
#    0.000    0.000    0.000    0.000    0.000    0.000 
#
# Total GULP energy -198219.374382 kJ/mol
# GULP energy per Si atom -12388.710899 kJ/mol
# Density = 2.332456 g / cm^3
# Si number density = 23.377771 Si / 1000 Ang^3
#
#
#
# Elastic Constant Matrix: (Units=GPa)
#
#
# Indices 1 2 3 4 5 6 
#
# 1 90.7126 38.9181 42.2894 0.6079 -0.9487 27.9136
# 2 38.9181 115.4194 52.3321 -4.0822 4.3152 36.2884
# 3 42.2894 52.3321 108.4151 -10.3759 -6.2499 25.9181
# 4 0.6079 -4.0822 -10.3759 31.1928 5.9689 -3.1055
# 5 -0.9487 4.3152 -6.2499 5.9689 42.7441 1.1290
# 6 27.9136 36.2884 25.9181 -3.1055 1.1290 46.0295
#
#
#
# Elastic Compliance Matrix: (Units=1/GPa)
#
#
# Indices 1 2 3 4 5 6 
#
# 1 0.015468 -0.001593 -0.004041 -0.002536 0.000427 -0.006031
# 2 -0.001593 0.013468 -0.004261 0.000009 -0.001829 -0.007207
# 3 -0.004041 -0.004261 0.013718 0.003550 0.001896 -0.001721
# 4 -0.002536 0.000009 0.003550 0.034323 -0.004383 0.001956
# 5 0.000427 -0.001829 0.001896 -0.004383 0.024499 -0.000781
# 6 -0.006031 -0.007207 -0.001721 0.001956 -0.000781 0.032184
#
#
# Mechanical properties :
#
#
# Convention : Reuss Voigt Hill
#
# Bulk Modulus (GPa) = 43.73938 64.62512 54.18225
# Shear Modulus (GPa) = 31.04198 36.06045 33.55122
#
# Velocity S-wave (km/s) = 3.64791 3.93174 3.79248
# Velocity P-wave (km/s) = 6.04098 6.95092 6.51186
#
# Compressibility (1/GPa) = 0.02286269
#
# Stress axis : x y z
#
# Youngs Moduli (GPa) = 64.64777 74.25104 72.89950
#
# Poissons Ratio (x) = 0.11829 0.29460
# Poissons Ratio (y) = 0.10299 0.31065
# Poissons Ratio (z) = 0.26126 0.31640
#
# Static dielectric constant tensor:
#      x y z
#    x 4.377110 0.478930 -0.233850 
#    y 0.478930 4.503740 0.143250 
#    z -0.233850 0.143250 4.321950 
# 
# 
# High freq. dielectric constant tensor:
#      x y z
#    x 1.926670 0.031700 -0.005960 
#    y 0.031700 1.928880 0.010280 
#    z -0.005960 0.010280 1.926120 
# 
# From -- ./inp_files/410317.got.cif
#   From: 2010.06.25/outbox.cif.g09.slc.cpg/sg2_206_cif.got.tgz:410317.got - 2010.06.27 13:26:56.
