data_PCOD8031986
_publ_section_title
;
Structure prediction by ZEFSAII (Michael W. Deem and Ramdas Pophale) SiO2 
 PCOD8031986
Probable space group: P -1
;
_chemical_formula_sum "Si O2"
_cell_formula_units_Z 16
_cell_length_a 15.918420
_cell_length_b 9.014659
_cell_length_c 5.321391
_cell_angle_alpha 78.238680
_cell_angle_beta 95.481547
_cell_angle_gamma 68.202740
_cell_volume 681.709626
_symmetry_space_group_name_H-M "P -1"
_symmetry_group_IT_number 2
_symmetry_cell_setting 'triclinic'
loop_
_space_group_symop_operation_xyz
x,y,z
-x,-y,-z
loop_
_atom_site_type_symbol
_atom_site_label
_atom_site_fract_x
_atom_site_fract_y
_atom_site_fract_z
Si Si1 0.550250 0.834537 0.424517
Si Si2 0.952125 0.875091 0.081813
Si Si3 0.886639 0.477763 0.716632
Si Si4 0.698716 0.909449 0.197757
Si Si5 0.134923 0.166103 0.425389
Si Si6 0.602988 0.575145 0.896019
Si Si7 0.423364 0.737843 0.098318
Si Si8 0.776647 0.565065 0.156991
O O1 0.605868 0.875957 0.204602
O O2 0.625309 0.690724 0.661265
O O3 0.474966 0.765125 0.345471
O O4 0.500000 0.000000 0.500000
O O5 0.899689 0.912393 0.321802
O O6 0.022503 0.686007 0.174143
O O7 0.881241 0.904691 0.819582
O O8 0.000000 0.000000 0.000000
O O9 0.915638 0.633680 0.658569
O O10 0.832642 0.469704 0.450240
O O11 0.826632 0.484154 0.943054
O O12 0.754670 0.891347 0.481739
O O13 0.764035 0.759110 0.088110
O O14 0.667712 0.095493 0.028671
O O15 0.613119 0.405492 0.822704
O O16 0.497496 0.681081 0.913482
O O17 0.679034 0.543533 0.147268
#
# Coordination Sequence:
#
# PCOD8031986 Si02
#       8
#     2   2   2   2   2   2   2   2
#     4  12  22  40  66  91 125 181 230 283 327 396
#     4  12  26  46  72 102 139 174 216 272 348 416
#     4  11  24  45  73 101 133 176 226 277 339 400
#     4  11  23  43  65  98 129 172 232 276 333 386
#     4  11  24  44  71 102 133 177 223 278 328 411
#     4  11  23  40  60  91 136 173 224 270 344 390
#     4  11  24  40  60  93 130 178 220 280 333 400
#     4  11  23  42  70 101 135 179 229 285 328 404
#
# _framework density 23.470405
#
# number of rings (size 3 to 8) (size 9 to 14) (size 15 to 20)
#    0.000    0.750    2.500    6.375    0.000    3.000 
#    0.000    0.000    0.000    0.000    0.000    0.000 
#    0.000    0.000    0.000    0.000    0.000    0.000 
#
# Total GULP energy -198359.522203 kJ/mol
# GULP energy per Si atom -12397.470138 kJ/mol
# Density = 2.341699 g / cm^3
# Si number density = 23.470405 Si / 1000 Ang^3
#
#
#
# Elastic Constant Matrix: (Units=GPa)
#
#
# Indices 1 2 3 4 5 6 
#
# 1 65.0557 16.9059 28.9238 1.2277 15.2277 12.8695
# 2 16.9059 78.2088 29.4725 1.3174 9.2793 11.5813
# 3 28.9238 29.4725 128.0510 11.7625 14.9243 4.5806
# 4 1.2277 1.3174 11.7625 31.5702 5.2601 2.3078
# 5 15.2277 9.2793 14.9243 5.2601 46.4832 4.4852
# 6 12.8695 11.5813 4.5806 2.3078 4.4852 44.2992
#
#
#
# Elastic Compliance Matrix: (Units=1/GPa)
#
#
# Indices 1 2 3 4 5 6 
#
# 1 0.019259 -0.001700 -0.003416 0.001690 -0.004638 -0.004416
# 2 -0.001700 0.014812 -0.002853 0.000947 -0.001301 -0.003001
# 3 -0.003416 -0.002853 0.009629 -0.003221 -0.001138 0.001025
# 4 0.001690 0.000947 -0.003221 0.033456 -0.003320 -0.001812
# 5 -0.004638 -0.001301 -0.001138 -0.003320 0.024078 -0.000459
# 6 -0.004416 -0.003001 0.001025 -0.001812 -0.000459 0.024676
#
#
# Mechanical properties :
#
#
# Convention : Reuss Voigt Hill
#
# Bulk Modulus (GPa) = 36.01963 46.87998 41.44981
# Shear Modulus (GPa) = 33.09021 37.53808 35.31415
#
# Velocity S-wave (km/s) = 3.75890 4.00356 3.88316
# Velocity P-wave (km/s) = 5.84972 6.43341 6.14850
#
# Compressibility (1/GPa) = 0.02776264
#
# Stress axis : x y z
#
# Youngs Moduli (GPa) = 51.92317 67.51370 103.84906
#
# Poissons Ratio (x) = 0.11479 0.35470
# Poissons Ratio (y) = 0.08828 0.29629
# Poissons Ratio (z) = 0.17735 0.19262
#
# Static dielectric constant tensor:
#      x y z
#    x -16.547750 4.318320 -1.327660 
#    y 4.318320 3.372710 0.317200 
#    z -1.327660 0.317200 4.161890 
# 
# 
# High freq. dielectric constant tensor:
#      x y z
#    x 1.923990 0.002430 0.015030 
#    y 0.002430 1.925510 0.001280 
#    z 0.015030 0.001280 1.933160 
# 
# From -- ./inp_files/90153.got.cif
#   From: 2010.06.25/outbox.cif.g09.slc.cpg/sg2_46_cif.got.tgz:90153.got - 2010.06.27 13:26:56.
