data_PCOD8031273
_publ_section_title
;
Structure prediction by ZEFSAII (Michael W. Deem and Ramdas Pophale) SiO2 
 PCOD8031273
Probable space group: P -1
;
_chemical_formula_sum "Si O2"
_cell_formula_units_Z 10
_cell_length_a 11.351021
_cell_length_b 9.276750
_cell_length_c 11.818573
_cell_angle_alpha 39.967891
_cell_angle_beta 39.751290
_cell_angle_gamma 69.685966
_cell_volume 412.993271
_symmetry_space_group_name_H-M "P -1"
_symmetry_group_IT_number 2
_symmetry_cell_setting 'triclinic'
loop_
_space_group_symop_operation_xyz
x,y,z
-x,-y,-z
loop_
_atom_site_type_symbol
_atom_site_label
_atom_site_fract_x
_atom_site_fract_y
_atom_site_fract_z
Si Si1 0.456450 0.372924 0.288744
Si Si2 0.442439 0.057372 0.128011
Si Si3 0.627334 0.791814 0.291766
Si Si4 0.052818 0.376056 0.192358
Si Si5 0.022370 0.846863 0.860348
O O1 0.397439 0.238473 0.537687
O O2 0.281614 0.120535 0.485331
O O3 0.715237 0.501156 0.983123
O O4 0.421917 0.613475 0.157636
O O5 0.521503 0.951878 0.234271
O O6 0.168547 0.901563 0.423587
O O7 0.500000 0.000000 0.000000
O O8 0.500000 0.500000 0.500000
O O9 0.889869 0.950244 0.962852
O O10 0.095398 0.299565 0.083144
O O11 0.013526 0.614165 0.080271
#
# Coordination Sequence:
#
# PCOD8031273 Si02
#       5
#     2   2   2   2   2
#     4  12  25  42  69 101 129 172 221 265 324 388
#     4  12  24  42  70  96 129 177 216 268 331 381
#     4  12  21  44  69  94 133 172 215 264 323 389
#     4  11  22  43  67  94 135 172 215 270 324 386
#     4  11  23  42  70  97 131 175 216 267 325 384
#
# _framework density 24.213467999999999
#
# number of rings (size 3 to 8) (size 9 to 14) (size 15 to 20)
#    0.000    0.400    6.000    3.000    0.000    1.600 
#    0.000    2.000    0.000    0.000    0.000    0.000 
#    0.000    0.000    0.000    0.000    0.000    0.000 
#
# Total GULP energy -124043.576571 kJ/mol
# GULP energy per Si atom -12404.357657 kJ/mol
# Density = 2.415836 g / cm^3
# Si number density = 24.213468 Si / 1000 Ang^3
#
#
#
# Elastic Constant Matrix: (Units=GPa)
#
#
# Indices 1 2 3 4 5 6 
#
# 1 79.7625 17.5105 35.3778 -9.5494 -5.8926 -22.5889
# 2 17.5105 53.3954 25.5519 4.6960 -4.5249 -14.0030
# 3 35.3778 25.5519 119.4373 -9.3733 -16.0191 -8.2092
# 4 -9.5494 4.6960 -9.3733 49.0511 -4.1332 -8.1425
# 5 -5.8926 -4.5249 -16.0191 -4.1332 51.6362 -4.7991
# 6 -22.5889 -14.0030 -8.2092 -8.1425 -4.7991 19.7985
#
#
#
# Elastic Compliance Matrix: (Units=1/GPa)
#
#
# Indices 1 2 3 4 5 6 
#
# 1 0.025121 0.002234 -0.004006 0.010064 0.005797 0.034125
# 2 0.002234 0.025429 -0.004274 0.000729 0.003056 0.019803
# 3 -0.004006 -0.004274 0.010803 0.001593 0.002474 -0.001859
# 4 0.010064 0.000729 0.001593 0.027327 0.006256 0.025414
# 5 0.005797 0.003056 0.002474 0.006256 0.023238 0.018007
# 6 0.034125 0.019803 -0.001859 0.025414 0.018007 0.117496
#
#
# Mechanical properties :
#
#
# Convention : Reuss Voigt Hill
#
# Bulk Modulus (GPa) = 20.29976 45.49729 32.89852
# Shear Modulus (GPa) = 19.38550 35.70749 27.54650
#
# Velocity S-wave (km/s) = 2.83257 3.84434 3.37657
# Velocity P-wave (km/s) = 4.37033 6.20775 5.36824
#
# Compressibility (1/GPa) = 0.04926167
#
# Stress axis : x y z
#
# Youngs Moduli (GPa) = 39.80716 39.32528 92.56974
#
# Poissons Ratio (x) = -0.08787 0.37085
# Poissons Ratio (y) = -0.08894 0.39562
# Poissons Ratio (z) = 0.15947 0.16807
#
# Static dielectric constant tensor:
#      x y z
#    x 4.386050 -0.325850 -0.187720 
#    y -0.325850 4.438990 0.161750 
#    z -0.187720 0.161750 4.744120 
# 
# 
# High freq. dielectric constant tensor:
#      x y z
#    x 1.950800 -0.014790 -0.008830 
#    y -0.014790 1.960770 -0.000680 
#    z -0.008830 -0.000680 1.973280 
# 
# From -- ./inp_files/145663.got.cif
#   From: 2010.06.25/outbox.cif.g09.slc.cpg/sg2_73_cif.got.tgz:145663.got - 2010.06.27 13:26:56.
