data_PCOD8031976
_publ_section_title
;
Structure prediction by ZEFSAII (Michael W. Deem and Ramdas Pophale) SiO2 
 PCOD8031976
Probable space group: P -1
;
_chemical_formula_sum "Si O2"
_cell_formula_units_Z 16
_cell_length_a 10.032308
_cell_length_b 9.250114
_cell_length_c 9.683137
_cell_angle_alpha 115.640637
_cell_angle_beta 96.498246
_cell_angle_gamma 59.634402
_cell_volume 692.505825
_symmetry_space_group_name_H-M "P -1"
_symmetry_group_IT_number 2
_symmetry_cell_setting 'triclinic'
loop_
_space_group_symop_operation_xyz
x,y,z
-x,-y,-z
loop_
_atom_site_type_symbol
_atom_site_label
_atom_site_fract_x
_atom_site_fract_y
_atom_site_fract_z
Si Si1 0.933953 0.797465 0.317166
Si Si2 0.586401 0.506218 0.309109
Si Si3 0.390299 0.271845 0.356172
Si Si4 0.287701 0.916406 0.789657
Si Si5 0.720956 0.472552 0.800466
Si Si6 0.105679 0.275963 0.417698
Si Si7 0.796606 0.537319 0.123400
Si Si8 0.056702 0.145169 0.070485
O O1 0.918503 0.816756 0.488517
O O2 0.867409 0.669668 0.201906
O O3 0.835319 0.998609 0.316077
O O4 0.886619 0.282956 0.734777
O O5 0.560743 0.606124 0.494527
O O6 0.686366 0.284686 0.251200
O O7 0.418913 0.569900 0.248311
O O8 0.681042 0.569246 0.248824
O O9 0.550162 0.098593 0.244331
O O10 0.282670 0.395223 0.267865
O O11 0.289476 0.206714 0.403626
O O12 0.223590 0.049878 0.972181
O O13 0.701842 0.578006 0.986446
O O14 0.062127 0.195787 0.249418
O O15 0.000000 0.500000 0.500000
O O16 0.940234 0.327212 0.046361
O O17 0.000000 0.000000 0.000000
#
# Coordination Sequence:
#
# PCOD8031976 Si02
#       8
#     2   2   2   2   2   2   2   2
#     4  12  25  45  73 107 141 187 250 293 348 437
#     4  11  24  50  71 100 149 193 234 293 370 426
#     4  11  24  49  72 100 143 195 239 288 365 434
#     4  11  26  44  71 105 146 182 232 312 348 417
#     4  11  23  39  71 107 135 184 238 292 352 423
#     4  12  24  46  76 101 141 199 236 285 371 433
#     4  12  23  45  74 103 146 187 240 297 360 427
#     4  12  25  45  71 108 146 185 237 299 361 424
#
# _framework density 23.104502
#
# number of rings (size 3 to 8) (size 9 to 14) (size 15 to 20)
#    0.000    0.500    6.250    2.250    1.750    2.000 
#    6.750    3.125    0.000    0.000    0.000    0.000 
#    0.000    0.000    0.000    0.000    0.000    0.000 
#
# Total GULP energy -198461.391969 kJ/mol
# GULP energy per Si atom -12403.836998 kJ/mol
# Density = 2.305191 g / cm^3
# Si number density = 23.104502 Si / 1000 Ang^3
#
#
#
# Elastic Constant Matrix: (Units=GPa)
#
#
# Indices 1 2 3 4 5 6 
#
# 1 136.0413 42.5874 44.0299 8.3219 -7.8590 -19.7023
# 2 42.5874 66.9495 44.8890 -13.6310 7.4988 -15.3253
# 3 44.0299 44.8890 172.7270 -16.0205 6.2136 -6.9976
# 4 8.3219 -13.6310 -16.0205 33.9991 -0.6254 4.2862
# 5 -7.8590 7.4988 6.2136 -0.6254 45.6709 0.6122
# 6 -19.7023 -15.3253 -6.9976 4.2862 0.6122 34.0467
#
#
#
# Elastic Compliance Matrix: (Units=1/GPa)
#
#
# Indices 1 2 3 4 5 6 
#
# 1 0.011165 -0.006829 -0.001647 -0.006673 0.003124 0.003833
# 2 -0.006829 0.025437 -0.003598 0.009372 -0.004810 0.005665
# 3 -0.001647 -0.003598 0.007352 0.002587 -0.000639 -0.001376
# 4 -0.006673 0.009372 0.002587 0.036437 -0.002491 -0.003654
# 5 0.003124 -0.004810 -0.000639 -0.002491 0.023284 -0.000594
# 6 0.003833 0.005665 -0.001376 -0.003654 -0.000594 0.034327
#
#
# Mechanical properties :
#
#
# Convention : Reuss Voigt Hill
#
# Bulk Modulus (GPa) = 50.49314 70.97005 60.73159
# Shear Modulus (GPa) = 29.62925 39.02410 34.32667
#
# Velocity S-wave (km/s) = 3.58495 4.11423 3.85868
# Velocity P-wave (km/s) = 6.24800 7.30431 6.79670
#
# Compressibility (1/GPa) = 0.01980467
#
# Stress axis : x y z
#
# Youngs Moduli (GPa) = 89.56197 39.31330 136.02377
#
# Poissons Ratio (x) = 0.26847 0.22409
# Poissons Ratio (y) = 0.61163 0.48942
# Poissons Ratio (z) = 0.14755 0.14145
#
# Static dielectric constant tensor:
#      x y z
#    x 4.301700 -0.151860 -0.271150 
#    y -0.151860 3.975020 -0.097720 
#    z -0.271150 -0.097720 4.340230 
# 
# 
# High freq. dielectric constant tensor:
#      x y z
#    x 1.926350 -0.004010 -0.014250 
#    y -0.004010 1.895510 -0.015650 
#    z -0.014250 -0.015650 1.927540 
# 
# From -- ./inp_files/245570.got.cif
#   From: 2010.06.25/outbox.cif.g09.slc.cpg/sg2_123_cif.got.tgz:245570.got - 2010.06.27 13:26:56.
