data_PCOD8031694
_publ_section_title
;
Structure prediction by ZEFSAII (Michael W. Deem and Ramdas Pophale) SiO2 
 PCOD8031694
Probable space group: P -1
;
_chemical_formula_sum "Si O2"
_cell_formula_units_Z 16
_cell_length_a 14.731431
_cell_length_b 11.719855
_cell_length_c 17.622695
_cell_angle_alpha 30.573272
_cell_angle_beta 29.364300
_cell_angle_gamma 33.263773
_cell_volume 712.559124
_symmetry_space_group_name_H-M "P -1"
_symmetry_group_IT_number 2
_symmetry_cell_setting 'triclinic'
loop_
_space_group_symop_operation_xyz
x,y,z
-x,-y,-z
loop_
_atom_site_type_symbol
_atom_site_label
_atom_site_fract_x
_atom_site_fract_y
_atom_site_fract_z
Si Si1 0.293958 0.065259 0.068722
Si Si2 0.052348 0.835729 0.630225
Si Si3 0.601158 0.162681 0.372130
Si Si4 0.985041 0.984153 0.930808
Si Si5 0.349852 0.992175 0.403506
Si Si6 0.151133 0.484691 0.307182
Si Si7 0.732016 0.707598 0.202336
Si Si8 0.758432 0.424819 0.645861
O O1 0.140413 0.189442 0.175819
O O2 0.243642 0.844088 0.194671
O O3 0.267656 0.254666 0.910693
O O4 0.500000 0.000000 0.000000
O O5 0.141422 0.975891 0.542756
O O6 0.207044 0.568174 0.659117
O O7 0.000000 0.000000 0.500000
O O8 0.809620 0.111335 0.208784
O O9 0.614835 0.114828 0.477820
O O10 0.455104 0.434661 0.314655
O O11 0.500000 0.000000 0.500000
O O12 0.849686 0.252520 0.857230
O O13 0.873598 0.808195 0.089150
O O14 0.000000 0.000000 0.000000
O O15 0.510583 0.845982 0.310506
O O16 0.325497 0.274470 0.257663
O O17 0.210423 0.445914 0.374058
O O18 0.947126 0.446650 0.450713
#
# Coordination Sequence:
#
# PCOD8031694 Si02
#       8
#     2   2   2   2   2   2   2   2
#     4  12  27  48  73 107 145 191 234 310 365 410
#     4  12  29  51  75 100 139 198 249 291 351 440
#     4  12  23  42  70 105 137 190 230 282 355 436
#     4  12  27  43  69 105 149 182 230 306 363 416
#     4  12  26  45  77  99 141 190 241 292 351 438
#     4  11  22  45  72 105 140 188 239 289 356 433
#     4  12  29  49  68 111 146 183 243 305 364 416
#     4  11  23  42  74 103 143 184 245 285 355 442
#
# _framework density 22.454277999999999
#
# number of rings (size 3 to 8) (size 9 to 14) (size 15 to 20)
#    0.000    0.250    5.000    3.750    7.000    1.500 
#    0.000    0.000    0.000    0.000    0.000    0.000 
#    0.000    0.000    0.000    0.000    0.000    0.000 
#
# Total GULP energy -198284.693077 kJ/mol
# GULP energy per Si atom -12392.793317 kJ/mol
# Density = 2.240317 g / cm^3
# Si number density = 22.454278 Si / 1000 Ang^3
#
#
#
# Elastic Constant Matrix: (Units=GPa)
#
#
# Indices 1 2 3 4 5 6 
#
# 1 121.8210 20.9368 32.0370 -3.2953 12.0433 -13.8196
# 2 20.9368 152.4438 29.7768 -9.8452 18.1864 -4.1061
# 3 32.0370 29.7768 71.6734 1.8264 14.7912 0.2206
# 4 -3.2953 -9.8452 1.8264 47.4553 3.6329 1.1620
# 5 12.0433 18.1864 14.7912 3.6329 49.6601 -4.1333
# 6 -13.8196 -4.1061 0.2206 1.1620 -4.1333 31.9830
#
#
#
# Elastic Compliance Matrix: (Units=1/GPa)
#
#
# Indices 1 2 3 4 5 6 
#
# 1 0.009928 -0.000294 -0.004190 0.000746 -0.000761 0.004156
# 2 -0.000294 0.007475 -0.002613 0.001769 -0.001973 0.000531
# 3 -0.004190 -0.002613 0.017655 -0.001186 -0.003421 -0.002667
# 4 0.000746 0.001769 -0.001186 0.021710 -0.002106 -0.000503
# 5 -0.000761 -0.001973 -0.003421 -0.002106 0.022418 0.002415
# 6 0.004156 0.000531 -0.002667 -0.000503 0.002415 0.033479
#
#
# Mechanical properties :
#
#
# Convention : Reuss Voigt Hill
#
# Bulk Modulus (GPa) = 47.93392 56.82659 52.38025
# Shear Modulus (GPa) = 37.36497 43.36553 40.36525
#
# Velocity S-wave (km/s) = 4.08370 4.39940 4.24449
# Velocity P-wave (km/s) = 6.60524 7.15325 6.88470
#
# Compressibility (1/GPa) = 0.02086205
#
# Stress axis : x y z
#
# Youngs Moduli (GPa) = 100.72396 133.78692 56.64034
#
# Poissons Ratio (x) = 0.03936 0.23734
# Poissons Ratio (y) = 0.02963 0.14802
# Poissons Ratio (z) = 0.42207 0.34964
#
# Static dielectric constant tensor:
#      x y z
#    x 4.052200 0.002460 -0.060360 
#    y 0.002460 4.259820 0.086180 
#    z -0.060360 0.086180 4.176620 
# 
# 
# High freq. dielectric constant tensor:
#      x y z
#    x 1.897220 -0.003300 -0.007780 
#    y -0.003300 1.905480 -0.004160 
#    z -0.007780 -0.004160 1.876750 
# 
# From -- ./inp_files/573333.got.cif
#   From: 2010.06.25/outbox.cif.g09.slc.cpg/sg2_287_cif.got.tgz:573333.got - 2010.06.27 13:26:56.
