data_PCOD8031887
_publ_section_title
;
Structure prediction by ZEFSAII (Michael W. Deem and Ramdas Pophale) SiO2 
 PCOD8031887
Probable space group: P -1
;
_chemical_formula_sum "Si O2"
_cell_formula_units_Z 16
_cell_length_a 5.105399
_cell_length_b 14.458058
_cell_length_c 16.333894
_cell_angle_alpha 129.662140
_cell_angle_beta 85.539639
_cell_angle_gamma 122.640599
_cell_volume 712.474790
_symmetry_space_group_name_H-M "P -1"
_symmetry_group_IT_number 2
_symmetry_cell_setting 'triclinic'
loop_
_space_group_symop_operation_xyz
x,y,z
-x,-y,-z
loop_
_atom_site_type_symbol
_atom_site_label
_atom_site_fract_x
_atom_site_fract_y
_atom_site_fract_z
Si Si1 0.094010 0.793015 0.610063
Si Si2 0.029641 0.425768 0.633611
Si Si3 0.431820 0.523691 0.231261
Si Si4 0.224185 0.799439 0.981044
Si Si5 0.288504 0.336518 0.865796
Si Si6 0.479814 0.844703 0.169643
Si Si7 0.712246 0.922214 0.897140
Si Si8 0.556749 0.312419 0.357005
O O1 0.266386 0.754652 0.649615
O O2 0.132566 0.747589 0.491829
O O3 0.682056 0.684511 0.572609
O O4 0.264863 0.973212 0.710989
O O5 0.341559 0.496072 0.727874
O O6 0.152162 0.522099 0.599177
O O7 0.740888 0.420908 0.680849
O O8 0.664348 0.646223 0.223524
O O9 0.156464 0.362160 0.099175
O O10 0.355221 0.815569 0.894829
O O11 0.459588 0.811047 0.053277
O O12 0.233077 0.943406 0.082527
O O13 0.397645 0.238291 0.836736
O O14 0.892448 0.233334 0.833524
O O15 0.500000 0.500000 0.000000
O O16 0.715655 0.809240 0.774238
O O17 0.000000 0.000000 0.000000
#
# Coordination Sequence:
#
# PCOD8031887 Si02
#       8
#     2   2   2   2   2   2   2   2
#     4  12  26  46  69 101 140 183 231 278 332 404
#     4  12  26  46  70  99 140 185 230 277 336 401
#     4  12  26  45  69 100 132 181 229 289 344 400
#     4  11  24  39  65 100 144 175 219 275 348 412
#     4  12  27  46  74 103 136 170 235 285 347 410
#     4  12  26  46  71 103 135 182 225 286 345 402
#     4  11  23  37  62 104 144 183 216 269 342 420
#     4  12  23  42  68 103 140 183 233 268 328 417
#
# _framework density 22.456934
#
# number of rings (size 3 to 8) (size 9 to 14) (size 15 to 20)
#    0.000    0.250    3.750    5.625    5.250    0.000 
#    0.000    3.750    0.000    0.000    0.000    0.000 
#    0.000    0.000    0.000    0.000    0.000    0.000 
#
# Total GULP energy -198442.103045 kJ/mol
# GULP energy per Si atom -12402.631440 kJ/mol
# Density = 2.240582 g / cm^3
# Si number density = 22.456934 Si / 1000 Ang^3
#
#
#
# Elastic Constant Matrix: (Units=GPa)
#
#
# Indices 1 2 3 4 5 6 
#
# 1 118.3051 40.4890 -1.8456 4.5253 -17.7949 -7.5822
# 2 40.4890 113.0753 28.0697 1.6539 -15.3578 -7.7706
# 3 -1.8456 28.0697 80.9949 6.3567 -12.6244 3.2288
# 4 4.5253 1.6539 6.3567 25.7337 6.7834 -1.2029
# 5 -17.7949 -15.3578 -12.6244 6.7834 32.4523 -6.1652
# 6 -7.5822 -7.7706 3.2288 -1.2029 -6.1652 42.3285
#
#
#
# Elastic Compliance Matrix: (Units=1/GPa)
#
#
# Indices 1 2 3 4 5 6 
#
# 1 0.010978 -0.003516 0.002742 -0.004041 0.006640 0.001964
# 2 -0.003516 0.011513 -0.003806 0.000290 0.002384 0.002130
# 3 0.002742 -0.003806 0.015258 -0.005811 0.006747 -0.000554
# 4 -0.004041 0.000290 -0.005811 0.044591 -0.013845 -0.000977
# 5 0.006640 0.002384 0.006747 -0.013845 0.042413 0.006897
# 6 0.001964 0.002130 -0.000554 -0.000977 0.006897 0.025386
#
#
# Mechanical properties :
#
#
# Convention : Reuss Voigt Hill
#
# Bulk Modulus (GPa) = 34.97703 49.53350 42.25526
# Shear Modulus (GPa) = 29.61583 36.48039 33.04811
#
# Velocity S-wave (km/s) = 3.63545 4.03483 3.84033
# Velocity P-wave (km/s) = 5.76463 6.61902 6.20654
#
# Compressibility (1/GPa) = 0.02859019
#
# Stress axis : x y z
#
# Youngs Moduli (GPa) = 91.09134 86.85604 65.53996
#
# Poissons Ratio (x) = 0.30536 -0.17974
# Poissons Ratio (y) = 0.32025 0.24946
# Poissons Ratio (z) = -0.24981 0.33059
#
# Static dielectric constant tensor:
#      x y z
#    x 2.997700 0.032390 0.210070 
#    y 0.032390 4.469780 -0.140920 
#    z 0.210070 -0.140920 4.127530 
# 
# 
# High freq. dielectric constant tensor:
#      x y z
#    x 1.897050 0.000070 -0.003300 
#    y 0.000070 1.882090 -0.000270 
#    z -0.003300 -0.000270 1.894500 
# 
# From -- ./inp_files/484395.got.cif
#   From: 2010.06.25/outbox.cif.g09.slc.cpg/sg2_243_cif.got.tgz:484395.got - 2010.06.27 13:26:56.
