data_PCOD8031728
_publ_section_title
;
Structure prediction by ZEFSAII (Michael W. Deem and Ramdas Pophale) SiO2 
 PCOD8031728
Probable space group: P -1
;
_chemical_formula_sum "Si O2"
_cell_formula_units_Z 16
_cell_length_a 12.735281
_cell_length_b 21.085130
_cell_length_c 9.568694
_cell_angle_alpha 47.351526
_cell_angle_beta 34.334258
_cell_angle_gamma 29.881825
_cell_volume 715.213471
_symmetry_space_group_name_H-M "P -1"
_symmetry_group_IT_number 2
_symmetry_cell_setting 'triclinic'
loop_
_space_group_symop_operation_xyz
x,y,z
-x,-y,-z
loop_
_atom_site_type_symbol
_atom_site_label
_atom_site_fract_x
_atom_site_fract_y
_atom_site_fract_z
Si Si1 0.487748 0.633097 0.085191
Si Si2 0.393184 0.155591 0.023604
Si Si3 0.877113 0.218596 0.481408
Si Si4 0.494038 0.436279 0.362585
Si Si5 0.897072 0.601384 0.849579
Si Si6 0.727030 0.066964 0.508314
Si Si7 0.774200 0.243947 0.099348
Si Si8 0.602076 0.943094 0.315775
O O1 0.216662 0.734224 0.328362
O O2 0.606631 0.494891 0.164375
O O3 0.739406 0.607711 0.889623
O O4 0.390676 0.701805 0.942760
O O5 0.317909 0.262284 0.041937
O O6 0.122091 0.199342 0.200870
O O7 0.573433 0.032561 0.108038
O O8 0.547415 0.130905 0.750761
O O9 0.615140 0.330325 0.505162
O O10 0.987870 0.082625 0.547067
O O11 0.579257 0.368984 0.222288
O O12 0.161441 0.558449 0.556854
O O13 0.000000 0.500000 0.000000
O O14 0.813066 0.133878 0.276385
O O15 0.565606 0.079407 0.534892
O O16 0.070795 0.189292 0.838828
O O17 0.500000 0.000000 0.500000
#
# Coordination Sequence:
#
# PCOD8031728 Si02
#       8
#     2   2   2   2   2   2   2   2
#     4  12  27  45  68 104 140 184 233 285 346 422
#     4  11  23  45  70 103 141 182 232 287 345 407
#     4  11  22  45  75 100 135 182 233 290 344 409
#     4  12  25  47  70 101 140 185 235 287 342 411
#     4  12  25  42  71 102 135 183 237 285 342 405
#     4  11  26  45  71 108 142 176 236 290 341 414
#     4  12  28  45  72 104 142 185 227 286 354 414
#     4  11  26  46  73 103 144 184 221 288 355 415
#
# _framework density 22.370943
#
# number of rings (size 3 to 8) (size 9 to 14) (size 15 to 20)
#    0.000    0.500    2.500    6.750    3.500    3.500 
#    0.000    0.000    0.000    0.000    0.000    0.000 
#    0.000    0.000    0.000    0.000    0.000    0.000 
#
# Total GULP energy -198458.050912 kJ/mol
# GULP energy per Si atom -12403.628182 kJ/mol
# Density = 2.232003 g / cm^3
# Si number density = 22.370943 Si / 1000 Ang^3
#
#
#
# Elastic Constant Matrix: (Units=GPa)
#
#
# Indices 1 2 3 4 5 6 
#
# 1 122.5592 47.7396 33.9406 27.8024 16.5784 15.2680
# 2 47.7396 110.4139 36.7184 7.5380 -3.4420 9.0022
# 3 33.9406 36.7184 88.4351 9.5419 19.7221 -1.8063
# 4 27.8024 7.5380 9.5419 29.1384 6.7721 9.2009
# 5 16.5784 -3.4420 19.7221 6.7721 37.4419 3.5097
# 6 15.2680 9.0022 -1.8063 9.2009 3.5097 63.5684
#
#
#
# Elastic Compliance Matrix: (Units=1/GPa)
#
#
# Indices 1 2 3 4 5 6 
#
# 1 0.013154 -0.004646 -0.001249 -0.009782 -0.003738 -0.000915
# 2 -0.004646 0.012927 -0.005094 0.001884 0.005724 -0.001448
# 3 -0.001249 -0.005094 0.015944 -0.001472 -0.008248 0.002143
# 4 -0.009782 0.001884 -0.001472 0.045639 -0.002561 -0.004424
# 5 -0.003738 0.005724 -0.008248 -0.002561 0.033852 -0.001645
# 6 -0.000915 -0.001448 0.002143 -0.004424 -0.001645 0.016948
#
#
# Mechanical properties :
#
#
# Convention : Reuss Voigt Hill
#
# Bulk Modulus (GPa) = 49.88017 62.02283 55.95150
# Shear Modulus (GPa) = 29.91814 39.56371 34.74092
#
# Velocity S-wave (km/s) = 3.66097 4.20995 3.94502
# Velocity P-wave (km/s) = 6.34157 7.17053 6.76875
#
# Compressibility (1/GPa) = 0.02004805
#
# Stress axis : x y z
#
# Youngs Moduli (GPa) = 76.02527 77.35474 62.72007
#
# Poissons Ratio (x) = 0.35940 0.07831
# Poissons Ratio (y) = 0.35322 0.31947
# Poissons Ratio (z) = 0.09493 0.39402
#
# Static dielectric constant tensor:
#      x y z
#    x 4.124310 0.057980 -0.027030 
#    y 0.057980 4.538420 0.405570 
#    z -0.027030 0.405570 4.334120 
# 
# 
# High freq. dielectric constant tensor:
#      x y z
#    x 1.893760 0.003500 0.000210 
#    y 0.003500 1.892030 0.006710 
#    z 0.000210 0.006710 1.886040 
# 
# From -- ./inp_files/282851.got.cif
#   From: 2010.06.25/outbox.cif.g09.slc.cpg/sg2_142_cif.got.tgz:282851.got - 2010.06.27 13:26:56.
