data_PCOD8031608
_publ_section_title
;
Structure prediction by ZEFSAII (Michael W. Deem and Ramdas Pophale) SiO2 
 PCOD8031608
Probable space group: P -1
;
_chemical_formula_sum "Si O2"
_cell_formula_units_Z 16
_cell_length_a 13.728425
_cell_length_b 9.020331
_cell_length_c 11.244640
_cell_angle_alpha 69.785404
_cell_angle_beta 31.400820
_cell_angle_gamma 69.163768
_cell_volume 675.545435
_symmetry_space_group_name_H-M "P -1"
_symmetry_group_IT_number 2
_symmetry_cell_setting 'triclinic'
loop_
_space_group_symop_operation_xyz
x,y,z
-x,-y,-z
loop_
_atom_site_type_symbol
_atom_site_label
_atom_site_fract_x
_atom_site_fract_y
_atom_site_fract_z
Si Si1 0.397186 0.660285 0.506893
Si Si2 0.355511 0.869383 0.029506
Si Si3 0.018822 0.834973 0.820597
Si Si4 0.341026 0.300066 0.388944
Si Si5 0.477287 0.625545 0.169593
Si Si6 0.183898 0.209854 0.186560
Si Si7 0.959227 0.835789 0.391444
Si Si8 0.637777 0.853461 0.346300
O O1 0.500000 0.500000 0.500000
O O2 0.371563 0.645008 0.398427
O O3 0.532916 0.790901 0.360132
O O4 0.179584 0.718333 0.757659
O O5 0.387170 0.765885 0.142403
O O6 0.184216 0.811331 0.149025
O O7 0.322984 0.053019 0.049178
O O8 0.534856 0.849863 0.760921
O O9 0.955519 0.746093 0.791870
O O10 0.842855 0.889018 0.077841
O O11 0.111914 0.991140 0.639247
O O12 0.437320 0.455002 0.206524
O O13 0.133494 0.300606 0.546306
O O14 0.332149 0.281263 0.545017
O O15 0.699298 0.641248 0.951247
O O16 0.076320 0.169745 0.428800
O O17 0.500000 0.000000 0.500000
#
# Coordination Sequence:
#
# PCOD8031608 Si02
#       8
#     2   2   2   2   2   2   2   2
#     4  12  26  49  70 101 144 187 237 293 351 418
#     4  11  24  43  73 101 140 182 230 287 351 418
#     4  11  25  45  77 105 136 187 241 294 351 414
#     4  12  27  44  64 103 144 181 232 281 354 417
#     4  12  24  46  70 101 141 190 222 289 355 417
#     4  11  22  44  75 105 134 181 234 290 351 418
#     4  11  24  43  69 109 135 177 236 291 346 421
#     4  12  26  47  74 104 140 187 240 294 348 416
#
# _framework density 23.684564999999999
#
# number of rings (size 3 to 8) (size 9 to 14) (size 15 to 20)
#    0.000    0.500    3.750    6.000    1.750    4.000 
#    2.250    0.000    0.000    0.000    0.000    0.000 
#    0.000    0.000    0.000    0.000    0.000    0.000 
#
# Total GULP energy -198354.673995 kJ/mol
# GULP energy per Si atom -12397.167125 kJ/mol
# Density = 2.363066 g / cm^3
# Si number density = 23.684565 Si / 1000 Ang^3
#
#
#
# Elastic Constant Matrix: (Units=GPa)
#
#
# Indices 1 2 3 4 5 6 
#
# 1 119.6186 38.5401 31.5116 -8.4308 -10.7773 -10.1635
# 2 38.5401 63.4492 33.8576 -12.9370 -16.0300 7.2819
# 3 31.5116 33.8576 107.7966 -5.5369 -3.4540 -18.7523
# 4 -8.4308 -12.9370 -5.5369 38.5906 3.4980 -11.4859
# 5 -10.7773 -16.0300 -3.4540 3.4980 46.3361 -5.5579
# 6 -10.1635 7.2819 -18.7523 -11.4859 -5.5579 31.0847
#
#
#
# Elastic Compliance Matrix: (Units=1/GPa)
#
#
# Indices 1 2 3 4 5 6 
#
# 1 0.011356 -0.007095 0.000132 0.001926 0.000808 0.006311
# 2 -0.007095 0.027939 -0.008481 0.002497 0.005751 -0.012031
# 3 0.000132 -0.008481 0.013981 0.002620 -0.000703 0.011307
# 4 0.001926 0.002497 0.002620 0.031464 0.000737 0.013383
# 5 0.000808 0.005751 -0.000703 0.000737 0.024018 0.003060
# 6 0.006311 -0.012031 0.011307 0.013383 0.003060 0.049365
#
#
# Mechanical properties :
#
#
# Convention : Reuss Voigt Hill
#
# Bulk Modulus (GPa) = 44.67098 55.40921 50.04009
# Shear Modulus (GPa) = 25.44839 35.66597 30.55718
#
# Velocity S-wave (km/s) = 3.28147 3.88477 3.59579
# Velocity P-wave (km/s) = 5.76707 6.60056 6.19784
#
# Compressibility (1/GPa) = 0.02238590
#
# Stress axis : x y z
#
# Youngs Moduli (GPa) = 88.05838 35.79180 71.52459
#
# Poissons Ratio (x) = 0.25396 -0.00941
# Poissons Ratio (y) = 0.62482 0.60664
# Poissons Ratio (z) = -0.01159 0.30357
#
# Static dielectric constant tensor:
#      x y z
#    x 4.657820 0.045910 -0.028240 
#    y 0.045910 4.236290 -0.090410 
#    z -0.028240 -0.090410 4.248540 
# 
# 
# High freq. dielectric constant tensor:
#      x y z
#    x 1.955190 0.001840 -0.002750 
#    y 0.001840 1.917700 -0.011190 
#    z -0.002750 -0.011190 1.942180 
# 
# From -- ./inp_files/447035.got.cif
#   From: 2010.06.25/outbox.cif.g09.slc.cpg/sg2_224_cif.got.tgz:447035.got - 2010.06.27 13:26:56.
