data_PCOD8031535
_publ_section_title
;
Structure prediction by ZEFSAII (Michael W. Deem and Ramdas Pophale) SiO2 
 PCOD8031535
Probable space group: P -1
;
_chemical_formula_sum "Si O2"
_cell_formula_units_Z 14
_cell_length_a 8.608570
_cell_length_b 7.609532
_cell_length_c 11.816991
_cell_angle_alpha 120.108872
_cell_angle_beta 108.335561
_cell_angle_gamma 53.723705
_cell_volume 539.680000
_symmetry_space_group_name_H-M "P -1"
_symmetry_group_IT_number 2
_symmetry_cell_setting 'triclinic'
loop_
_space_group_symop_operation_xyz
x,y,z
-x,-y,-z
loop_
_atom_site_type_symbol
_atom_site_label
_atom_site_fract_x
_atom_site_fract_y
_atom_site_fract_z
Si Si1 0.622583 0.401535 0.104899
Si Si2 0.133032 0.545464 0.676065
Si Si3 0.726531 0.704706 0.705002
Si Si4 0.664411 0.338900 0.674933
Si Si5 0.648157 0.981697 0.406225
Si Si6 0.281025 0.088891 0.001377
Si Si7 0.902275 0.983496 0.270313
O O1 0.786574 0.467195 0.180867
O O2 0.483674 0.483489 0.208617
O O3 0.500000 0.500000 0.000000
O O4 0.738573 0.120973 0.019897
O O5 0.267483 0.265120 0.581992
O O6 0.910365 0.627100 0.642009
O O7 0.171995 0.735745 0.682078
O O8 0.679697 0.496390 0.629205
O O9 0.791985 0.715966 0.852505
O O10 0.539545 0.948833 0.692797
O O11 0.868602 0.162159 0.722971
O O12 0.583180 0.185396 0.552071
O O13 0.818694 0.969370 0.367130
O O14 0.159792 0.152764 0.877665
O O15 0.500000 0.000000 0.000000
#
# Coordination Sequence:
#
# PCOD8031535 Si02
#       7
#     2   2   2   2   2   2   2
#     4  11  26  46  70 108 150 185 246 308 358 437
#     4  11  28  47  73 114 144 194 249 299 368 431
#     4  12  25  46  79 109 143 201 245 301 371 431
#     4  12  27  48  75 109 145 203 244 294 375 437
#     4  12  26  53  74 104 156 194 243 305 360 438
#     4  11  22  44  71 103 144 188 246 298 366 428
#     4  11  26  47  74 110 151 189 245 307 361 440
#
# _framework density 25.941300999999999
#
# number of rings (size 3 to 8) (size 9 to 14) (size 15 to 20)
#    0.000    0.571    4.286    2.571    6.000    2.857 
#    0.000    0.000    0.000    0.000    0.000    0.000 
#    0.000    0.000    0.000    0.000    0.000    0.000 
#
# Total GULP energy -173477.188798 kJ/mol
# GULP energy per Si atom -12391.227771 kJ/mol
# Density = 2.588226 g / cm^3
# Si number density = 25.941301 Si / 1000 Ang^3
#
#
#
# Elastic Constant Matrix: (Units=GPa)
#
#
# Indices 1 2 3 4 5 6 
#
# 1 106.1965 29.2456 6.8595 -1.8565 11.7040 -17.9758
# 2 29.2456 116.1164 2.7998 0.8904 5.6269 -12.3145
# 3 6.8595 2.7998 69.4558 2.2508 14.7158 -0.2489
# 4 -1.8565 0.8904 2.2508 37.1327 0.5259 16.2728
# 5 11.7040 5.6269 14.7158 0.5259 36.9838 -4.5503
# 6 -17.9758 -12.3145 -0.2489 16.2728 -4.5503 33.0443
#
#
#
# Elastic Compliance Matrix: (Units=1/GPa)
#
#
# Indices 1 2 3 4 5 6 
#
# 1 0.011247 -0.002060 -0.000456 -0.001954 -0.002299 0.005993
# 2 -0.002060 0.009505 -0.000036 -0.001738 -0.000358 0.003228
# 3 -0.000456 -0.000036 0.015775 -0.000578 -0.006207 -0.000713
# 4 -0.001954 -0.001738 -0.000578 0.035443 -0.001780 -0.019414
# 5 -0.002299 -0.000358 -0.006207 -0.001780 0.030769 0.003682
# 6 0.005993 0.003228 -0.000713 -0.019414 0.003682 0.044788
#
#
# Mechanical properties :
#
#
# Convention : Reuss Voigt Hill
#
# Bulk Modulus (GPa) = 31.82270 41.06428 36.44349
# Shear Modulus (GPa) = 30.65528 38.28974 34.47251
#
# Velocity S-wave (km/s) = 3.44134 3.84606 3.64932
# Velocity P-wave (km/s) = 5.29946 5.96548 5.64231
#
# Compressibility (1/GPa) = 0.03142411
#
# Stress axis : x y z
#
# Youngs Moduli (GPa) = 88.91369 105.21105 63.39017
#
# Poissons Ratio (x) = 0.21670 0.02889
# Poissons Ratio (y) = 0.18314 0.00228
# Poissons Ratio (z) = 0.04052 0.00378
#
# Static dielectric constant tensor:
#      x y z
#    x 3.200590 -1.015810 1.742050 
#    y -1.015810 4.094590 0.972740 
#    z 1.742050 0.972740 3.693590 
# 
# 
# High freq. dielectric constant tensor:
#      x y z
#    x 2.043470 -0.004710 0.022580 
#    y -0.004710 2.042840 -0.003540 
#    z 0.022580 -0.003540 2.039220 
# 
# From -- ./inp_files/314711.got.cif
#   From: 2010.06.25/outbox.cif.g09.slc.cpg/sg2_158_cif.got.tgz:314711.got - 2010.06.27 13:26:56.
