data_PCOD8031997
_publ_section_title
;
Structure prediction by ZEFSAII (Michael W. Deem and Ramdas Pophale) SiO2 
 PCOD8031997
Probable space group: P -1
;
_chemical_formula_sum "Si O2"
_cell_formula_units_Z 16
_cell_length_a 8.164552
_cell_length_b 16.285338
_cell_length_c 19.866739
_cell_angle_alpha 19.456866
_cell_angle_beta 126.882571
_cell_angle_gamma 118.294329
_cell_volume 660.599081
_symmetry_space_group_name_H-M "P -1"
_symmetry_group_IT_number 2
_symmetry_cell_setting 'triclinic'
loop_
_space_group_symop_operation_xyz
x,y,z
-x,-y,-z
loop_
_atom_site_type_symbol
_atom_site_label
_atom_site_fract_x
_atom_site_fract_y
_atom_site_fract_z
Si Si1 0.218363 0.161926 0.862586
Si Si2 0.988956 0.339409 0.186706
Si Si3 0.720302 0.915007 0.205260
Si Si4 0.610041 0.137124 0.369847
Si Si5 0.547939 0.837210 0.356202
Si Si6 0.075617 0.170982 0.956249
Si Si7 0.469722 0.702752 0.911337
Si Si8 0.862587 0.398389 0.854727
O O1 0.101054 0.328777 0.771624
O O2 0.167324 0.274920 0.685273
O O3 0.473988 0.083747 0.995015
O O4 0.140451 0.907498 0.042427
O O5 0.061587 0.468289 0.168772
O O6 0.144158 0.040864 0.447375
O O7 0.000000 0.500000 0.000000
O O8 0.750710 0.334188 0.141118
O O9 0.710277 0.756085 0.393600
O O10 0.841085 0.125116 0.084951
O O11 0.623389 0.407382 0.196383
O O12 0.500000 0.000000 0.500000
O O13 0.461581 0.183337 0.228526
O O14 0.631432 0.597670 0.614326
O O15 0.293436 0.906037 0.221377
O O16 0.564238 0.107847 0.180117
O O17 0.048526 0.343772 0.883882
#
# Coordination Sequence:
#
# PCOD8031997 Si02
#       8
#     2   2   2   2   2   2   2   2
#     4   8  16  40  63  90 128 158 202 250 317 381
#     4  12  24  42  64  91 130 174 218 264 318 375
#     4   9  19  39  65  90 126 165 197 260 313 376
#     4  11  24  42  63  90 121 170 220 261 314 373
#     4  11  23  40  63  93 127 161 213 256 316 363
#     4   9  20  38  66  91 123 166 199 261 312 373
#     4  11  25  41  64  90 128 176 214 262 314 375
#     4  11  24  40  61  92 128 160 213 262 312 366
#
# _framework density 24.22044
#
# number of rings (size 3 to 8) (size 9 to 14) (size 15 to 20)
#    0.000    1.750    2.500    1.125    3.500    0.000 
#    0.000   28.750    0.000    0.000    0.000    0.000 
#    0.000    0.000    0.000    0.000    0.000    0.000 
#
# Total GULP energy -198209.303778 kJ/mol
# GULP energy per Si atom -12388.081486 kJ/mol
# Density = 2.416531 g / cm^3
# Si number density = 24.220440 Si / 1000 Ang^3
#
#
#
# Elastic Constant Matrix: (Units=GPa)
#
#
# Indices 1 2 3 4 5 6 
#
# 1 110.2942 41.7999 12.6880 0.1118 -5.9762 -25.3662
# 2 41.7999 90.8566 10.1877 11.6287 -4.0993 -18.7778
# 3 12.6880 10.1877 64.6557 2.8698 -9.2432 -12.0860
# 4 0.1118 11.6287 2.8698 24.3913 -8.4224 0.7906
# 5 -5.9762 -4.0993 -9.2432 -8.4224 38.3443 2.5422
# 6 -25.3662 -18.7778 -12.0860 0.7906 2.5422 46.1087
#
#
#
# Elastic Compliance Matrix: (Units=1/GPa)
#
#
# Indices 1 2 3 4 5 6 
#
# 1 0.012065 -0.004854 -0.000696 0.002719 0.001503 0.004349
# 2 -0.004854 0.014932 -0.000590 -0.007550 -0.001190 0.003451
# 3 -0.000696 -0.000590 0.016905 -0.000603 0.003531 0.003624
# 4 0.002719 -0.007550 -0.000603 0.048311 0.010291 -0.003133
# 5 0.001503 -0.001190 0.003531 0.010291 0.029333 -0.000526
# 6 0.004349 0.003451 0.003624 -0.003133 -0.000526 0.026518
#
#
# Mechanical properties :
#
#
# Convention : Reuss Voigt Hill
#
# Bulk Modulus (GPa) = 31.62376 43.90640 37.76508
# Shear Modulus (GPa) = 29.25957 35.17759 32.21858
#
# Velocity S-wave (km/s) = 3.47948 3.81516 3.65118
# Velocity P-wave (km/s) = 5.40623 6.12980 5.77935
#
# Compressibility (1/GPa) = 0.03162179
#
# Stress axis : x y z
#
# Youngs Moduli (GPa) = 82.88317 66.97238 59.15423
#
# Poissons Ratio (x) = 0.32509 0.04116
# Poissons Ratio (y) = 0.40232 0.03491
# Poissons Ratio (z) = 0.05767 0.03952
#
# Static dielectric constant tensor:
#      x y z
#    x 4.843230 -0.536410 0.014460 
#    y -0.536410 4.410880 0.182450 
#    z 0.014460 0.182450 4.293930 
# 
# 
# High freq. dielectric constant tensor:
#      x y z
#    x 1.981870 -0.023920 0.000390 
#    y -0.023920 1.960070 0.013050 
#    z 0.000390 0.013050 1.939180 
# 
# From -- ./inp_files/590911.got.cif
#   From: 2010.06.25/outbox.cif.g09.slc.cpg/sg2_296_cif.got.tgz:590911.got - 2010.06.27 13:26:56.
