data_PCOD8031751
_publ_section_title
;
Structure prediction by ZEFSAII (Michael W. Deem and Ramdas Pophale) SiO2 
 PCOD8031751
Probable space group: P -1
;
_chemical_formula_sum "Si O2"
_cell_formula_units_Z 16
_cell_length_a 9.672437
_cell_length_b 11.733723
_cell_length_c 9.117733
_cell_angle_alpha 79.673586
_cell_angle_beta 132.304946
_cell_angle_gamma 86.376264
_cell_volume 728.483300
_symmetry_space_group_name_H-M "P -1"
_symmetry_group_IT_number 2
_symmetry_cell_setting 'triclinic'
loop_
_space_group_symop_operation_xyz
x,y,z
-x,-y,-z
loop_
_atom_site_type_symbol
_atom_site_label
_atom_site_fract_x
_atom_site_fract_y
_atom_site_fract_z
Si Si1 0.625814 0.699027 0.867197
Si Si2 0.829264 0.843252 0.436453
Si Si3 0.596622 0.045547 0.419992
Si Si4 0.416650 0.321989 0.826779
Si Si5 0.967834 0.294544 0.870403
Si Si6 0.841492 0.195190 0.085405
Si Si7 0.990348 0.926149 0.241625
Si Si8 0.395549 0.548977 0.562821
O O1 0.553266 0.843031 0.787113
O O2 0.494362 0.646976 0.676214
O O3 0.627626 0.646099 0.043110
O O4 0.844235 0.657963 0.969967
O O5 0.745712 0.735867 0.343671
O O6 0.916777 0.906448 0.355239
O O7 0.002139 0.791197 0.685123
O O8 0.655509 0.939680 0.367766
O O9 0.781386 0.089251 0.592888
O O10 0.500000 0.000000 0.500000
O O11 0.406798 0.444913 0.710391
O O12 0.627957 0.232472 0.989612
O O13 0.055122 0.166922 0.884190
O O14 0.827881 0.386271 0.640836
O O15 0.853866 0.282691 0.939784
O O16 0.880939 0.060109 0.083784
O O17 0.500000 0.500000 0.500000
#
# Coordination Sequence:
#
# PCOD8031751 Si02
#       8
#     2   2   2   2   2   2   2   2
#     4  12  26  47  74 107 138 186 242 285 359 417
#     4  11  25  45  69 109 147 185 229 289 352 422
#     4  11  24  41  75 108 152 186 226 290 355 424
#     4  12  27  47  74 103 140 193 236 289 352 420
#     4  12  26  45  72 106 136 187 234 296 349 423
#     4  11  25  41  72 103 147 183 229 283 354 430
#     4  11  22  46  68 106 149 181 229 291 354 418
#     4  12  29  51  73  99 144 184 244 302 346 415
#
# _framework density 21.963441
#
# number of rings (size 3 to 8) (size 9 to 14) (size 15 to 20)
#    0.000    0.500    3.750    5.250    7.000    3.000 
#    0.000    0.000    0.000    0.000    0.000    0.000 
#    0.000    0.000    0.000    0.000    0.000    0.000 
#
# Total GULP energy -198519.488171 kJ/mol
# GULP energy per Si atom -12407.468011 kJ/mol
# Density = 2.191345 g / cm^3
# Si number density = 21.963441 Si / 1000 Ang^3
#
#
#
# Elastic Constant Matrix: (Units=GPa)
#
#
# Indices 1 2 3 4 5 6 
#
# 1 126.3224 23.1696 25.3511 -6.7287 -6.0264 16.3221
# 2 23.1696 65.1448 34.8392 -8.2711 5.8391 5.1764
# 3 25.3511 34.8392 102.1022 -10.3149 9.4473 4.1261
# 4 -6.7287 -8.2711 -10.3149 27.0007 0.4186 -3.3485
# 5 -6.0264 5.8391 9.4473 0.4186 51.7198 -3.2239
# 6 16.3221 5.1764 4.1261 -3.3485 -3.2239 20.0712
#
#
#
# Elastic Compliance Matrix: (Units=1/GPa)
#
#
# Indices 1 2 3 4 5 6 
#
# 1 0.009536 -0.002159 -0.001441 0.000321 0.001201 -0.006655
# 2 -0.002159 0.019862 -0.005697 0.003156 -0.001599 -0.001926
# 3 -0.001441 -0.005697 0.012532 0.002740 -0.001822 0.000229
# 4 0.000321 0.003156 0.002740 0.039745 -0.000838 0.004858
# 5 0.001201 -0.001599 -0.001822 -0.000838 0.020176 0.002912
# 6 -0.006655 -0.001926 0.000229 0.004858 0.002912 0.056963
#
#
# Mechanical properties :
#
#
# Convention : Reuss Voigt Hill
#
# Bulk Modulus (GPa) = 42.85110 51.14323 46.99717
# Shear Modulus (GPa) = 27.00009 33.77231 30.38620
#
# Velocity S-wave (km/s) = 3.50997 3.92556 3.72356
# Velocity P-wave (km/s) = 5.99825 6.62441 6.31909
#
# Compressibility (1/GPa) = 0.02333662
#
# Stress axis : x y z
#
# Youngs Moduli (GPa) = 104.86958 50.34777 79.79768
#
# Poissons Ratio (x) = 0.10871 0.11496
# Poissons Ratio (y) = 0.22642 0.45457
# Poissons Ratio (z) = 0.15108 0.28681
#
# Static dielectric constant tensor:
#      x y z
#    x 4.126280 0.084900 0.075260 
#    y 0.084900 3.926720 0.026500 
#    z 0.075260 0.026500 4.053020 
# 
# 
# High freq. dielectric constant tensor:
#      x y z
#    x 1.880890 0.005390 0.003010 
#    y 0.005390 1.858870 -0.000640 
#    z 0.003010 -0.000640 1.875680 
# 
# From -- ./inp_files/187049.got.cif
#   From: 2010.06.25/outbox.cif.g09.slc.cpg/sg2_94_cif.got.tgz:187049.got - 2010.06.27 13:26:56.
