data_PCOD8031615
_publ_section_title
;
Structure prediction by ZEFSAII (Michael W. Deem and Ramdas Pophale) SiO2 
 PCOD8031615
Probable space group: P -1
;
_chemical_formula_sum "Si O2"
_cell_formula_units_Z 14
_cell_length_a 5.549617
_cell_length_b 25.972529
_cell_length_c 14.746008
_cell_angle_alpha 157.615309
_cell_angle_beta 133.220221
_cell_angle_gamma 47.283117
_cell_volume 581.981105
_symmetry_space_group_name_H-M "P -1"
_symmetry_group_IT_number 2
_symmetry_cell_setting 'triclinic'
loop_
_space_group_symop_operation_xyz
x,y,z
-x,-y,-z
loop_
_atom_site_type_symbol
_atom_site_label
_atom_site_fract_x
_atom_site_fract_y
_atom_site_fract_z
Si Si1 0.287664 0.252011 0.426748
Si Si2 0.650291 0.632085 0.724773
Si Si3 0.662505 0.326530 0.980380
Si Si4 0.860533 0.088740 0.943608
Si Si5 0.593571 0.394049 0.568408
Si Si6 0.842698 0.053635 0.682939
Si Si7 0.462452 0.857256 0.507535
O O1 0.477723 0.330457 0.528916
O O2 0.559002 0.200616 0.490710
O O3 0.963855 0.335785 0.531578
O O4 0.167267 0.121961 0.136535
O O5 0.500000 0.500000 0.500000
O O6 0.683459 0.624034 0.609758
O O7 0.989272 0.613833 0.842608
O O8 0.430636 0.779919 0.929425
O O9 0.391370 0.446406 0.148117
O O10 0.779169 0.208864 0.890667
O O11 0.491651 0.272898 0.760221
O O12 0.998950 0.046844 0.812070
O O13 0.748484 0.952362 0.734120
O O14 0.500000 0.000000 0.500000
O O15 0.123769 0.950308 0.532952
#
# Coordination Sequence:
#
# PCOD8031615 Si02
#       7
#     2   2   2   2   2   2   2
#     4  11  28  48  74 103 146 195 254 289 356 431
#     4  11  22  44  76 107 143 185 241 305 368 429
#     4  12  23  44  71 103 147 180 244 304 367 431
#     4  11  23  44  69 104 143 189 240 299 359 433
#     4  11  26  48  73 106 140 194 245 304 355 425
#     4  12  24  41  71 107 145 182 236 299 377 429
#     4  12  27  45  68 106 145 194 237 300 361 435
#
# _framework density 24.055764
#
# number of rings (size 3 to 8) (size 9 to 14) (size 15 to 20)
#    0.000    0.571    2.857    5.571    4.000    2.857 
#    0.000    0.000    0.000    0.000    0.000    0.000 
#    0.000    0.000    0.000    0.000    0.000    0.000 
#
# Total GULP energy -173504.518614 kJ/mol
# GULP energy per Si atom -12393.179901 kJ/mol
# Density = 2.400101 g / cm^3
# Si number density = 24.055764 Si / 1000 Ang^3
#
#
#
# Elastic Constant Matrix: (Units=GPa)
#
#
# Indices 1 2 3 4 5 6 
#
# 1 91.6676 21.5804 27.3354 9.4974 5.2736 11.9637
# 2 21.5804 99.3040 28.8013 -6.3023 -3.1448 17.6299
# 3 27.3354 28.8013 138.9066 -0.0851 -8.4837 -7.7845
# 4 9.4974 -6.3023 -0.0851 30.8578 7.5891 0.2918
# 5 5.2736 -3.1448 -8.4837 7.5891 27.2427 -4.2517
# 6 11.9637 17.6299 -7.7845 0.2918 -4.2517 33.5994
#
#
#
# Elastic Compliance Matrix: (Units=1/GPa)
#
#
# Indices 1 2 3 4 5 6 
#
# 1 0.013316 -0.001530 -0.002794 -0.003530 -0.003419 -0.004988
# 2 -0.001530 0.012605 -0.002765 0.003380 -0.001125 -0.006881
# 3 -0.002794 -0.002765 0.008843 -0.000699 0.003951 0.005000
# 4 -0.003530 0.003380 -0.000699 0.036584 -0.009682 -0.002221
# 5 -0.003419 -0.001125 0.003951 -0.009682 0.042443 0.008178
# 6 -0.004988 -0.006881 0.005000 -0.002221 0.008178 0.037362
#
#
# Mechanical properties :
#
#
# Convention : Reuss Voigt Hill
#
# Bulk Modulus (GPa) = 48.57521 53.92361 51.24941
# Shear Modulus (GPa) = 29.03736 35.15070 32.09403
#
# Velocity S-wave (km/s) = 3.47808 3.82673 3.65657
# Velocity P-wave (km/s) = 6.03042 6.47996 6.25923
#
# Compressibility (1/GPa) = 0.02058663
#
# Stress axis : x y z
#
# Youngs Moduli (GPa) = 75.09910 79.33337 113.08182
#
# Poissons Ratio (x) = 0.12141 0.31590
# Poissons Ratio (y) = 0.11493 0.31264
# Poissons Ratio (z) = 0.20980 0.21933
#
# Static dielectric constant tensor:
#      x y z
#    x 4.507520 0.176850 -0.925430 
#    y 0.176850 4.351710 -0.083070 
#    z -0.925430 -0.083070 5.799360 
# 
# 
# High freq. dielectric constant tensor:
#      x y z
#    x 1.945470 0.010200 -0.008970 
#    y 0.010200 1.954770 0.002300 
#    z -0.008970 0.002300 1.975990 
# 
# From -- ./inp_files/64115.got.cif
#   From: 2010.06.25/outbox.cif.g09.slc.cpg/sg2_33_cif.got.tgz:64115.got - 2010.06.27 13:26:56.
