data_PCOD8031720
_publ_section_title
;
Structure prediction by ZEFSAII (Michael W. Deem and Ramdas Pophale) SiO2 
 PCOD8031720
Probable space group: P -1
;
_chemical_formula_sum "Si O2"
_cell_formula_units_Z 16
_cell_length_a 9.141081
_cell_length_b 12.281567
_cell_length_c 9.367836
_cell_angle_alpha 72.029241
_cell_angle_beta 126.773056
_cell_angle_gamma 122.543097
_cell_volume 710.009655
_symmetry_space_group_name_H-M "P -1"
_symmetry_group_IT_number 2
_symmetry_cell_setting 'triclinic'
loop_
_space_group_symop_operation_xyz
x,y,z
-x,-y,-z
loop_
_atom_site_type_symbol
_atom_site_label
_atom_site_fract_x
_atom_site_fract_y
_atom_site_fract_z
Si Si1 0.265262 0.735883 0.694892
Si Si2 0.874926 0.739455 0.364801
Si Si3 0.703720 0.451194 0.440207
Si Si4 0.775605 0.892148 0.453118
Si Si5 0.463839 0.989310 0.314304
Si Si6 0.996456 0.866219 0.084802
Si Si7 0.234557 0.282946 0.251143
Si Si8 0.014911 0.431750 0.180628
O O1 0.256602 0.646952 0.593849
O O2 0.096635 0.786508 0.549937
O O3 0.210668 0.650168 0.843176
O O4 0.482931 0.867074 0.774130
O O5 0.775535 0.586036 0.344870
O O6 0.724445 0.772598 0.363374
O O7 0.909397 0.819012 0.209081
O O8 0.463861 0.397781 0.350261
O O9 0.828624 0.466210 0.654548
O O10 0.600239 0.937617 0.327073
O O11 0.780410 0.847032 0.635825
O O12 0.000000 0.000000 0.500000
O O13 0.228204 0.887494 0.188411
O O14 0.500000 0.000000 0.500000
O O15 0.842731 0.750134 0.941879
O O16 0.000000 0.000000 0.000000
O O17 0.091186 0.327071 0.236001
O O18 0.000000 0.500000 0.000000
#
# Coordination Sequence:
#
# PCOD8031720 Si02
#       8
#     2   2   2   2   2   2   2   2
#     4  11  22  45  74 100 140 186 234 285 354 434
#     4  11  23  44  72  99 142 186 231 289 353 425
#     4  11  25  47  72 100 136 196 237 279 363 425
#     4  12  22  45  74  99 141 186 236 290 356 430
#     4  12  23  44  77 106 134 190 241 284 363 424
#     4  12  27  46  67 107 145 181 239 297 347 417
#     4  12  26  45  67 101 146 182 236 297 347 419
#     4  11  25  44  68 104 141 175 234 297 356 418
#
# _framework density 22.534904999999998
#
# number of rings (size 3 to 8) (size 9 to 14) (size 15 to 20)
#    0.000    0.500    5.000    4.875    3.500    0.500 
#    2.250    5.625    0.000    0.000    0.000    0.000 
#    0.000    0.000    0.000    0.000    0.000    0.000 
#
# Total GULP energy -198410.181572 kJ/mol
# GULP energy per Si atom -12400.636348 kJ/mol
# Density = 2.248361 g / cm^3
# Si number density = 22.534905 Si / 1000 Ang^3
#
#
#
# Elastic Constant Matrix: (Units=GPa)
#
#
# Indices 1 2 3 4 5 6 
#
# 1 104.3752 31.4203 35.8636 0.1726 -8.0505 -9.2202
# 2 31.4203 108.2851 47.7039 -10.0421 -3.9150 7.6279
# 3 35.8636 47.7039 103.0491 -14.4526 -15.2410 15.4634
# 4 0.1726 -10.0421 -14.4526 33.7069 6.9301 -5.6544
# 5 -8.0505 -3.9150 -15.2410 6.9301 32.4345 1.0488
# 6 -9.2202 7.6279 15.4634 -5.6544 1.0488 52.6580
#
#
#
# Elastic Compliance Matrix: (Units=1/GPa)
#
#
# Indices 1 2 3 4 5 6 
#
# 1 0.011904 -0.002189 -0.003712 -0.002021 0.001273 0.003249
# 2 -0.002189 0.012113 -0.004762 0.001842 -0.001696 -0.000508
# 3 -0.003712 -0.004762 0.015022 0.003326 0.004985 -0.004114
# 4 -0.002021 0.001842 0.003326 0.033212 -0.005880 0.002086
# 5 0.001273 -0.001696 0.004985 -0.005880 0.034616 -0.002316
# 6 0.003249 -0.000508 -0.004114 0.002086 -0.002316 0.021111
#
#
# Mechanical properties :
#
#
# Convention : Reuss Voigt Hill
#
# Bulk Modulus (GPa) = 56.45876 60.63168 58.54522
# Shear Modulus (GPa) = 32.21487 37.14132 34.67809
#
# Velocity S-wave (km/s) = 3.78505 4.06417 3.92709
# Velocity P-wave (km/s) = 6.64909 6.99910 6.82634
#
# Compressibility (1/GPa) = 0.01771204
#
# Stress axis : x y z
#
# Youngs Moduli (GPa) = 84.00626 82.55506 66.57109
#
# Poissons Ratio (x) = 0.18071 0.24713
# Poissons Ratio (y) = 0.18389 0.31701
# Poissons Ratio (z) = 0.31186 0.39312
#
# Static dielectric constant tensor:
#      x y z
#    x 4.585920 0.060060 -0.133950 
#    y 0.060060 4.271230 0.006260 
#    z -0.133950 0.006260 4.134670 
# 
# 
# High freq. dielectric constant tensor:
#      x y z
#    x 1.906980 0.000900 -0.011390 
#    y 0.000900 1.904050 -0.005120 
#    z -0.011390 -0.005120 1.862360 
# 
# From -- ./inp_files/186952.got.cif
#   From: 2010.06.25/outbox.cif.g09.slc.cpg/sg2_94_cif.got.tgz:186952.got - 2010.06.27 13:26:56.
