data_PCOD8031609
_publ_section_title
;
Structure prediction by ZEFSAII (Michael W. Deem and Ramdas Pophale) SiO2 
 PCOD8031609
Probable space group: P -1
;
_chemical_formula_sum "Si O2"
_cell_formula_units_Z 14
_cell_length_a 11.969861
_cell_length_b 6.067979
_cell_length_c 12.394987
_cell_angle_alpha 110.360779
_cell_angle_beta 40.965334
_cell_angle_gamma 100.000297
_cell_volume 547.509473
_symmetry_space_group_name_H-M "P -1"
_symmetry_group_IT_number 2
_symmetry_cell_setting 'triclinic'
loop_
_space_group_symop_operation_xyz
x,y,z
-x,-y,-z
loop_
_atom_site_type_symbol
_atom_site_label
_atom_site_fract_x
_atom_site_fract_y
_atom_site_fract_z
Si Si1 0.133387 0.310020 0.931539
Si Si2 0.339052 0.868131 0.623496
Si Si3 0.821485 0.874557 0.910114
Si Si4 0.302207 0.533059 0.398829
Si Si5 0.858093 0.876443 0.642771
Si Si6 0.357360 0.671796 0.807402
Si Si7 0.554715 0.245920 0.863210
O O1 0.317178 0.404463 0.807335
O O2 0.165865 0.055241 0.804948
O O3 0.079725 0.282718 0.092118
O O4 0.000000 0.500000 0.000000
O O5 0.275373 0.689329 0.552918
O O6 0.392527 0.717404 0.665114
O O7 0.500000 0.000000 0.500000
O O8 0.912808 0.813925 0.717695
O O9 0.619658 0.846972 0.058271
O O10 0.807934 0.153988 0.995705
O O11 0.152584 0.374505 0.452089
O O12 0.466911 0.326344 0.254271
O O13 0.324641 0.720157 0.320841
O O14 0.676786 0.054442 0.815118
O O15 0.000000 0.000000 0.500000
O O16 0.500000 0.500000 0.000000
#
# Coordination Sequence:
#
# PCOD8031609 Si02
#       7
#     2   2   2   2   2   2   2
#     4  11  26  48  75 111 148 195 252 317 384 442
#     4  11  24  43  75 114 148 189 255 313 376 454
#     4  11  23  47  78 109 145 204 261 303 371 475
#     4  12  23  44  79 110 151 199 252 311 379 451
#     4  12  29  49  72 115 160 196 250 321 388 437
#     4  11  22  44  75 108 146 196 257 306 372 456
#     4  12  23  45  79 107 142 202 262 298 364 465
#
# _framework density 25.570332000000001
#
# number of rings (size 3 to 8) (size 9 to 14) (size 15 to 20)
#    0.000    0.571    5.714    2.571    0.000    2.857 
#    7.714    0.000    0.000    0.000    0.000    0.000 
#    0.000    0.000    0.000    0.000    0.000    0.000 
#
# Total GULP energy -173556.192964 kJ/mol
# GULP energy per Si atom -12396.870926 kJ/mol
# Density = 2.551213 g / cm^3
# Si number density = 25.570332 Si / 1000 Ang^3
#
#
#
# Elastic Constant Matrix: (Units=GPa)
#
#
# Indices 1 2 3 4 5 6 
#
# 1 99.1285 41.3584 48.0017 2.6242 27.4417 -20.0282
# 2 41.3584 113.8999 51.8551 -9.0930 25.0276 2.0808
# 3 48.0017 51.8551 110.8579 -8.1390 28.2216 6.8355
# 4 2.6242 -9.0930 -8.1390 53.6784 -3.9954 -2.5570
# 5 27.4417 25.0276 28.2216 -3.9954 41.9536 1.8394
# 6 -20.0282 2.0808 6.8355 -2.5570 1.8394 51.5699
#
#
#
# Elastic Compliance Matrix: (Units=1/GPa)
#
#
# Indices 1 2 3 4 5 6 
#
# 1 0.017125 -0.002763 -0.005045 -0.002209 -0.006701 0.007560
# 2 -0.002763 0.012186 -0.003618 0.001395 -0.002855 -0.000914
# 3 -0.005045 -0.003618 0.014178 0.001334 -0.003799 -0.003491
# 4 -0.002209 0.001395 0.001334 0.019283 0.001560 -0.000191
# 5 -0.006701 -0.002855 -0.003799 0.001560 0.032761 -0.003075
# 6 0.007560 -0.000914 -0.003491 -0.000191 -0.003075 0.022927
#
#
# Mechanical properties :
#
#
# Convention : Reuss Voigt Hill
#
# Bulk Modulus (GPa) = 48.45947 67.36854 57.91400
# Shear Modulus (GPa) = 33.74040 41.61844 37.67942
#
# Velocity S-wave (km/s) = 3.63645 4.03874 3.84286
# Velocity P-wave (km/s) = 6.05180 6.93917 6.51062
#
# Compressibility (1/GPa) = 0.02063580
#
# Stress axis : x y z
#
# Youngs Moduli (GPa) = 58.39453 82.06435 70.53396
#
# Poissons Ratio (x) = 0.22678 0.35584
# Poissons Ratio (y) = 0.16137 0.25517
# Poissons Ratio (z) = 0.29460 0.29688
#
# Static dielectric constant tensor:
#      x y z
#    x 4.873140 0.475000 0.233620 
#    y 0.475000 7.219190 0.449190 
#    z 0.233620 0.449190 4.487730 
# 
# 
# High freq. dielectric constant tensor:
#      x y z
#    x 2.028950 -0.001410 0.004630 
#    y -0.001410 2.043740 0.002940 
#    z 0.004630 0.002940 2.010940 
# 
# From -- ./inp_files/44305.got.cif
#   From: 2010.06.25/outbox.cif.g09.slc.cpg/sg2_23_cif.got.tgz:44305.got - 2010.06.27 13:26:56.
