data_PCOD8031871
_publ_section_title
;
Structure prediction by ZEFSAII (Michael W. Deem and Ramdas Pophale) SiO2 
 PCOD8031871
Probable space group: P -1
;
_chemical_formula_sum "Si O2"
_cell_formula_units_Z 16
_cell_length_a 8.946791
_cell_length_b 11.217750
_cell_length_c 8.852366
_cell_angle_alpha 54.626835
_cell_angle_beta 84.054632
_cell_angle_gamma 72.909602
_cell_volume 689.921968
_symmetry_space_group_name_H-M "P -1"
_symmetry_group_IT_number 2
_symmetry_cell_setting 'triclinic'
loop_
_space_group_symop_operation_xyz
x,y,z
-x,-y,-z
loop_
_atom_site_type_symbol
_atom_site_label
_atom_site_fract_x
_atom_site_fract_y
_atom_site_fract_z
Si Si1 0.151200 0.382490 0.637913
Si Si2 0.758578 0.351735 0.061450
Si Si3 0.386872 0.133434 0.324849
Si Si4 0.412258 0.831921 0.966823
Si Si5 0.644313 0.602959 0.658499
Si Si6 0.378691 0.480714 0.747608
Si Si7 0.139652 0.060924 0.999933
Si Si8 0.062551 0.111574 0.305583
O O1 0.266712 0.323634 0.527749
O O2 0.224053 0.487049 0.663684
O O3 0.115058 0.239294 0.829865
O O4 0.000000 0.500000 0.500000
O O5 0.686427 0.213677 0.127286
O O6 0.665225 0.470251 0.110227
O O7 0.932500 0.271430 0.165779
O O8 0.755475 0.444279 0.836320
O O9 0.447107 0.110940 0.162083
O O10 0.410597 0.287579 0.274720
O O11 0.204606 0.145594 0.355889
O O12 0.500000 0.000000 0.500000
O O13 0.503971 0.687965 0.160672
O O14 0.695333 0.038250 0.011338
O O15 0.486799 0.585634 0.604102
O O16 0.136752 0.033205 0.199387
O O17 0.000000 0.000000 0.000000
O O18 0.000000 0.000000 0.500000
#
# Coordination Sequence:
#
# PCOD8031871 Si02
#       8
#     2   2   2   2   2   2   2   2
#     4  12  29  47  71 116 153 199 254 307 376 454
#     4  11  22  48  76 108 147 197 250 308 379 448
#     4  12  25  43  71 111 149 194 257 308 371 452
#     4  11  22  48  77 106 148 192 256 306 378 443
#     4  11  24  45  75 107 149 199 247 314 373 448
#     4  11  24  47  77 108 148 200 249 311 376 443
#     4  12  28  51  78 108 156 202 245 318 384 443
#     4  12  29  47  74 110 146 200 251 312 380 447
#
# _framework density 23.191026999999998
#
# number of rings (size 3 to 8) (size 9 to 14) (size 15 to 20)
#    0.000    0.500    3.750    4.125    5.250    3.500 
#    0.000    0.000    0.000    0.000    0.000    0.000 
#    0.000    0.000    0.000    0.000    0.000    0.000 
#
# Total GULP energy -198319.205150 kJ/mol
# GULP energy per Si atom -12394.950322 kJ/mol
# Density = 2.313824 g / cm^3
# Si number density = 23.191027 Si / 1000 Ang^3
#
#
#
# Elastic Constant Matrix: (Units=GPa)
#
#
# Indices 1 2 3 4 5 6 
#
# 1 141.1943 49.0925 55.8341 -11.3431 5.1929 14.3595
# 2 49.0925 110.0181 45.7961 -0.6679 0.5995 -5.1152
# 3 55.8341 45.7961 115.5966 0.3545 -12.0527 7.8368
# 4 -11.3431 -0.6679 0.3545 29.4028 -3.1633 -4.8212
# 5 5.1929 0.5995 -12.0527 -3.1633 54.7760 6.2311
# 6 14.3595 -5.1152 7.8368 -4.8212 6.2311 41.1098
#
#
#
# Elastic Compliance Matrix: (Units=1/GPa)
#
#
# Indices 1 2 3 4 5 6 
#
# 1 0.010197 -0.003132 -0.003642 0.003334 -0.001237 -0.002679
# 2 -0.003132 0.012167 -0.003647 -0.000442 -0.001052 0.003411
# 3 -0.003642 -0.003647 0.012351 -0.001651 0.003260 -0.002224
# 4 0.003334 -0.000442 -0.001651 0.035936 0.001042 0.003151
# 5 -0.001237 -0.001052 0.003260 0.001042 0.019522 -0.003157
# 6 -0.002679 0.003411 -0.002224 0.003151 -0.003157 0.026957
#
#
# Mechanical properties :
#
#
# Convention : Reuss Voigt Hill
#
# Bulk Modulus (GPa) = 72.08443 74.25048 73.16746
# Shear Modulus (GPa) = 35.06426 39.46345 37.26385
#
# Velocity S-wave (km/s) = 3.89263 4.12960 4.01287
# Velocity P-wave (km/s) = 7.16616 7.40436 7.28623
#
# Compressibility (1/GPa) = 0.01387262
#
# Stress axis : x y z
#
# Youngs Moduli (GPa) = 98.06386 82.19225 80.96757
#
# Poissons Ratio (x) = 0.25741 0.29491
# Poissons Ratio (y) = 0.30711 0.29529
# Poissons Ratio (z) = 0.35718 0.29975
#
# Static dielectric constant tensor:
#      x y z
#    x 5.956050 1.347580 -2.367900 
#    y 1.347580 5.272630 -1.838560 
#    z -2.367900 -1.838560 7.634620 
# 
# 
# High freq. dielectric constant tensor:
#      x y z
#    x 1.933530 0.000340 -0.003650 
#    y 0.000340 1.914110 0.004270 
#    z -0.003650 0.004270 1.914840 
# 
# From -- ./inp_files/175324.got.cif
#   From: 2010.06.25/outbox.cif.g09.slc.cpg/sg2_88_cif.got.tgz:175324.got - 2010.06.27 13:26:56.
