data_PCOD8031279
_publ_section_title
;
Structure prediction by ZEFSAII (Michael W. Deem and Ramdas Pophale) SiO2 
 PCOD8031279
Probable space group: P -1
;
_chemical_formula_sum "Si O2"
_cell_formula_units_Z 16
_cell_length_a 14.739950
_cell_length_b 14.392488
_cell_length_c 11.910600
_cell_angle_alpha 44.907327
_cell_angle_beta 115.113460
_cell_angle_gamma 150.593605
_cell_volume 728.225769
_symmetry_space_group_name_H-M "P -1"
_symmetry_group_IT_number 2
_symmetry_cell_setting 'triclinic'
loop_
_space_group_symop_operation_xyz
x,y,z
-x,-y,-z
loop_
_atom_site_type_symbol
_atom_site_label
_atom_site_fract_x
_atom_site_fract_y
_atom_site_fract_z
Si Si1 0.850305 0.814635 0.287997
Si Si2 0.500340 0.517280 0.204076
Si Si3 0.851221 0.605030 0.132060
Si Si4 0.624474 0.875103 0.631356
Si Si5 0.126309 0.918887 0.221664
Si Si6 0.796574 0.676285 0.627318
Si Si7 0.181886 0.680353 0.792958
Si Si8 0.264454 0.702431 0.067413
O O1 0.635815 0.578080 0.301847
O O2 0.754395 0.673172 0.481499
O O3 0.984616 0.852280 0.276870
O O4 0.998897 0.120974 0.097993
O O5 0.320456 0.208616 0.315100
O O6 0.403479 0.521483 0.224907
O O7 0.647408 0.750143 0.984258
O O8 0.632182 0.423799 0.211266
O O9 0.783155 0.405709 0.189795
O O10 0.985330 0.704050 0.225084
O O11 0.791120 0.098012 0.633898
O O12 0.661750 0.023668 0.426951
O O13 0.823837 0.550693 0.753013
O O14 0.000000 0.000000 0.500000
O O15 0.924284 0.423163 0.873283
O O16 0.284427 0.767505 0.893130
O O17 0.500000 0.000000 0.000000
#
# Coordination Sequence:
#
# PCOD8031279 Si02
#       8
#     2   2   2   2   2   2   2   2
#     4  11  22  43  68 100 139 177 228 289 346 412
#     4  11  23  41  68 100 137 176 225 289 350 402
#     4  11  24  43  67 100 139 179 227 284 345 413
#     4  12  24  41  70 101 139 178 226 285 350 411
#     4  11  23  41  69  99 136 180 227 286 344 408
#     4  12  26  43  71 106 135 182 240 292 346 416
#     4  11  27  46  68  99 139 184 232 287 339 417
#     4  11  28  49  71  97 142 191 232 284 350 419
#
# _framework density 21.971208000000001
#
# number of rings (size 3 to 8) (size 9 to 14) (size 15 to 20)
#    0.000    0.750    2.500    4.875    8.750    2.500 
#    0.000    0.000    0.000    0.000    0.000    0.000 
#    0.000    0.000    0.000    0.000    0.000    0.000 
#
# Total GULP energy -198375.385483 kJ/mol
# GULP energy per Si atom -12398.461593 kJ/mol
# Density = 2.192120 g / cm^3
# Si number density = 21.971208 Si / 1000 Ang^3
#
#
#
# Elastic Constant Matrix: (Units=GPa)
#
#
# Indices 1 2 3 4 5 6 
#
# 1 81.0343 20.1407 18.5314 4.1318 -2.2557 -14.2843
# 2 20.1407 111.5916 37.5253 17.6567 -0.2477 7.4520
# 3 18.5314 37.5253 69.4967 24.8078 3.4090 -8.0898
# 4 4.1318 17.6567 24.8078 35.7810 -1.0475 2.0644
# 5 -2.2557 -0.2477 3.4090 -1.0475 31.1081 1.8670
# 6 -14.2843 7.4520 -8.0898 2.0644 1.8670 32.2301
#
#
#
# Elastic Compliance Matrix: (Units=1/GPa)
#
#
# Indices 1 2 3 4 5 6 
#
# 1 0.014546 -0.002451 -0.002079 0.000628 0.000900 0.006399
# 2 -0.002451 0.011986 -0.006108 -0.001061 0.000874 -0.005373
# 3 -0.002079 -0.006108 0.024410 -0.014229 -0.003819 0.007751
# 4 0.000628 -0.001061 -0.014229 0.038689 0.003242 -0.005714
# 5 0.000900 0.000874 -0.003819 0.003242 0.032918 -0.002876
# 6 0.006399 -0.005373 0.007751 -0.005714 -0.002876 0.037584
#
#
# Mechanical properties :
#
#
# Convention : Reuss Voigt Hill
#
# Bulk Modulus (GPa) = 33.70738 46.05749 39.88244
# Shear Modulus (GPa) = 26.13721 32.21887 29.17804
#
# Velocity S-wave (km/s) = 3.45282 3.83353 3.64814
# Velocity P-wave (km/s) = 5.59203 6.37203 5.99473
#
# Compressibility (1/GPa) = 0.02966709
#
# Stress axis : x y z
#
# Youngs Moduli (GPa) = 68.74692 83.42860 40.96627
#
# Poissons Ratio (x) = 0.20449 0.08516
# Poissons Ratio (y) = 0.16850 0.25022
# Poissons Ratio (z) = 0.14291 0.50958
#
# Static dielectric constant tensor:
#      x y z
#    x 4.382000 0.263540 -0.597170 
#    y 0.263540 4.309850 0.065510 
#    z -0.597170 0.065510 4.270050 
# 
# 
# High freq. dielectric constant tensor:
#      x y z
#    x 1.868000 0.001540 -0.012140 
#    y 0.001540 1.875870 0.014780 
#    z -0.012140 0.014780 1.866110 
# 
# From -- ./inp_files/446708.got.cif
#   From: 2010.06.25/outbox.cif.g09.slc.cpg/sg2_224_cif.got.tgz:446708.got - 2010.06.27 13:26:56.
