data_PCOD8031813
_publ_section_title
;
Structure prediction by ZEFSAII (Michael W. Deem and Ramdas Pophale) SiO2 
 PCOD8031813
Probable space group: P -1
;
_chemical_formula_sum "Si O2"
_cell_formula_units_Z 14
_cell_length_a 18.609300
_cell_length_b 25.146722
_cell_length_c 8.979235
_cell_angle_alpha 151.440948
_cell_angle_beta 28.602501
_cell_angle_gamma 160.724291
_cell_volume 630.530983
_symmetry_space_group_name_H-M "P -1"
_symmetry_group_IT_number 2
_symmetry_cell_setting 'triclinic'
loop_
_space_group_symop_operation_xyz
x,y,z
-x,-y,-z
loop_
_atom_site_type_symbol
_atom_site_label
_atom_site_fract_x
_atom_site_fract_y
_atom_site_fract_z
Si Si1 0.547083 0.497395 0.576708
Si Si2 0.924395 0.537892 0.412340
Si Si3 0.729080 0.827193 0.561943
Si Si4 0.559038 0.148123 0.679600
Si Si5 0.432554 0.274608 0.734004
Si Si6 0.628736 0.982235 0.621654
Si Si7 0.974015 0.647035 0.284161
O O1 0.500000 0.500000 0.500000
O O2 0.319684 0.318524 0.626888
O O3 0.747517 0.516477 0.271574
O O4 0.657642 0.664305 0.873091
O O5 0.706798 0.437192 0.666075
O O6 0.902519 0.615958 0.511176
O O7 0.168974 0.682099 0.398878
O O8 0.882817 0.387141 0.065867
O O9 0.636896 0.768898 0.418700
O O10 0.589138 0.843145 0.943282
O O11 0.000000 0.000000 0.500000
O O12 0.510328 0.120963 0.527373
O O13 0.500000 0.000000 0.500000
O O14 0.328214 0.107554 0.589629
O O15 0.875590 0.165127 0.576953
O O16 0.500000 0.000000 0.000000
#
# Coordination Sequence:
#
# PCOD8031813 Si02
#       7
#     2   2   2   2   2   2   2
#     4  12  28  48  69 104 143 193 234 283 360 427
#     4  11  22  46  75 102 135 188 237 287 351 416
#     4  12  28  48  70 105 142 184 239 293 349 421
#     4  12  25  44  74 104 139 181 236 291 352 415
#     4  12  27  46  73 104 141 186 238 291 355 421
#     4  12  26  44  68 109 140 180 232 297 355 410
#     4  11  23  45  73  96 147 182 231 291 351 418
#
# _framework density 22.203509
#
# number of rings (size 3 to 8) (size 9 to 14) (size 15 to 20)
#    0.000    0.286    5.714    3.000    6.000    2.286 
#    0.000    0.000    0.000    0.000    0.000    0.000 
#    0.000    0.000    0.000    0.000    0.000    0.000 
#
# Total GULP energy -173588.947300 kJ/mol
# GULP energy per Si atom -12399.210521 kJ/mol
# Density = 2.215297 g / cm^3
# Si number density = 22.203509 Si / 1000 Ang^3
#
#
#
# Elastic Constant Matrix: (Units=GPa)
#
#
# Indices 1 2 3 4 5 6 
#
# 1 178.7329 62.3556 49.6888 6.3002 13.5803 -10.7168
# 2 62.3556 167.3838 23.4174 9.4379 -11.8919 -5.1242
# 3 49.6888 23.4174 94.4952 15.1212 7.3783 -5.7454
# 4 6.3002 9.4379 15.1212 35.1060 0.2814 -15.5495
# 5 13.5803 -11.8919 7.3783 0.2814 38.0048 8.6285
# 6 -10.7168 -5.1242 -5.7454 -15.5495 8.6285 51.6287
#
#
#
# Elastic Compliance Matrix: (Units=1/GPa)
#
#
# Indices 1 2 3 4 5 6 
#
# 1 0.007789 -0.002720 -0.003296 0.001699 -0.003478 0.002073
# 2 -0.002720 0.007377 -0.000458 -0.001781 0.003615 -0.001024
# 3 -0.003296 -0.000458 0.013347 -0.005292 -0.001379 -0.000608
# 4 0.001699 -0.001781 -0.005292 0.035761 -0.002862 0.010836
# 5 -0.003478 0.003615 -0.001379 -0.002862 0.030443 -0.006466
# 6 0.002073 -0.001024 -0.000608 0.010836 -0.006466 0.023974
#
#
# Mechanical properties :
#
#
# Convention : Reuss Voigt Hill
#
# Bulk Modulus (GPa) = 64.24193 79.05949 71.65071
# Shear Modulus (GPa) = 36.54253 45.29124 40.91688
#
# Velocity S-wave (km/s) = 4.06125 4.52134 4.29746
# Velocity P-wave (km/s) = 7.14057 7.93352 7.54746
#
# Compressibility (1/GPa) = 0.01556616
#
# Stress axis : x y z
#
# Youngs Moduli (GPa) = 128.39058 135.54882 74.92490
#
# Poissons Ratio (x) = 0.36867 0.24694
# Poissons Ratio (y) = 0.34920 0.03429
# Poissons Ratio (z) = 0.42316 0.06203
#
# Static dielectric constant tensor:
#      x y z
#    x 4.010920 -0.114430 -0.083540 
#    y -0.114430 4.247590 0.126310 
#    z -0.083540 0.126310 4.116630 
# 
# 
# High freq. dielectric constant tensor:
#      x y z
#    x 1.879840 -0.006650 -0.010630 
#    y -0.006650 1.891100 0.007750 
#    z -0.010630 0.007750 1.875240 
# 
# From -- ./inp_files/156626.got.cif
#   From: 2010.06.25/outbox.cif.g09.slc.cpg/sg2_79_cif.got.tgz:156626.got - 2010.06.27 13:26:56.
