data_PCOD8031578
_publ_section_title
;
Structure prediction by ZEFSAII (Michael W. Deem and Ramdas Pophale) SiO2 
 PCOD8031578
Probable space group: P -1
;
_chemical_formula_sum "Si O2"
_cell_formula_units_Z 16
_cell_length_a 9.039622
_cell_length_b 8.691459
_cell_length_c 16.334674
_cell_angle_alpha 142.308550
_cell_angle_beta 68.468332
_cell_angle_gamma 109.564319
_cell_volume 727.676998
_symmetry_space_group_name_H-M "P -1"
_symmetry_group_IT_number 2
_symmetry_cell_setting 'triclinic'
loop_
_space_group_symop_operation_xyz
x,y,z
-x,-y,-z
loop_
_atom_site_type_symbol
_atom_site_label
_atom_site_fract_x
_atom_site_fract_y
_atom_site_fract_z
Si Si1 0.856330 0.987607 0.173578
Si Si2 0.209548 0.929923 0.077466
Si Si3 0.602859 0.229880 0.712886
Si Si4 0.748817 0.649147 0.199528
Si Si5 0.312940 0.237933 0.038823
Si Si6 0.642662 0.412907 0.378814
Si Si7 0.170002 0.121827 0.551454
Si Si8 0.568792 0.017803 0.807548
O O1 0.761611 0.228224 0.321774
O O2 0.816552 0.760313 0.147974
O O3 0.043264 0.055288 0.161127
O O4 0.818377 0.894654 0.050073
O O5 0.261958 0.986295 0.184672
O O6 0.324385 0.088534 0.058421
O O7 0.207665 0.638901 0.929539
O O8 0.440063 0.313992 0.741100
O O9 0.718826 0.472572 0.817098
O O10 0.576880 0.050649 0.722169
O O11 0.699546 0.084192 0.564694
O O12 0.843384 0.791845 0.315543
O O13 0.486321 0.248685 0.964194
O O14 0.500000 0.500000 0.500000
O O15 0.758511 0.638540 0.414646
O O16 0.545764 0.237791 0.256683
O O17 0.000000 0.000000 0.500000
#
# Coordination Sequence:
#
# PCOD8031578 Si02
#       8
#     2   2   2   2   2   2   2   2
#     4  11  25  43  71 103 140 181 227 291 354 406
#     4  12  26  40  72 109 140 172 231 297 351 409
#     4  12  24  45  71  97 141 185 236 277 347 422
#     4  12  24  47  70 100 141 184 235 280 350 420
#     4  11  23  42  68 101 140 181 227 287 346 414
#     4  11  23  49  73  97 140 189 233 278 343 419
#     4  12  30  46  70 104 141 186 232 294 348 410
#     4  11  22  44  73 103 132 184 233 284 345 416
#
# _framework density 21.987779
#
# number of rings (size 3 to 8) (size 9 to 14) (size 15 to 20)
#    0.000    0.500    5.000    4.125    7.000    0.000 
#    0.000    1.250    0.000    0.000    0.000    0.000 
#    0.000    0.000    0.000    0.000    0.000    0.000 
#
# Total GULP energy -198329.909353 kJ/mol
# GULP energy per Si atom -12395.619335 kJ/mol
# Density = 2.193773 g / cm^3
# Si number density = 21.987779 Si / 1000 Ang^3
#
#
#
# Elastic Constant Matrix: (Units=GPa)
#
#
# Indices 1 2 3 4 5 6 
#
# 1 144.3749 17.2956 49.5269 3.1355 4.9809 -4.0428
# 2 17.2956 94.6813 33.5663 14.1206 2.9085 0.0236
# 3 49.5269 33.5663 108.0213 15.0682 -2.6001 -2.2212
# 4 3.1355 14.1206 15.0682 33.5146 1.5060 4.8475
# 5 4.9809 2.9085 -2.6001 1.5060 33.8308 -1.2151
# 6 -4.0428 0.0236 -2.2212 4.8475 -1.2151 23.8480
#
#
#
# Elastic Compliance Matrix: (Units=1/GPa)
#
#
# Indices 1 2 3 4 5 6 
#
# 1 0.008352 -0.000245 -0.003920 0.001043 -0.001529 0.000761
# 2 -0.000245 0.012338 -0.003221 -0.003729 -0.001094 0.000348
# 3 -0.003920 -0.003221 0.012738 -0.004315 0.002079 0.001508
# 4 0.001043 -0.003729 -0.004315 0.034397 -0.001958 -0.007313
# 5 -0.001529 -0.001094 0.002079 -0.001958 0.030192 0.001872
# 6 0.000761 0.000348 0.001508 -0.007313 0.001872 0.043783
#
#
# Mechanical properties :
#
#
# Convention : Reuss Voigt Hill
#
# Bulk Modulus (GPa) = 53.59732 60.87278 57.23505
# Shear Modulus (GPa) = 30.71441 34.68460 32.69951
#
# Velocity S-wave (km/s) = 3.74155 3.97602 3.86056
# Velocity P-wave (km/s) = 6.56464 6.98736 6.77930
#
# Compressibility (1/GPa) = 0.01865765
#
# Stress axis : x y z
#
# Youngs Moduli (GPa) = 119.73468 81.05153 78.50286
#
# Poissons Ratio (x) = 0.01984 0.30771
# Poissons Ratio (y) = 0.02930 0.25283
# Poissons Ratio (z) = 0.46933 0.26104
#
# Static dielectric constant tensor:
#      x y z
#    x 4.064650 -0.042060 -0.037660 
#    y -0.042060 3.959410 0.124950 
#    z -0.037660 0.124950 4.162870 
# 
# 
# High freq. dielectric constant tensor:
#      x y z
#    x 1.865890 0.001320 -0.003320 
#    y 0.001320 1.863100 0.009490 
#    z -0.003320 0.009490 1.870460 
# 
# From -- ./inp_files/205547.got.cif
#   From: 2010.06.25/outbox.cif.g09.slc.cpg/sg2_103_cif.got.tgz:205547.got - 2010.06.27 13:26:56.
