data_PCOD8031477
_publ_section_title
;
Structure prediction by ZEFSAII (Michael W. Deem and Ramdas Pophale) SiO2 
 PCOD8031477
Probable space group: P -1
;
_chemical_formula_sum "Si O2"
_cell_formula_units_Z 16
_cell_length_a 9.548757
_cell_length_b 6.775571
_cell_length_c 24.320445
_cell_angle_alpha 130.828429
_cell_angle_beta 41.316655
_cell_angle_gamma 128.310071
_cell_volume 759.463622
_symmetry_space_group_name_H-M "P -1"
_symmetry_group_IT_number 2
_symmetry_cell_setting 'triclinic'
loop_
_space_group_symop_operation_xyz
x,y,z
-x,-y,-z
loop_
_atom_site_type_symbol
_atom_site_label
_atom_site_fract_x
_atom_site_fract_y
_atom_site_fract_z
Si Si1 0.123611 0.349820 0.476287
Si Si2 0.144217 0.568713 0.915616
Si Si3 0.640949 0.866941 0.278855
Si Si4 0.154329 0.767492 0.358498
Si Si5 0.540102 0.925451 0.036894
Si Si6 0.152385 0.458087 0.101274
Si Si7 0.568271 0.753719 0.407705
Si Si8 0.093024 0.532210 0.715707
O O1 0.379246 0.485416 0.424303
O O2 0.000000 0.500000 0.500000
O O3 0.022583 0.374016 0.569962
O O4 0.098352 0.045180 0.409116
O O5 0.219459 0.310588 0.825294
O O6 0.986988 0.654901 0.932638
O O7 0.361974 0.808658 0.906933
O O8 0.000000 0.500000 0.000000
O O9 0.400887 0.807828 0.312958
O O10 0.621030 0.801902 0.336977
O O11 0.765117 0.176409 0.290854
O O12 0.116197 0.567960 0.280925
O O13 0.309375 0.758066 0.099849
O O14 0.711838 0.745248 0.954997
O O15 0.500000 0.000000 0.000000
O O16 0.978456 0.468364 0.200761
O O17 0.771315 0.694193 0.369719
O O18 0.500000 0.000000 0.500000
#
# Coordination Sequence:
#
# PCOD8031477 Si02
#       8
#     2   2   2   2   2   2   2   2
#     4  11  22  44  68  98 136 181 240 285 351 414
#     4  12  25  47  76 102 145 187 230 295 354 415
#     4  12  27  46  69 106 141 184 239 285 350 427
#     4  11  26  42  70 100 137 185 230 295 347 407
#     4  11  25  46  74 105 139 181 238 289 353 427
#     4  11  26  46  71 106 140 187 233 287 355 423
#     4  12  25  45  71 101 144 187 236 290 351 417
#     4  12  27  45  68 104 144 181 237 287 348 421
#
# _framework density 21.067499000000002
#
# number of rings (size 3 to 8) (size 9 to 14) (size 15 to 20)
#    0.000    0.500    5.000    2.625    3.500    3.000 
#    2.250    0.000    0.000    0.000    0.000    0.000 
#    0.000    0.000    0.000    0.000    0.000    0.000 
#
# Total GULP energy -198450.533103 kJ/mol
# GULP energy per Si atom -12403.158319 kJ/mol
# Density = 2.101955 g / cm^3
# Si number density = 21.067499 Si / 1000 Ang^3
#
#
#
# Elastic Constant Matrix: (Units=GPa)
#
#
# Indices 1 2 3 4 5 6 
#
# 1 440.7337 -860.8986 -683.5933 311.1695 23.2118 -4.9754
# 2 -860.8986 2984.5319 2261.8406 -962.6405 -21.4330 14.7461
# 3 -683.5933 2261.8406 1826.1655 -740.2167 -16.2401 8.3558
# 4 311.1695 -962.6405 -740.2167 354.5500 9.7666 -9.9820
# 5 23.2118 -21.4330 -16.2401 9.7666 36.9145 7.2565
# 6 -4.9754 14.7461 8.3558 -9.9820 7.2565 39.8179
#
#
#
# Elastic Compliance Matrix: (Units=1/GPa)
#
#
# Indices 1 2 3 4 5 6 
#
# 1 0.006414 -0.000614 0.001372 -0.004355 -0.002660 0.000134
# 2 -0.000614 0.006982 -0.006331 0.006288 -0.000058 0.000253
# 3 0.001372 -0.006331 0.009473 0.001441 -0.000962 0.001064
# 4 -0.004355 0.006288 0.001441 0.026849 -0.000809 0.003703
# 5 -0.002660 -0.000058 -0.000962 -0.000809 0.029643 -0.005714
# 6 0.000134 0.000253 0.001064 0.003703 -0.005714 0.026784
#
#
# Mechanical properties :
#
#
# Convention : Reuss Voigt Hill
#
# Bulk Modulus (GPa) = 85.30280 742.90317 414.10299
# Shear Modulus (GPa) = 41.25507 388.52863 214.89185
#
# Velocity S-wave (km/s) = 4.42999 13.59490 10.11054
# Velocity P-wave (km/s) = 8.16974 24.49130 18.25607
#
# Compressibility (1/GPa) = 0.01172294
#
# Stress axis : x y z
#
# Youngs Moduli (GPa) = 155.91753 143.22500 105.56523
#
# Poissons Ratio (x) = 0.08800 -0.14487
# Poissons Ratio (y) = 0.09580 0.66830
# Poissons Ratio (z) = -0.21397 0.90671
#
# Static dielectric constant tensor:
#      x y z
#    x 4.102930 0.033680 0.061660 
#    y 0.033680 4.044790 -0.054090 
#    z 0.061660 -0.054090 3.841530 
# 
# 
# High freq. dielectric constant tensor:
#      x y z
#    x 1.845430 -0.002660 -0.003590 
#    y -0.002660 1.843170 -0.005190 
#    z -0.003590 -0.005190 1.826720 
# 
# From -- ./inp_files/112381.got.cif
#   From: 2010.06.25/outbox.cif.g09.slc.cpg/sg2_57_cif.got.tgz:112381.got - 2010.06.27 13:26:56.
