data_PCOD8031102
_publ_section_title
;
Structure prediction by ZEFSAII (Michael W. Deem and Ramdas Pophale) SiO2 
 PCOD8031102
Probable space group: P -1
;
_chemical_formula_sum "Si O2"
_cell_formula_units_Z 16
_cell_length_a 15.095893
_cell_length_b 12.030843
_cell_length_c 13.038664
_cell_angle_alpha 97.046146
_cell_angle_beta 150.966726
_cell_angle_gamma 62.267072
_cell_volume 762.769658
_symmetry_space_group_name_H-M "P -1"
_symmetry_group_IT_number 2
_symmetry_cell_setting 'triclinic'
loop_
_space_group_symop_operation_xyz
x,y,z
-x,-y,-z
loop_
_atom_site_type_symbol
_atom_site_label
_atom_site_fract_x
_atom_site_fract_y
_atom_site_fract_z
Si Si1 0.407904 0.895475 0.635667
Si Si2 0.709839 0.915882 0.792694
Si Si3 0.310824 0.110245 0.726392
Si Si4 0.637880 0.691396 0.311878
Si Si5 0.740608 0.471757 0.215383
Si Si6 0.196695 0.482508 0.945105
Si Si7 0.239558 0.643004 0.184594
Si Si8 0.822435 0.118917 0.983163
O O1 0.598208 0.899708 0.774555
O O2 0.290807 0.003214 0.632655
O O3 0.595118 0.703967 0.824446
O O4 0.144848 0.978779 0.314017
O O5 0.500000 0.000000 0.500000
O O6 0.742988 0.030194 0.864776
O O7 0.991437 0.732472 0.020426
O O8 0.429375 0.152647 0.776917
O O9 0.017725 0.277838 0.492147
O O10 0.500000 0.000000 0.000000
O O11 0.735215 0.579325 0.298201
O O12 0.368397 0.760563 0.098838
O O13 0.884758 0.580473 0.632731
O O14 0.707324 0.525219 0.071044
O O15 0.500000 0.500000 0.000000
O O16 0.210746 0.580625 0.047166
O O17 0.500000 0.500000 0.500000
O O18 0.244218 0.769801 0.166969
#
# Coordination Sequence:
#
# PCOD8031102 Si02
#       8
#     2   2   2   2   2   2   2   2
#     4  12  25  45  70 100 138 178 224 282 334 404
#     4  12  26  46  71  98 134 181 227 279 344 389
#     4  11  22  42  67  99 135 174 224 270 335 403
#     4  11  22  43  69  99 134 179 218 277 341 398
#     4  11  23  42  68  99 137 177 224 274 339 405
#     4  11  25  45  67 101 138 176 229 276 339 404
#     4  12  27  45  69 101 135 180 229 281 335 400
#     4  12  25  47  70 100 138 173 230 282 334 406
#
# _framework density 20.976188
#
# number of rings (size 3 to 8) (size 9 to 14) (size 15 to 20)
#    0.000    0.500    2.500    7.875    3.500    1.500 
#    4.500    2.500    0.000    0.000    0.000    0.000 
#    0.000    0.000    0.000    0.000    0.000    0.000 
#
# Total GULP energy -198455.155968 kJ/mol
# GULP energy per Si atom -12403.447248 kJ/mol
# Density = 2.092845 g / cm^3
# Si number density = 20.976188 Si / 1000 Ang^3
#
#
#
# Elastic Constant Matrix: (Units=GPa)
#
#
# Indices 1 2 3 4 5 6 
#
# 1 106.8692 43.7587 73.4424 -8.6817 12.9634 -2.7725
# 2 43.7587 118.4659 56.3815 1.7005 -1.1071 -3.0494
# 3 73.4424 56.3815 163.6810 -15.7578 -5.1311 11.5676
# 4 -8.6817 1.7005 -15.7578 43.6214 0.3293 -6.9556
# 5 12.9634 -1.1071 -5.1311 0.3293 38.4462 0.4556
# 6 -2.7725 -3.0494 11.5676 -6.9556 0.4556 39.5335
#
#
#
# Elastic Compliance Matrix: (Units=1/GPa)
#
#
# Indices 1 2 3 4 5 6 
#
# 1 0.015912 -0.002809 -0.006448 0.001493 -0.006357 0.003122
# 2 -0.002809 0.010820 -0.002688 -0.001783 0.000902 0.001100
# 3 -0.006448 -0.002688 0.010476 0.002036 0.003518 -0.003407
# 4 0.001493 -0.001783 0.002036 0.024622 -0.000538 0.003710
# 5 -0.006357 0.000902 0.003518 -0.000538 0.028675 -0.001831
# 6 0.003122 0.001100 -0.003407 0.003710 -0.001831 0.027270
#
#
# Mechanical properties :
#
#
# Convention : Reuss Voigt Hill
#
# Bulk Modulus (GPa) = 75.08791 81.79792 78.44292
# Shear Modulus (GPa) = 34.22195 38.68244 36.45220
#
# Velocity S-wave (km/s) = 4.04352 4.29897 4.17320
# Velocity P-wave (km/s) = 7.59438 7.98259 7.79090
#
# Compressibility (1/GPa) = 0.01331772
#
# Stress axis : x y z
#
# Youngs Moduli (GPa) = 62.84533 92.41733 95.45990
#
# Poissons Ratio (x) = 0.25962 0.61554
# Poissons Ratio (y) = 0.17654 0.25659
# Poissons Ratio (z) = 0.40524 0.24841
#
# Static dielectric constant tensor:
#      x y z
#    x 3.973500 -0.270030 0.163150 
#    y -0.270030 4.140950 -0.041720 
#    z 0.163150 -0.041720 3.920630 
# 
# 
# High freq. dielectric constant tensor:
#      x y z
#    x 1.829650 -0.010020 0.004320 
#    y -0.010020 1.840570 0.000210 
#    z 0.004320 0.000210 1.830870 
# 
# From -- ./inp_files/226252.got.cif
#   From: 2010.06.25/outbox.cif.g09.slc.cpg/sg2_114_cif.got.tgz:226252.got - 2010.06.27 13:26:56.
