data_PCOD8031332
_publ_section_title
;
Structure prediction by ZEFSAII (Michael W. Deem and Ramdas Pophale) SiO2 
 PCOD8031332
Probable space group: P -1
;
_chemical_formula_sum "Si O2"
_cell_formula_units_Z 16
_cell_length_a 11.866130
_cell_length_b 9.843966
_cell_length_c 22.928476
_cell_angle_alpha 146.052587
_cell_angle_beta 150.694202
_cell_angle_gamma 42.310140
_cell_volume 730.792238
_symmetry_space_group_name_H-M "P -1"
_symmetry_group_IT_number 2
_symmetry_cell_setting 'triclinic'
loop_
_space_group_symop_operation_xyz
x,y,z
-x,-y,-z
loop_
_atom_site_type_symbol
_atom_site_label
_atom_site_fract_x
_atom_site_fract_y
_atom_site_fract_z
Si Si1 0.841727 0.306064 0.887771
Si Si2 0.953565 0.089501 0.075002
Si Si3 0.983684 0.507808 0.378839
Si Si4 0.228348 0.563412 0.397499
Si Si5 0.760281 0.970460 0.626403
Si Si6 0.031609 0.010729 0.393596
Si Si7 0.482275 0.474186 0.881052
Si Si8 0.571779 0.820711 0.141575
O O1 0.634839 0.428265 0.876272
O O2 0.747430 0.159617 0.739890
O O3 0.979346 0.117677 0.923263
O O4 0.000000 0.500000 0.000000
O O5 0.086628 0.334816 0.231349
O O6 0.682431 0.106759 0.968124
O O7 0.000000 0.000000 0.000000
O O8 0.759696 0.397428 0.206717
O O9 0.143136 0.635008 0.449046
O O10 0.144788 0.297515 0.406583
O O11 0.891631 0.720843 0.457894
O O12 0.500000 0.500000 0.500000
O O13 0.175480 0.796505 0.416126
O O14 0.500000 0.000000 0.500000
O O15 0.924223 0.041968 0.673145
O O16 0.756905 0.019149 0.284063
O O17 0.410032 0.238429 0.801807
O O18 0.633360 0.603293 0.045088
#
# Coordination Sequence:
#
# PCOD8031332 Si02
#       8
#     2   2   2   2   2   2   2   2
#     4  12  27  45  72 105 142 193 243 290 365 436
#     4  12  26  45  73 106 148 189 235 302 367 418
#     4  12  25  46  70 104 139 193 238 297 365 416
#     4  12  26  45  72 108 144 185 247 300 354 430
#     4  12  27  50  68 101 152 192 238 299 359 428
#     4  12  27  43  74 106 138 189 250 289 359 435
#     4  11  22  43  71  98 142 182 231 299 361 416
#     4  11  22  43  70 104 142 178 234 304 354 422
#
# _framework density 21.894048000000002
#
# number of rings (size 3 to 8) (size 9 to 14) (size 15 to 20)
#    0.000    0.250    5.000    3.750    5.250    2.000 
#    0.000    2.500    0.000    0.000    0.000    0.000 
#    0.000    0.000    0.000    0.000    0.000    0.000 
#
# Total GULP energy -198280.996460 kJ/mol
# GULP energy per Si atom -12392.562279 kJ/mol
# Density = 2.184422 g / cm^3
# Si number density = 21.894048 Si / 1000 Ang^3
#
#
#
# Elastic Constant Matrix: (Units=GPa)
#
#
# Indices 1 2 3 4 5 6 
#
# 1 169.0310 34.6323 50.5098 -4.6978 -12.9164 7.3738
# 2 34.6323 124.8935 57.5389 -14.0004 -6.7159 3.0963
# 3 50.5098 57.5389 111.9570 -17.9036 5.2900 -1.2938
# 4 -4.6978 -14.0004 -17.9036 39.4114 -6.1061 2.7247
# 5 -12.9164 -6.7159 5.2900 -6.1061 37.7385 -8.6562
# 6 7.3738 3.0963 -1.2938 2.7247 -8.6562 37.3120
#
#
#
# Elastic Compliance Matrix: (Units=1/GPa)
#
#
# Indices 1 2 3 4 5 6 
#
# 1 0.007186 -0.000376 -0.003226 -0.000279 0.002598 -0.000878
# 2 -0.000376 0.010912 -0.005270 0.001898 0.002740 -0.000517
# 3 -0.003226 -0.005270 0.013813 0.003471 -0.003294 0.000536
# 4 -0.000279 0.001898 0.003471 0.028299 0.004082 -0.001102
# 5 0.002598 0.002740 -0.003294 0.004082 0.030348 0.005887
# 6 -0.000878 -0.000517 0.000536 -0.001102 0.005887 0.028482
#
#
# Mechanical properties :
#
#
# Convention : Reuss Voigt Hill
#
# Bulk Modulus (GPa) = 70.59374 76.80483 73.69928
# Shear Modulus (GPa) = 35.33346 40.43907 37.88626
#
# Velocity S-wave (km/s) = 4.02162 4.30238 4.16436
# Velocity P-wave (km/s) = 7.34016 7.73544 7.54039
#
# Compressibility (1/GPa) = 0.01416556
#
# Stress axis : x y z
#
# Youngs Moduli (GPa) = 139.15299 91.64094 72.39471
#
# Poissons Ratio (x) = 0.03447 0.23358
# Poissons Ratio (y) = 0.05234 0.38155
# Poissons Ratio (z) = 0.44897 0.48299
#
# Static dielectric constant tensor:
#      x y z
#    x 4.244100 0.047340 -0.005910 
#    y 0.047340 3.854190 -0.247820 
#    z -0.005910 -0.247820 3.798430 
# 
# 
# High freq. dielectric constant tensor:
#      x y z
#    x 1.883080 -0.004050 -0.008650 
#    y -0.004050 1.858310 -0.016090 
#    z -0.008650 -0.016090 1.867850 
# 
# From -- ./inp_files/594281.got.cif
#   From: 2010.06.25/outbox.cif.g09.slc.cpg/sg2_298_cif.got.tgz:594281.got - 2010.06.27 13:26:56.
