data_PCOD8031029
_publ_section_title
;
Structure prediction by ZEFSAII (Michael W. Deem and Ramdas Pophale) SiO2 
 PCOD8031029
Probable space group: P -1
;
_chemical_formula_sum "Si O2"
_cell_formula_units_Z 16
_cell_length_a 10.664128
_cell_length_b 17.264754
_cell_length_c 9.152510
_cell_angle_alpha 141.810113
_cell_angle_beta 136.419747
_cell_angle_gamma 39.953542
_cell_volume 636.716391
_symmetry_space_group_name_H-M "P -1"
_symmetry_group_IT_number 2
_symmetry_cell_setting 'triclinic'
loop_
_space_group_symop_operation_xyz
x,y,z
-x,-y,-z
loop_
_atom_site_type_symbol
_atom_site_label
_atom_site_fract_x
_atom_site_fract_y
_atom_site_fract_z
Si Si1 0.881779 0.648169 0.395362
Si Si2 0.057909 0.917043 0.777303
Si Si3 0.390359 0.938641 0.931235
Si Si4 0.745719 0.405650 0.551768
Si Si5 0.439409 0.362733 0.478268
Si Si6 0.223516 0.587602 0.074497
Si Si7 0.162821 0.249372 0.174626
Si Si8 0.664006 0.895518 0.371816
O O1 0.870080 0.742595 0.666920
O O2 0.751187 0.743354 0.292625
O O3 0.112614 0.566635 0.408130
O O4 0.780625 0.547581 0.202589
O O5 0.161776 0.994378 0.887335
O O6 0.225793 0.750957 0.694113
O O7 0.849126 0.933165 0.551228
O O8 0.000000 0.000000 0.000000
O O9 0.417583 0.805093 0.661489
O O10 0.567256 0.888622 0.126873
O O11 0.349923 0.091683 0.049865
O O12 0.545799 0.553731 0.537838
O O13 0.819584 0.411180 0.786289
O O14 0.557738 0.412661 0.770615
O O15 0.222156 0.374852 0.366413
O O16 0.040990 0.724432 0.046354
O O17 0.500000 0.000000 0.500000
#
# Coordination Sequence:
#
# PCOD8031029 Si02
#       8
#     2   2   2   2   2   2   2   2
#     4  11  24  47  74 103 145 184 235 299 356 414
#     4  11  23  41  72 108 142 177 234 301 350 408
#     4  12  25  47  69 104 147 184 240 290 351 428
#     4  11  24  48  75 107 140 181 246 299 343 418
#     4  12  28  45  74 105 140 191 242 288 352 427
#     4  12  26  45  73 105 140 188 234 294 359 415
#     4  12  28  49  67 104 152 187 233 295 357 427
#     4  11  22  41  73 105 134 183 236 289 353 405
#
# _framework density 25.128927999999998
#
# number of rings (size 3 to 8) (size 9 to 14) (size 15 to 20)
#    0.000    0.500    5.000    3.000    5.250    2.000 
#    0.000    0.000    0.000    0.000    0.000    0.000 
#    0.000    0.000    0.000    0.000    0.000    0.000 
#
# Total GULP energy -198297.974499 kJ/mol
# GULP energy per Si atom -12393.623406 kJ/mol
# Density = 2.507173 g / cm^3
# Si number density = 25.128928 Si / 1000 Ang^3
#
#
#
# Elastic Constant Matrix: (Units=GPa)
#
#
# Indices 1 2 3 4 5 6 
#
# 1 52.9479 0.8997 13.6452 -6.4066 12.7167 12.4333
# 2 0.8997 117.3651 36.1238 -8.7187 -2.0151 19.8730
# 3 13.6452 36.1238 118.4920 -8.6470 11.0416 -0.6162
# 4 -6.4066 -8.7187 -8.6470 49.2157 -6.0833 0.5687
# 5 12.7167 -2.0151 11.0416 -6.0833 49.6319 4.6796
# 6 12.4333 19.8730 -0.6162 0.5687 4.6796 32.2598
#
#
#
# Elastic Compliance Matrix: (Units=1/GPa)
#
#
# Indices 1 2 3 4 5 6 
#
# 1 0.023221 0.002559 -0.002952 0.002589 -0.003923 -0.010059
# 2 0.002559 0.011234 -0.003774 0.001961 0.001659 -0.008254
# 3 -0.002952 -0.003774 0.010167 0.000444 -0.001975 0.003935
# 4 0.002589 0.001961 0.000444 0.021388 0.002212 -0.002895
# 5 -0.003923 0.001659 -0.001975 0.002212 0.022196 -0.002806
# 6 -0.010059 -0.008254 0.003935 -0.002895 -0.002806 0.040493
#
#
# Mechanical properties :
#
#
# Convention : Reuss Voigt Hill
#
# Bulk Modulus (GPa) = 27.55734 43.34916 35.45325
# Shear Modulus (GPa) = 33.52788 42.09722 37.81255
#
# Velocity S-wave (km/s) = 3.65668 4.09742 3.88331
# Velocity P-wave (km/s) = 5.36830 6.29867 5.85200
#
# Compressibility (1/GPa) = 0.03628797
#
# Stress axis : x y z
#
# Youngs Moduli (GPa) = 43.06381 89.01455 98.35956
#
# Poissons Ratio (x) = -0.22777 0.29035
# Poissons Ratio (y) = -0.11019 0.37120
# Poissons Ratio (z) = 0.12712 0.33594
#
# Static dielectric constant tensor:
#      x y z
#    x 4.619160 0.579500 -0.113910 
#    y 0.579500 4.496630 0.557630 
#    z -0.113910 0.557630 4.071230 
# 
# 
# High freq. dielectric constant tensor:
#      x y z
#    x 2.032620 -0.004370 0.017180 
#    y -0.004370 2.018470 0.011220 
#    z 0.017180 0.011220 1.993310 
# 
# From -- ./inp_files/280186.got.cif
#   From: 2010.06.25/outbox.cif.g09.slc.cpg/sg2_141_cif.got.tgz:280186.got - 2010.06.27 13:26:56.
