data_PCOD8031069
_publ_section_title
;
Structure prediction by ZEFSAII (Michael W. Deem and Ramdas Pophale) SiO2 
 PCOD8031069
Probable space group: P -1
;
_chemical_formula_sum "Si O2"
_cell_formula_units_Z 14
_cell_length_a 13.277809
_cell_length_b 20.133693
_cell_length_c 9.535893
_cell_angle_alpha 144.237956
_cell_angle_beta 43.477756
_cell_angle_gamma 155.180879
_cell_volume 624.749955
_symmetry_space_group_name_H-M "P -1"
_symmetry_group_IT_number 2
_symmetry_cell_setting 'triclinic'
loop_
_space_group_symop_operation_xyz
x,y,z
-x,-y,-z
loop_
_atom_site_type_symbol
_atom_site_label
_atom_site_fract_x
_atom_site_fract_y
_atom_site_fract_z
Si Si1 0.449830 0.969205 0.832871
Si Si2 0.371730 0.367185 0.095706
Si Si3 0.205571 0.234608 0.555333
Si Si4 0.797683 0.287360 0.802773
Si Si5 0.982325 0.809518 0.608374
Si Si6 0.496449 0.201771 0.708298
Si Si7 0.042776 0.887818 0.128530
O O1 0.426432 0.826643 0.552387
O O2 0.659216 0.164264 0.872464
O O3 0.197724 0.876521 0.901705
O O4 0.500000 0.000000 0.000000
O O5 0.532732 0.577895 0.322235
O O6 0.172346 0.229456 0.180862
O O7 0.553290 0.369781 0.911831
O O8 0.226758 0.288761 0.962873
O O9 0.177033 0.295528 0.551641
O O10 0.989351 0.131332 0.703788
O O11 0.185658 0.089792 0.284776
O O12 0.927731 0.259422 0.553972
O O13 0.616199 0.228048 0.772614
O O14 0.000000 0.500000 0.000000
O O15 0.210337 0.028075 0.719552
#
# Coordination Sequence:
#
# PCOD8031069 Si02
#       7
#     2   2   2   2   2   2   2
#     4  11  25  45  71  92 133 182 218 271 346 391
#     4  12  24  41  70  98 132 170 225 269 326 391
#     4  11  25  41  68  99 129 173 222 270 326 391
#     4  11  24  41  66 100 135 172 226 276 325 401
#     4  11  22  42  65  95 134 170 220 269 329 387
#     4  11  23  43  65  99 134 176 219 276 333 395
#     4  11  24  45  67  91 137 172 218 271 330 391
#
# _framework density 22.408964000000001
#
# number of rings (size 3 to 8) (size 9 to 14) (size 15 to 20)
#    0.000    0.857    1.429    7.286    6.000    0.000 
#    0.000    1.429    0.000    0.000    0.000    0.000 
#    0.000    0.000    0.000    0.000    0.000    0.000 
#
# Total GULP energy -173649.645008 kJ/mol
# GULP energy per Si atom -12403.546072 kJ/mol
# Density = 2.235796 g / cm^3
# Si number density = 22.408964 Si / 1000 Ang^3
#
#
#
# Elastic Constant Matrix: (Units=GPa)
#
#
# Indices 1 2 3 4 5 6 
#
# 1 116.1069 14.8554 41.2288 -10.5013 6.1256 8.1967
# 2 14.8554 42.3507 24.0966 -9.3942 4.3719 16.1693
# 3 41.2288 24.0966 85.7843 -11.3688 7.2179 21.2697
# 4 -10.5013 -9.3942 -11.3688 47.0628 6.4789 9.6652
# 5 6.1256 4.3719 7.2179 6.4789 39.1455 -10.2607
# 6 8.1967 16.1693 21.2697 9.6652 -10.2607 26.4446
#
#
#
# Elastic Compliance Matrix: (Units=1/GPa)
#
#
# Indices 1 2 3 4 5 6 
#
# 1 0.010498 -0.000803 -0.004678 0.001103 -0.000798 0.000287
# 2 -0.000803 0.048832 0.004739 0.024598 -0.023811 -0.051649
# 3 -0.004678 0.004739 0.023273 0.013849 -0.014465 -0.030841
# 4 0.001103 0.024598 0.013849 0.044334 -0.026728 -0.053096
# 5 -0.000798 -0.023811 -0.014465 -0.026728 0.049997 0.055609
# 6 0.000287 -0.051649 -0.030841 -0.053096 0.055609 0.135095
#
#
# Mechanical properties :
#
#
# Convention : Reuss Voigt Hill
#
# Bulk Modulus (GPa) = 12.32753 44.95594 28.64174
# Shear Modulus (GPa) = 14.68205 33.46800 24.07502
#
# Velocity S-wave (km/s) = 2.56244 3.86879 3.28128
# Velocity P-wave (km/s) = 3.77729 6.32944 5.21199
#
# Compressibility (1/GPa) = 0.08111925
#
# Stress axis : x y z
#
# Youngs Moduli (GPa) = 95.25480 20.47855 42.96754
#
# Poissons Ratio (x) = 0.01645 0.20098
# Poissons Ratio (y) = 0.07652 -0.20362
# Poissons Ratio (z) = 0.44556 -0.09705
#
# Static dielectric constant tensor:
#      x y z
#    x 3.282730 0.083860 -0.128600 
#    y 0.083860 3.868030 -0.011890 
#    z -0.128600 -0.011890 4.176610 
# 
# 
# High freq. dielectric constant tensor:
#      x y z
#    x 1.890780 0.004600 0.004310 
#    y 0.004600 1.871340 -0.004800 
#    z 0.004310 -0.004800 1.893370 
# 
# From -- ./inp_files/214015.got.cif
#   From: 2010.06.25/outbox.cif.g09.slc.cpg/sg2_108_cif.got.tgz:214015.got - 2010.06.27 13:26:56.
