data_PCOD8031283
_publ_section_title
;
Structure prediction by ZEFSAII (Michael W. Deem and Ramdas Pophale) SiO2 
 PCOD8031283
Probable space group: P -1
;
_chemical_formula_sum "Si O2"
_cell_formula_units_Z 16
_cell_length_a 10.179915
_cell_length_b 12.778065
_cell_length_c 18.979636
_cell_angle_alpha 28.620828
_cell_angle_beta 40.715449
_cell_angle_gamma 52.455584
_cell_volume 758.946304
_symmetry_space_group_name_H-M "P -1"
_symmetry_group_IT_number 2
_symmetry_cell_setting 'triclinic'
loop_
_space_group_symop_operation_xyz
x,y,z
-x,-y,-z
loop_
_atom_site_type_symbol
_atom_site_label
_atom_site_fract_x
_atom_site_fract_y
_atom_site_fract_z
Si Si1 0.860779 0.575389 0.953115
Si Si2 0.511208 0.919736 0.214346
Si Si3 0.450524 0.650903 0.138764
Si Si4 0.945099 0.492079 0.695432
Si Si5 0.533313 0.555513 0.318810
Si Si6 0.021726 0.698086 0.055257
Si Si7 0.223591 0.175792 0.717806
Si Si8 0.099533 0.976930 0.397864
O O1 0.848331 0.417759 0.983836
O O2 0.953494 0.827941 0.744917
O O3 0.636348 0.553558 0.088052
O O4 0.000000 0.500000 0.000000
O O5 0.440287 0.682473 0.345501
O O6 0.719778 0.910909 0.177215
O O7 0.345311 0.988484 0.295738
O O8 0.556033 0.096260 0.028980
O O9 0.253047 0.500350 0.275156
O O10 0.458273 0.639492 0.226282
O O11 0.903514 0.363891 0.861975
O O12 0.093784 0.371170 0.660072
O O13 0.023698 0.748552 0.524969
O O14 0.780473 0.606250 0.194610
O O15 0.436286 0.292329 0.523384
O O16 0.089147 0.964184 0.857916
O O17 0.000000 0.000000 0.500000
#
# Coordination Sequence:
#
# PCOD8031283 Si02
#       8
#     2   2   2   2   2   2   2   2
#     4  11  25  47  67  97 141 185 232 277 352 418
#     4  11  22  43  68 102 139 184 229 282 350 418
#     4  11  26  43  68 100 141 181 231 289 350 408
#     4  12  23  46  69 106 139 174 237 294 343 410
#     4  12  24  44  70 101 140 186 229 285 348 414
#     4  12  24  44  76  99 140 189 229 287 351 409
#     4  12  25  42  74 109 137 178 239 285 344 420
#     4  11  24  41  71 100 137 184 231 287 343 410
#
# _framework density 21.081859000000001
#
# number of rings (size 3 to 8) (size 9 to 14) (size 15 to 20)
#    0.000    0.500    6.250    2.625    0.000    3.000 
#    0.000    1.250    0.000    0.000    0.000    0.000 
#    0.000    0.000    0.000    0.000    0.000    0.000 
#
# Total GULP energy -198378.516019 kJ/mol
# GULP energy per Si atom -12398.657251 kJ/mol
# Density = 2.103388 g / cm^3
# Si number density = 21.081859 Si / 1000 Ang^3
#
#
#
# Elastic Constant Matrix: (Units=GPa)
#
#
# Indices 1 2 3 4 5 6 
#
# 1 124.5732 31.3778 42.5815 0.8478 2.7080 -13.7053
# 2 31.3778 108.5476 46.4342 -14.5931 -2.4677 -6.5391
# 3 42.5815 46.4342 131.7945 -21.5063 -10.0332 -1.6250
# 4 0.8478 -14.5931 -21.5063 35.3980 5.6086 1.0899
# 5 2.7080 -2.4677 -10.0332 5.6086 34.4452 -2.6007
# 6 -13.7053 -6.5391 -1.6250 1.0899 -2.6007 27.2434
#
#
#
# Elastic Compliance Matrix: (Units=1/GPa)
#
#
# Indices 1 2 3 4 5 6 
#
# 1 0.010062 -0.001700 -0.003135 -0.002822 -0.001028 0.004482
# 2 -0.001700 0.011478 -0.003018 0.002935 -0.000282 0.001575
# 3 -0.003135 -0.003018 0.010624 0.004990 0.002187 -0.001659
# 4 -0.002822 0.002935 0.004990 0.033207 -0.003680 -0.002097
# 5 -0.001028 -0.000282 0.002187 -0.003680 0.030525 0.002607
# 6 0.004482 0.001575 -0.001659 -0.002097 0.002607 0.039573
#
#
# Mechanical properties :
#
#
# Convention : Reuss Voigt Hill
#
# Bulk Modulus (GPa) = 60.76211 67.30027 64.03119
# Shear Modulus (GPa) = 31.91585 35.71877 33.81731
#
# Velocity S-wave (km/s) = 3.89511 4.12064 4.00946
# Velocity P-wave (km/s) = 7.00812 7.39136 7.20229
#
# Compressibility (1/GPa) = 0.01645763
#
# Stress axis : x y z
#
# Youngs Moduli (GPa) = 99.38370 87.12280 94.12468
#
# Poissons Ratio (x) = 0.14812 0.29512
# Poissons Ratio (y) = 0.16896 0.28404
# Poissons Ratio (z) = 0.31161 0.26291
#
# Static dielectric constant tensor:
#      x y z
#    x 3.774810 -0.021800 -0.017010 
#    y -0.021800 3.879640 -0.094400 
#    z -0.017010 -0.094400 3.975520 
# 
# 
# High freq. dielectric constant tensor:
#      x y z
#    x 1.822500 -0.007890 -0.000120 
#    y -0.007890 1.829770 -0.004170 
#    z -0.000120 -0.004170 1.836080 
# 
# From -- ./inp_files/242593.got.cif
#   From: 2010.06.25/outbox.cif.g09.slc.cpg/sg2_122_cif.got.tgz:242593.got - 2010.06.27 13:26:56.
