data_PCOD8031526
_publ_section_title
;
Structure prediction by ZEFSAII (Michael W. Deem and Ramdas Pophale) SiO2 
 PCOD8031526
Probable space group: P -1
;
_chemical_formula_sum "Si O2"
_cell_formula_units_Z 14
_cell_length_a 19.924292
_cell_length_b 11.714253
_cell_length_c 9.582166
_cell_angle_alpha 55.534627
_cell_angle_beta 37.423209
_cell_angle_gamma 29.340105
_cell_volume 602.978384
_symmetry_space_group_name_H-M "P -1"
_symmetry_group_IT_number 2
_symmetry_cell_setting 'triclinic'
loop_
_space_group_symop_operation_xyz
x,y,z
-x,-y,-z
loop_
_atom_site_type_symbol
_atom_site_label
_atom_site_fract_x
_atom_site_fract_y
_atom_site_fract_z
Si Si1 0.870441 0.863179 0.463580
Si Si2 0.940323 0.797792 0.829241
Si Si3 0.102868 0.596014 0.996202
Si Si4 0.378159 0.642423 0.962622
Si Si5 0.661216 0.921018 0.995051
Si Si6 0.240350 0.492505 0.301136
Si Si7 0.660216 0.373198 0.440805
O O1 0.700986 0.944479 0.759440
O O2 0.080090 0.604434 0.376965
O O3 0.807432 0.089426 0.431864
O O4 0.908742 0.787938 0.289715
O O5 0.785424 0.865183 0.952683
O O6 0.020465 0.642698 0.946621
O O7 0.135194 0.631121 0.528503
O O8 0.831203 0.054027 0.879266
O O9 0.195477 0.651535 0.822067
O O10 0.281485 0.300447 0.947181
O O11 0.328622 0.541640 0.058742
O O12 0.500000 0.500000 0.000000
O O13 0.525709 0.562694 0.664137
O O14 0.419662 0.190793 0.236631
O O15 0.500000 0.500000 0.500000
#
# Coordination Sequence:
#
# PCOD8031526 Si02
#       7
#     2   2   2   2   2   2   2
#     4  11  24  48  71  97 135 181 234 280 333 410
#     4  11  24  43  68 105 139 176 227 286 337 402
#     4  12  26  44  69 105 139 181 223 283 352 395
#     4  12  20  40  70 100 131 179 229 274 334 400
#     4  11  25  47  70  99 142 182 226 277 336 418
#     4  11  22  44  70  99 137 179 233 278 335 403
#     4  12  25  45  70 103 137 178 227 289 340 398
#
# _framework density 23.218077000000001
#
# number of rings (size 3 to 8) (size 9 to 14) (size 15 to 20)
#    0.000    0.571    2.857    6.000    0.000    1.143 
#   10.286    0.000    0.000    0.000    0.000    0.000 
#    0.000    0.000    0.000    0.000    0.000    0.000 
#
# Total GULP energy -173668.461559 kJ/mol
# GULP energy per Si atom -12404.890111 kJ/mol
# Density = 2.316523 g / cm^3
# Si number density = 23.218077 Si / 1000 Ang^3
#
#
#
# Elastic Constant Matrix: (Units=GPa)
#
#
# Indices 1 2 3 4 5 6 
#
# 1 62.5369 3.9877 29.8980 -5.6064 14.9835 -20.5325
# 2 3.9877 164.6301 52.9523 13.6121 3.2703 3.9705
# 3 29.8980 52.9523 124.6976 12.9823 29.5250 -14.0972
# 4 -5.6064 13.6121 12.9823 40.1179 -5.1087 1.1099
# 5 14.9835 3.2703 29.5250 -5.1087 33.4784 0.4041
# 6 -20.5325 3.9705 -14.0972 1.1099 0.4041 30.6480
#
#
#
# Elastic Compliance Matrix: (Units=1/GPa)
#
#
# Indices 1 2 3 4 5 6 
#
# 1 0.024470 -0.000307 -0.002197 0.002692 -0.008760 0.015441
# 2 -0.000307 0.007463 -0.004035 -0.000819 0.002879 -0.003037
# 3 -0.002197 -0.004035 0.014378 -0.005309 -0.012185 0.006017
# 4 0.002692 -0.000819 -0.005309 0.028351 0.007903 -0.001663
# 5 -0.008760 0.002879 -0.012185 0.007903 0.045615 -0.012734
# 6 0.015441 -0.003037 0.006017 -0.001663 -0.012734 0.046362
#
#
# Mechanical properties :
#
#
# Convention : Reuss Voigt Hill
#
# Bulk Modulus (GPa) = 30.09145 58.39339 44.24242
# Shear Modulus (GPa) = 26.20586 38.51730 32.36158
#
# Velocity S-wave (km/s) = 3.36323 4.07742 3.73743
# Velocity P-wave (km/s) = 5.29814 6.88271 6.14174
#
# Compressibility (1/GPa) = 0.03323204
#
# Stress axis : x y z
#
# Youngs Moduli (GPa) = 40.86561 133.98736 69.55104
#
# Poissons Ratio (x) = 0.04112 0.15284
# Poissons Ratio (y) = 0.01254 0.28067
# Poissons Ratio (z) = 0.08980 0.54070
#
# Static dielectric constant tensor:
#      x y z
#    x 3.929710 -0.200840 0.300650 
#    y -0.200840 4.173810 0.249680 
#    z 0.300650 0.249680 3.954680 
# 
# 
# High freq. dielectric constant tensor:
#      x y z
#    x 1.909400 -0.007450 0.012870 
#    y -0.007450 1.928190 0.007710 
#    z 0.012870 0.007710 1.926970 
# 
# From -- ./inp_files/66035.got.cif
#   From: 2010.06.25/outbox.cif.g09.slc.cpg/sg2_34_cif.got.tgz:66035.got - 2010.06.27 13:26:56.
