data_PCOD8031132
_publ_section_title
;
Structure prediction by ZEFSAII (Michael W. Deem and Ramdas Pophale) SiO2 
 PCOD8031132
Probable space group: P -1
;
_chemical_formula_sum "Si O2"
_cell_formula_units_Z 16
_cell_length_a 21.506563
_cell_length_b 9.070169
_cell_length_c 23.944466
_cell_angle_alpha 149.551136
_cell_angle_beta 161.153909
_cell_angle_gamma 30.184007
_cell_volume 730.210424
_symmetry_space_group_name_H-M "P -1"
_symmetry_group_IT_number 2
_symmetry_cell_setting 'triclinic'
loop_
_space_group_symop_operation_xyz
x,y,z
-x,-y,-z
loop_
_atom_site_type_symbol
_atom_site_label
_atom_site_fract_x
_atom_site_fract_y
_atom_site_fract_z
Si Si1 0.506251 0.477044 0.698599
Si Si2 0.579940 0.907313 0.404608
Si Si3 0.917796 0.124443 0.643234
Si Si4 0.509569 0.543524 0.599041
Si Si5 0.960810 0.315370 0.038311
Si Si6 0.044313 0.728387 0.722240
Si Si7 0.776519 0.924658 0.920358
Si Si8 0.861901 0.957324 0.419424
O O1 0.468270 0.206090 0.613372
O O2 0.478693 0.402027 0.586272
O O3 0.728092 0.502707 0.903713
O O4 0.356254 0.802422 0.695318
O O5 0.812271 0.737336 0.534969
O O6 0.534068 0.275942 0.486731
O O7 0.418917 0.849643 0.204159
O O8 0.688612 0.162889 0.482837
O O9 0.069038 0.888621 0.736789
O O10 0.962757 0.002926 0.578942
O O11 0.931108 0.467725 0.767882
O O12 0.705602 0.662795 0.805943
O O13 0.043951 0.246290 0.023985
O O14 0.000000 0.000000 0.000000
O O15 0.171387 0.374793 0.715796
O O16 0.129593 0.888687 0.896263
O O17 0.000000 0.000000 0.500000
#
# Coordination Sequence:
#
# PCOD8031132 Si02
#       8
#     2   2   2   2   2   2   2   2
#     4  11  24  43  67 102 137 184 236 286 346 412
#     4  12  22  43  70 102 146 181 222 288 354 421
#     4  11  24  45  73 100 143 185 231 291 350 411
#     4  11  22  42  69 104 143 179 225 283 358 423
#     4  12  24  42  70 109 143 178 225 288 362 420
#     4  12  26  46  71 103 141 189 237 286 344 410
#     4  12  25  43  71 109 144 178 229 282 354 432
#     4  11  26  48  71  96 134 190 248 287 339 407
#
# _framework density 21.911491999999999
#
# number of rings (size 3 to 8) (size 9 to 14) (size 15 to 20)
#    0.000    0.500    5.000    3.375    1.750    2.500 
#    2.250    4.375    0.000    0.000    0.000    0.000 
#    0.000    0.000    0.000    0.000    0.000    0.000 
#
# Total GULP energy -198430.760581 kJ/mol
# GULP energy per Si atom -12401.922536 kJ/mol
# Density = 2.186162 g / cm^3
# Si number density = 21.911492 Si / 1000 Ang^3
#
#
#
# Elastic Constant Matrix: (Units=GPa)
#
#
# Indices 1 2 3 4 5 6 
#
# 1 124.3558 50.8504 57.4580 8.5106 -9.0054 -3.1969
# 2 50.8504 127.8771 56.9674 6.2835 2.5136 2.0265
# 3 57.4580 56.9674 118.5982 -1.8139 -6.9743 -7.1757
# 4 8.5106 6.2835 -1.8139 45.0690 -3.1901 2.8122
# 5 -9.0054 2.5136 -6.9743 -3.1901 38.4677 1.5348
# 6 -3.1969 2.0265 -7.1757 2.8122 1.5348 39.8243
#
#
#
# Elastic Compliance Matrix: (Units=1/GPa)
#
#
# Indices 1 2 3 4 5 6 
#
# 1 0.011276 -0.002609 -0.004104 -0.001818 0.001901 0.000354
# 2 -0.002609 0.010839 -0.004167 -0.001253 -0.002125 -0.001342
# 3 -0.004104 -0.004167 0.012669 0.001862 0.001684 0.001969
# 4 -0.001818 -0.001253 0.001862 0.023010 0.001960 -0.001447
# 5 0.001901 -0.002125 0.001684 0.001960 0.027072 -0.000618
# 6 0.000354 -0.001342 0.001969 -0.001447 -0.000618 0.025688
#
#
# Mechanical properties :
#
#
# Convention : Reuss Voigt Hill
#
# Bulk Modulus (GPa) = 76.79568 77.93141 77.36355
# Shear Modulus (GPa) = 36.58832 38.37588 37.48210
#
# Velocity S-wave (km/s) = 4.09078 4.18952 4.14044
# Velocity P-wave (km/s) = 7.57871 7.68417 7.63162
#
# Compressibility (1/GPa) = 0.01302157
#
# Stress axis : x y z
#
# Youngs Moduli (GPa) = 88.68481 92.26224 78.93468
#
# Poissons Ratio (x) = 0.24072 0.32397
# Poissons Ratio (y) = 0.23139 0.32896
# Poissons Ratio (z) = 0.36398 0.38450
#
# Static dielectric constant tensor:
#      x y z
#    x 4.143710 0.160100 0.102630 
#    y 0.160100 4.100320 -0.211630 
#    z 0.102630 -0.211630 3.988130 
# 
# 
# High freq. dielectric constant tensor:
#      x y z
#    x 1.881160 0.017900 0.006240 
#    y 0.017900 1.861120 -0.009370 
#    z 0.006240 -0.009370 1.856040 
# 
# From -- ./inp_files/188167.got.cif
#   From: 2010.06.25/outbox.cif.g09.slc.cpg/sg2_95_cif.got.tgz:188167.got - 2010.06.27 13:26:56.
