data_PCOD8031835
_publ_section_title
;
Structure prediction by ZEFSAII (Michael W. Deem and Ramdas Pophale) SiO2 
 PCOD8031835
Probable space group: P -1
;
_chemical_formula_sum "Si O2"
_cell_formula_units_Z 14
_cell_length_a 8.632743
_cell_length_b 12.609311
_cell_length_c 8.340108
_cell_angle_alpha 61.936475
_cell_angle_beta 126.627906
_cell_angle_gamma 98.505772
_cell_volume 631.509812
_symmetry_space_group_name_H-M "P -1"
_symmetry_group_IT_number 2
_symmetry_cell_setting 'triclinic'
loop_
_space_group_symop_operation_xyz
x,y,z
-x,-y,-z
loop_
_atom_site_type_symbol
_atom_site_label
_atom_site_fract_x
_atom_site_fract_y
_atom_site_fract_z
Si Si1 0.950652 0.192875 0.599294
Si Si2 0.387047 0.077074 0.012222
Si Si3 0.380462 0.343702 0.159820
Si Si4 0.312631 0.541738 0.249820
Si Si5 0.653345 0.272280 0.114413
Si Si6 0.988416 0.398366 0.700326
Si Si7 0.613787 0.091045 0.590064
O O1 0.877105 0.233030 0.345008
O O2 0.887119 0.298495 0.619261
O O3 0.826262 0.089469 0.642231
O O4 0.184410 0.155227 0.764268
O O5 0.527444 0.162837 0.115799
O O6 0.500000 0.000000 0.000000
O O7 0.334949 0.968194 0.164441
O O8 0.304647 0.453061 0.157900
O O9 0.545555 0.368160 0.115197
O O10 0.470505 0.224027 0.405500
O O11 0.197475 0.328406 0.944989
O O12 0.500000 0.500000 0.500000
O O13 0.131034 0.546484 0.254717
O O14 0.330241 0.672913 0.090693
O O15 0.000000 0.500000 0.500000
O O16 0.500000 0.000000 0.500000
#
# Coordination Sequence:
#
# PCOD8031835 Si02
#       7
#     2   2   2   2   2   2   2
#     4  11  24  47  74  98 142 193 228 291 364 412
#     4  12  27  43  72 103 142 185 239 294 345 426
#     4  11  23  44  72 100 144 187 230 298 345 421
#     4  12  26  42  70 106 140 188 237 290 356 423
#     4  11  24  48  68 104 146 184 237 291 355 418
#     4  12  25  44  72 105 142 185 237 292 358 424
#     4  11  22  47  70 100 138 187 236 281 355 418
#
# _framework density 22.169093
#
# number of rings (size 3 to 8) (size 9 to 14) (size 15 to 20)
#    0.000    0.571    4.286    4.714    4.000    1.714 
#    0.000    0.000    0.000    0.000    0.000    0.000 
#    0.000    0.000    0.000    0.000    0.000    0.000 
#
# Total GULP energy -173477.975074 kJ/mol
# GULP energy per Si atom -12391.283934 kJ/mol
# Density = 2.211864 g / cm^3
# Si number density = 22.169093 Si / 1000 Ang^3
#
#
#
# Elastic Constant Matrix: (Units=GPa)
#
#
# Indices 1 2 3 4 5 6 
#
# 1 124.0578 37.4382 52.7311 -2.8470 -12.5036 -9.5539
# 2 37.4382 83.2146 23.9187 9.8752 5.2229 1.1794
# 3 52.7311 23.9187 172.0460 8.4488 1.2122 10.7172
# 4 -2.8470 9.8752 8.4488 37.0677 9.7424 1.2361
# 5 -12.5036 5.2229 1.2122 9.7424 49.5591 -1.9795
# 6 -9.5539 1.1794 10.7172 1.2361 -1.9795 34.8146
#
#
#
# Elastic Compliance Matrix: (Units=1/GPa)
#
#
# Indices 1 2 3 4 5 6 
#
# 1 0.011629 -0.004782 -0.003296 0.001895 0.003325 0.004490
# 2 -0.004782 0.014843 -0.000297 -0.003640 -0.002116 -0.001715
# 3 -0.003296 -0.000297 0.007135 -0.001485 -0.000806 -0.003084
# 4 0.001895 -0.003640 -0.001485 0.029743 -0.004958 -0.000237
# 5 0.003325 -0.002116 -0.000806 -0.004958 0.022341 0.002679
# 6 0.004490 -0.001715 -0.003084 -0.000237 0.002679 0.031124
#
#
# Mechanical properties :
#
#
# Convention : Reuss Voigt Hill
#
# Bulk Modulus (GPa) = 59.32271 67.49938 63.41105
# Shear Modulus (GPa) = 35.92393 41.97031 38.94712
#
# Velocity S-wave (km/s) = 4.02985 4.35580 4.19599
# Velocity P-wave (km/s) = 6.96206 7.47067 7.22084
#
# Compressibility (1/GPa) = 0.01685695
#
# Stress axis : x y z
#
# Youngs Moduli (GPa) = 85.99200 67.37143 140.16335
#
# Poissons Ratio (x) = 0.32216 0.46192
# Poissons Ratio (y) = 0.41120 0.04170
# Poissons Ratio (z) = 0.28339 0.02004
#
# Static dielectric constant tensor:
#      x y z
#    x 5.677730 -0.925300 -0.112150 
#    y -0.925300 4.609230 -0.019610 
#    z -0.112150 -0.019610 4.390710 
# 
# 
# High freq. dielectric constant tensor:
#      x y z
#    x 1.867170 0.005950 -0.002080 
#    y 0.005950 1.870530 0.011040 
#    z -0.002080 0.011040 1.896890 
# 
# From -- ./inp_files/185465.got.cif
#   From: 2010.06.25/outbox.cif.g09.slc.cpg/sg2_93_cif.got.tgz:185465.got - 2010.06.27 13:26:56.
