data_PCOD8031165
_publ_section_title
;
Structure prediction by ZEFSAII (Michael W. Deem and Ramdas Pophale) SiO2 
 PCOD8031165
Probable space group: P -1
;
_chemical_formula_sum "Si O2"
_cell_formula_units_Z 14
_cell_length_a 19.337086
_cell_length_b 8.800721
_cell_length_c 8.393666
_cell_angle_alpha 112.216801
_cell_angle_beta 29.206613
_cell_angle_gamma 104.462295
_cell_volume 634.997287
_symmetry_space_group_name_H-M "P -1"
_symmetry_group_IT_number 2
_symmetry_cell_setting 'triclinic'
loop_
_space_group_symop_operation_xyz
x,y,z
-x,-y,-z
loop_
_atom_site_type_symbol
_atom_site_label
_atom_site_fract_x
_atom_site_fract_y
_atom_site_fract_z
Si Si1 0.606462 0.128960 0.318484
Si Si2 0.929193 0.263553 0.155123
Si Si3 0.949948 0.344445 0.606783
Si Si4 0.844084 0.520864 0.179595
Si Si5 0.708663 0.266875 0.869064
Si Si6 0.466328 0.505055 0.256536
Si Si7 0.899039 0.002373 0.853374
O O1 0.533358 0.312335 0.598395
O O2 0.500000 0.000000 0.500000
O O3 0.650035 0.127053 0.040748
O O4 0.736946 0.068792 0.153634
O O5 0.841689 0.438639 0.327610
O O6 0.839061 0.202934 0.458265
O O7 0.084933 0.311439 0.906069
O O8 0.950926 0.107616 0.932355
O O9 0.784387 0.358992 0.889808
O O10 0.000000 0.500000 0.500000
O O11 0.067744 0.191911 0.242291
O O12 0.939408 0.365848 0.827809
O O13 0.683577 0.562598 0.449383
O O14 0.580265 0.379451 0.079622
O O15 0.500000 0.500000 0.000000
O O16 0.000000 0.000000 0.500000
#
# Coordination Sequence:
#
# PCOD8031165 Si02
#       7
#     2   2   2   2   2   2   2
#     4  12  28  46  69 105 140 189 233 286 359 409
#     4  11  23  42  73 105 136 184 237 288 349 407
#     4  12  25  43  72 107 133 182 238 290 353 416
#     4  11  22  42  70 106 139 181 233 283 354 413
#     4  12  24  45  73 101 144 182 239 284 347 421
#     4  12  24  46  71 102 146 187 232 286 344 427
#     4  12  23  48  71  97 149 181 233 296 344 413
#
# _framework density 22.047339999999998
#
# number of rings (size 3 to 8) (size 9 to 14) (size 15 to 20)
#    0.000    0.286    8.571    0.429    2.000    1.714 
#    0.000    2.857    0.000    0.000    0.000    0.000 
#    0.000    0.000    0.000    0.000    0.000    0.000 
#
# Total GULP energy -173434.659642 kJ/mol
# GULP energy per Si atom -12388.189974 kJ/mol
# Density = 2.199716 g / cm^3
# Si number density = 22.047340 Si / 1000 Ang^3
#
#
#
# Elastic Constant Matrix: (Units=GPa)
#
#
# Indices 1 2 3 4 5 6 
#
# 1 117.1486 59.7962 43.7809 0.4073 0.1186 4.7445
# 2 59.7962 149.7160 67.5467 -15.3000 5.1696 12.3420
# 3 43.7809 67.5467 95.8039 -10.6382 15.4440 9.9766
# 4 0.4073 -15.3000 -10.6382 38.5709 -5.0741 3.4340
# 5 0.1186 5.1696 15.4440 -5.0741 52.8225 0.8736
# 6 4.7445 12.3420 9.9766 3.4340 0.8736 39.5402
#
#
#
# Elastic Compliance Matrix: (Units=1/GPa)
#
#
# Indices 1 2 3 4 5 6 
#
# 1 0.011512 -0.003418 -0.003353 -0.002327 0.001054 0.000710
# 2 -0.003418 0.011154 -0.005918 0.003123 0.000977 -0.001871
# 3 -0.003353 -0.005918 0.017287 0.002095 -0.004230 -0.002201
# 4 -0.002327 0.003123 0.002095 0.028346 0.001872 -0.003728
# 5 0.001054 0.000977 -0.004230 0.001872 0.020249 0.000026
# 6 0.000710 -0.001871 -0.002201 -0.003728 0.000026 0.026668
#
#
# Mechanical properties :
#
#
# Convention : Reuss Voigt Hill
#
# Bulk Modulus (GPa) = 68.61405 78.32400 73.46902
# Shear Modulus (GPa) = 34.37533 38.95639 36.66586
#
# Velocity S-wave (km/s) = 3.95290 4.20806 4.08248
# Velocity P-wave (km/s) = 7.21268 7.69499 7.45773
#
# Compressibility (1/GPa) = 0.01457427
#
# Stress axis : x y z
#
# Youngs Moduli (GPa) = 86.86456 89.65258 57.84752
#
# Poissons Ratio (x) = 0.30641 0.19399
# Poissons Ratio (y) = 0.29688 0.34236
# Poissons Ratio (z) = 0.29130 0.53059
#
# Static dielectric constant tensor:
#      x y z
#    x 3.214150 0.299320 -0.595310 
#    y 0.299320 3.838690 -0.240780 
#    z -0.595310 -0.240780 2.933160 
# 
# 
# High freq. dielectric constant tensor:
#      x y z
#    x 1.886820 -0.002250 0.009300 
#    y -0.002250 1.862350 -0.014230 
#    z 0.009300 -0.014230 1.865160 
# 
# From -- ./inp_files/342891.got.cif
#   From: 2010.06.25/outbox.cif.g09.slc.cpg/sg2_172_cif.got.tgz:342891.got - 2010.06.27 13:26:56.
