data_PCOD8031886
_publ_section_title
;
Structure prediction by ZEFSAII (Michael W. Deem and Ramdas Pophale) SiO2 
 PCOD8031886
Probable space group: P -1
;
_chemical_formula_sum "Si O2"
_cell_formula_units_Z 16
_cell_length_a 15.533099
_cell_length_b 8.930485
_cell_length_c 14.038324
_cell_angle_alpha 48.094554
_cell_angle_beta 132.793893
_cell_angle_gamma 147.839687
_cell_volume 738.863916
_symmetry_space_group_name_H-M "P -1"
_symmetry_group_IT_number 2
_symmetry_cell_setting 'triclinic'
loop_
_space_group_symop_operation_xyz
x,y,z
-x,-y,-z
loop_
_atom_site_type_symbol
_atom_site_label
_atom_site_fract_x
_atom_site_fract_y
_atom_site_fract_z
Si Si1 0.294532 0.616907 0.378007
Si Si2 0.903310 0.961844 0.094710
Si Si3 0.666815 0.341689 0.149117
Si Si4 0.918718 0.179926 0.218175
Si Si5 0.470364 0.729735 0.282280
Si Si6 0.388382 0.423388 0.675723
Si Si7 0.591997 0.810462 0.840507
Si Si8 0.779125 0.448507 0.981460
O O1 0.380651 0.577939 0.379960
O O2 0.343823 0.588305 0.530377
O O3 0.094364 0.369569 0.323211
O O4 0.367003 0.928528 0.289582
O O5 0.846281 0.655674 0.187353
O O6 0.925316 0.078266 0.165832
O O7 0.761533 0.902987 0.952840
O O8 0.082833 0.202157 0.073956
O O9 0.517495 0.296706 0.099727
O O10 0.664071 0.348268 0.029680
O O11 0.640582 0.077185 0.275040
O O12 0.882169 0.369128 0.096112
O O13 0.780859 0.912402 0.296373
O O14 0.498043 0.553561 0.325911
O O15 0.344210 0.714859 0.132029
O O16 0.484139 0.552124 0.792934
#
# Coordination Sequence:
#
# PCOD8031886 Si02
#       8
#     2   2   2   2   2   2   2   2
#     4  11  24  46  65  90 127 172 212 252 306 371
#     4  12  23  40  64  95 132 161 201 263 328 370
#     4  11  23  37  61  95 129 161 199 258 318 374
#     4  12  23  43  65  95 125 167 210 258 316 372
#     4  11  24  41  66  96 127 160 212 262 311 372
#     4  12  25  43  68  90 126 172 214 254 301 375
#     4  11  24  41  66  96 127 160 212 262 311 372
#     4  12  23  40  64  95 132 161 201 263 328 370
#
# _framework density 21.654868
#
# number of rings (size 3 to 8) (size 9 to 14) (size 15 to 20)
#    0.000    0.500    5.000    4.875    3.500    0.000 
#    0.000    0.000    0.000    1.500    0.000    0.000 
#    0.000    0.000    0.000    0.000    0.000    0.000 
#
# Total GULP energy -198440.258574 kJ/mol
# GULP energy per Si atom -12402.516161 kJ/mol
# Density = 2.160558 g / cm^3
# Si number density = 21.654868 Si / 1000 Ang^3
#
#
#
# Elastic Constant Matrix: (Units=GPa)
#
#
# Indices 1 2 3 4 5 6 
#
# 1 59.2278 8.8025 5.3621 10.9242 -4.5715 -4.6774
# 2 8.8025 85.5644 3.3990 -4.7719 2.0584 4.9800
# 3 5.3621 3.3990 63.8932 11.0245 -0.4284 4.6398
# 4 10.9242 -4.7719 11.0245 19.8718 -1.6994 -3.4625
# 5 -4.5715 2.0584 -0.4284 -1.6994 23.5393 -4.0930
# 6 -4.6774 4.9800 4.6398 -3.4625 -4.0930 34.7495
#
#
#
# Elastic Compliance Matrix: (Units=1/GPa)
#
#
# Indices 1 2 3 4 5 6 
#
# 1 0.019791 -0.002886 0.000237 -0.010969 0.003724 0.002392
# 2 -0.002886 0.012434 -0.001124 0.004754 -0.001627 -0.001738
# 3 0.000237 -0.001124 0.017821 -0.010955 -0.000911 -0.003385
# 4 -0.010969 0.004754 -0.010955 0.064896 0.003005 0.006125
# 5 0.003724 -0.001627 -0.000911 0.003005 0.044664 0.006416
# 6 0.002392 -0.001738 -0.003385 0.006125 0.006416 0.031167
#
#
# Mechanical properties :
#
#
# Convention : Reuss Voigt Hill
#
# Bulk Modulus (GPa) = 23.53014 27.09030 25.31022
# Shear Modulus (GPa) = 23.53102 28.37357 25.95229
#
# Velocity S-wave (km/s) = 3.30000 3.62368 3.46562
# Velocity P-wave (km/s) = 5.04079 5.48136 5.26568
#
# Compressibility (1/GPa) = 0.04249869
#
# Stress axis : x y z
#
# Youngs Moduli (GPa) = 50.52831 80.42399 56.11368
#
# Poissons Ratio (x) = 0.23210 -0.01327
# Poissons Ratio (y) = 0.14582 0.06309
# Poissons Ratio (z) = -0.01195 0.09042
#
# Static dielectric constant tensor:
#      x y z
#    x 3.948720 0.018610 -0.111010 
#    y 0.018610 4.280860 -0.202440 
#    z -0.111010 -0.202440 3.630930 
# 
# 
# High freq. dielectric constant tensor:
#      x y z
#    x 1.856620 0.000180 -0.012170 
#    y 0.000180 1.868740 -0.015060 
#    z -0.012170 -0.015060 1.824800 
# 
# From -- ./inp_files/185693.got.cif
#   From: 2010.06.25/outbox.cif.g09.slc.cpg/sg2_93_cif.got.tgz:185693.got - 2010.06.27 13:26:56.
