data_PCOD8031143
_publ_section_title
;
Structure prediction by ZEFSAII (Michael W. Deem and Ramdas Pophale) SiO2 
 PCOD8031143
Probable space group: P -1
;
_chemical_formula_sum "Si O2"
_cell_formula_units_Z 16
_cell_length_a 14.256292
_cell_length_b 14.266343
_cell_length_c 8.867816
_cell_angle_alpha 130.531983
_cell_angle_beta 80.020481
_cell_angle_gamma 138.326374
_cell_volume 716.798047
_symmetry_space_group_name_H-M "P -1"
_symmetry_group_IT_number 2
_symmetry_cell_setting 'triclinic'
loop_
_space_group_symop_operation_xyz
x,y,z
-x,-y,-z
loop_
_atom_site_type_symbol
_atom_site_label
_atom_site_fract_x
_atom_site_fract_y
_atom_site_fract_z
Si Si1 0.603084 0.218162 0.108501
Si Si2 0.335719 0.271911 0.535793
Si Si3 0.898889 0.509536 0.088946
Si Si4 0.003049 0.056016 0.889976
Si Si5 0.153831 0.007451 0.623316
Si Si6 0.537247 0.737518 0.014371
Si Si7 0.348436 0.572703 0.413669
Si Si8 0.404447 0.767975 0.321058
O O1 0.752423 0.323417 0.066810
O O2 0.459500 0.143526 0.977560
O O3 0.701826 0.421364 0.406856
O O4 0.500000 0.000000 0.000000
O O5 0.270861 0.169834 0.615006
O O6 0.394299 0.479165 0.729928
O O7 0.503848 0.371611 0.547142
O O8 0.182574 0.080690 0.250602
O O9 0.800525 0.452531 0.908678
O O10 0.043751 0.764311 0.370972
O O11 0.000000 0.500000 0.000000
O O12 0.022420 0.974387 0.668776
O O13 0.171609 0.332076 0.125193
O O14 0.000000 0.000000 0.000000
O O15 0.271552 0.116913 0.857560
O O16 0.493031 0.745168 0.198252
O O17 0.422237 0.765738 0.491997
O O18 0.500000 0.000000 0.500000
#
# Coordination Sequence:
#
# PCOD8031143 Si02
#       8
#     2   2   2   2   2   2   2   2
#     4  11  27  48  72  99 144 190 237 292 356 425
#     4  12  25  43  74 106 141 188 234 291 360 430
#     4  11  25  45  71 102 137 183 244 297 352 418
#     4  12  26  42  66 104 147 180 229 292 361 422
#     4  12  23  43  69 105 143 178 236 296 353 419
#     4  11  22  43  69 101 139 191 234 284 358 428
#     4  12  24  45  71 104 142 183 237 288 363 424
#     4  11  22  42  69  97 136 185 236 288 347 421
#
# _framework density 22.321491000000002
#
# number of rings (size 3 to 8) (size 9 to 14) (size 15 to 20)
#    0.000    0.500    2.500    7.500    3.500    1.000 
#    0.000    1.250    0.000    0.000    0.000    0.000 
#    0.000    0.000    0.000    0.000    0.000    0.000 
#
# Total GULP energy -198409.292831 kJ/mol
# GULP energy per Si atom -12400.580802 kJ/mol
# Density = 2.227069 g / cm^3
# Si number density = 22.321491 Si / 1000 Ang^3
#
#
#
# Elastic Constant Matrix: (Units=GPa)
#
#
# Indices 1 2 3 4 5 6 
#
# 1 102.1738 50.2620 52.3676 5.0696 6.2450 -7.5061
# 2 50.2620 93.1857 29.8899 -3.5005 -2.5038 -13.6757
# 3 52.3676 29.8899 132.1429 6.7051 11.3630 2.2852
# 4 5.0696 -3.5005 6.7051 42.5717 1.4556 -3.3982
# 5 6.2450 -2.5038 11.3630 1.4556 45.6163 -8.2406
# 6 -7.5061 -13.6757 2.2852 -3.3982 -8.2406 40.7893
#
#
#
# Elastic Compliance Matrix: (Units=1/GPa)
#
#
# Indices 1 2 3 4 5 6 
#
# 1 0.015757 -0.007122 -0.004440 -0.001689 -0.001325 0.000352
# 2 -0.007122 0.015867 -0.001239 0.002638 0.002955 0.004895
# 3 -0.004440 -0.001239 0.009910 -0.001243 -0.002315 -0.002359
# 4 -0.001689 0.002638 -0.001243 0.024309 0.000407 0.002751
# 5 -0.001325 0.002955 -0.002315 0.000407 0.023865 0.005732
# 6 0.000352 0.004895 -0.002359 0.002751 0.005732 0.027742
#
#
# Mechanical properties :
#
#
# Convention : Reuss Voigt Hill
#
# Bulk Modulus (GPa) = 62.76656 65.83794 64.30225
# Shear Modulus (GPa) = 33.70098 38.79433 36.24766
#
# Velocity S-wave (km/s) = 3.88983 4.17343 4.03412
# Velocity P-wave (km/s) = 6.95376 7.26517 7.11117
#
# Compressibility (1/GPa) = 0.01593205
#
# Stress axis : x y z
#
# Youngs Moduli (GPa) = 63.46331 63.02316 100.90463
#
# Poissons Ratio (x) = 0.44887 0.44801
# Poissons Ratio (y) = 0.45200 0.12503
# Poissons Ratio (z) = 0.28177 0.07809
#
# Static dielectric constant tensor:
#      x y z
#    x 4.073240 0.017180 0.113900 
#    y 0.017180 4.066770 -0.063370 
#    z 0.113900 -0.063370 4.269260 
# 
# 
# High freq. dielectric constant tensor:
#      x y z
#    x 1.887050 -0.005390 0.001350 
#    y -0.005390 1.875310 -0.007530 
#    z 0.001350 -0.007530 1.895490 
# 
# From -- ./inp_files/315502.got.cif
#   From: 2010.06.25/outbox.cif.g09.slc.cpg/sg2_158_cif.got.tgz:315502.got - 2010.06.27 13:26:56.
