data_PCOD8031595
_publ_section_title
;
Structure prediction by ZEFSAII (Michael W. Deem and Ramdas Pophale) SiO2 
 PCOD8031595
Probable space group: P -1
;
_chemical_formula_sum "Si O2"
_cell_formula_units_Z 16
_cell_length_a 20.244757
_cell_length_b 11.485585
_cell_length_c 17.044579
_cell_angle_alpha 32.126062
_cell_angle_beta 19.229767
_cell_angle_gamma 33.993857
_cell_volume 684.255814
_symmetry_space_group_name_H-M "P -1"
_symmetry_group_IT_number 2
_symmetry_cell_setting 'triclinic'
loop_
_space_group_symop_operation_xyz
x,y,z
-x,-y,-z
loop_
_atom_site_type_symbol
_atom_site_label
_atom_site_fract_x
_atom_site_fract_y
_atom_site_fract_z
Si Si1 0.703838 0.261469 0.105275
Si Si2 0.609525 0.567232 0.762166
Si Si3 0.790877 0.055273 0.526038
Si Si4 0.969713 0.884275 0.928014
Si Si5 0.037422 0.386157 0.335770
Si Si6 0.425621 0.266913 0.717501
Si Si7 0.014325 0.610913 0.791436
Si Si8 0.361899 0.931581 0.550446
O O1 0.535677 0.434215 0.149597
O O2 0.595868 0.158536 0.357487
O O3 0.882227 0.386964 0.863013
O O4 0.786232 0.063490 0.065225
O O5 0.814065 0.391074 0.620043
O O6 0.676834 0.804614 0.560125
O O7 0.500000 0.500000 0.000000
O O8 0.565171 0.105809 0.713908
O O9 0.961644 0.034667 0.278729
O O10 0.817204 0.248466 0.447995
O O11 0.810405 0.821458 0.681576
O O12 0.159533 0.848259 0.795161
O O13 0.902490 0.643736 0.133724
O O14 0.024187 0.355472 0.275918
O O15 0.500000 0.500000 0.500000
O O16 0.447060 0.162456 0.665698
O O17 0.192913 0.293216 0.986107
#
# Coordination Sequence:
#
# PCOD8031595 Si02
#       8
#     2   2   2   2   2   2   2   2
#     4  12  25  46  76 103 143 185 232 296 352 409
#     4  12  29  45  71 106 143 186 231 290 353 431
#     4  11  27  43  69 105 140 189 228 287 354 418
#     4  11  22  44  74 102 136 185 235 290 345 410
#     4  12  27  48  69 106 146 183 234 288 358 415
#     4  11  24  43  71 102 135 181 239 285 342 413
#     4  12  25  47  72  99 143 187 236 292 337 418
#     4  11  23  46  69 106 140 182 237 291 348 413
#
# _framework density 23.38307
#
# number of rings (size 3 to 8) (size 9 to 14) (size 15 to 20)
#    0.000    0.500    5.000    3.000    7.000    3.500 
#    0.000    0.000    0.000    0.000    0.000    0.000 
#    0.000    0.000    0.000    0.000    0.000    0.000 
#
# Total GULP energy -198525.664602 kJ/mol
# GULP energy per Si atom -12407.854038 kJ/mol
# Density = 2.332985 g / cm^3
# Si number density = 23.383070 Si / 1000 Ang^3
#
#
#
# Elastic Constant Matrix: (Units=GPa)
#
#
# Indices 1 2 3 4 5 6 
#
# 1 112.0755 38.9411 19.1297 -7.4046 8.8202 4.0223
# 2 38.9411 75.9632 30.9877 -1.3833 -1.8091 -2.0749
# 3 19.1297 30.9877 62.3732 -5.5809 7.1698 0.8140
# 4 -7.4046 -1.3833 -5.5809 33.4711 -7.8150 1.9656
# 5 8.8202 -1.8091 7.1698 -7.8150 26.7069 -6.4077
# 6 4.0223 -2.0749 0.8140 1.9656 -6.4077 42.8152
#
#
#
# Elastic Compliance Matrix: (Units=1/GPa)
#
#
# Indices 1 2 3 4 5 6 
#
# 1 0.011531 -0.006109 0.000154 0.001432 -0.004348 -0.002099
# 2 -0.006109 0.020157 -0.008955 -0.000716 0.006222 0.002685
# 3 0.000154 -0.008955 0.021349 0.001864 -0.006295 -0.001882
# 4 0.001432 -0.000716 0.001864 0.032455 0.008369 -0.000442
# 5 -0.004348 0.006222 -0.006295 0.008369 0.045168 0.007205
# 6 -0.002099 0.002685 -0.001882 -0.000442 0.007205 0.024818
#
#
# Mechanical properties :
#
#
# Convention : Reuss Voigt Hill
#
# Bulk Modulus (GPa) = 43.07131 47.61431 45.34281
# Shear Modulus (GPa) = 25.90169 31.35553 28.62861
#
# Velocity S-wave (km/s) = 3.33184 3.66587 3.50284
# Velocity P-wave (km/s) = 5.76727 6.19073 5.98275
#
# Compressibility (1/GPa) = 0.02321731
#
# Stress axis : x y z
#
# Youngs Moduli (GPa) = 86.72373 49.60997 46.83964
#
# Poissons Ratio (x) = 0.30304 -0.00719
# Poissons Ratio (y) = 0.52975 0.41946
# Poissons Ratio (z) = -0.01332 0.44427
#
# Static dielectric constant tensor:
#      x y z
#    x 4.406960 0.142680 0.022790 
#    y 0.142680 4.609070 0.485040 
#    z 0.022790 0.485040 4.580410 
# 
# 
# High freq. dielectric constant tensor:
#      x y z
#    x 1.945390 0.002550 -0.003140 
#    y 0.002550 1.929180 0.001410 
#    z -0.003140 0.001410 1.919410 
# 
# From -- ./inp_files/282854.got.cif
#   From: 2010.06.25/outbox.cif.g09.slc.cpg/sg2_142_cif.got.tgz:282854.got - 2010.06.27 13:26:56.
