data_PCOD8031738
_publ_section_title
;
Structure prediction by ZEFSAII (Michael W. Deem and Ramdas Pophale) SiO2 
 PCOD8031738
Probable space group: P -1
;
_chemical_formula_sum "Si O2"
_cell_formula_units_Z 14
_cell_length_a 8.485100
_cell_length_b 24.070138
_cell_length_c 8.911774
_cell_angle_alpha 29.915916
_cell_angle_beta 49.505533
_cell_angle_gamma 38.928697
_cell_volume 568.580583
_symmetry_space_group_name_H-M "P -1"
_symmetry_group_IT_number 2
_symmetry_cell_setting 'triclinic'
loop_
_space_group_symop_operation_xyz
x,y,z
-x,-y,-z
loop_
_atom_site_type_symbol
_atom_site_label
_atom_site_fract_x
_atom_site_fract_y
_atom_site_fract_z
Si Si1 0.237550 0.557637 0.608068
Si Si2 0.761564 0.016248 0.534081
Si Si3 0.828592 0.186867 0.897502
Si Si4 0.342083 0.000841 0.885746
Si Si5 0.550791 0.274694 0.559062
Si Si6 0.897301 0.467103 0.917331
Si Si7 0.055911 0.189467 0.343319
O O1 0.500000 0.500000 0.500000
O O2 0.101120 0.717817 0.289610
O O3 0.097875 0.502504 0.737348
O O4 0.240178 0.528375 0.853851
O O5 0.822358 0.881949 0.723630
O O6 0.529394 0.046387 0.714137
O O7 0.000000 0.000000 0.500000
O O8 0.661746 0.147330 0.183199
O O9 0.666211 0.271094 0.657097
O O10 0.106072 0.049033 0.027144
O O11 0.216104 0.070152 0.643032
O O12 0.507111 0.838733 0.149668
O O13 0.308609 0.423411 0.327748
O O14 0.767915 0.237960 0.392329
O O15 0.052848 0.321171 0.080312
#
# Coordination Sequence:
#
# PCOD8031738 Si02
#       7
#     2   2   2   2   2   2   2
#     4  11  27  47  74 104 151 190 235 296 362 428
#     4  12  28  43  73 112 142 183 247 305 354 425
#     4  11  24  48  70 104 145 190 240 297 365 420
#     4  11  23  46  75  99 141 195 235 297 362 426
#     4  11  22  45  77 103 141 195 241 289 357 434
#     4  11  26  48  73 106 145 195 238 292 360 429
#     4  11  22  48  73 101 143 193 239 291 358 430
#
# _framework density 24.622720000000001
#
# number of rings (size 3 to 8) (size 9 to 14) (size 15 to 20)
#    0.000    0.857    5.714    1.714    4.000    2.857 
#    0.000    1.429    0.000    0.000    0.000    0.000 
#    0.000    0.000    0.000    0.000    0.000    0.000 
#
# Total GULP energy -173437.207343 kJ/mol
# GULP energy per Si atom -12388.371953 kJ/mol
# Density = 2.456668 g / cm^3
# Si number density = 24.622720 Si / 1000 Ang^3
#
#
#
# Elastic Constant Matrix: (Units=GPa)
#
#
# Indices 1 2 3 4 5 6 
#
# 1 104.6319 18.5886 44.5623 -5.8767 -26.6555 -8.4703
# 2 18.5886 46.4093 47.2618 -8.5024 -14.5150 3.7598
# 3 44.5623 47.2618 135.3307 -18.2534 -37.1643 -0.3947
# 4 -5.8767 -8.5024 -18.2534 43.5092 -7.5650 -17.5165
# 5 -26.6555 -14.5150 -37.1643 -7.5650 51.0745 -5.2765
# 6 -8.4703 3.7598 -0.3947 -17.5165 -5.2765 31.9028
#
#
#
# Elastic Compliance Matrix: (Units=1/GPa)
#
#
# Indices 1 2 3 4 5 6 
#
# 1 0.013050 -0.001581 -0.000995 0.005450 0.007254 0.007831
# 2 -0.001581 0.034200 -0.011457 -0.000227 0.000037 -0.004710
# 3 -0.000995 -0.011457 0.015642 0.009052 0.009760 0.007864
# 4 0.005450 -0.000227 0.009052 0.041769 0.018401 0.027563
# 5 0.007254 0.000037 0.009760 0.018401 0.035057 0.017944
# 6 0.007831 -0.004710 0.007864 0.027563 0.017944 0.052178
#
#
# Mechanical properties :
#
#
# Convention : Reuss Voigt Hill
#
# Bulk Modulus (GPa) = 28.71433 56.35524 42.53478
# Shear Modulus (GPa) = 21.59164 37.02792 29.30978
#
# Velocity S-wave (km/s) = 2.96446 3.88211 3.45390
# Velocity P-wave (km/s) = 4.83781 6.55984 5.76350
#
# Compressibility (1/GPa) = 0.03482582
#
# Stress axis : x y z
#
# Youngs Moduli (GPa) = 76.62874 29.23977 63.92906
#
# Poissons Ratio (x) = 0.04622 0.06362
# Poissons Ratio (y) = 0.12114 0.73245
# Poissons Ratio (z) = 0.07626 0.33501
#
# Static dielectric constant tensor:
#      x y z
#    x 4.905830 -0.000140 -1.071210 
#    y -0.000140 4.584530 0.087090 
#    z -1.071210 0.087090 5.968350 
# 
# 
# High freq. dielectric constant tensor:
#      x y z
#    x 1.975890 -0.006700 -0.024260 
#    y -0.006700 1.967740 -0.000390 
#    z -0.024260 -0.000390 1.995340 
# 
# From -- ./inp_files/225795.got.cif
#   From: 2010.06.25/outbox.cif.g09.slc.cpg/sg2_113_cif.got.tgz:225795.got - 2010.06.27 13:26:56.
