data_PCOD8031544
_publ_section_title
;
Structure prediction by ZEFSAII (Michael W. Deem and Ramdas Pophale) SiO2 
 PCOD8031544
Probable space group: P -1
;
_chemical_formula_sum "Si O2"
_cell_formula_units_Z 16
_cell_length_a 9.144772
_cell_length_b 8.189430
_cell_length_c 17.773430
_cell_angle_alpha 40.885687
_cell_angle_beta 90.919365
_cell_angle_gamma 112.255193
_cell_volume 721.639776
_symmetry_space_group_name_H-M "P -1"
_symmetry_group_IT_number 2
_symmetry_cell_setting 'triclinic'
loop_
_space_group_symop_operation_xyz
x,y,z
-x,-y,-z
loop_
_atom_site_type_symbol
_atom_site_label
_atom_site_fract_x
_atom_site_fract_y
_atom_site_fract_z
Si Si1 0.097210 0.092963 0.887763
Si Si2 0.012800 0.298176 0.375835
Si Si3 0.644651 0.140347 0.744256
Si Si4 0.953823 0.134678 0.270316
Si Si5 0.259683 0.841058 0.878052
Si Si6 0.690556 0.314865 0.393630
Si Si7 0.802646 0.786522 0.876350
Si Si8 0.668260 0.495738 0.490000
O O1 0.256957 0.451956 0.758141
O O2 0.171683 0.889022 0.934257
O O3 0.953155 0.041496 0.843501
O O4 0.000000 0.000000 0.000000
O O5 0.009281 0.351811 0.266981
O O6 0.839236 0.249634 0.428708
O O7 0.193035 0.588024 0.304916
O O8 0.000000 0.000000 0.500000
O O9 0.655089 0.217880 0.628602
O O10 0.467310 0.100919 0.788132
O O11 0.644817 0.838930 0.856293
O O12 0.844037 0.184281 0.189656
O O13 0.125472 0.172400 0.222045
O O14 0.834232 0.800042 0.420038
O O15 0.256129 0.539805 0.983658
O O16 0.695656 0.500757 0.399927
O O17 0.500000 0.000000 0.500000
O O18 0.500000 0.500000 0.500000
#
# Coordination Sequence:
#
# PCOD8031544 Si02
#       8
#     2   2   2   2   2   2   2   2
#     4  11  24  46  73 103 144 192 243 297 352 432
#     4  12  27  42  68 107 150 178 228 301 372 420
#     4  12  25  44  71 108 146 178 234 303 364 418
#     4  11  22  44  71  96 135 191 235 278 352 432
#     4  11  25  46  75  98 138 195 246 285 353 439
#     4  12  27  44  71 111 144 184 246 292 358 437
#     4  11  25  44  69 101 137 188 244 289 358 423
#     4  12  22  44  72 101 138 187 231 290 355 432
#
# _framework density 22.171724999999999
#
# number of rings (size 3 to 8) (size 9 to 14) (size 15 to 20)
#    0.000    0.500    6.250    2.625    7.000    1.000 
#    0.000    3.750    0.000    0.000    0.000    0.000 
#    0.000    0.000    0.000    0.000    0.000    0.000 
#
# Total GULP energy -198320.812078 kJ/mol
# GULP energy per Si atom -12395.050755 kJ/mol
# Density = 2.212126 g / cm^3
# Si number density = 22.171725 Si / 1000 Ang^3
#
#
#
# Elastic Constant Matrix: (Units=GPa)
#
#
# Indices 1 2 3 4 5 6 
#
# 1 152.0440 48.3228 50.8469 13.0567 -2.5371 -11.9098
# 2 48.3228 92.5170 43.2506 10.0792 -13.4314 -2.8393
# 3 50.8469 43.2506 129.0465 0.0010 1.0797 -8.3195
# 4 13.0567 10.0792 0.0010 35.6919 -7.2618 -9.1861
# 5 -2.5371 -13.4314 1.0797 -7.2618 48.6181 -5.8231
# 6 -11.9098 -2.8393 -8.3195 -9.1861 -5.8231 30.9645
#
#
#
# Elastic Compliance Matrix: (Units=1/GPa)
#
#
# Indices 1 2 3 4 5 6 
#
# 1 0.008651 -0.003311 -0.002179 -0.001865 -0.000478 0.001795
# 2 -0.003311 0.015111 -0.003856 -0.002590 0.003578 -0.001019
# 3 -0.002179 -0.003856 0.010037 0.002235 -0.000827 0.002013
# 4 -0.001865 -0.002590 0.002235 0.033227 0.005359 0.010511
# 5 -0.000478 0.003578 -0.000827 0.005359 0.023051 0.005847
# 6 0.001795 -0.001019 0.002013 0.010511 0.005847 0.037650
#
#
# Mechanical properties :
#
#
# Convention : Reuss Voigt Hill
#
# Bulk Modulus (GPa) = 66.19384 73.16088 69.67736
# Shear Modulus (GPa) = 33.01330 38.46740 35.74035
#
# Velocity S-wave (km/s) = 3.86292 4.16982 4.01930
# Velocity P-wave (km/s) = 7.05805 7.50015 7.28246
#
# Compressibility (1/GPa) = 0.01510715
#
# Stress axis : x y z
#
# Youngs Moduli (GPa) = 115.59543 66.17688 99.63459
#
# Poissons Ratio (x) = 0.21910 0.21712
# Poissons Ratio (y) = 0.38272 0.38415
# Poissons Ratio (z) = 0.25191 0.25515
#
# Static dielectric constant tensor:
#      x y z
#    x 4.195190 -0.080840 -0.080670 
#    y -0.080840 4.022740 -0.012490 
#    z -0.080670 -0.012490 4.459140 
# 
# 
# High freq. dielectric constant tensor:
#      x y z
#    x 1.883370 -0.009820 -0.001910 
#    y -0.009820 1.857980 -0.009340 
#    z -0.001910 -0.009340 1.885720 
# 
# From -- ./inp_files/296133.got.cif
#   From: 2010.06.25/outbox.cif.g09.slc.cpg/sg2_149_cif.got.tgz:296133.got - 2010.06.27 13:26:56.
