data_PCOD8031930
_publ_section_title
;
Structure prediction by ZEFSAII (Michael W. Deem and Ramdas Pophale) SiO2 
 PCOD8031930
Probable space group: P -1
;
_chemical_formula_sum "Si O2"
_cell_formula_units_Z 16
_cell_length_a 11.999190
_cell_length_b 13.735020
_cell_length_c 5.276526
_cell_angle_alpha 124.972637
_cell_angle_beta 86.743497
_cell_angle_gamma 79.068842
_cell_volume 684.697002
_symmetry_space_group_name_H-M "P -1"
_symmetry_group_IT_number 2
_symmetry_cell_setting 'triclinic'
loop_
_space_group_symop_operation_xyz
x,y,z
-x,-y,-z
loop_
_atom_site_type_symbol
_atom_site_label
_atom_site_fract_x
_atom_site_fract_y
_atom_site_fract_z
Si Si1 0.139153 0.427665 0.144948
Si Si2 0.250736 0.601553 0.158095
Si Si3 0.948198 0.075570 0.869970
Si Si4 0.629603 0.744312 0.049478
Si Si5 0.068398 0.660288 0.871055
Si Si6 0.516111 0.860759 0.725142
Si Si7 0.539301 0.396512 0.137528
Si Si8 0.699862 0.212089 0.194874
O O1 0.201914 0.480284 0.988090
O O2 0.105093 0.546776 0.506092
O O3 0.031732 0.375408 0.997722
O O4 0.232381 0.309327 0.074169
O O5 0.239378 0.688841 0.536235
O O6 0.175038 0.679066 0.054258
O O7 0.389401 0.556662 0.021134
O O8 0.981288 0.206995 0.061048
O O9 0.807811 0.097453 0.929385
O O10 0.000000 0.000000 0.500000
O O11 0.000000 0.000000 0.000000
O O12 0.587452 0.844943 0.427162
O O13 0.588191 0.783575 0.830514
O O14 0.576434 0.633898 0.990057
O O15 0.390601 0.830307 0.668207
O O16 0.500000 0.000000 0.000000
O O17 0.500000 0.500000 0.500000
O O18 0.626914 0.271367 0.048154
#
# Coordination Sequence:
#
# PCOD8031930 Si02
#       8
#     2   2   2   2   2   2   2   2
#     4  11  26  42  70 102 152 186 237 311 375 446
#     4  12  20  42  71 100 147 186 236 294 384 437
#     4  12  27  46  73 101 138 193 255 298 353 429
#     4  11  25  44  68 111 136 188 242 294 374 444
#     4  11  25  46  66 105 142 194 243 306 377 431
#     4  11  26  47  72 100 146 192 244 297 369 434
#     4  11  23  38  70 107 143 181 231 296 373 448
#     4  11  24  43  67 102 140 183 239 309 356 432
#
# _framework density 23.368001
#
# number of rings (size 3 to 8) (size 9 to 14) (size 15 to 20)
#    0.000    0.750    3.750    3.000    5.250    3.000 
#    0.000    0.000    0.000    0.000    0.000    0.000 
#    0.000    0.000    0.000    0.000    0.000    0.000 
#
# Total GULP energy -198292.511880 kJ/mol
# GULP energy per Si atom -12393.281993 kJ/mol
# Density = 2.331481 g / cm^3
# Si number density = 23.368001 Si / 1000 Ang^3
#
#
#
# Elastic Constant Matrix: (Units=GPa)
#
#
# Indices 1 2 3 4 5 6 
#
# 1 91.1128 -5.2695 6.5826 17.6768 -4.8904 9.4465
# 2 -5.2695 50.1556 7.5557 5.6431 -4.1785 6.2299
# 3 6.5826 7.5557 111.5247 5.9393 -8.3590 -8.7235
# 4 17.6768 5.6431 5.9393 36.8805 -3.0959 2.4499
# 5 -4.8904 -4.1785 -8.3590 -3.0959 38.5626 6.5249
# 6 9.4465 6.2299 -8.7235 2.4499 6.5249 34.7071
#
#
#
# Elastic Compliance Matrix: (Units=1/GPa)
#
#
# Indices 1 2 3 4 5 6 
#
# 1 0.012912 0.002844 -0.000810 -0.006049 0.001991 -0.004176
# 2 0.002844 0.021833 -0.001642 -0.003831 0.002976 -0.005395
# 3 -0.000810 -0.001642 0.009484 -0.000966 0.001235 0.002735
# 4 -0.006049 -0.003831 -0.000966 0.030871 0.001138 -0.000302
# 5 0.001991 0.002976 0.001235 0.001138 0.027896 -0.006090
# 6 -0.004176 -0.005395 0.002735 -0.000302 -0.006090 0.032771
#
#
# Mechanical properties :
#
#
# Convention : Reuss Voigt Hill
#
# Bulk Modulus (GPa) = 22.21644 30.05897 26.13770
# Shear Modulus (GPa) = 33.33617 38.29168 35.81392
#
# Velocity S-wave (km/s) = 3.78110 4.05240 3.91910
# Velocity P-wave (km/s) = 5.34697 5.89806 5.62927
#
# Compressibility (1/GPa) = 0.04501171
#
# Stress axis : x y z
#
# Youngs Moduli (GPa) = 77.44931 45.80205 105.44542
#
# Poissons Ratio (x) = -0.13024 0.08541
# Poissons Ratio (y) = -0.22024 0.17313
# Poissons Ratio (z) = 0.06273 0.07520
#
# Static dielectric constant tensor:
#      x y z
#    x 4.684990 0.461600 -0.504470 
#    y 0.461600 3.989800 0.454710 
#    z -0.504470 0.454710 3.563260 
# 
# 
# High freq. dielectric constant tensor:
#      x y z
#    x 1.939820 0.003350 -0.017170 
#    y 0.003350 1.925580 -0.000650 
#    z -0.017170 -0.000650 1.913590 
# 
# From -- ./inp_files/78771.got.cif
#   From: 2010.06.25/outbox.cif.g09.slc.cpg/sg2_40_cif.got.tgz:78771.got - 2010.06.27 13:26:56.
