data_PCOD8031981
_publ_section_title
;
Structure prediction by ZEFSAII (Michael W. Deem and Ramdas Pophale) SiO2 
 PCOD8031981
Probable space group: P -1
;
_chemical_formula_sum "Si O2"
_cell_formula_units_Z 16
_cell_length_a 8.481901
_cell_length_b 9.653563
_cell_length_c 16.614654
_cell_angle_alpha 135.892701
_cell_angle_beta 96.447713
_cell_angle_gamma 108.631819
_cell_volume 767.422694
_symmetry_space_group_name_H-M "P -1"
_symmetry_group_IT_number 2
_symmetry_cell_setting 'triclinic'
loop_
_space_group_symop_operation_xyz
x,y,z
-x,-y,-z
loop_
_atom_site_type_symbol
_atom_site_label
_atom_site_fract_x
_atom_site_fract_y
_atom_site_fract_z
Si Si1 0.528698 0.929794 0.383166
Si Si2 0.366285 0.381047 0.364793
Si Si3 0.836623 0.941667 0.029345
Si Si4 0.465621 0.493336 0.744937
Si Si5 0.907184 0.370587 0.821410
Si Si6 0.120643 0.575460 0.456836
Si Si7 0.048535 0.853526 0.123564
Si Si8 0.140326 0.579035 0.767484
O O1 0.613847 0.769373 0.331997
O O2 0.325930 0.780425 0.259791
O O3 0.500000 0.000000 0.500000
O O4 0.680503 0.153055 0.426680
O O5 0.500000 0.500000 0.500000
O O6 0.494767 0.520589 0.352543
O O7 0.181794 0.393865 0.366223
O O8 0.271736 0.093576 0.228725
O O9 0.898885 0.918000 0.113409
O O10 0.792693 0.143597 0.107746
O O11 0.654614 0.681616 0.884662
O O12 0.000000 0.000000 0.000000
O O13 0.325335 0.575183 0.783703
O O14 0.976295 0.231506 0.820733
O O15 0.985091 0.397755 0.748422
O O16 0.014590 0.642224 0.975555
O O17 0.000000 0.500000 0.500000
O O18 0.965365 0.544388 0.372579
#
# Coordination Sequence:
#
# PCOD8031981 Si02
#       8
#     2   2   2   2   2   2   2   2
#     4  12  23  46  72  97 139 189 235 285 355 427
#     4  12  23  42  68  99 138 187 236 284 355 423
#     4  12  20  45  72  98 134 185 235 289 353 425
#     4  12  25  41  70 104 133 186 236 292 351 424
#     4  11  23  44  70 103 135 186 235 294 350 428
#     4  12  26  44  68 102 141 184 234 292 350 424
#     4  11  23  39  74  98 134 179 242 289 349 415
#     4  12  24  43  68 102 144 179 239 289 356 419
#
# _framework density 20.849005999999999
#
# number of rings (size 3 to 8) (size 9 to 14) (size 15 to 20)
#    0.000    0.250    7.500    1.875    0.000    1.500 
#    0.000    1.875    0.000    0.000    0.000    0.000 
#    0.000    0.000    0.000    0.000    0.000    0.000 
#
# Total GULP energy -198356.999942 kJ/mol
# GULP energy per Si atom -12397.312496 kJ/mol
# Density = 2.080155 g / cm^3
# Si number density = 20.849006 Si / 1000 Ang^3
#
#
#
# Elastic Constant Matrix: (Units=GPa)
#
#
# Indices 1 2 3 4 5 6 
#
# 1 92.0861 47.5476 29.7878 15.3479 -10.1196 -12.2277
# 2 47.5476 153.2664 53.2066 -1.7356 -2.4692 -1.4375
# 3 29.7878 53.2066 117.5200 9.0973 17.7664 -1.2024
# 4 15.3479 -1.7356 9.0973 33.9439 -2.8909 4.0050
# 5 -10.1196 -2.4692 17.7664 -2.8909 34.5289 -1.2824
# 6 -12.2277 -1.4375 -1.2024 4.0050 -1.2824 44.0695
#
#
#
# Elastic Compliance Matrix: (Units=1/GPa)
#
#
# Indices 1 2 3 4 5 6 
#
# 1 0.016215 -0.004126 -0.002449 -0.007034 0.005317 0.005092
# 2 -0.004126 0.009109 -0.003601 0.003573 0.001549 -0.001226
# 3 -0.002449 -0.003601 0.012110 -0.002909 -0.007465 -0.000420
# 4 -0.007034 0.003573 -0.002909 0.034393 0.002385 -0.004971
# 5 0.005317 0.001549 -0.007465 0.002385 0.034750 0.002117
# 6 0.005092 -0.001226 -0.000420 -0.004971 0.002117 0.024566
#
#
# Mechanical properties :
#
#
# Convention : Reuss Voigt Hill
#
# Bulk Modulus (GPa) = 58.54741 69.32852 63.93796
# Shear Modulus (GPa) = 31.80864 37.99714 34.90289
#
# Velocity S-wave (km/s) = 3.91022 4.27370 4.09599
# Velocity P-wave (km/s) = 6.96627 7.59457 7.28720
#
# Compressibility (1/GPa) = 0.01708017
#
# Stress axis : x y z
#
# Youngs Moduli (GPa) = 61.67087 109.78343 82.57685
#
# Poissons Ratio (x) = 0.45301 0.20224
# Poissons Ratio (y) = 0.25448 0.29739
# Poissons Ratio (z) = 0.15104 0.39537
#
# Static dielectric constant tensor:
#      x y z
#    x 3.557040 -0.272720 0.090600 
#    y -0.272720 4.157510 0.055350 
#    z 0.090600 0.055350 3.835950 
# 
# 
# High freq. dielectric constant tensor:
#      x y z
#    x 1.797410 -0.021580 0.013450 
#    y -0.021580 1.830900 0.006120 
#    z 0.013450 0.006120 1.833220 
# 
# From -- ./inp_files/356592.got.cif
#   From: 2010.06.25/outbox.cif.g09.slc.cpg/sg2_179_cif.got.tgz:356592.got - 2010.06.27 13:26:56.
