data_PCOD8031531
_publ_section_title
;
Structure prediction by ZEFSAII (Michael W. Deem and Ramdas Pophale) SiO2 
 PCOD8031531
Probable space group: P -1
;
_chemical_formula_sum "Si O2"
_cell_formula_units_Z 16
_cell_length_a 6.320562
_cell_length_b 18.574602
_cell_length_c 8.099037
_cell_angle_alpha 59.047631
_cell_angle_beta 78.043789
_cell_angle_gamma 52.976045
_cell_volume 643.690782
_symmetry_space_group_name_H-M "P -1"
_symmetry_group_IT_number 2
_symmetry_cell_setting 'triclinic'
loop_
_space_group_symop_operation_xyz
x,y,z
-x,-y,-z
loop_
_atom_site_type_symbol
_atom_site_label
_atom_site_fract_x
_atom_site_fract_y
_atom_site_fract_z
Si Si1 0.200622 0.101451 0.445173
Si Si2 0.531720 0.429663 0.236708
Si Si3 0.128624 0.297347 0.350047
Si Si4 0.972071 0.203007 0.028749
Si Si5 0.978183 0.614578 0.189029
Si Si6 0.396383 0.367925 0.026958
Si Si7 0.588630 0.709054 0.406265
Si Si8 0.952525 0.104678 0.830097
O O1 0.185630 0.204043 0.342693
O O2 0.052115 0.123235 0.265263
O O3 0.070094 0.090519 0.642698
O O4 0.500000 0.000000 0.500000
O O5 0.466191 0.439646 0.032807
O O6 0.562830 0.328530 0.422078
O O7 0.824933 0.401941 0.256390
O O8 0.297298 0.530287 0.257484
O O9 0.349724 0.315358 0.245407
O O10 0.222126 0.265261 0.561346
O O11 0.649134 0.283261 0.976091
O O12 0.070231 0.139505 0.913714
O O13 0.091174 0.270021 0.954829
O O14 0.807533 0.614663 0.364900
O O15 0.879880 0.577995 0.095283
O O16 0.365951 0.811288 0.223083
O O17 0.000000 0.000000 0.000000
#
# Coordination Sequence:
#
# PCOD8031531 Si02
#       8
#     2   2   2   2   2   2   2   2
#     4  12  27  48  77 110 147 192 248 309 380 438
#     4  11  24  45  70 109 145 197 247 298 370 441
#     4  11  23  46  69 100 150 190 240 309 367 436
#     4  12  27  50  77 109 152 194 250 310 369 447
#     4  12  25  42  75 106 146 196 246 300 370 442
#     4  11  22  44  71 101 148 187 242 300 364 426
#     4  11  25  46  70 102 151 190 246 310 366 433
#     4  12  29  51  77 111 148 194 252 311 372 449
#
# _framework density 24.856656000000001
#
# number of rings (size 3 to 8) (size 9 to 14) (size 15 to 20)
#    0.000    0.500    5.000    2.250    5.250    5.500 
#    0.000    0.000    0.000    0.000    0.000    0.000 
#    0.000    0.000    0.000    0.000    0.000    0.000 
#
# Total GULP energy -198226.750957 kJ/mol
# GULP energy per Si atom -12389.171935 kJ/mol
# Density = 2.480008 g / cm^3
# Si number density = 24.856656 Si / 1000 Ang^3
#
#
#
# Elastic Constant Matrix: (Units=GPa)
#
#
# Indices 1 2 3 4 5 6 
#
# 1 115.5513 39.3820 37.0305 6.2271 12.8748 5.5686
# 2 39.3820 116.2001 29.0490 2.3132 15.7946 -12.6400
# 3 37.0305 29.0490 92.2297 9.7038 25.6949 6.2480
# 4 6.2271 2.3132 9.7038 39.8391 -5.4712 1.3638
# 5 12.8748 15.7946 25.6949 -5.4712 34.5279 7.2397
# 6 5.5686 -12.6400 6.2480 1.3638 7.2397 41.7456
#
#
#
# Elastic Compliance Matrix: (Units=1/GPa)
#
#
# Indices 1 2 3 4 5 6 
#
# 1 0.010850 -0.003073 -0.003198 -0.000670 0.000029 -0.001882
# 2 -0.003073 0.011051 -0.001419 -0.000513 -0.003913 0.004664
# 3 -0.003198 -0.001419 0.016128 -0.004823 -0.010845 -0.000378
# 4 -0.000670 -0.000513 -0.004823 0.027684 0.008833 -0.001780
# 5 0.000029 -0.003913 -0.010845 0.008833 0.041698 -0.007085
# 6 -0.001882 0.004664 -0.000378 -0.001780 -0.007085 0.026961
#
#
# Mechanical properties :
#
#
# Convention : Reuss Voigt Hill
#
# Bulk Modulus (GPa) = 44.15202 59.43380 51.79291
# Shear Modulus (GPa) = 31.78578 37.79047 34.78813
#
# Velocity S-wave (km/s) = 3.57986 3.90338 3.74511
# Velocity P-wave (km/s) = 5.90664 6.65415 6.29151
#
# Compressibility (1/GPa) = 0.02264902
#
# Stress axis : x y z
#
# Youngs Moduli (GPa) = 92.16496 90.48613 62.00368
#
# Poissons Ratio (x) = 0.27806 0.19831
# Poissons Ratio (y) = 0.28322 0.08798
# Poissons Ratio (z) = 0.29478 0.12839
#
# Static dielectric constant tensor:
#      x y z
#    x 4.556150 -0.001440 0.022600 
#    y -0.001440 4.333090 0.220100 
#    z 0.022600 0.220100 4.939500 
# 
# 
# High freq. dielectric constant tensor:
#      x y z
#    x 1.998940 -0.002480 0.000290 
#    y -0.002480 1.986370 0.012090 
#    z 0.000290 0.012090 2.005350 
# 
# From -- ./inp_files/141260.got.cif
#   From: 2010.06.25/outbox.cif.g09.slc.cpg/sg2_71_cif.got.tgz:141260.got - 2010.06.27 13:26:56.
