data_PCOD8031872
_publ_section_title
;
Structure prediction by ZEFSAII (Michael W. Deem and Ramdas Pophale) SiO2 
 PCOD8031872
Probable space group: P -1
;
_chemical_formula_sum "Si O2"
_cell_formula_units_Z 16
_cell_length_a 8.549682
_cell_length_b 7.804752
_cell_length_c 21.006630
_cell_angle_alpha 36.602748
_cell_angle_beta 67.223095
_cell_angle_gamma 54.908075
_cell_volume 675.886787
_symmetry_space_group_name_H-M "P -1"
_symmetry_group_IT_number 2
_symmetry_cell_setting 'triclinic'
loop_
_space_group_symop_operation_xyz
x,y,z
-x,-y,-z
loop_
_atom_site_type_symbol
_atom_site_label
_atom_site_fract_x
_atom_site_fract_y
_atom_site_fract_z
Si Si1 0.260051 0.898703 0.740762
Si Si2 0.644701 0.771521 0.128947
Si Si3 0.872674 0.818280 0.576169
Si Si4 0.551951 0.727597 0.464430
Si Si5 0.890882 0.750351 0.205767
Si Si6 0.859736 0.321573 0.639077
Si Si7 0.772973 0.887477 0.867077
Si Si8 0.957160 0.816282 0.989736
O O1 0.368260 0.510616 0.826439
O O2 0.400398 0.038528 0.655569
O O3 0.208028 0.004091 0.791638
O O4 0.071732 0.008149 0.691557
O O5 0.740236 0.671478 0.214496
O O6 0.427854 0.061631 0.087569
O O7 0.756642 0.918157 0.026328
O O8 0.925198 0.574884 0.581692
O O9 0.930775 0.597714 0.696860
O O10 0.643728 0.048960 0.532920
O O11 0.000000 0.000000 0.500000
O O12 0.500000 0.500000 0.500000
O O13 0.739240 0.482793 0.547450
O O14 0.967702 0.918083 0.090230
O O15 0.733333 0.210024 0.736348
O O16 0.924565 0.844685 0.910439
O O17 0.875832 0.552946 0.908792
#
# Coordination Sequence:
#
# PCOD8031872 Si02
#       8
#     2   2   2   2   2   2   2   2
#     4  11  24  47  69 106 145 188 237 299 355 430
#     4  12  26  43  78 104 139 197 236 291 365 431
#     4  11  25  45  69 101 143 188 234 301 355 431
#     4  12  27  41  70 106 140 187 244 291 363 434
#     4  11  26  47  71 103 147 184 238 297 359 420
#     4  11  23  46  70 102 143 189 231 301 361 423
#     4  11  23  43  76 104 143 184 240 293 361 427
#     4  11  22  49  68 105 145 182 238 303 355 420
#
# _framework density 23.672602999999999
#
# number of rings (size 3 to 8) (size 9 to 14) (size 15 to 20)
#    0.000    0.750    3.750    4.500    7.000    0.500 
#    0.000    0.000    0.000    0.000    0.000    0.000 
#    0.000    0.000    0.000    0.000    0.000    0.000 
#
# Total GULP energy -198309.770972 kJ/mol
# GULP energy per Si atom -12394.360686 kJ/mol
# Density = 2.361872 g / cm^3
# Si number density = 23.672603 Si / 1000 Ang^3
#
#
#
# Elastic Constant Matrix: (Units=GPa)
#
#
# Indices 1 2 3 4 5 6 
#
# 1 93.5846 25.7449 42.8550 1.2226 -20.4963 3.3597
# 2 25.7449 66.3101 18.9047 1.6849 -21.3119 -24.4624
# 3 42.8550 18.9047 107.2382 6.3892 -33.2487 0.4036
# 4 1.2226 1.6849 6.3892 28.6530 -7.1597 -4.0825
# 5 -20.4963 -21.3119 -33.2487 -7.1597 47.0906 6.4625
# 6 3.3597 -24.4624 0.4036 -4.0825 6.4625 45.6037
#
#
#
# Elastic Compliance Matrix: (Units=1/GPa)
#
#
# Indices 1 2 3 4 5 6 
#
# 1 0.014708 -0.005542 -0.004489 0.000446 0.001365 -0.004170
# 2 -0.005542 0.024089 -0.000013 0.002389 0.007124 0.012534
# 3 -0.004489 -0.000013 0.013534 -0.001073 0.007566 -0.000964
# 4 0.000446 0.002389 -0.001073 0.036920 0.005614 0.003767
# 5 0.001365 0.007124 0.007566 0.005614 0.031287 -0.000277
# 6 -0.004170 0.012534 -0.000964 0.003767 -0.000277 0.029344
#
#
# Mechanical properties :
#
#
# Convention : Reuss Voigt Hill
#
# Bulk Modulus (GPa) = 31.01250 49.12690 40.06970
# Shear Modulus (GPa) = 27.66760 36.24469 31.95614
#
# Velocity S-wave (km/s) = 3.42242 3.91715 3.67811
# Velocity P-wave (km/s) = 5.36156 6.42312 5.91620
#
# Compressibility (1/GPa) = 0.03224507
#
# Stress axis : x y z
#
# Youngs Moduli (GPa) = 67.98891 41.51304 73.88641
#
# Poissons Ratio (x) = 0.23006 0.33165
# Poissons Ratio (y) = 0.37679 0.00093
# Poissons Ratio (z) = 0.30518 0.00052
#
# Static dielectric constant tensor:
#      x y z
#    x 7.637060 -1.461830 2.296240 
#    y -1.461830 4.799870 -1.179470 
#    z 2.296240 -1.179470 6.058080 
# 
# 
# High freq. dielectric constant tensor:
#      x y z
#    x 1.947460 -0.002560 -0.011000 
#    y -0.002560 1.929080 -0.002960 
#    z -0.011000 -0.002960 1.941680 
# 
# From -- ./inp_files/606562.got.cif
#   From: 2010.06.25/outbox.cif.g09.slc.cpg/sg2_304_cif.got.tgz:606562.got - 2010.06.27 13:26:56.
