data_PCOD8031326
_publ_section_title
;
Structure prediction by ZEFSAII (Michael W. Deem and Ramdas Pophale) SiO2 
 PCOD8031326
Probable space group: P -1
;
_chemical_formula_sum "Si O2"
_cell_formula_units_Z 16
_cell_length_a 12.479247
_cell_length_b 15.000827
_cell_length_c 9.054788
_cell_angle_alpha 143.848519
_cell_angle_beta 68.336772
_cell_angle_gamma 129.527068
_cell_volume 731.214324
_symmetry_space_group_name_H-M "P -1"
_symmetry_group_IT_number 2
_symmetry_cell_setting 'triclinic'
loop_
_space_group_symop_operation_xyz
x,y,z
-x,-y,-z
loop_
_atom_site_type_symbol
_atom_site_label
_atom_site_fract_x
_atom_site_fract_y
_atom_site_fract_z
Si Si1 0.838844 0.988879 0.872900
Si Si2 0.954138 0.790111 0.413478
Si Si3 0.511401 0.670511 0.139609
Si Si4 0.373356 0.320868 0.228299
Si Si5 0.923942 0.467886 0.184884
Si Si6 0.141135 0.372684 0.318134
Si Si7 0.802602 0.513464 0.884078
Si Si8 0.229991 0.959430 0.348848
O O1 0.891018 0.858952 0.650210
O O2 0.699328 0.875351 0.902731
O O3 0.790826 0.020243 0.784918
O O4 0.971761 0.187201 0.142599
O O5 0.934407 0.606975 0.244892
O O6 0.121400 0.964825 0.520315
O O7 0.869059 0.717091 0.202057
O O8 0.358437 0.637445 0.167204
O O9 0.610389 0.866030 0.444602
O O10 0.500000 0.500000 0.000000
O O11 0.564258 0.691474 0.973214
O O12 0.500000 0.500000 0.500000
O O13 0.240195 0.327445 0.282733
O O14 0.859212 0.476305 0.382642
O O15 0.088693 0.539367 0.219891
O O16 0.809701 0.249560 0.892572
O O17 0.216270 0.468803 0.254117
#
# Coordination Sequence:
#
# PCOD8031326 Si02
#       8
#     2   2   2   2   2   2   2   2
#     4  12  24  42  72 106 133 179 239 289 341 400
#     4  11  22  43  70 101 138 176 235 292 336 398
#     4  12  25  44  71 101 142 181 231 283 345 411
#     4  12  26  44  67 105 143 181 223 290 350 404
#     4  11  25  46  70 100 144 179 231 286 347 407
#     4  12  24  44  72 102 136 180 231 287 344 404
#     4  11  23  43  70  98 134 184 226 280 343 411
#     4  11  24  43  69 104 137 183 229 282 347 414
#
# _framework density 21.881409999999999
#
# number of rings (size 3 to 8) (size 9 to 14) (size 15 to 20)
#    0.000    0.500    5.000    5.625    1.750    0.000 
#    0.000    4.375    0.000    0.000    0.000    0.000 
#    0.000    0.000    0.000    0.000    0.000    0.000 
#
# Total GULP energy -198377.935525 kJ/mol
# GULP energy per Si atom -12398.620970 kJ/mol
# Density = 2.183161 g / cm^3
# Si number density = 21.881410 Si / 1000 Ang^3
#
#
#
# Elastic Constant Matrix: (Units=GPa)
#
#
# Indices 1 2 3 4 5 6 
#
# 1 46.7962 8.4487 28.0571 1.4501 -0.8252 10.5892
# 2 8.4487 124.6052 38.1852 -17.4111 -11.8726 8.3582
# 3 28.0571 38.1852 105.0999 -4.3791 9.1001 10.0752
# 4 1.4501 -17.4111 -4.3791 36.1731 0.7306 3.2137
# 5 -0.8252 -11.8726 9.1001 0.7306 28.8522 4.0563
# 6 10.5892 8.3582 10.0752 3.2137 4.0563 40.7183
#
#
#
# Elastic Compliance Matrix: (Units=1/GPa)
#
#
# Indices 1 2 3 4 5 6 
#
# 1 0.027091 0.001136 -0.007519 -0.001026 0.004452 -0.005780
# 2 0.001136 0.010632 -0.004261 0.004648 0.005969 -0.002385
# 3 -0.007519 -0.004261 0.013605 0.000017 -0.006272 0.000087
# 4 -0.001026 0.004648 0.000017 0.030180 0.001568 -0.003230
# 5 0.004452 0.005969 -0.006272 0.001568 0.039874 -0.004927
# 6 -0.005780 -0.002385 0.000087 -0.003230 -0.004927 0.027276
#
#
# Mechanical properties :
#
#
# Convention : Reuss Voigt Hill
#
# Bulk Modulus (GPa) = 33.28797 47.32037 40.30417
# Shear Modulus (GPa) = 27.78404 34.60273 31.19338
#
# Velocity S-wave (km/s) = 3.56723 3.98097 3.77976
# Velocity P-wave (km/s) = 5.67563 6.54244 6.12439
#
# Compressibility (1/GPa) = 0.03004089
#
# Stress axis : x y z
#
# Youngs Moduli (GPa) = 36.91330 94.05437 73.50025
#
# Poissons Ratio (x) = -0.10684 0.55264
# Poissons Ratio (y) = -0.04193 0.31316
# Poissons Ratio (z) = 0.27754 0.40074
#
# Static dielectric constant tensor:
#      x y z
#    x 4.406560 0.118420 0.269040 
#    y 0.118420 4.192940 -0.149700 
#    z 0.269040 -0.149700 4.101960 
# 
# 
# High freq. dielectric constant tensor:
#      x y z
#    x 1.848910 -0.003000 0.011100 
#    y -0.003000 1.880950 -0.015360 
#    z 0.011100 -0.015360 1.863770 
# 
# From -- ./inp_files/207714.got.cif
#   From: 2010.06.25/outbox.cif.g09.slc.cpg/sg2_104_cif.got.tgz:207714.got - 2010.06.27 13:26:56.
