data_PCOD8031172
_publ_section_title
;
Structure prediction by ZEFSAII (Michael W. Deem and Ramdas Pophale) SiO2 
 PCOD8031172
Probable space group: P -1
;
_chemical_formula_sum "Si O2"
_cell_formula_units_Z 14
_cell_length_a 9.613746
_cell_length_b 14.473732
_cell_length_c 11.605614
_cell_angle_alpha 28.026768
_cell_angle_beta 61.793604
_cell_angle_gamma 55.668196
_cell_volume 625.290206
_symmetry_space_group_name_H-M "P -1"
_symmetry_group_IT_number 2
_symmetry_cell_setting 'triclinic'
loop_
_space_group_symop_operation_xyz
x,y,z
-x,-y,-z
loop_
_atom_site_type_symbol
_atom_site_label
_atom_site_fract_x
_atom_site_fract_y
_atom_site_fract_z
Si Si1 0.932029 0.404386 0.957567
Si Si2 0.600334 0.332362 0.852818
Si Si3 0.147564 0.020373 0.994699
Si Si4 0.784883 0.484750 0.159935
Si Si5 0.231826 0.361283 0.462548
Si Si6 0.344113 0.024516 0.613375
Si Si7 0.001097 0.955294 0.359950
O O1 0.114502 0.402241 0.927161
O O2 0.893012 0.491296 0.746944
O O3 0.791888 0.536382 0.963020
O O4 0.934422 0.166664 0.227622
O O5 0.680239 0.174315 0.889168
O O6 0.400606 0.434444 0.803032
O O7 0.677153 0.515176 0.632640
O O8 0.642111 0.204940 0.096137
O O9 0.104172 0.006185 0.158792
O O10 0.145937 0.254216 0.707698
O O11 0.000000 0.000000 0.000000
O O12 0.867275 0.233320 0.413931
O O13 0.364518 0.168443 0.552276
O O14 0.500000 0.000000 0.500000
O O15 0.155693 0.121155 0.526696
#
# Coordination Sequence:
#
# PCOD8031172 Si02
#       7
#     2   2   2   2   2   2   2
#     4  11  23  43  68  94 135 180 216 267 339 391
#     4  11  25  42  68 102 130 174 223 277 324 388
#     4  11  22  44  67  99 135 167 231 271 319 393
#     4  11  26  43  63  99 139 170 220 273 334 394
#     4  11  22  42  70  98 126 180 219 272 324 386
#     4  11  23  39  66  99 134 167 223 274 319 393
#     4  12  24  44  66  98 135 178 215 271 334 393
#
# _framework density 22.389603999999999
#
# number of rings (size 3 to 8) (size 9 to 14) (size 15 to 20)
#    0.000    0.857    5.714    1.286    4.000    7.429 
#    0.000    1.429    0.000    0.000    0.000    0.000 
#    0.000    0.000    0.000    0.000    0.000    0.000 
#
# Total GULP energy -173559.134657 kJ/mol
# GULP energy per Si atom -12397.081047 kJ/mol
# Density = 2.233864 g / cm^3
# Si number density = 22.389604 Si / 1000 Ang^3
#
#
#
# Elastic Constant Matrix: (Units=GPa)
#
#
# Indices 1 2 3 4 5 6 
#
# 1 83.4106 33.1417 23.3313 -3.9984 -9.0577 -14.7154
# 2 33.1417 89.7756 27.1291 7.7860 1.3555 -20.9325
# 3 23.3313 27.1291 96.7692 -1.3006 -16.0337 -6.8639
# 4 -3.9984 7.7860 -1.3006 41.7040 1.9350 -0.4984
# 5 -9.0577 1.3555 -16.0337 1.9350 36.7069 -5.5630
# 6 -14.7154 -20.9325 -6.8639 -0.4984 -5.5630 37.3121
#
#
#
# Elastic Compliance Matrix: (Units=1/GPa)
#
#
# Indices 1 2 3 4 5 6 
#
# 1 0.015423 -0.004592 -0.001504 0.002159 0.003784 0.003823
# 2 -0.004592 0.015502 -0.003196 -0.003269 -0.002028 0.005952
# 3 -0.001504 -0.003196 0.012529 0.000606 0.005296 0.000716
# 4 0.002159 -0.003269 0.000606 0.024830 -0.000483 -0.000611
# 5 0.003784 -0.002028 0.005296 -0.000483 0.031503 0.006020
# 6 0.003823 0.005952 0.000716 -0.000611 0.006020 0.032669
#
#
# Mechanical properties :
#
#
# Convention : Reuss Voigt Hill
#
# Bulk Modulus (GPa) = 40.21116 48.57328 44.39222
# Shear Modulus (GPa) = 31.38142 35.56815 33.47479
#
# Velocity S-wave (km/s) = 3.74787 3.99005 3.87085
# Velocity P-wave (km/s) = 6.06031 6.55507 6.31254
#
# Compressibility (1/GPa) = 0.02486872
#
# Stress axis : x y z
#
# Youngs Moduli (GPa) = 64.83827 64.50811 79.81425
#
# Poissons Ratio (x) = 0.29623 0.12004
# Poissons Ratio (y) = 0.29775 0.25512
# Poissons Ratio (z) = 0.09752 0.20620
#
# Static dielectric constant tensor:
#      x y z
#    x 3.739260 0.009260 -0.148330 
#    y 0.009260 3.636560 -0.355660 
#    z -0.148330 -0.355660 4.172900 
# 
# 
# High freq. dielectric constant tensor:
#      x y z
#    x 1.856460 0.001110 -0.015620 
#    y 0.001110 1.887360 -0.003670 
#    z -0.015620 -0.003670 1.904030 
# 
# From -- ./inp_files/242192.got.cif
#   From: 2010.06.25/outbox.cif.g09.slc.cpg/sg2_122_cif.got.tgz:242192.got - 2010.06.27 13:26:56.
