data_PCOD8031299
_publ_section_title
;
Structure prediction by ZEFSAII (Michael W. Deem and Ramdas Pophale) SiO2 
 PCOD8031299
Probable space group: P -1
;
_chemical_formula_sum "Si O2"
_cell_formula_units_Z 16
_cell_length_a 15.416978
_cell_length_b 12.398486
_cell_length_c 14.219954
_cell_angle_alpha 127.205459
_cell_angle_beta 28.694384
_cell_angle_gamma 144.224709
_cell_volume 705.335339
_symmetry_space_group_name_H-M "P -1"
_symmetry_group_IT_number 2
_symmetry_cell_setting 'triclinic'
loop_
_space_group_symop_operation_xyz
x,y,z
-x,-y,-z
loop_
_atom_site_type_symbol
_atom_site_label
_atom_site_fract_x
_atom_site_fract_y
_atom_site_fract_z
Si Si1 0.516336 0.398086 0.010890
Si Si2 0.247217 0.590386 0.618106
Si Si3 0.717939 0.911242 0.219841
Si Si4 0.760651 0.158840 0.901012
Si Si5 0.603445 0.190127 0.698285
Si Si6 0.966202 0.985603 0.636310
Si Si7 0.507553 0.842323 0.685406
Si Si8 0.059139 0.703336 0.727032
O O1 0.500000 0.500000 0.000000
O O2 0.611216 0.304300 0.833378
O O3 0.242986 0.241423 0.246803
O O4 0.750902 0.577140 0.951441
O O5 0.491527 0.692642 0.367984
O O6 0.358702 0.669223 0.658771
O O7 0.104000 0.649056 0.752755
O O8 0.026660 0.350431 0.692802
O O9 0.655376 0.916681 0.174859
O O10 0.741921 0.059078 0.338773
O O11 0.000000 0.000000 0.000000
O O12 0.839620 0.061163 0.824584
O O13 0.700195 0.242814 0.078148
O O14 0.500000 0.000000 0.000000
O O15 0.859833 0.341684 0.465143
O O16 0.603784 0.040887 0.662637
O O17 0.245435 0.110880 0.487376
O O18 0.000000 0.000000 0.500000
#
# Coordination Sequence:
#
# PCOD8031299 Si02
#       8
#     2   2   2   2   2   2   2   2
#     4  12  26  43  73 109 141 188 249 299 365 436
#     4  11  25  45  72 103 138 193 238 287 373 432
#     4  11  23  42  68 105 149 184 234 303 359 427
#     4  12  26  50  73 102 142 190 240 301 362 425
#     4  11  22  43  69 103 140 191 234 301 364 421
#     4  12  28  46  72 107 149 189 242 303 363 434
#     4  12  24  47  76  97 145 188 245 293 355 440
#     4  11  22  43  69 100 144 183 237 299 364 426
#
# _framework density 22.684245000000001
#
# number of rings (size 3 to 8) (size 9 to 14) (size 15 to 20)
#    0.000    0.500    5.000    3.750    1.750    3.500 
#    0.000    0.000    0.000    0.000    0.000    0.000 
#    0.000    0.000    0.000    0.000    0.000    0.000 
#
# Total GULP energy -198377.948524 kJ/mol
# GULP energy per Si atom -12398.621783 kJ/mol
# Density = 2.263261 g / cm^3
# Si number density = 22.684245 Si / 1000 Ang^3
#
#
#
# Elastic Constant Matrix: (Units=GPa)
#
#
# Indices 1 2 3 4 5 6 
#
# 1 132.4928 26.4155 58.3147 -16.9960 -24.3596 -7.1628
# 2 26.4155 74.8545 30.6877 -25.8156 -5.0831 -12.5735
# 3 58.3147 30.6877 123.8526 -26.5904 -22.1684 -11.6617
# 4 -16.9960 -25.8156 -26.5904 42.3946 -2.3743 -1.1524
# 5 -24.3596 -5.0831 -22.1684 -2.3743 51.3467 1.0055
# 6 -7.1628 -12.5735 -11.6617 -1.1524 1.0055 34.2921
#
#
#
# Elastic Compliance Matrix: (Units=1/GPa)
#
#
# Indices 1 2 3 4 5 6 
#
# 1 0.010161 -0.001461 -0.003583 0.001122 0.003174 0.000312
# 2 -0.001461 0.019174 -0.000903 0.010773 0.001181 0.006745
# 3 -0.003583 -0.000903 0.012230 0.005978 0.003705 0.003172
# 4 0.001122 0.010773 0.005978 0.034860 0.005650 0.007223
# 5 0.003174 0.001181 0.003705 0.005650 0.022923 0.001874
# 6 0.000312 0.006745 0.003172 0.007223 0.001874 0.032966
#
#
# Mechanical properties :
#
#
# Convention : Reuss Voigt Hill
#
# Bulk Modulus (GPa) = 33.70606 62.44842 48.07724
# Shear Modulus (GPa) = 32.44661 39.99213 36.21937
#
# Velocity S-wave (km/s) = 3.78611 4.20335 4.00018
# Velocity P-wave (km/s) = 5.83129 7.15170 6.52498
#
# Compressibility (1/GPa) = 0.02966826
#
# Stress axis : x y z
#
# Youngs Moduli (GPa) = 98.41945 52.15463 81.76309
#
# Poissons Ratio (x) = 0.07622 0.29299
# Poissons Ratio (y) = 0.14384 0.07387
# Poissons Ratio (z) = 0.35267 0.04712
#
# Static dielectric constant tensor:
#      x y z
#    x 4.227800 0.150160 -0.076660 
#    y 0.150160 5.029530 -0.079770 
#    z -0.076660 -0.079770 4.186920 
# 
# 
# High freq. dielectric constant tensor:
#      x y z
#    x 1.903380 -0.000160 -0.009250 
#    y -0.000160 1.884080 -0.007130 
#    z -0.009250 -0.007130 1.905060 
# 
# From -- ./inp_files/532580.got.cif
#   From: 2010.06.25/outbox.cif.g09.slc.cpg/sg2_267_cif.got.tgz:532580.got - 2010.06.27 13:26:56.
