data_PCOD8031335
_publ_section_title
;
Structure prediction by ZEFSAII (Michael W. Deem and Ramdas Pophale) SiO2 
 PCOD8031335
Probable space group: P -1
;
_chemical_formula_sum "Si O2"
_cell_formula_units_Z 16
_cell_length_a 8.587792
_cell_length_b 26.827976
_cell_length_c 14.391855
_cell_angle_alpha 160.129724
_cell_angle_beta 128.209655
_cell_angle_gamma 43.715358
_cell_volume 751.938650
_symmetry_space_group_name_H-M "P -1"
_symmetry_group_IT_number 2
_symmetry_cell_setting 'triclinic'
loop_
_space_group_symop_operation_xyz
x,y,z
-x,-y,-z
loop_
_atom_site_type_symbol
_atom_site_label
_atom_site_fract_x
_atom_site_fract_y
_atom_site_fract_z
Si Si1 0.486734 0.192869 0.087799
Si Si2 0.673817 0.943295 0.878767
Si Si3 0.055999 0.199201 0.887937
Si Si4 0.855377 0.419388 0.841002
Si Si5 0.049202 0.021235 0.221204
Si Si6 0.860667 0.105405 0.492060
Si Si7 0.407628 0.478775 0.700500
Si Si8 0.348114 0.368126 0.686599
O O1 0.476887 0.346631 0.410488
O O2 0.243885 0.257424 0.057975
O O3 0.690545 0.121206 0.961597
O O4 0.524394 0.042892 0.908397
O O5 0.780545 0.739856 0.544801
O O6 0.871627 0.988842 0.041367
O O7 0.500000 0.000000 0.000000
O O8 0.986969 0.189403 0.739269
O O9 0.167434 0.017170 0.661998
O O10 0.820031 0.343855 0.105906
O O11 0.619195 0.508002 0.848403
O O12 0.791220 0.464172 0.005115
O O13 0.995395 0.213229 0.518104
O O14 0.000000 0.500000 0.000000
O O15 0.026024 0.992611 0.270682
O O16 0.612398 0.253142 0.619688
O O17 0.352423 0.412908 0.659577
#
# Coordination Sequence:
#
# PCOD8031335 Si02
#       8
#     2   2   2   2   2   2   2   2
#     4  12  24  41  65  96 139 177 212 271 344 388
#     4  12  20  39  70 101 126 173 222 271 322 395
#     4  11  25  42  68  94 132 177 227 267 325 405
#     4  12  25  39  66 105 134 164 214 285 335 372
#     4  12  25  43  68  99 138 170 223 280 332 392
#     4  11  22  43  70  95 126 181 228 265 321 403
#     4  12  24  44  68 101 132 172 224 278 324 396
#     4  12  22  42  74  98 130 171 232 270 324 386
#
# _framework density 21.278331999999999
#
# number of rings (size 3 to 8) (size 9 to 14) (size 15 to 20)
#    0.000    0.250    7.500    2.625    1.750    0.500 
#    0.000    1.875    0.000    0.000    0.000    0.000 
#    0.000    0.000    0.000    0.000    0.000    0.000 
#
# Total GULP energy -198430.029253 kJ/mol
# GULP energy per Si atom -12401.876828 kJ/mol
# Density = 2.122990 g / cm^3
# Si number density = 21.278332 Si / 1000 Ang^3
#
#
#
# Elastic Constant Matrix: (Units=GPa)
#
#
# Indices 1 2 3 4 5 6 
#
# 1 96.3434 40.6555 34.1700 -16.9621 -11.6966 -21.6172
# 2 40.6555 78.8514 36.1342 -17.6455 -2.6976 -16.9783
# 3 34.1700 36.1342 114.8234 -27.5895 -7.0794 -21.6326
# 4 -16.9621 -17.6455 -27.5895 36.4592 -2.8223 3.7263
# 5 -11.6966 -2.6976 -7.0794 -2.8223 46.1695 -5.0960
# 6 -21.6172 -16.9783 -21.6326 3.7263 -5.0960 36.6884
#
#
#
# Elastic Compliance Matrix: (Units=1/GPa)
#
#
# Indices 1 2 3 4 5 6 
#
# 1 0.015527 -0.005321 -0.000462 0.003971 0.004528 0.006640
# 2 -0.005321 0.018228 -0.002539 0.004075 -0.000050 0.003382
# 3 -0.000462 -0.002539 0.012777 0.007861 0.002801 0.005677
# 4 0.003971 0.004075 0.007861 0.037013 0.005357 0.005845
# 5 0.004528 -0.000050 0.002801 0.005357 0.024348 0.007134
# 6 0.006640 0.003382 0.005677 0.005845 0.007134 0.036478
#
#
# Mechanical properties :
#
#
# Convention : Reuss Voigt Hill
#
# Bulk Modulus (GPa) = 33.45979 56.88198 45.17088
# Shear Modulus (GPa) = 29.24348 35.80063 32.52205
#
# Velocity S-wave (km/s) = 3.71122 4.10627 3.91373
# Velocity P-wave (km/s) = 5.84150 7.01942 6.45738
#
# Compressibility (1/GPa) = 0.02988662
#
# Stress axis : x y z
#
# Youngs Moduli (GPa) = 64.40256 54.86154 78.26759
#
# Poissons Ratio (x) = 0.29191 0.03617
# Poissons Ratio (y) = 0.34268 0.19876
# Poissons Ratio (z) = 0.02976 0.13932
#
# Static dielectric constant tensor:
#      x y z
#    x 3.762460 -0.058250 -0.002220 
#    y -0.058250 3.997850 -0.295480 
#    z -0.002220 -0.295480 4.219470 
# 
# 
# High freq. dielectric constant tensor:
#      x y z
#    x 1.823300 -0.005140 0.000440 
#    y -0.005140 1.830610 -0.020090 
#    z 0.000440 -0.020090 1.850420 
# 
# From -- ./inp_files/508676.got.cif
#   From: 2010.06.25/outbox.cif.g09.slc.cpg/sg2_255_cif.got.tgz:508676.got - 2010.06.27 13:26:56.
