data_PCOD8031895
_publ_section_title
;
Structure prediction by ZEFSAII (Michael W. Deem and Ramdas Pophale) SiO2 
 PCOD8031895
Probable space group: P -1
;
_chemical_formula_sum "Si O2"
_cell_formula_units_Z 14
_cell_length_a 20.896070
_cell_length_b 9.840024
_cell_length_c 8.584268
_cell_angle_alpha 84.206246
_cell_angle_beta 45.283726
_cell_angle_gamma 48.042554
_cell_volume 666.858430
_symmetry_space_group_name_H-M "P -1"
_symmetry_group_IT_number 2
_symmetry_cell_setting 'triclinic'
loop_
_space_group_symop_operation_xyz
x,y,z
-x,-y,-z
loop_
_atom_site_type_symbol
_atom_site_label
_atom_site_fract_x
_atom_site_fract_y
_atom_site_fract_z
Si Si1 0.478632 0.083680 0.354652
Si Si2 0.512995 0.352666 0.700634
Si Si3 0.162352 0.147991 0.630731
Si Si4 0.731393 0.564341 0.826717
Si Si5 0.385360 0.811132 0.798660
Si Si6 0.956359 0.713840 0.524443
Si Si7 0.154938 0.470883 0.678244
O O1 0.540330 0.160299 0.230281
O O2 0.282846 0.324723 0.619318
O O3 0.500000 0.000000 0.500000
O O4 0.582476 0.864316 0.075265
O O5 0.477678 0.557744 0.729417
O O6 0.582199 0.204409 0.436884
O O7 0.652964 0.147738 0.616367
O O8 0.339874 0.496466 0.020511
O O9 0.109672 0.167538 0.547629
O O10 0.162563 0.310553 0.612853
O O11 0.030524 0.258095 0.970200
O O12 0.799593 0.484193 0.543302
O O13 0.880256 0.402320 0.713013
O O14 0.184940 0.060835 0.135334
O O15 0.000000 0.500000 0.500000
#
# Coordination Sequence:
#
# PCOD8031895 Si02
#       7
#     2   2   2   2   2   2   2
#     4  12  21  38  68 100 126 166 223 272 317 379
#     4  11  26  45  67  93 136 177 212 264 333 399
#     4  11  23  42  65 100 132 171 213 271 330 379
#     4  12  23  40  67  99 129 169 219 271 322 382
#     4  11  25  45  67  94 135 175 215 263 335 390
#     4  12  24  40  68 101 130 167 222 278 319 376
#     4  11  23  37  67  97 132 166 220 272 320 379
#
# _framework density 20.993963000000001
#
# number of rings (size 3 to 8) (size 9 to 14) (size 15 to 20)
#    0.000    0.571    5.714    2.143    4.000    1.143 
#    0.000    0.714    0.000    0.000    0.000    0.000 
#    0.000    0.000    0.000    0.000    0.000    0.000 
#
# Total GULP energy -173711.721114 kJ/mol
# GULP energy per Si atom -12407.980080 kJ/mol
# Density = 2.094618 g / cm^3
# Si number density = 20.993963 Si / 1000 Ang^3
#
#
#
# Elastic Constant Matrix: (Units=GPa)
#
#
# Indices 1 2 3 4 5 6 
#
# 1 94.1862 34.2677 25.7850 -11.5991 -22.6456 -23.0619
# 2 34.2677 64.2158 30.3127 -13.2732 -2.6709 -13.2116
# 3 25.7850 30.3127 113.0051 -15.4658 -12.4891 -10.5163
# 4 -11.5991 -13.2732 -15.4658 36.3406 -5.9533 -0.1608
# 5 -22.6456 -2.6709 -12.4891 -5.9533 42.4957 1.8099
# 6 -23.0619 -13.2116 -10.5163 -0.1608 1.8099 37.2154
#
#
#
# Elastic Compliance Matrix: (Units=1/GPa)
#
#
# Indices 1 2 3 4 5 6 
#
# 1 0.017885 -0.006465 0.000174 0.005018 0.009521 0.008395
# 2 -0.006465 0.022189 -0.003982 0.003900 -0.002798 0.002898
# 3 0.000174 -0.003982 0.010946 0.003844 0.003528 0.001632
# 4 0.005018 0.003900 0.003844 0.033600 0.008530 0.005311
# 5 0.009521 -0.002798 0.003528 0.008530 0.030471 0.004458
# 6 0.008395 0.002898 0.001632 0.005311 0.004458 0.033369
#
#
# Mechanical properties :
#
#
# Convention : Reuss Voigt Hill
#
# Bulk Modulus (GPa) = 32.81861 50.23753 41.52807
# Shear Modulus (GPa) = 27.90719 35.27978 31.59348
#
# Velocity S-wave (km/s) = 3.64991 4.10380 3.88349
# Velocity P-wave (km/s) = 5.78176 6.81443 6.31922
#
# Compressibility (1/GPa) = 0.03047052
#
# Stress axis : x y z
#
# Youngs Moduli (GPa) = 55.91369 45.06820 91.35998
#
# Poissons Ratio (x) = 0.29139 -0.01586
# Poissons Ratio (y) = 0.36151 0.36383
# Poissons Ratio (z) = -0.00971 0.17948
#
# Static dielectric constant tensor:
#      x y z
#    x 3.831600 -0.060970 -0.118900 
#    y -0.060970 3.538460 -0.040530 
#    z -0.118900 -0.040530 4.065690 
# 
# 
# High freq. dielectric constant tensor:
#      x y z
#    x 1.825920 -0.013400 -0.007450 
#    y -0.013400 1.802030 -0.007980 
#    z -0.007450 -0.007980 1.839360 
# 
# From -- ./inp_files/150444.got.cif
#   From: 2010.06.25/outbox.cif.g09.slc.cpg/sg2_76_cif.got.tgz:150444.got - 2010.06.27 13:26:56.
