data_PCOD8031866
_publ_section_title
;
Structure prediction by ZEFSAII (Michael W. Deem and Ramdas Pophale) SiO2 
 PCOD8031866
Probable space group: P -1
;
_chemical_formula_sum "Si O2"
_cell_formula_units_Z 14
_cell_length_a 6.416862
_cell_length_b 14.711609
_cell_length_c 9.321135
_cell_angle_alpha 97.229837
_cell_angle_beta 130.639845
_cell_angle_gamma 69.419310
_cell_volume 618.479649
_symmetry_space_group_name_H-M "P -1"
_symmetry_group_IT_number 2
_symmetry_cell_setting 'triclinic'
loop_
_space_group_symop_operation_xyz
x,y,z
-x,-y,-z
loop_
_atom_site_type_symbol
_atom_site_label
_atom_site_fract_x
_atom_site_fract_y
_atom_site_fract_z
Si Si1 0.647704 0.339599 0.585766
Si Si2 0.318706 0.305086 0.853746
Si Si3 0.076974 0.123052 0.470021
Si Si4 0.167434 0.027206 0.800776
Si Si5 0.621311 0.164060 0.719154
Si Si6 0.608922 0.329270 0.257590
Si Si7 0.681903 0.522991 0.301144
O O1 0.572206 0.252241 0.605086
O O2 0.468236 0.362987 0.359038
O O3 0.548920 0.432920 0.664352
O O4 0.987531 0.311700 0.691850
O O5 0.534735 0.207968 0.849164
O O6 0.372485 0.401142 0.838424
O O7 0.395490 0.294853 0.054863
O O8 0.089939 0.093707 0.637147
O O9 0.410741 0.104480 0.565077
O O10 0.911284 0.238954 0.400142
O O11 0.911051 0.068706 0.286815
O O12 0.957610 0.088737 0.847503
O O13 0.500000 0.000000 0.000000
O O14 0.660818 0.420513 0.220348
O O15 0.000000 0.500000 0.500000
#
# Coordination Sequence:
#
# PCOD8031866 Si02
#       7
#     2   2   2   2   2   2   2
#     4  11  23  46  69  99 142 184 225 285 335 401
#     4  11  25  43  68 104 140 182 231 278 338 405
#     4  11  25  47  71 103 135 182 228 282 350 409
#     4  11  26  48  73 101 137 175 230 290 347 411
#     4  11  22  48  71 100 143 179 230 282 343 413
#     4  12  23  44  70  98 141 180 229 280 339 403
#     4  11  23  45  69  98 141 185 228 281 337 399
#
# _framework density 22.636154000000001
#
# number of rings (size 3 to 8) (size 9 to 14) (size 15 to 20)
#    0.000    0.857    4.286    2.143    4.000    1.143 
#   15.429    0.000    0.000    0.000    0.000    0.000 
#    0.000    0.000    0.000    0.000    0.000    0.000 
#
# Total GULP energy -173556.010061 kJ/mol
# GULP energy per Si atom -12396.857861 kJ/mol
# Density = 2.258463 g / cm^3
# Si number density = 22.636154 Si / 1000 Ang^3
#
#
#
# Elastic Constant Matrix: (Units=GPa)
#
#
# Indices 1 2 3 4 5 6 
#
# 1 115.9401 56.5169 45.0321 10.0076 6.9557 -6.1982
# 2 56.5169 125.9263 42.6665 9.8478 16.5471 0.8024
# 3 45.0321 42.6665 134.6442 23.9760 0.8404 -9.2850
# 4 10.0076 9.8478 23.9760 24.8013 -0.6395 10.7237
# 5 6.9557 16.5471 0.8404 -0.6395 30.2031 -2.3937
# 6 -6.1982 0.8024 -9.2850 10.7237 -2.3937 34.8641
#
#
#
# Elastic Compliance Matrix: (Units=1/GPa)
#
#
# Indices 1 2 3 4 5 6 
#
# 1 0.011915 -0.004502 -0.002033 -0.002054 -0.000082 0.002307
# 2 -0.004502 0.011424 -0.002272 0.000252 -0.005321 -0.002111
# 3 -0.002033 -0.002272 0.011430 -0.012129 0.001659 0.006580
# 4 -0.002054 0.000252 -0.012129 0.062666 0.000187 -0.022863
# 5 -0.000082 -0.005321 0.001659 0.000187 0.036237 0.002980
# 6 0.002307 -0.002111 0.006580 -0.022863 0.002980 0.038131
#
#
# Mechanical properties :
#
#
# Convention : Reuss Voigt Hill
#
# Bulk Modulus (GPa) = 58.28918 73.88240 66.08579
# Shear Modulus (GPa) = 25.62330 33.46006 29.54168
#
# Velocity S-wave (km/s) = 3.36812 3.84887 3.61649
# Velocity P-wave (km/s) = 6.39781 7.24304 6.83351
#
# Compressibility (1/GPa) = 0.01715584
#
# Stress axis : x y z
#
# Youngs Moduli (GPa) = 83.92864 87.53243 87.48864
#
# Poissons Ratio (x) = 0.39407 0.17786
# Poissons Ratio (y) = 0.37785 0.19875
# Poissons Ratio (z) = 0.17062 0.19885
#
# Static dielectric constant tensor:
#      x y z
#    x 3.480560 1.252810 0.544780 
#    y 1.252810 3.348110 -0.660560 
#    z 0.544780 -0.660560 3.507030 
# 
# 
# High freq. dielectric constant tensor:
#      x y z
#    x 1.889740 0.006170 -0.005770 
#    y 0.006170 1.910940 0.003270 
#    z -0.005770 0.003270 1.882070 
# 
# From -- ./inp_files/135427.got.cif
#   From: 2010.06.25/outbox.cif.g09.slc.cpg/sg2_68_cif.got.tgz:135427.got - 2010.06.27 13:26:56.
