data_PCOD8031547
_publ_section_title
;
Structure prediction by ZEFSAII (Michael W. Deem and Ramdas Pophale) SiO2 
 PCOD8031547
Probable space group: P -1
;
_chemical_formula_sum "Si O2"
_cell_formula_units_Z 14
_cell_length_a 16.775387
_cell_length_b 9.747638
_cell_length_c 11.253183
_cell_angle_alpha 109.015581
_cell_angle_beta 158.490531
_cell_angle_gamma 68.981972
_cell_volume 629.636186
_symmetry_space_group_name_H-M "P -1"
_symmetry_group_IT_number 2
_symmetry_cell_setting 'triclinic'
loop_
_space_group_symop_operation_xyz
x,y,z
-x,-y,-z
loop_
_atom_site_type_symbol
_atom_site_label
_atom_site_fract_x
_atom_site_fract_y
_atom_site_fract_z
Si Si1 0.253437 0.497650 0.199527
Si Si2 0.226301 0.871357 0.606190
Si Si3 0.207869 0.194386 0.941553
Si Si4 0.426333 0.016097 0.710291
Si Si5 0.177059 0.311922 0.434018
Si Si6 0.644329 0.447068 0.385305
Si Si7 0.190068 0.366441 0.733635
O O1 0.500000 0.500000 0.500000
O O2 0.218287 0.532856 0.299722
O O3 0.197554 0.335538 0.052607
O O4 0.078340 0.622118 0.925370
O O5 0.263390 0.695326 0.602745
O O6 0.966164 0.910215 0.287511
O O7 0.279922 0.932173 0.569560
O O8 0.374901 0.925643 0.929020
O O9 0.146679 0.246946 0.736328
O O10 0.454062 0.098210 0.254821
O O11 0.261085 0.147690 0.452711
O O12 0.340749 0.416792 0.641870
O O13 0.223293 0.284755 0.630916
O O14 0.397522 0.440165 0.082229
O O15 0.000000 0.500000 0.500000
#
# Coordination Sequence:
#
# PCOD8031547 Si02
#       7
#     2   2   2   2   2   2   2
#     4  12  24  46  69  98 138 185 228 282 346 413
#     4  11  22  44  71  97 142 184 223 275 358 405
#     4  12  24  43  71 100 143 185 223 278 357 408
#     4  11  24  44  65 105 143 177 223 291 342 406
#     4  12  25  41  71 104 131 178 237 288 338 399
#     4  12  23  44  72  97 140 179 230 284 345 409
#     4  12  21  39  69 105 133 168 234 292 324 395
#
# _framework density 22.235064000000001
#
# number of rings (size 3 to 8) (size 9 to 14) (size 15 to 20)
#    0.000    0.286    7.143    2.143    2.000    0.000 
#    2.571    3.571    0.000    0.000    0.000    0.000 
#    0.000    0.000    0.000    0.000    0.000    0.000 
#
# Total GULP energy -173601.737159 kJ/mol
# GULP energy per Si atom -12400.124083 kJ/mol
# Density = 2.218446 g / cm^3
# Si number density = 22.235064 Si / 1000 Ang^3
#
#
#
# Elastic Constant Matrix: (Units=GPa)
#
#
# Indices 1 2 3 4 5 6 
#
# 1 71.2288 13.6805 28.9252 6.9415 11.1441 1.6763
# 2 13.6805 116.2035 32.5393 -24.6982 16.0019 -5.1063
# 3 28.9252 32.5393 109.3925 -3.2813 26.5451 2.4636
# 4 6.9415 -24.6982 -3.2813 35.3797 -3.7958 13.1750
# 5 11.1441 16.0019 26.5451 -3.7958 50.4291 11.5719
# 6 1.6763 -5.1063 2.4636 13.1750 11.5719 30.2202
#
#
#
# Elastic Compliance Matrix: (Units=1/GPa)
#
#
# Indices 1 2 3 4 5 6 
#
# 1 0.016733 -0.001842 -0.003562 -0.006111 -0.002294 0.002593
# 2 -0.001842 0.011359 -0.002352 0.008323 -0.001105 -0.000992
# 3 -0.003562 -0.002352 0.011967 -0.000794 -0.005082 0.001117
# 4 -0.006111 0.008323 -0.000794 0.043278 0.006906 -0.019702
# 5 -0.002294 -0.001105 -0.005082 0.006906 0.026851 -0.012938
# 6 0.002593 -0.000992 0.001117 -0.019702 -0.012938 0.046231
#
#
# Mechanical properties :
#
#
# Convention : Reuss Voigt Hill
#
# Bulk Modulus (GPa) = 40.73579 49.67943 45.20761
# Shear Modulus (GPa) = 27.76063 37.98446 32.87254
#
# Velocity S-wave (km/s) = 3.53725 4.13766 3.84918
# Velocity P-wave (km/s) = 5.91973 6.72446 6.33488
#
# Compressibility (1/GPa) = 0.02454844
#
# Stress axis : x y z
#
# Youngs Moduli (GPa) = 59.76346 88.03949 83.56414
#
# Poissons Ratio (x) = 0.16213 0.29764
# Poissons Ratio (y) = 0.11006 0.19650
# Poissons Ratio (z) = 0.21286 0.20703
#
# Static dielectric constant tensor:
#      x y z
#    x 4.181640 -0.310750 -0.001500 
#    y -0.310750 3.938900 -0.029570 
#    z -0.001500 -0.029570 4.191070 
# 
# 
# High freq. dielectric constant tensor:
#      x y z
#    x 1.877830 -0.010360 0.024810 
#    y -0.010360 1.879320 0.001010 
#    z 0.024810 0.001010 1.867960 
# 
# From -- ./inp_files/261340.got.cif
#   From: 2010.06.25/outbox.cif.g09.slc.cpg/sg2_131_cif.got.tgz:261340.got - 2010.06.27 13:26:56.
