data_PCOD8031984
_publ_section_title
;
Structure prediction by ZEFSAII (Michael W. Deem and Ramdas Pophale) SiO2 
 PCOD8031984
Probable space group: P -1
;
_chemical_formula_sum "Si O2"
_cell_formula_units_Z 12
_cell_length_a 19.476838
_cell_length_b 5.350119
_cell_length_c 6.158758
_cell_angle_alpha 102.803608
_cell_angle_beta 76.568929
_cell_angle_gamma 60.841230
_cell_volume 500.979686
_symmetry_space_group_name_H-M "P -1"
_symmetry_group_IT_number 2
_symmetry_cell_setting 'triclinic'
loop_
_space_group_symop_operation_xyz
x,y,z
-x,-y,-z
loop_
_atom_site_type_symbol
_atom_site_label
_atom_site_fract_x
_atom_site_fract_y
_atom_site_fract_z
Si Si1 0.372629 0.033867 0.038038
Si Si2 0.336740 0.690090 0.671221
Si Si3 0.228321 0.639323 0.083800
Si Si4 0.468539 0.060734 0.294179
Si Si5 0.179076 0.079138 0.586863
Si Si6 0.899587 0.226013 0.144659
O O1 0.387204 0.764309 0.820136
O O2 0.442405 0.111282 0.938573
O O3 0.274703 0.336938 0.150587
O O4 0.407478 0.937776 0.245004
O O5 0.403544 0.438276 0.401099
O O6 0.262005 0.989594 0.650671
O O7 0.293154 0.558551 0.823151
O O8 0.207731 0.936513 0.295919
O O9 0.141451 0.709597 0.054210
O O10 0.500000 0.000000 0.500000
O O11 0.121141 0.451747 0.677165
O O12 0.130073 0.941387 0.706934
O O13 0.000000 0.000000 0.000000
#
# Coordination Sequence:
#
# PCOD8031984 Si02
#       6
#     2   2   2   2   2   2
#     4  11  23  40  61  90 129 174 226 268 334 383
#     4  11  23  40  64  92 131 177 224 275 326 394
#     4  11  24  41  67  97 133 175 222 270 338 398
#     4  11  23  40  59  91 130 174 226 280 321 385
#     4  11  25  43  72 101 135 176 219 275 336 400
#     4  11  26  47  72 103 135 171 220 276 335 407
#
# _framework density 23.953067000000001
#
# number of rings (size 3 to 8) (size 9 to 14) (size 15 to 20)
#    0.000    1.000    5.000    1.000    2.333    3.333 
#    0.000    0.000    0.000    0.000    0.000    0.000 
#    0.000    0.000    0.000    0.000    0.000    0.000 
#
# Total GULP energy -148676.575846 kJ/mol
# GULP energy per Si atom -12389.714654 kJ/mol
# Density = 2.389855 g / cm^3
# Si number density = 23.953067 Si / 1000 Ang^3
#
#
#
# Elastic Constant Matrix: (Units=GPa)
#
#
# Indices 1 2 3 4 5 6 
#
# 1 116.4607 40.4745 40.6507 5.8320 18.4106 -24.9428
# 2 40.4745 81.5175 28.1398 21.2304 -6.4420 -11.9762
# 3 40.6507 28.1398 120.0537 24.3946 26.2566 -14.9762
# 4 5.8320 21.2304 24.3946 39.1711 -2.6249 6.4582
# 5 18.4106 -6.4420 26.2566 -2.6249 43.1994 -0.2840
# 6 -24.9428 -11.9762 -14.9762 6.4582 -0.2840 47.6670
#
#
#
# Elastic Compliance Matrix: (Units=1/GPa)
#
#
# Indices 1 2 3 4 5 6 
#
# 1 0.012967 -0.005966 -0.001436 0.001064 -0.005448 0.004659
# 2 -0.005966 0.018739 -0.001737 -0.008149 0.005912 0.002180
# 3 -0.001436 -0.001737 0.013184 -0.008264 -0.008136 0.004025
# 4 0.001064 -0.008149 -0.008264 0.036795 0.005530 -0.009039
# 5 -0.005448 0.005912 -0.008136 0.005530 0.031603 -0.004482
# 6 0.004659 0.002180 0.004025 -0.009039 -0.004482 0.026427
#
#
# Mechanical properties :
#
#
# Convention : Reuss Voigt Hill
#
# Bulk Modulus (GPa) = 37.57762 59.61800 48.59781
# Shear Modulus (GPa) = 29.96467 39.92529 34.94498
#
# Velocity S-wave (km/s) = 3.54075 4.08709 3.82369
# Velocity P-wave (km/s) = 5.69543 6.87139 6.31086
#
# Compressibility (1/GPa) = 0.02661158
#
# Stress axis : x y z
#
# Youngs Moduli (GPa) = 77.12042 53.36471 75.85085
#
# Poissons Ratio (x) = 0.31836 0.10891
# Poissons Ratio (y) = 0.46007 0.13178
# Poissons Ratio (z) = 0.11074 0.09272
#
# Static dielectric constant tensor:
#      x y z
#    x 4.225910 -0.571470 -1.326480 
#    y -0.571470 3.977700 -2.210420 
#    z -1.326480 -2.210420 -11.105720 
# 
# 
# High freq. dielectric constant tensor:
#      x y z
#    x 1.948130 -0.020590 0.022870 
#    y -0.020590 1.935220 0.002920 
#    z 0.022870 0.002920 1.965760 
# 
# From -- ./inp_files/3214.got.cif
#   From: 2010.06.25/outbox.cif.g09.slc.cpg/sg2_2_cif.got.tgz:3214.got - 2010.06.27 13:26:56.
