data_PCOD8031897
_publ_section_title
;
Structure prediction by ZEFSAII (Michael W. Deem and Ramdas Pophale) SiO2 
 PCOD8031897
Probable space group: P -1
;
_chemical_formula_sum "Si O2"
_cell_formula_units_Z 14
_cell_length_a 9.776942
_cell_length_b 8.652488
_cell_length_c 16.718736
_cell_angle_alpha 75.721526
_cell_angle_beta 144.654588
_cell_angle_gamma 121.029509
_cell_volume 656.589345
_symmetry_space_group_name_H-M "P -1"
_symmetry_group_IT_number 2
_symmetry_cell_setting 'triclinic'
loop_
_space_group_symop_operation_xyz
x,y,z
-x,-y,-z
loop_
_atom_site_type_symbol
_atom_site_label
_atom_site_fract_x
_atom_site_fract_y
_atom_site_fract_z
Si Si1 0.215414 0.396765 0.823903
Si Si2 0.852504 0.333731 0.802856
Si Si3 0.091774 0.760676 0.868755
Si Si4 0.700688 0.897525 0.174750
Si Si5 0.290247 0.022885 0.652558
Si Si6 0.884367 0.795899 0.930713
Si Si7 0.247665 0.633251 0.663815
O O1 0.177942 0.230633 0.769869
O O2 0.199765 0.543493 0.740378
O O3 0.943056 0.299654 0.764570
O O4 0.500000 0.500000 0.000000
O O5 0.525267 0.164576 0.682270
O O6 0.867755 0.531991 0.785008
O O7 0.058062 0.334933 0.968567
O O8 0.056092 0.839028 0.925301
O O9 0.063093 0.882815 0.769480
O O10 0.404482 0.804027 0.997859
O O11 0.613535 0.884374 0.226443
O O12 0.254208 0.822400 0.655901
O O13 0.000000 0.000000 0.500000
O O14 0.548044 0.681293 0.766794
O O15 0.000000 0.000000 0.000000
O O16 0.000000 0.500000 0.500000
#
# Coordination Sequence:
#
# PCOD8031897 Si02
#       7
#     2   2   2   2   2   2   2
#     4  12  24  43  73 108 141 184 240 297 356 425
#     4  12  24  42  71 104 138 181 243 294 345 420
#     4  11  23  37  69 102 136 175 229 294 346 407
#     4  11  23  43  68 102 144 176 231 293 354 417
#     4  12  28  48  68  98 145 193 236 292 362 429
#     4  12  22  41  71 105 138 182 241 294 350 425
#     4  12  27  47  72 104 149 188 232 297 369 424
#
# _framework density 21.322308
#
# number of rings (size 3 to 8) (size 9 to 14) (size 15 to 20)
#    0.000    0.286    5.714    3.000    6.000    0.000 
#    2.571    2.857    0.000    0.000    0.000    0.000 
#    0.000    0.000    0.000    0.000    0.000    0.000 
#
# Total GULP energy -173647.753216 kJ/mol
# GULP energy per Si atom -12403.410944 kJ/mol
# Density = 2.127378 g / cm^3
# Si number density = 21.322308 Si / 1000 Ang^3
#
#
#
# Elastic Constant Matrix: (Units=GPa)
#
#
# Indices 1 2 3 4 5 6 
#
# 1 158.2062 60.5832 30.2888 9.4243 10.4402 9.0966
# 2 60.5832 157.6133 36.1340 6.7958 14.7256 5.6921
# 3 30.2888 36.1340 103.8036 4.1569 20.7961 11.3303
# 4 9.4243 6.7958 4.1569 27.5818 -4.8304 -6.9571
# 5 10.4402 14.7256 20.7961 -4.8304 33.3661 -1.8022
# 6 9.0966 5.6921 11.3303 -6.9571 -1.8022 42.9845
#
#
#
# Elastic Compliance Matrix: (Units=1/GPa)
#
#
# Indices 1 2 3 4 5 6 
#
# 1 0.007767 -0.002506 -0.000882 -0.002505 -0.001221 -0.001536
# 2 -0.002506 0.007914 -0.001533 -0.001310 -0.001965 -0.000408
# 3 -0.000882 -0.001533 0.012486 -0.003476 -0.007537 -0.003780
# 4 -0.002505 -0.001310 -0.003476 0.041951 0.010079 0.008832
# 5 -0.001221 -0.001965 -0.007537 0.010079 0.037685 0.005717
# 6 -0.001536 -0.000408 -0.003780 0.008832 0.005717 0.026309
#
#
# Mechanical properties :
#
#
# Convention : Reuss Voigt Hill
#
# Bulk Modulus (GPa) = 54.56565 74.84836 64.70700
# Shear Modulus (GPa) = 33.31919 40.29428 36.80674
#
# Velocity S-wave (km/s) = 3.95732 4.35187 4.15927
# Velocity P-wave (km/s) = 6.82106 7.77375 7.31294
#
# Compressibility (1/GPa) = 0.01832655
#
# Stress axis : x y z
#
# Youngs Moduli (GPa) = 128.74361 126.35636 80.08709
#
# Poissons Ratio (x) = 0.31665 0.07060
# Poissons Ratio (y) = 0.32263 0.12278
# Poissons Ratio (z) = 0.11350 0.19372
#
# Static dielectric constant tensor:
#      x y z
#    x 3.850380 0.032830 0.469010 
#    y 0.032830 4.122540 -0.116800 
#    z 0.469010 -0.116800 2.951830 
# 
# 
# High freq. dielectric constant tensor:
#      x y z
#    x 1.857050 -0.000480 0.003700 
#    y -0.000480 1.858410 -0.006580 
#    z 0.003700 -0.006580 1.802170 
# 
# From -- ./inp_files/157099.got.cif
#   From: 2010.06.25/outbox.cif.g09.slc.cpg/sg2_79_cif.got.tgz:157099.got - 2010.06.27 13:26:56.
