data_PCOD8031027
_publ_section_title
;
Structure prediction by ZEFSAII (Michael W. Deem and Ramdas Pophale) SiO2 
 PCOD8031027
Probable space group: P -1
;
_chemical_formula_sum "Si O2"
_cell_formula_units_Z 16
_cell_length_a 14.090602
_cell_length_b 9.622752
_cell_length_c 11.124651
_cell_angle_alpha 67.129542
_cell_angle_beta 33.655952
_cell_angle_gamma 80.850694
_cell_volume 729.181812
_symmetry_space_group_name_H-M "P -1"
_symmetry_group_IT_number 2
_symmetry_cell_setting 'triclinic'
loop_
_space_group_symop_operation_xyz
x,y,z
-x,-y,-z
loop_
_atom_site_type_symbol
_atom_site_label
_atom_site_fract_x
_atom_site_fract_y
_atom_site_fract_z
Si Si1 0.875204 0.428335 0.380349
Si Si2 0.474167 0.819506 0.063044
Si Si3 0.357349 0.249586 0.867567
Si Si4 0.494006 0.646042 0.874025
Si Si5 0.265632 0.532998 0.933783
Si Si6 0.724030 0.268096 0.366618
Si Si7 0.978545 0.898449 0.885379
Si Si8 0.854457 0.761105 0.315981
O O1 0.727645 0.294555 0.655682
O O2 0.813492 0.419134 0.308745
O O3 0.916032 0.607562 0.326213
O O4 0.067327 0.399729 0.197341
O O5 0.624826 0.780876 0.998900
O O6 0.503969 0.794127 0.899769
O O7 0.500000 0.000000 0.000000
O O8 0.389072 0.440742 0.768508
O O9 0.511034 0.199087 0.649638
O O10 0.157199 0.149877 0.067511
O O11 0.317234 0.592746 0.994947
O O12 0.648240 0.706823 0.592081
O O13 0.500000 0.500000 0.000000
O O14 0.259257 0.679880 0.807228
O O15 0.833376 0.142264 0.314645
O O16 0.865517 0.807280 0.149085
O O17 0.026154 0.088495 0.783470
#
# Coordination Sequence:
#
# PCOD8031027 Si02
#       8
#     2   2   2   2   2   2   2   2
#     4  11  22  43  70 100 137 180 228 286 341 412
#     4  11  27  48  67  97 135 180 239 288 335 407
#     4  11  23  42  71 102 135 187 229 282 350 399
#     4  12  24  46  67  93 138 184 230 282 337 407
#     4  12  22  40  72 103 134 184 232 273 354 409
#     4  11  22  41  73 103 142 174 230 287 338 412
#     4  11  24  45  70 109 143 176 228 287 347 411
#     4  11  24  44  68 100 147 176 219 290 346 399
#
# _framework density 21.942402000000001
#
# number of rings (size 3 to 8) (size 9 to 14) (size 15 to 20)
#    0.000    0.750    5.000    3.000    3.500    1.500 
#    2.250    3.125    0.000    0.000    0.000    0.000 
#    0.000    0.000    0.000    0.000    0.000    0.000 
#
# Total GULP energy -198331.511663 kJ/mol
# GULP energy per Si atom -12395.719479 kJ/mol
# Density = 2.189246 g / cm^3
# Si number density = 21.942402 Si / 1000 Ang^3
#
#
#
# Elastic Constant Matrix: (Units=GPa)
#
#
# Indices 1 2 3 4 5 6 
#
# 1 120.8833 31.5977 30.5161 6.7565 -17.8989 9.3978
# 2 31.5977 141.5974 41.0543 -2.5481 -6.5318 11.0547
# 3 30.5161 41.0543 80.4806 4.2524 -5.7419 -10.0181
# 4 6.7565 -2.5481 4.2524 34.4905 1.8032 0.1659
# 5 -17.8989 -6.5318 -5.7419 1.8032 27.0829 3.0077
# 6 9.3978 11.0547 -10.0181 0.1659 3.0077 26.1521
#
#
#
# Elastic Compliance Matrix: (Units=1/GPa)
#
#
# Indices 1 2 3 4 5 6 
#
# 1 0.011092 -0.000517 -0.004087 -0.002052 0.007158 -0.006143
# 2 -0.000517 0.009239 -0.005227 0.001387 0.001340 -0.005885
# 3 -0.004087 -0.005227 0.017984 -0.001790 -0.001221 0.010719
# 4 -0.002052 0.001387 -0.001790 0.029896 -0.003354 -0.000339
# 5 0.007158 0.001340 -0.001221 -0.003354 0.042888 -0.008517
# 6 -0.006143 -0.005885 0.010719 -0.000339 -0.008517 0.048021
#
#
# Mechanical properties :
#
#
# Convention : Reuss Voigt Hill
#
# Bulk Modulus (GPa) = 53.61708 61.03304 57.32506
# Shear Modulus (GPa) = 27.02707 33.53131 30.27919
#
# Velocity S-wave (km/s) = 3.51341 3.91340 3.71878
# Velocity P-wave (km/s) = 6.39899 6.94947 6.67990
#
# Compressibility (1/GPa) = 0.01865077
#
# Stress axis : x y z
#
# Youngs Moduli (GPa) = 90.15868 108.23116 55.60622
#
# Poissons Ratio (x) = 0.05597 0.22729
# Poissons Ratio (y) = 0.04662 0.29067
# Poissons Ratio (z) = 0.36852 0.56576
#
# Static dielectric constant tensor:
#      x y z
#    x 4.106240 0.108190 -0.036570 
#    y 0.108190 4.157800 0.274760 
#    z -0.036570 0.274760 4.107970 
# 
# 
# High freq. dielectric constant tensor:
#      x y z
#    x 1.857840 0.010840 -0.007490 
#    y 0.010840 1.864790 0.011140 
#    z -0.007490 0.011140 1.860170 
# 
# From -- ./inp_files/447061.got.cif
#   From: 2010.06.25/outbox.cif.g09.slc.cpg/sg2_224_cif.got.tgz:447061.got - 2010.06.27 13:26:56.
