data_PCOD8031412
_publ_section_title
;
Structure prediction by ZEFSAII (Michael W. Deem and Ramdas Pophale) SiO2 
 PCOD8031412
Probable space group: P -1
;
_chemical_formula_sum "Si O2"
_cell_formula_units_Z 16
_cell_length_a 15.003300
_cell_length_b 8.539906
_cell_length_c 12.093384
_cell_angle_alpha 144.946670
_cell_angle_beta 52.665159
_cell_angle_gamma 128.301682
_cell_volume 681.292628
_symmetry_space_group_name_H-M "P -1"
_symmetry_group_IT_number 2
_symmetry_cell_setting 'triclinic'
loop_
_space_group_symop_operation_xyz
x,y,z
-x,-y,-z
loop_
_atom_site_type_symbol
_atom_site_label
_atom_site_fract_x
_atom_site_fract_y
_atom_site_fract_z
Si Si1 0.866498 0.394269 0.737365
Si Si2 0.368854 0.405875 0.281734
Si Si3 0.420443 0.226893 0.528047
Si Si4 0.219602 0.779361 0.520700
Si Si5 0.189671 0.016042 0.897803
Si Si6 0.561374 0.818495 0.105848
Si Si7 0.254258 0.220301 0.480624
Si Si8 0.941178 0.479318 0.153387
O O1 0.881643 0.348643 0.567763
O O2 0.971212 0.389923 0.737557
O O3 0.763563 0.117048 0.687401
O O4 0.835097 0.689653 0.943816
O O5 0.489863 0.577854 0.343720
O O6 0.309195 0.585838 0.350184
O O7 0.271882 0.279551 0.372449
O O8 0.398845 0.165788 0.043763
O O9 0.372842 0.384917 0.553452
O O10 0.302245 0.087074 0.604188
O O11 0.472289 0.998448 0.297422
O O12 0.151146 0.806779 0.700685
O O13 0.326390 0.053635 0.829157
O O14 0.119690 0.851735 0.961920
O O15 0.500000 0.500000 0.000000
O O16 0.149178 0.331519 0.671412
O O17 0.000000 0.500000 0.000000
#
# Coordination Sequence:
#
# PCOD8031412 Si02
#       8
#     2   2   2   2   2   2   2   2
#     4  11  27  48  74 104 138 189 245 297 361 418
#     4  12  22  42  73 103 149 190 228 294 360 432
#     4  11  23  41  67 106 148 189 234 282 362 434
#     4  11  22  43  74 104 144 188 236 299 348 433
#     4  12  25  48  75 110 143 186 247 293 357 431
#     4  12  22  39  71 111 144 186 234 285 358 435
#     4  11  26  50  67 106 148 192 237 298 362 426
#     4  12  29  51  75 103 144 193 245 308 359 412
#
# _framework density 23.484767999999999
#
# number of rings (size 3 to 8) (size 9 to 14) (size 15 to 20)
#    0.000    0.500    5.000    3.000    5.250    1.000 
#    2.250    0.000    0.000    0.000    0.000    0.000 
#    0.000    0.000    0.000    0.000    0.000    0.000 
#
# Total GULP energy -198334.071993 kJ/mol
# GULP energy per Si atom -12395.879500 kJ/mol
# Density = 2.343132 g / cm^3
# Si number density = 23.484768 Si / 1000 Ang^3
#
#
#
# Elastic Constant Matrix: (Units=GPa)
#
#
# Indices 1 2 3 4 5 6 
#
# 1 173.4950 28.6736 53.9955 -0.6769 17.7286 -4.2307
# 2 28.6736 74.7489 38.0181 -9.1758 5.1024 -3.3411
# 3 53.9955 38.0181 133.3217 -17.9469 8.7852 -9.5404
# 4 -0.6769 -9.1758 -17.9469 40.8555 -4.2925 4.1130
# 5 17.7286 5.1024 8.7852 -4.2925 40.5491 0.1495
# 6 -4.2307 -3.3411 -9.5404 4.1130 0.1495 27.5281
#
#
#
# Elastic Compliance Matrix: (Units=1/GPa)
#
#
# Indices 1 2 3 4 5 6 
#
# 1 0.007028 -0.001455 -0.002457 -0.001586 -0.002526 0.000303
# 2 -0.001455 0.016088 -0.003705 0.001905 -0.000384 0.000162
# 3 -0.002457 -0.003705 0.010181 0.003344 -0.000320 0.002203
# 4 -0.001586 0.001905 0.003344 0.026910 0.002588 -0.002888
# 5 -0.002526 -0.000384 -0.000320 0.002588 0.026162 -0.001074
# 6 0.000303 0.000162 0.002203 -0.002888 -0.001074 0.037594
#
#
# Mechanical properties :
#
#
# Convention : Reuss Voigt Hill
#
# Bulk Modulus (GPa) = 55.36006 69.21557 62.28782
# Shear Modulus (GPa) = 34.43111 39.17844 36.80477
#
# Velocity S-wave (km/s) = 3.83313 4.08885 3.96305
# Velocity P-wave (km/s) = 6.57377 7.19918 6.89357
#
# Compressibility (1/GPa) = 0.01806356
#
# Stress axis : x y z
#
# Youngs Moduli (GPa) = 142.28146 62.15805 98.22148
#
# Poissons Ratio (x) = 0.09045 0.24131
# Poissons Ratio (y) = 0.20704 0.36391
# Poissons Ratio (z) = 0.34956 0.23029
#
# Static dielectric constant tensor:
#      x y z
#    x 4.539140 -0.109990 0.234500 
#    y -0.109990 4.297190 -0.009600 
#    z 0.234500 -0.009600 4.220610 
# 
# 
# High freq. dielectric constant tensor:
#      x y z
#    x 1.947480 -0.005520 0.011180 
#    y -0.005520 1.929140 -0.004690 
#    z 0.011180 -0.004690 1.923940 
# 
# From -- ./inp_files/448308.got.cif
#   From: 2010.06.25/outbox.cif.g09.slc.cpg/sg2_225_cif.got.tgz:448308.got - 2010.06.27 13:26:56.
