data_PCOD8031980
_publ_section_title
;
Structure prediction by ZEFSAII (Michael W. Deem and Ramdas Pophale) SiO2 
 PCOD8031980
Probable space group: P -1
;
_chemical_formula_sum "Si O2"
_cell_formula_units_Z 12
_cell_length_a 9.480944
_cell_length_b 18.802944
_cell_length_c 5.085175
_cell_angle_alpha 78.707846
_cell_angle_beta 101.971992
_cell_angle_gamma 43.431368
_cell_volume 522.552498
_symmetry_space_group_name_H-M "P -1"
_symmetry_group_IT_number 2
_symmetry_cell_setting 'triclinic'
loop_
_space_group_symop_operation_xyz
x,y,z
-x,-y,-z
loop_
_atom_site_type_symbol
_atom_site_label
_atom_site_fract_x
_atom_site_fract_y
_atom_site_fract_z
Si Si1 0.743637 0.948730 0.643027
Si Si2 0.340399 0.849856 0.478514
Si Si3 0.911886 0.476758 0.774241
Si Si4 0.489921 0.455108 0.278026
Si Si5 0.369128 0.299821 0.805578
Si Si6 0.947701 0.170638 0.650006
O O1 0.920538 0.856593 0.542481
O O2 0.500000 0.000000 0.500000
O O3 0.705027 0.050239 0.522724
O O4 0.875137 0.876892 0.015466
O O5 0.510122 0.788460 0.331830
O O6 0.103391 0.896232 0.294477
O O7 0.452937 0.762021 0.835282
O O8 0.775066 0.472060 0.890800
O O9 0.724480 0.584082 0.409243
O O10 0.134909 0.351308 0.790899
O O11 0.000000 0.500000 0.000000
O O12 0.500000 0.500000 0.500000
O O13 0.693792 0.312137 0.471792
O O14 0.500000 0.500000 0.000000
#
# Coordination Sequence:
#
# PCOD8031980 Si02
#       6
#     2   2   2   2   2   2
#     4  12  28  48  72 105 139 180 236 298 361 410
#     4  12  24  45  76 104 136 188 240 283 349 419
#     4  11  24  45  69 103 144 190 235 284 342 421
#     4  12  29  45  71 107 147 188 232 285 358 416
#     4  11  23  39  74 104 140 179 241 285 336 408
#     4  12  25  50  72  99 142 187 235 291 343 425
#
# _framework density 22.964198
#
# number of rings (size 3 to 8) (size 9 to 14) (size 15 to 20)
#    0.000    0.333    3.333    4.500    7.000    4.000 
#    0.000    0.000    0.000    0.000    0.000    0.000 
#    0.000    0.000    0.000    0.000    0.000    0.000 
#
# Total GULP energy -148788.758599 kJ/mol
# GULP energy per Si atom -12399.063217 kJ/mol
# Density = 2.291193 g / cm^3
# Si number density = 22.964198 Si / 1000 Ang^3
#
#
#
# Elastic Constant Matrix: (Units=GPa)
#
#
# Indices 1 2 3 4 5 6 
#
# 1 170.3292 49.3800 42.8202 13.4645 6.1891 -7.7400
# 2 49.3800 102.1458 24.5804 27.1403 3.7209 -19.6033
# 3 42.8202 24.5804 121.3011 32.4469 5.3192 -1.1194
# 4 13.4645 27.1403 32.4469 37.1046 -3.9866 -4.2323
# 5 6.1891 3.7209 5.3192 -3.9866 29.4040 3.6144
# 6 -7.7400 -19.6033 -1.1194 -4.2323 3.6144 40.5700
#
#
#
# Elastic Compliance Matrix: (Units=1/GPa)
#
#
# Indices 1 2 3 4 5 6 
#
# 1 0.007339 -0.003493 -0.002379 0.001916 -0.000398 -0.000118
# 2 -0.003493 0.015304 0.001203 -0.010685 -0.003601 0.005968
# 3 -0.002379 0.001203 0.011860 -0.010776 -0.003211 -0.000384
# 4 0.001916 -0.010685 -0.010776 0.044323 0.009065 -0.001279
# 5 -0.000398 -0.003601 -0.003211 0.009065 0.036880 -0.004245
# 6 -0.000118 0.005968 -0.000384 -0.001279 -0.004245 0.027744
#
#
# Mechanical properties :
#
#
# Convention : Reuss Voigt Hill
#
# Bulk Modulus (GPa) = 39.73638 69.70413 54.72026
# Shear Modulus (GPa) = 31.02168 39.88210 35.45189
#
# Velocity S-wave (km/s) = 3.67941 4.17190 3.93337
# Velocity P-wave (km/s) = 5.94911 7.32295 6.67149
#
# Compressibility (1/GPa) = 0.02516585
#
# Stress axis : x y z
#
# Youngs Moduli (GPa) = 136.25265 65.34026 84.31795
#
# Poissons Ratio (x) = 0.22821 0.20060
# Poissons Ratio (y) = 0.47587 -0.10142
# Poissons Ratio (z) = 0.32416 -0.07859
#
# Static dielectric constant tensor:
#      x y z
#    x 4.201190 -0.322580 0.009640 
#    y -0.322580 4.345910 0.030410 
#    z 0.009640 0.030410 4.418710 
# 
# 
# High freq. dielectric constant tensor:
#      x y z
#    x 1.907570 -0.025450 0.000560 
#    y -0.025450 1.911970 0.013170 
#    z 0.000560 0.013170 1.922570 
# 
# From -- ./inp_files/43735.got.cif
#   From: 2010.06.25/outbox.cif.g09.slc.cpg/sg2_22_cif.got.tgz:43735.got - 2010.06.27 13:26:56.
