data_PCOD8031417
_publ_section_title
;
Structure prediction by ZEFSAII (Michael W. Deem and Ramdas Pophale) SiO2 
 PCOD8031417
Probable space group: P -1
;
_chemical_formula_sum "Si O2"
_cell_formula_units_Z 16
_cell_length_a 14.021737
_cell_length_b 11.704856
_cell_length_c 12.559365
_cell_angle_alpha 105.654905
_cell_angle_beta 78.871116
_cell_angle_gamma 159.456947
_cell_volume 685.546717
_symmetry_space_group_name_H-M "P -1"
_symmetry_group_IT_number 2
_symmetry_cell_setting 'triclinic'
loop_
_space_group_symop_operation_xyz
x,y,z
-x,-y,-z
loop_
_atom_site_type_symbol
_atom_site_label
_atom_site_fract_x
_atom_site_fract_y
_atom_site_fract_z
Si Si1 0.105670 0.532962 0.397406
Si Si2 0.503663 0.882006 0.673344
Si Si3 0.115287 0.789715 0.850359
Si Si4 0.951864 0.756239 0.523539
Si Si5 0.265438 0.086176 0.341352
Si Si6 0.152753 0.204909 0.709522
Si Si7 0.465391 0.911961 0.101658
Si Si8 0.208725 0.169925 0.922774
O O1 0.102304 0.397494 0.409267
O O2 0.000000 0.500000 0.500000
O O3 0.908436 0.306840 0.280532
O O4 0.404454 0.921851 0.391059
O O5 0.280377 0.532827 0.588883
O O6 0.748600 0.074010 0.710910
O O7 0.392392 0.832185 0.783216
O O8 0.856587 0.467033 0.899848
O O9 0.390502 0.052775 0.912394
O O10 0.120957 0.935032 0.863520
O O11 0.236073 0.071685 0.473169
O O12 0.945021 0.876344 0.611395
O O13 0.555726 0.465663 0.330435
O O14 0.011548 0.857814 0.274602
O O15 0.215589 0.243559 0.827009
O O16 0.500000 0.000000 0.000000
O O17 0.500000 0.500000 0.000000
O O18 0.000000 0.000000 0.000000
#
# Coordination Sequence:
#
# PCOD8031417 Si02
#       8
#     2   2   2   2   2   2   2   2
#     4  11  22  43  74 108 144 191 236 299 364 428
#     4  11  26  43  72 111 144 190 243 295 359 441
#     4  11  25  49  73 106 143 185 241 304 355 429
#     4  12  24  46  71 102 151 185 245 294 364 433
#     4  12  26  45  71 106 151 187 240 291 362 438
#     4  12  28  47  73 106 142 197 237 304 365 418
#     4  11  26  47  74 103 147 184 236 290 372 427
#     4  12  27  52  76 107 139 191 253 300 357 424
#
# _framework density 23.339037000000001
#
# number of rings (size 3 to 8) (size 9 to 14) (size 15 to 20)
#    0.000    0.500    3.750    3.750    3.500    4.000 
#    4.500    0.000    0.000    0.000    0.000    0.000 
#    0.000    0.000    0.000    0.000    0.000    0.000 
#
# Total GULP energy -198323.910775 kJ/mol
# GULP energy per Si atom -12395.244423 kJ/mol
# Density = 2.328592 g / cm^3
# Si number density = 23.339037 Si / 1000 Ang^3
#
#
#
# Elastic Constant Matrix: (Units=GPa)
#
#
# Indices 1 2 3 4 5 6 
#
# 1 147.3964 44.3312 49.1313 -24.3587 14.3936 6.1993
# 2 44.3312 118.3000 71.0518 -20.0391 5.6150 3.2702
# 3 49.1313 71.0518 138.6586 -30.6954 10.0774 -6.0088
# 4 -24.3587 -20.0391 -30.6954 34.1635 -5.1534 5.0890
# 5 14.3936 5.6150 10.0774 -5.1534 40.1916 -5.9741
# 6 6.1993 3.2702 -6.0088 5.0890 -5.9741 38.0584
#
#
#
# Elastic Compliance Matrix: (Units=1/GPa)
#
#
# Indices 1 2 3 4 5 6 
#
# 1 0.008713 -0.001622 -0.001276 0.004111 -0.002405 -0.002408
# 2 -0.001622 0.012818 -0.005755 0.001499 0.000139 -0.001924
# 3 -0.001276 -0.005755 0.012121 0.006247 -0.000730 0.001666
# 4 0.004111 0.001499 0.006247 0.039594 0.001095 -0.004934
# 5 -0.002405 0.000139 -0.000730 0.001095 0.026686 0.004307
# 6 -0.002408 -0.001924 0.001666 -0.004934 0.004307 0.028432
#
#
# Mechanical properties :
#
#
# Convention : Reuss Voigt Hill
#
# Bulk Modulus (GPa) = 61.17504 81.48709 71.33106
# Shear Modulus (GPa) = 33.08643 38.47208 35.77926
#
# Velocity S-wave (km/s) = 3.76925 4.06445 3.91963
# Velocity P-wave (km/s) = 6.72394 7.55094 7.14941
#
# Compressibility (1/GPa) = 0.01634654
#
# Stress axis : x y z
#
# Youngs Moduli (GPa) = 114.77199 78.01558 82.49913
#
# Poissons Ratio (x) = 0.12652 0.10526
# Poissons Ratio (y) = 0.18613 0.47481
# Poissons Ratio (z) = 0.14643 0.44900
#
# Static dielectric constant tensor:
#      x y z
#    x 5.867170 -0.843620 0.401480 
#    y -0.843620 4.685760 -0.243250 
#    z 0.401480 -0.243250 4.233130 
# 
# 
# High freq. dielectric constant tensor:
#      x y z
#    x 1.941100 -0.011590 0.004110 
#    y -0.011590 1.926300 -0.016540 
#    z 0.004110 -0.016540 1.922820 
# 
# From -- ./inp_files/452480.got.cif
#   From: 2010.06.25/outbox.cif.g09.slc.cpg/sg2_227_cif.got.tgz:452480.got - 2010.06.27 13:26:56.
