data_PCOD8031243
_publ_section_title
;
Structure prediction by ZEFSAII (Michael W. Deem and Ramdas Pophale) SiO2 
 PCOD8031243
Probable space group: P -1
;
_chemical_formula_sum "Si O2"
_cell_formula_units_Z 16
_cell_length_a 10.026492
_cell_length_b 26.871512
_cell_length_c 21.181046
_cell_angle_alpha 11.643416
_cell_angle_beta 37.031127
_cell_angle_gamma 36.524074
_cell_volume 682.461325
_symmetry_space_group_name_H-M "P -1"
_symmetry_group_IT_number 2
_symmetry_cell_setting 'triclinic'
loop_
_space_group_symop_operation_xyz
x,y,z
-x,-y,-z
loop_
_atom_site_type_symbol
_atom_site_label
_atom_site_fract_x
_atom_site_fract_y
_atom_site_fract_z
Si Si1 0.107222 0.709977 0.737074
Si Si2 0.297615 0.330156 0.749510
Si Si3 0.021287 0.421155 0.333886
Si Si4 0.372645 0.967576 0.758379
Si Si5 0.489695 0.798379 0.388554
Si Si6 0.763454 0.211869 0.271375
Si Si7 0.597103 0.523821 0.296903
Si Si8 0.893184 0.427311 0.695130
O O1 0.311953 0.767134 0.547505
O O2 0.198457 0.647038 0.852078
O O3 0.927405 0.957570 0.508047
O O4 0.000000 0.500000 0.000000
O O5 0.463537 0.485106 0.459378
O O6 0.166844 0.498454 0.643452
O O7 0.097984 0.279503 0.842237
O O8 0.451294 0.084325 0.025542
O O9 0.866965 0.442028 0.302686
O O10 0.148156 0.145960 0.646872
O O11 0.206554 0.598812 0.032214
O O12 0.515022 0.141132 0.449780
O O13 0.529724 0.822764 0.934815
O O14 0.284970 0.760729 0.006275
O O15 0.475846 0.638478 0.529630
O O16 0.744012 0.687552 0.456439
O O17 0.000000 0.500000 0.500000
#
# Coordination Sequence:
#
# PCOD8031243 Si02
#       8
#     2   2   2   2   2   2   2   2
#     4  11  22  42  76 105 140 193 238 295 361 422
#     4  12  25  42  69 105 137 183 235 285 357 426
#     4  12  26  44  69 103 144 187 234 289 361 428
#     4  11  25  45  72  96 141 191 230 295 363 408
#     4  11  23  42  72  99 137 179 234 289 354 417
#     4  11  24  47  67 105 151 181 243 299 350 428
#     4  11  24  44  69 102 136 183 232 294 355 423
#     4  11  24  46  69 104 139 184 238 296 353 426
#
# _framework density 23.444552000000002
#
# number of rings (size 3 to 8) (size 9 to 14) (size 15 to 20)
#    0.000    0.750    3.750    5.625    3.500    0.500 
#    0.000    0.625    0.000    0.000    0.000    0.000 
#    0.000    0.000    0.000    0.000    0.000    0.000 
#
# Total GULP energy -198238.936684 kJ/mol
# GULP energy per Si atom -12389.933543 kJ/mol
# Density = 2.339119 g / cm^3
# Si number density = 23.444552 Si / 1000 Ang^3
#
#
#
# Elastic Constant Matrix: (Units=GPa)
#
#
# Indices 1 2 3 4 5 6 
#
# 1 151.3402 -46.2736 95.6152 -9.9221 -29.9851 -29.2809
# 2 -46.2736 199.7328 6.1943 0.9514 24.8194 4.8500
# 3 95.6152 6.1943 115.6968 -16.3234 -14.1455 -24.5684
# 4 -9.9221 0.9514 -16.3234 50.1130 -10.5511 5.3746
# 5 -29.9851 24.8194 -14.1455 -10.5511 34.7612 6.0404
# 6 -29.2809 4.8500 -24.5684 5.3746 6.0404 41.5230
#
#
#
# Elastic Compliance Matrix: (Units=1/GPa)
#
#
# Indices 1 2 3 4 5 6 
#
# 1 0.018765 0.003804 -0.014082 0.000214 0.007218 0.003379
# 2 0.003804 0.006445 -0.004070 -0.001444 -0.003451 0.000211
# 3 -0.014082 -0.004070 0.021725 0.004142 0.000368 0.002810
# 4 0.000214 -0.001444 0.004142 0.023766 0.010431 -0.001824
# 5 0.007218 -0.003451 0.000368 0.010431 0.041055 -0.001611
# 6 0.003379 0.000211 0.002810 -0.001824 -0.001611 0.028574
#
#
# Mechanical properties :
#
#
# Convention : Reuss Voigt Hill
#
# Bulk Modulus (GPa) = 54.82393 64.20462 59.51428
# Shear Modulus (GPa) = 28.55435 52.69503 40.62469
#
# Velocity S-wave (km/s) = 3.49370 4.74608 4.16721
# Velocity P-wave (km/s) = 6.30158 7.58148 6.97097
#
# Compressibility (1/GPa) = 0.01824021
#
# Stress axis : x y z
#
# Youngs Moduli (GPa) = 53.28933 155.16177 46.03018
#
# Poissons Ratio (x) = -0.59027 0.64819
# Poissons Ratio (y) = -0.20272 0.18734
# Poissons Ratio (z) = 0.75041 0.63150
#
# Static dielectric constant tensor:
#      x y z
#    x 5.593300 -0.644180 0.567950 
#    y -0.644180 4.765270 -0.302090 
#    z 0.567950 -0.302090 4.555580 
# 
# 
# High freq. dielectric constant tensor:
#      x y z
#    x 1.922100 -0.016050 0.005040 
#    y -0.016050 1.949500 0.001420 
#    z 0.005040 0.001420 1.927730 
# 
# From -- ./inp_files/611046.got.cif
#   From: 2010.06.25/outbox.cif.g09.slc.cpg/sg2_306_cif.got.tgz:611046.got - 2010.06.27 13:26:56.
