data_PCOD8031910
_publ_section_title
;
Structure prediction by ZEFSAII (Michael W. Deem and Ramdas Pophale) SiO2 
 PCOD8031910
Probable space group: P -1
;
_chemical_formula_sum "Si O2"
_cell_formula_units_Z 16
_cell_length_a 17.230343
_cell_length_b 20.633954
_cell_length_c 11.940189
_cell_angle_alpha 147.701085
_cell_angle_beta 139.556234
_cell_angle_gamma 19.335295
_cell_volume 734.822467
_symmetry_space_group_name_H-M "P -1"
_symmetry_group_IT_number 2
_symmetry_cell_setting 'triclinic'
loop_
_space_group_symop_operation_xyz
x,y,z
-x,-y,-z
loop_
_atom_site_type_symbol
_atom_site_label
_atom_site_fract_x
_atom_site_fract_y
_atom_site_fract_z
Si Si1 0.855366 0.688309 0.912185
Si Si2 0.133098 0.765760 0.032225
Si Si3 0.923532 0.901561 0.242369
Si Si4 0.372365 0.615913 0.409626
Si Si5 0.380362 0.789175 0.280997
Si Si6 0.445870 0.985678 0.743198
Si Si7 0.334322 0.834031 0.038587
Si Si8 0.403823 0.160319 0.731772
O O1 0.835343 0.844002 0.077349
O O2 0.758510 0.766456 0.047033
O O3 0.687226 0.757105 0.746611
O O4 0.117885 0.402518 0.775270
O O5 0.211850 0.836750 0.221747
O O6 0.056128 0.798253 0.118887
O O7 0.344442 0.492559 0.825800
O O8 0.922243 0.927951 0.950883
O O9 0.116160 0.770737 0.358241
O O10 0.685545 0.194928 0.413525
O O11 0.500000 0.500000 0.500000
O O12 0.550973 0.399319 0.198523
O O13 0.347366 0.940456 0.535624
O O14 0.297103 0.887428 0.206524
O O15 0.510584 0.009638 0.741615
O O16 0.515514 0.771681 0.091388
O O17 0.500000 0.000000 0.500000
#
# Coordination Sequence:
#
# PCOD8031910 Si02
#       8
#     2   2   2   2   2   2   2   2
#     4  11  26  48  69 101 139 177 232 284 336 408
#     4  11  24  41  66  97 136 172 224 278 337 400
#     4  11  23  42  69  96 131 176 220 281 333 398
#     4  11  23  38  64 100 127 167 219 271 341 390
#     4  11  25  43  63  96 137 179 218 281 336 406
#     4  11  27  45  70  99 136 186 228 279 345 399
#     4  12  23  44  65 100 132 175 228 278 337 405
#     4  12  25  45  72 100 136 179 229 285 338 400
#
# _framework density 21.773966999999999
#
# number of rings (size 3 to 8) (size 9 to 14) (size 15 to 20)
#    0.000    0.750    5.000    1.500    5.250    0.500 
#    0.000    2.500    0.000    0.000    0.000    0.000 
#    0.000    0.000    0.000    0.000    0.000    0.000 
#
# Total GULP energy -198493.350711 kJ/mol
# GULP energy per Si atom -12405.834419 kJ/mol
# Density = 2.172441 g / cm^3
# Si number density = 21.773967 Si / 1000 Ang^3
#
#
#
# Elastic Constant Matrix: (Units=GPa)
#
#
# Indices 1 2 3 4 5 6 
#
# 1 86.1808 10.1931 18.6269 -7.3808 -11.7333 7.1854
# 2 10.1931 136.7195 33.4401 -6.4240 -21.8202 7.7718
# 3 18.6269 33.4401 93.9360 -11.2060 -19.0065 8.5122
# 4 -7.3808 -6.4240 -11.2060 29.6934 -0.6799 -5.4048
# 5 -11.7333 -21.8202 -19.0065 -0.6799 32.3710 0.7617
# 6 7.1854 7.7718 8.5122 -5.4048 0.7617 29.8646
#
#
#
# Elastic Compliance Matrix: (Units=1/GPa)
#
#
# Indices 1 2 3 4 5 6 
#
# 1 0.012831 0.000280 -0.001284 0.002413 0.004194 -0.002464
# 2 0.000280 0.008683 -0.001871 0.001040 0.004919 -0.001731
# 3 -0.001284 -0.001871 0.013573 0.004090 0.006387 -0.002495
# 4 0.002413 0.001040 0.004090 0.036982 0.004647 0.004557
# 5 0.004194 0.004919 0.006387 0.004647 0.039676 -0.004281
# 6 -0.002464 -0.001731 -0.002495 0.004557 -0.004281 0.036173
#
#
# Mechanical properties :
#
#
# Convention : Reuss Voigt Hill
#
# Bulk Modulus (GPa) = 34.08554 49.03961 41.56257
# Shear Modulus (GPa) = 30.59106 35.35755 32.97430
#
# Velocity S-wave (km/s) = 3.75232 4.03407 3.89574
# Velocity P-wave (km/s) = 5.87038 6.65352 6.27418
#
# Compressibility (1/GPa) = 0.02933796
#
# Stress axis : x y z
#
# Youngs Moduli (GPa) = 77.93558 115.16523 73.67814
#
# Poissons Ratio (x) = -0.03229 0.09463
# Poissons Ratio (y) = -0.02185 0.13782
# Poissons Ratio (z) = 0.10009 0.21542
#
# Static dielectric constant tensor:
#      x y z
#    x 3.946750 0.061040 -0.010170 
#    y 0.061040 4.064660 -0.042320 
#    z -0.010170 -0.042320 3.989910 
# 
# 
# High freq. dielectric constant tensor:
#      x y z
#    x 1.852590 0.005400 -0.005210 
#    y 0.005400 1.867810 -0.002980 
#    z -0.005210 -0.002980 1.862400 
# 
# From -- ./inp_files/467190.got.cif
#   From: 2010.06.25/outbox.cif.g09.slc.cpg/sg2_234_cif.got.tgz:467190.got - 2010.06.27 13:26:56.
