data_PCOD8031772
_publ_section_title
;
Structure prediction by ZEFSAII (Michael W. Deem and Ramdas Pophale) SiO2 
 PCOD8031772
Probable space group: P -1
;
_chemical_formula_sum "Si O2"
_cell_formula_units_Z 16
_cell_length_a 16.453266
_cell_length_b 11.197866
_cell_length_c 9.084868
_cell_angle_alpha 115.502092
_cell_angle_beta 96.827612
_cell_angle_gamma 139.021688
_cell_volume 655.256630
_symmetry_space_group_name_H-M "P -1"
_symmetry_group_IT_number 2
_symmetry_cell_setting 'triclinic'
loop_
_space_group_symop_operation_xyz
x,y,z
-x,-y,-z
loop_
_atom_site_type_symbol
_atom_site_label
_atom_site_fract_x
_atom_site_fract_y
_atom_site_fract_z
Si Si1 0.197221 0.959233 0.813465
Si Si2 0.060968 0.218844 0.053293
Si Si3 0.636163 0.980946 0.580769
Si Si4 0.183897 0.689847 0.488122
Si Si5 0.294384 0.400964 0.998623
Si Si6 0.704416 0.813713 0.639709
Si Si7 0.412936 0.579420 0.785631
Si Si8 0.390611 0.764234 0.634677
O O1 0.180200 0.839882 0.603329
O O2 0.011441 0.667339 0.713230
O O3 0.215841 0.137324 0.857857
O O4 0.376248 0.170012 0.057309
O O5 0.143031 0.293969 0.951139
O O6 0.214974 0.503521 0.345464
O O7 0.873248 0.035044 0.907921
O O8 0.000000 0.000000 0.000000
O O9 0.743816 0.017494 0.699123
O O10 0.573088 0.991749 0.700605
O O11 0.775094 0.262668 0.653269
O O12 0.465357 0.666111 0.288814
O O13 0.359773 0.877157 0.721078
O O14 0.360341 0.526294 0.914759
O O15 0.500000 0.500000 0.500000
O O16 0.724717 0.733388 0.473462
O O17 0.377986 0.661740 0.726278
#
# Coordination Sequence:
#
# PCOD8031772 Si02
#       8
#     2   2   2   2   2   2   2   2
#     4  11  24  43  69  98 141 179 225 284 331 405
#     4  11  23  43  65 105 136 173 219 289 339 395
#     4  11  22  46  71 102 131 181 229 282 334 407
#     4  11  25  45  65  99 141 188 221 269 346 406
#     4  11  23  44  75 100 136 173 235 285 338 391
#     4  12  23  40  73 106 135 169 228 286 348 390
#     4  12  23  42  69 107 130 183 224 287 337 401
#     4  11  25  42  70  96 143 180 224 278 340 406
#
# _framework density 24.417914
#
# number of rings (size 3 to 8) (size 9 to 14) (size 15 to 20)
#    0.000    0.750    5.000    3.000    1.750    1.000 
#    4.500    3.750    0.000    0.000    0.000    0.000 
#    0.000    0.000    0.000    0.000    0.000    0.000 
#
# Total GULP energy -198307.646237 kJ/mol
# GULP energy per Si atom -12394.227890 kJ/mol
# Density = 2.436234 g / cm^3
# Si number density = 24.417914 Si / 1000 Ang^3
#
#
#
# Elastic Constant Matrix: (Units=GPa)
#
#
# Indices 1 2 3 4 5 6 
#
# 1 124.2701 59.9731 27.8971 -9.1503 26.7498 -0.0920
# 2 59.9731 156.3330 31.1363 -1.4760 18.3374 -6.9160
# 3 27.8971 31.1363 67.8997 -8.4537 17.8307 2.2287
# 4 -9.1503 -1.4760 -8.4537 28.4873 -1.6390 4.5134
# 5 26.7498 18.3374 17.8307 -1.6390 46.2042 -5.4551
# 6 -0.0920 -6.9160 2.2287 4.5134 -5.4551 36.1362
#
#
#
# Elastic Compliance Matrix: (Units=1/GPa)
#
#
# Indices 1 2 3 4 5 6 
#
# 1 0.011301 -0.003561 -0.001343 0.003039 -0.004699 -0.001659
# 2 -0.003561 0.008368 -0.002646 -0.001812 -0.000070 0.001971
# 3 -0.001343 -0.002646 0.018704 0.005160 -0.005579 -0.003150
# 4 0.003039 -0.001812 0.005160 0.038300 -0.002358 -0.005797
# 5 -0.004699 -0.000070 -0.005579 -0.002358 0.027014 0.004691
# 6 -0.001659 0.001971 -0.003150 -0.005797 0.004691 0.029673
#
#
# Mechanical properties :
#
#
# Convention : Reuss Voigt Hill
#
# Bulk Modulus (GPa) = 42.97059 65.16841 54.06950
# Shear Modulus (GPa) = 32.00633 37.46529 34.73581
#
# Velocity S-wave (km/s) = 3.62439 3.92131 3.77577
# Velocity P-wave (km/s) = 5.92884 6.87379 6.41872
#
# Compressibility (1/GPa) = 0.02327173
#
# Stress axis : x y z
#
# Youngs Moduli (GPa) = 88.48485 119.50071 53.46511
#
# Poissons Ratio (x) = 0.42560 0.07182
# Poissons Ratio (y) = 0.31513 0.14147
# Poissons Ratio (z) = 0.11886 0.31621
#
# Static dielectric constant tensor:
#      x y z
#    x 4.483870 0.075380 -0.074420 
#    y 0.075380 4.344670 -0.011060 
#    z -0.074420 -0.011060 4.242300 
# 
# 
# High freq. dielectric constant tensor:
#      x y z
#    x 2.001560 0.005670 -0.012560 
#    y 0.005670 1.969870 0.000580 
#    z -0.012560 0.000580 1.959560 
# 
# From -- ./inp_files/332276.got.cif
#   From: 2010.06.25/outbox.cif.g09.slc.cpg/sg2_167_cif.got.tgz:332276.got - 2010.06.27 13:26:56.
