data_PCOD8031633
_publ_section_title
;
Structure prediction by ZEFSAII (Michael W. Deem and Ramdas Pophale) SiO2 
 PCOD8031633
Probable space group: P -1
;
_chemical_formula_sum "Si O2"
_cell_formula_units_Z 16
_cell_length_a 11.050524
_cell_length_b 8.418491
_cell_length_c 14.974101
_cell_angle_alpha 126.271032
_cell_angle_beta 72.434202
_cell_angle_gamma 137.675367
_cell_volume 732.241294
_symmetry_space_group_name_H-M "P -1"
_symmetry_group_IT_number 2
_symmetry_cell_setting 'triclinic'
loop_
_space_group_symop_operation_xyz
x,y,z
-x,-y,-z
loop_
_atom_site_type_symbol
_atom_site_label
_atom_site_fract_x
_atom_site_fract_y
_atom_site_fract_z
Si Si1 0.662850 0.329152 0.836004
Si Si2 0.788247 0.480562 0.549130
Si Si3 0.398527 0.927916 0.907019
Si Si4 0.968271 0.310263 0.021984
Si Si5 0.559036 0.448119 0.290502
Si Si6 0.177112 0.918976 0.530422
Si Si7 0.233913 0.263785 0.198721
Si Si8 0.442283 0.177737 0.408679
O O1 0.672011 0.532623 0.841059
O O2 0.864852 0.497520 0.881804
O O3 0.529774 0.214587 0.912228
O O4 0.573939 0.054397 0.707430
O O5 0.765234 0.223440 0.486900
O O6 0.831506 0.643576 0.686028
O O7 0.598776 0.349848 0.508022
O O8 0.957027 0.706067 0.516863
O O9 0.210766 0.834740 0.929281
O O10 0.355502 0.670144 0.783862
O O11 0.500000 0.000000 0.000000
O O12 0.000000 0.500000 0.000000
O O13 0.943230 0.064750 0.902565
O O14 0.378437 0.273001 0.211660
O O15 0.497171 0.397638 0.392492
O O16 0.712934 0.784614 0.342996
O O17 0.243259 0.003260 0.440392
#
# Coordination Sequence:
#
# PCOD8031633 Si02
#       8
#     2   2   2   2   2   2   2   2
#     4  11  25  44  72  98 137 177 220 281 332 399
#     4  11  25  42  68  99 135 176 223 276 329 401
#     4  11  23  47  68 101 131 177 228 274 333 397
#     4  12  25  46  72  95 137 174 224 280 333 395
#     4  11  24  42  70  98 137 180 218 278 336 395
#     4  11  23  42  66  97 133 176 221 274 331 397
#     4  12  24  46  68 101 136 179 222 276 342 390
#     4  11  22  45  66  97 137 176 221 272 335 389
#
# _framework density 21.850721
#
# number of rings (size 3 to 8) (size 9 to 14) (size 15 to 20)
#    0.000    0.750    5.000    2.625    1.750    3.000 
#    2.250    0.000    0.000    0.000    0.000    0.000 
#    0.000    0.000    0.000    0.000    0.000    0.000 
#
# Total GULP energy -198477.452487 kJ/mol
# GULP energy per Si atom -12404.840780 kJ/mol
# Density = 2.180099 g / cm^3
# Si number density = 21.850721 Si / 1000 Ang^3
#
#
#
# Elastic Constant Matrix: (Units=GPa)
#
#
# Indices 1 2 3 4 5 6 
#
# 1 78.3018 47.3191 24.7344 -7.5167 1.8095 1.5480
# 2 47.3191 172.0683 52.8463 -10.0722 -6.1771 -3.0527
# 3 24.7344 52.8463 91.7705 -2.7985 -7.8133 -3.4888
# 4 -7.5167 -10.0722 -2.7985 41.2136 -7.3007 -6.4232
# 5 1.8095 -6.1771 -7.8133 -7.3007 28.1103 0.6791
# 6 1.5480 -3.0527 -3.4888 -6.4232 0.6791 41.0294
#
#
#
# Elastic Compliance Matrix: (Units=1/GPa)
#
#
# Indices 1 2 3 4 5 6 
#
# 1 0.015925 -0.003670 -0.002350 0.001344 -0.002116 -0.000828
# 2 -0.003670 0.008022 -0.003445 0.001403 0.001391 0.000639
# 3 -0.002350 -0.003445 0.013849 0.000418 0.003327 0.001020
# 4 0.001344 0.001403 0.000418 0.026805 0.007199 0.004166
# 5 -0.002116 0.001391 0.003327 0.007199 0.038788 0.000951
# 6 -0.000828 0.000639 0.001020 0.004166 0.000951 0.025175
#
#
# Mechanical properties :
#
#
# Convention : Reuss Voigt Hill
#
# Bulk Modulus (GPa) = 53.00155 65.77113 59.38634
# Shear Modulus (GPa) = 32.51356 36.55338 34.53347
#
# Velocity S-wave (km/s) = 3.86163 4.09451 3.97977
# Velocity P-wave (km/s) = 6.64769 7.24699 6.95380
#
# Compressibility (1/GPa) = 0.01886737
#
# Stress axis : x y z
#
# Youngs Moduli (GPa) = 62.79296 124.65209 72.20881
#
# Poissons Ratio (x) = 0.45745 0.16966
# Poissons Ratio (y) = 0.23044 0.24877
# Poissons Ratio (z) = 0.14754 0.42944
#
# Static dielectric constant tensor:
#      x y z
#    x 3.718030 -0.070430 -0.063380 
#    y -0.070430 4.279530 -0.006690 
#    z -0.063380 -0.006690 4.162020 
# 
# 
# High freq. dielectric constant tensor:
#      x y z
#    x 1.844370 -0.010220 -0.010320 
#    y -0.010220 1.875480 0.004190 
#    z -0.010320 0.004190 1.871790 
# 
# From -- ./inp_files/515212.got.cif
#   From: 2010.06.25/outbox.cif.g09.slc.cpg/sg2_258_cif.got.tgz:515212.got - 2010.06.27 13:26:56.
