data_PCOD8031109
_publ_section_title
;
Structure prediction by ZEFSAII (Michael W. Deem and Ramdas Pophale) SiO2 
 PCOD8031109
Probable space group: P -1
;
_chemical_formula_sum "Si O2"
_cell_formula_units_Z 16
_cell_length_a 14.347227
_cell_length_b 9.359046
_cell_length_c 15.237319
_cell_angle_alpha 130.887394
_cell_angle_beta 152.751025
_cell_angle_gamma 52.015344
_cell_volume 704.877505
_symmetry_space_group_name_H-M "P -1"
_symmetry_group_IT_number 2
_symmetry_cell_setting 'triclinic'
loop_
_space_group_symop_operation_xyz
x,y,z
-x,-y,-z
loop_
_atom_site_type_symbol
_atom_site_label
_atom_site_fract_x
_atom_site_fract_y
_atom_site_fract_z
Si Si1 0.084502 0.713686 0.896154
Si Si2 0.224476 0.117401 0.154307
Si Si3 0.433295 0.821611 0.426731
Si Si4 0.676041 0.104620 0.232684
Si Si5 0.873071 0.664667 0.513034
Si Si6 0.029660 0.719811 0.129381
Si Si7 0.094603 0.981279 0.437181
Si Si8 0.497303 0.526757 0.220903
O O1 0.917132 0.739601 0.843160
O O2 0.975869 0.678802 0.699846
O O3 0.260974 0.540533 0.994324
O O4 0.208267 0.898788 0.074708
O O5 0.456221 0.167506 0.382426
O O6 0.178166 0.163705 0.032260
O O7 0.194985 0.806630 0.238311
O O8 0.517362 0.633817 0.371729
O O9 0.500000 0.000000 0.500000
O O10 0.723066 0.047479 0.350587
O O11 0.591874 0.320102 0.241132
O O12 0.884269 0.062527 0.337267
O O13 0.500000 0.000000 0.000000
O O14 0.640783 0.612635 0.303103
O O15 0.000000 0.500000 0.500000
O O16 0.853665 0.868273 0.532133
O O17 0.067570 0.777522 0.285041
O O18 0.000000 0.500000 0.000000
#
# Coordination Sequence:
#
# PCOD8031109 Si02
#       8
#     2   2   2   2   2   2   2   2
#     4  11  23  40  73 105 142 182 238 300 357 432
#     4  11  22  42  68 103 143 189 227 291 371 419
#     4  12  23  44  72 106 141 185 236 296 363 427
#     4  11  29  50  75  96 144 203 239 293 366 436
#     4  12  25  45  71 107 142 182 244 309 354 414
#     4  12  28  45  71 109 149 190 238 301 368 442
#     4  11  27  52  70 105 148 187 243 302 363 432
#     4  12  25  43  75 107 137 190 249 292 357 443
#
# _framework density 22.698981
#
# number of rings (size 3 to 8) (size 9 to 14) (size 15 to 20)
#    0.000    0.500    6.250    1.500    5.250    3.000 
#    0.000    0.000    0.000    0.000    0.000    0.000 
#    0.000    0.000    0.000    0.000    0.000    0.000 
#
# Total GULP energy -198325.700820 kJ/mol
# GULP energy per Si atom -12395.356301 kJ/mol
# Density = 2.264732 g / cm^3
# Si number density = 22.698981 Si / 1000 Ang^3
#
#
#
# Elastic Constant Matrix: (Units=GPa)
#
#
# Indices 1 2 3 4 5 6 
#
# 1 37.4695 33.1537 22.6866 -3.2364 -16.6204 -6.6335
# 2 33.1537 127.8545 57.0976 0.8577 -7.3016 -3.7838
# 3 22.6866 57.0976 149.5562 -11.4078 -23.0624 9.3354
# 4 -3.2364 0.8577 -11.4078 37.9801 -2.1024 -6.6982
# 5 -16.6204 -7.3016 -23.0624 -2.1024 38.3815 2.2870
# 6 -6.6335 -3.7838 9.3354 -6.6982 2.2870 35.2842
#
#
#
# Elastic Compliance Matrix: (Units=1/GPa)
#
#
# Indices 1 2 3 4 5 6 
#
# 1 0.045956 -0.010652 -0.000164 0.006429 0.017674 0.007616
# 2 -0.010652 0.012097 -0.003958 -0.002610 -0.004842 0.000160
# 3 -0.000164 -0.003958 0.009392 0.002693 0.005131 -0.002761
# 4 0.006429 -0.002610 0.002693 0.028981 0.005172 0.005383
# 5 0.017674 -0.004842 0.005131 0.005172 0.036148 0.000085
# 6 0.007616 0.000160 -0.002761 0.005383 0.000085 0.031537
#
#
# Mechanical properties :
#
#
# Convention : Reuss Voigt Hill
#
# Bulk Modulus (GPa) = 26.38825 60.08402 43.23614
# Shear Modulus (GPa) = 24.23768 35.79198 30.01483
#
# Velocity S-wave (km/s) = 3.27125 3.97521 3.64029
# Velocity P-wave (km/s) = 5.09103 6.89907 6.06283
#
# Compressibility (1/GPa) = 0.03789566
#
# Stress axis : x y z
#
# Youngs Moduli (GPa) = 21.76012 82.66564 106.47778
#
# Poissons Ratio (x) = 0.88054 0.01748
# Poissons Ratio (y) = 0.23178 0.42147
# Poissons Ratio (z) = 0.00357 0.32722
#
# Static dielectric constant tensor:
#      x y z
#    x 4.129840 -0.128230 -0.231630 
#    y -0.128230 4.046080 -0.202070 
#    z -0.231630 -0.202070 4.335350 
# 
# 
# High freq. dielectric constant tensor:
#      x y z
#    x 1.886420 -0.010030 -0.004820 
#    y -0.010030 1.898310 -0.003980 
#    z -0.004820 -0.003980 1.917790 
# 
# From -- ./inp_files/530185.got.cif
#   From: 2010.06.25/outbox.cif.g09.slc.cpg/sg2_266_cif.got.tgz:530185.got - 2010.06.27 13:26:56.
