data_PCOD8031972
_publ_section_title
;
Structure prediction by ZEFSAII (Michael W. Deem and Ramdas Pophale) SiO2 
 PCOD8031972
Probable space group: P -1
;
_chemical_formula_sum "Si O2"
_cell_formula_units_Z 14
_cell_length_a 18.415877
_cell_length_b 8.955765
_cell_length_c 19.036670
_cell_angle_alpha 130.250289
_cell_angle_beta 164.320654
_cell_angle_gamma 45.407823
_cell_volume 596.953299
_symmetry_space_group_name_H-M "P -1"
_symmetry_group_IT_number 2
_symmetry_cell_setting 'triclinic'
loop_
_space_group_symop_operation_xyz
x,y,z
-x,-y,-z
loop_
_atom_site_type_symbol
_atom_site_label
_atom_site_fract_x
_atom_site_fract_y
_atom_site_fract_z
Si Si1 0.214579 0.191836 0.210506
Si Si2 0.840472 0.868708 0.268959
Si Si3 0.531963 0.017837 0.315901
Si Si4 0.079072 0.044926 0.779332
Si Si5 0.736870 0.559031 0.428276
Si Si6 0.599751 0.276906 0.700302
Si Si7 0.761783 0.405159 0.264503
O O1 0.302880 0.168657 0.204207
O O2 0.370954 0.323107 0.437679
O O3 0.292861 0.965735 0.250420
O O4 0.869290 0.327651 0.937601
O O5 0.938662 0.626690 0.316655
O O6 0.000000 0.000000 0.500000
O O7 0.913403 0.812663 0.236623
O O8 0.500000 0.000000 0.000000
O O9 0.761380 0.126882 0.545652
O O10 0.725886 0.790175 0.463991
O O11 0.344176 0.002392 0.068469
O O12 0.091035 0.842069 0.684824
O O13 0.542397 0.574533 0.320497
O O14 0.610966 0.467373 0.219249
O O15 0.000000 0.500000 0.500000
O O16 0.500000 0.500000 0.000000
#
# Coordination Sequence:
#
# PCOD8031972 Si02
#       7
#     2   2   2   2   2   2   2
#     4   9  18  36  57  92 119 148 193 260 307 352
#     4  12  28  43  60  86 131 170 204 249 303 359
#     4  11  23  39  69  92 121 160 209 252 307 362
#     4  12  23  41  60  91 125 167 199 252 307 364
#     4  11  24  41  65  93 121 168 208 250 303 365
#     4   9  19  34  59  88 122 149 196 253 308 354
#     4  12  23  37  60  93 123 155 207 261 293 355
#
# _framework density 23.452423
#
# number of rings (size 3 to 8) (size 9 to 14) (size 15 to 20)
#    0.000    1.143    4.286    1.714    2.000    6.857 
#    0.000    0.000    0.000    5.143    0.000    0.000 
#    0.000    0.000    0.000    0.000    0.000    0.000 
#
# Total GULP energy -173439.820646 kJ/mol
# GULP energy per Si atom -12388.558618 kJ/mol
# Density = 2.339904 g / cm^3
# Si number density = 23.452423 Si / 1000 Ang^3
#
#
#
# Elastic Constant Matrix: (Units=GPa)
#
#
# Indices 1 2 3 4 5 6 
#
# 1 176.3079 33.3537 79.3936 4.3123 -5.8993 -22.5364
# 2 33.3537 28.3482 37.7321 0.5873 -8.7038 -8.3359
# 3 79.3936 37.7321 183.8315 15.5205 5.4933 -4.3204
# 4 4.3123 0.5873 15.5205 28.6032 -0.7154 -2.4384
# 5 -5.8993 -8.7038 5.4933 -0.7154 43.9411 0.3682
# 6 -22.5364 -8.3359 -4.3204 -2.4384 0.3682 35.1753
#
#
#
# Elastic Compliance Matrix: (Units=1/GPa)
#
#
# Indices 1 2 3 4 5 6 
#
# 1 0.008248 -0.005227 -0.002456 0.000527 0.000356 0.003777
# 2 -0.005227 0.064064 -0.011636 0.007040 0.013467 0.010751
# 3 -0.002456 -0.011636 0.009331 -0.004847 -0.003851 -0.003481
# 4 0.000527 0.007040 -0.004847 0.037775 0.002653 0.004002
# 5 0.000356 0.013467 -0.003851 0.002653 0.025974 0.002859
# 6 0.003777 0.010751 -0.003481 0.004002 0.002859 0.033217
#
#
# Mechanical properties :
#
#
# Convention : Reuss Voigt Hill
#
# Bulk Modulus (GPa) = 23.25274 76.60518 49.92896
# Shear Modulus (GPa) = 21.59066 37.41112 29.50089
#
# Velocity S-wave (km/s) = 3.03746 3.99832 3.55054
# Velocity P-wave (km/s) = 4.71571 7.35190 6.17609
#
# Compressibility (1/GPa) = 0.04300568
#
# Stress axis : x y z
#
# Youngs Moduli (GPa) = 121.23437 15.60946 107.16680
#
# Poissons Ratio (x) = 0.08159 0.26319
# Poissons Ratio (y) = 0.63370 1.24699
# Poissons Ratio (z) = 0.29774 0.18163
#
# Static dielectric constant tensor:
#      x y z
#    x 4.842650 0.093430 -0.068640 
#    y 0.093430 4.094160 -0.010240 
#    z -0.068640 -0.010240 4.284120 
# 
# 
# High freq. dielectric constant tensor:
#      x y z
#    x 1.948390 -0.013230 -0.006190 
#    y -0.013230 1.894880 -0.002300 
#    z -0.006190 -0.002300 1.931590 
# 
# From -- ./inp_files/575448.got.cif
#   From: 2010.06.25/outbox.cif.g09.slc.cpg/sg2_288_cif.got.tgz:575448.got - 2010.06.27 13:26:56.
