data_PCOD8031084
_publ_section_title
;
Structure prediction by ZEFSAII (Michael W. Deem and Ramdas Pophale) SiO2 
 PCOD8031084
Probable space group: P -1
;
_chemical_formula_sum "Si O2"
_cell_formula_units_Z 16
_cell_length_a 9.499070
_cell_length_b 12.163906
_cell_length_c 14.842569
_cell_angle_alpha 27.961391
_cell_angle_beta 73.668576
_cell_angle_gamma 81.364621
_cell_volume 753.066189
_symmetry_space_group_name_H-M "P -1"
_symmetry_group_IT_number 2
_symmetry_cell_setting 'triclinic'
loop_
_space_group_symop_operation_xyz
x,y,z
-x,-y,-z
loop_
_atom_site_type_symbol
_atom_site_label
_atom_site_fract_x
_atom_site_fract_y
_atom_site_fract_z
Si Si1 0.830178 0.867426 0.594417
Si Si2 0.873353 0.352434 0.570223
Si Si3 0.678713 0.350859 0.949432
Si Si4 0.199235 0.793260 0.802328
Si Si5 0.658263 0.655736 0.942009
Si Si6 0.898934 0.846203 0.889446
Si Si7 0.870266 0.789929 0.136638
Si Si8 0.344777 0.886032 0.068548
O O1 0.812168 0.592631 0.759670
O O2 0.719107 0.853591 0.710280
O O3 0.761051 0.004239 0.428155
O O4 0.000000 0.000000 0.500000
O O5 0.836701 0.526700 0.374596
O O6 0.736630 0.271465 0.721165
O O7 0.000000 0.500000 0.500000
O O8 0.935275 0.135817 0.671330
O O9 0.656161 0.269818 0.909054
O O10 0.726616 0.146052 0.154066
O O11 0.522668 0.408560 0.974111
O O12 0.017391 0.745062 0.879448
O O13 0.266557 0.570469 0.921483
O O14 0.727407 0.765295 0.944707
O O15 0.910247 0.745280 0.059474
O O16 0.720711 0.884282 0.109039
O O17 0.000000 0.000000 0.000000
O O18 0.500000 0.000000 0.000000
#
# Coordination Sequence:
#
# PCOD8031084 Si02
#       8
#     2   2   2   2   2   2   2   2
#     4  11  24  42  66 100 130 168 227 280 324 396
#     4  11  24  40  67  99 131 167 225 281 329 396
#     4  11  26  42  69  95 137 181 218 269 344 393
#     4  11  24  41  70  96 131 174 225 273 332 392
#     4  11  25  46  62  98 137 174 218 276 331 401
#     4  11  23  39  69  96 133 172 222 276 340 391
#     4  11  22  42  66  98 133 173 223 281 335 396
#     4  11  25  46  68  99 140 178 224 278 334 405
#
# _framework density 21.246473999999999
#
# number of rings (size 3 to 8) (size 9 to 14) (size 15 to 20)
#    0.000    1.000    3.750    4.125    3.500    4.500 
#    0.000    2.500    0.000    0.000    0.000    0.000 
#    0.000    0.000    0.000    0.000    0.000    0.000 
#
# Total GULP energy -198220.118549 kJ/mol
# GULP energy per Si atom -12388.757409 kJ/mol
# Density = 2.119812 g / cm^3
# Si number density = 21.246474 Si / 1000 Ang^3
#
#
#
# Elastic Constant Matrix: (Units=GPa)
#
#
# Indices 1 2 3 4 5 6 
#
# 1 135.1983 38.4530 69.8720 -2.7212 0.8345 3.9299
# 2 38.4530 92.2334 47.3864 5.7523 8.4303 2.5505
# 3 69.8720 47.3864 156.5967 16.4834 25.3444 2.6115
# 4 -2.7212 5.7523 16.4834 32.7492 8.2790 0.5794
# 5 0.8345 8.4303 25.3444 8.2790 45.4577 2.0930
# 6 3.9299 2.5505 2.6115 0.5794 2.0930 45.8307
#
#
#
# Elastic Compliance Matrix: (Units=1/GPa)
#
#
# Indices 1 2 3 4 5 6 
#
# 1 0.010560 -0.002385 -0.004679 0.003075 0.002327 -0.000651
# 2 -0.002385 0.013392 -0.002766 -0.000974 -0.000705 -0.000339
# 3 -0.004679 -0.002766 0.010461 -0.004032 -0.004509 0.000216
# 4 0.003075 -0.000974 -0.004032 0.033956 -0.003801 -0.000235
# 5 0.002327 -0.000705 -0.004509 -0.003801 0.025339 -0.001013
# 6 -0.000651 -0.000339 0.000216 -0.000235 -0.001013 0.021931
#
#
# Mechanical properties :
#
#
# Convention : Reuss Voigt Hill
#
# Bulk Modulus (GPa) = 67.78592 77.27235 72.52913
# Shear Modulus (GPa) = 35.65876 40.02866 37.84371
#
# Velocity S-wave (km/s) = 4.10120 4.34523 4.22498
# Velocity P-wave (km/s) = 7.37565 7.85004 7.61654
#
# Compressibility (1/GPa) = 0.01475233
#
# Stress axis : x y z
#
# Youngs Moduli (GPa) = 94.70001 74.67169 95.58903
#
# Poissons Ratio (x) = 0.17807 0.44730
# Poissons Ratio (y) = 0.22584 0.26441
# Poissons Ratio (z) = 0.44314 0.20655
#
# Static dielectric constant tensor:
#      x y z
#    x 4.183630 0.214850 0.099690 
#    y 0.214850 4.045590 0.258150 
#    z 0.099690 0.258150 3.848710 
# 
# 
# High freq. dielectric constant tensor:
#      x y z
#    x 1.842680 0.013070 0.008120 
#    y 0.013070 1.844590 0.012690 
#    z 0.008120 0.012690 1.827890 
# 
# From -- ./inp_files/499662.got.cif
#   From: 2010.06.25/outbox.cif.g09.slc.cpg/sg2_250_cif.got.tgz:499662.got - 2010.06.27 13:26:56.
