data_PCOD8031439
_publ_section_title
;
Structure prediction by ZEFSAII (Michael W. Deem and Ramdas Pophale) SiO2 
 PCOD8031439
Probable space group: P -1
;
_chemical_formula_sum "Si O2"
_cell_formula_units_Z 16
_cell_length_a 11.633990
_cell_length_b 6.574820
_cell_length_c 17.586482
_cell_angle_alpha 81.790840
_cell_angle_beta 46.795626
_cell_angle_gamma 54.313292
_cell_volume 717.743179
_symmetry_space_group_name_H-M "P -1"
_symmetry_group_IT_number 2
_symmetry_cell_setting 'triclinic'
loop_
_space_group_symop_operation_xyz
x,y,z
-x,-y,-z
loop_
_atom_site_type_symbol
_atom_site_label
_atom_site_fract_x
_atom_site_fract_y
_atom_site_fract_z
Si Si1 0.323620 0.194945 0.834642
Si Si2 0.896107 0.055197 0.715266
Si Si3 0.915065 0.286225 0.995366
Si Si4 0.713378 0.440886 0.913891
Si Si5 0.666658 0.854885 0.815269
Si Si6 0.992395 0.371189 0.586285
Si Si7 0.460511 0.021614 0.408576
Si Si8 0.649021 0.549999 0.457467
O O1 0.489889 0.045903 0.698865
O O2 0.117048 0.255962 0.897447
O O3 0.448665 0.991257 0.861469
O O4 0.248868 0.487398 0.878574
O O5 0.692669 0.077959 0.805358
O O6 0.109966 0.735308 0.630028
O O7 0.887504 0.190783 0.790763
O O8 0.884534 0.235473 0.641668
O O9 0.801121 0.360852 0.962883
O O10 0.000000 0.000000 0.000000
O O11 0.664510 0.722569 0.900332
O O12 0.500000 0.500000 0.000000
O O13 0.873448 0.617221 0.686347
O O14 0.000000 0.500000 0.500000
O O15 0.231376 0.116838 0.520676
O O16 0.639523 0.745509 0.390665
O O17 0.438565 0.280009 0.431565
O O18 0.500000 0.500000 0.500000
#
# Coordination Sequence:
#
# PCOD8031439 Si02
#       8
#     2   2   2   2   2   2   2   2
#     4  11  26  45  69  99 133 183 226 291 350 403
#     4  11  25  41  72 102 135 190 233 284 354 418
#     4  11  27  47  69 100 137 177 238 289 351 414
#     4  11  26  46  73 102 139 186 235 295 348 415
#     4  11  24  45  71 102 142 179 239 284 350 424
#     4  11  22  44  63 101 140 178 227 283 341 421
#     4  11  24  41  68  97 139 179 225 289 343 420
#     4  11  24  41  65 101 139 178 230 275 352 419
#
# _framework density 22.292095
#
# number of rings (size 3 to 8) (size 9 to 14) (size 15 to 20)
#    0.000    1.000    3.750    1.500    5.250    4.500 
#    2.250    0.000    0.000    0.000    0.000    0.000 
#    0.000    0.000    0.000    0.000    0.000    0.000 
#
# Total GULP energy -198324.332669 kJ/mol
# GULP energy per Si atom -12395.270792 kJ/mol
# Density = 2.224136 g / cm^3
# Si number density = 22.292095 Si / 1000 Ang^3
#
#
#
# Elastic Constant Matrix: (Units=GPa)
#
#
# Indices 1 2 3 4 5 6 
#
# 1 145.5785 63.6467 42.8553 -7.9674 5.3505 0.7891
# 2 63.6467 155.7784 48.4999 -7.4128 14.5056 5.8761
# 3 42.8553 48.4999 81.5754 12.8608 13.1553 7.5025
# 4 -7.9674 -7.4128 12.8608 42.4385 3.3922 -1.5388
# 5 5.3505 14.5056 13.1553 3.3922 34.0866 -0.1736
# 6 0.7891 5.8761 7.5025 -1.5388 -0.1736 41.5162
#
#
#
# Elastic Compliance Matrix: (Units=1/GPa)
#
#
# Indices 1 2 3 4 5 6 
#
# 1 0.009248 -0.002549 -0.003971 0.002456 0.000926 0.000998
# 2 -0.002549 0.009056 -0.004054 0.002488 -0.002139 -0.000417
# 3 -0.003971 -0.004054 0.018808 -0.006924 -0.004236 -0.003024
# 4 0.002456 0.002488 -0.006924 0.026738 -0.001423 0.001838
# 5 0.000926 -0.002139 -0.004236 -0.001423 0.031884 0.001131
# 6 0.000998 -0.000417 -0.003024 0.001838 0.001131 0.024746
#
#
# Mechanical properties :
#
#
# Convention : Reuss Voigt Hill
#
# Bulk Modulus (GPa) = 62.64260 76.99290 69.81775
# Shear Modulus (GPa) = 34.02509 38.80362 36.41436
#
# Velocity S-wave (km/s) = 3.91107 4.17668 4.04605
# Velocity P-wave (km/s) = 6.96829 7.60742 7.29486
#
# Compressibility (1/GPa) = 0.01596358
#
# Stress axis : x y z
#
# Youngs Moduli (GPa) = 108.13699 110.42029 53.16838
#
# Poissons Ratio (x) = 0.28145 0.21114
# Poissons Ratio (y) = 0.27563 0.21555
# Poissons Ratio (z) = 0.42943 0.44766
#
# Static dielectric constant tensor:
#      x y z
#    x 3.894790 0.125270 0.002730 
#    y 0.125270 4.383800 0.185140 
#    z 0.002730 0.185140 4.158210 
# 
# 
# High freq. dielectric constant tensor:
#      x y z
#    x 1.879940 0.003520 -0.002160 
#    y 0.003520 1.886150 0.019270 
#    z -0.002160 0.019270 1.882570 
# 
# From -- ./inp_files/564453.got.cif
#   From: 2010.06.25/outbox.cif.g09.slc.cpg/sg2_283_cif.got.tgz:564453.got - 2010.06.27 13:26:56.
