data_PCOD8031643
_publ_section_title
;
Structure prediction by ZEFSAII (Michael W. Deem and Ramdas Pophale) SiO2 
 PCOD8031643
Probable space group: P -1
;
_chemical_formula_sum "Si O2"
_cell_formula_units_Z 16
_cell_length_a 9.449896
_cell_length_b 9.358868
_cell_length_c 15.496463
_cell_angle_alpha 66.369138
_cell_angle_beta 38.095503
_cell_angle_gamma 60.812299
_cell_volume 737.835739
_symmetry_space_group_name_H-M "P -1"
_symmetry_group_IT_number 2
_symmetry_cell_setting 'triclinic'
loop_
_space_group_symop_operation_xyz
x,y,z
-x,-y,-z
loop_
_atom_site_type_symbol
_atom_site_label
_atom_site_fract_x
_atom_site_fract_y
_atom_site_fract_z
Si Si1 0.775564 0.780897 0.756440
Si Si2 0.308018 0.680426 0.568802
Si Si3 0.627882 0.322253 0.947872
Si Si4 0.239510 0.313297 0.394918
Si Si5 0.366384 0.895885 0.640644
Si Si6 0.249473 0.662334 0.313184
Si Si7 0.428258 0.862864 0.309798
Si Si8 0.919499 0.896988 0.134647
O O1 0.791688 0.657296 0.699131
O O2 0.026131 0.694041 0.706307
O O3 0.732514 0.961705 0.692599
O O4 0.552008 0.787422 0.924813
O O5 0.500000 0.500000 0.500000
O O6 0.355696 0.743564 0.624549
O O7 0.309517 0.814331 0.463584
O O8 0.690382 0.317991 0.818895
O O9 0.863600 0.263910 0.908809
O O10 0.500000 0.500000 0.000000
O O11 0.483754 0.169925 0.328667
O O12 0.269538 0.479170 0.380189
O O13 0.032932 0.247616 0.554105
O O14 0.500000 0.000000 0.500000
O O15 0.122983 0.009413 0.774111
O O16 0.428534 0.730078 0.267979
O O17 0.699150 0.847419 0.211253
O O18 0.000000 0.000000 0.000000
#
# Coordination Sequence:
#
# PCOD8031643 Si02
#       8
#     2   2   2   2   2   2   2   2
#     4  12  25  47  72 101 144 184 235 292 361 424
#     4  12  28  45  71 113 144 179 241 308 355 415
#     4  12  27  47  72 103 143 194 236 290 358 434
#     4  11  22  45  68 105 139 188 234 288 360 432
#     4  12  24  42  72 103 136 189 237 290 352 420
#     4  11  26  41  74 102 143 188 237 291 359 426
#     4  12  25  46  72 104 144 183 236 300 356 410
#     4  12  26  48  72 104 147 189 238 294 359 430
#
# _framework density 21.685043
#
# number of rings (size 3 to 8) (size 9 to 14) (size 15 to 20)
#    0.000    0.250    6.250    1.875    7.000    1.500 
#    0.000    0.625    0.000    0.000    0.000    0.000 
#    0.000    0.000    0.000    0.000    0.000    0.000 
#
# Total GULP energy -198302.578777 kJ/mol
# GULP energy per Si atom -12393.911174 kJ/mol
# Density = 2.163569 g / cm^3
# Si number density = 21.685043 Si / 1000 Ang^3
#
#
#
# Elastic Constant Matrix: (Units=GPa)
#
#
# Indices 1 2 3 4 5 6 
#
# 1 136.5660 53.6214 54.0992 10.3573 -10.9110 6.6233
# 2 53.6214 105.7236 35.4937 7.5408 -11.8601 2.8462
# 3 54.0992 35.4937 136.5921 3.4234 8.4311 3.1851
# 4 10.3573 7.5408 3.4234 28.9720 -2.1732 -2.4263
# 5 -10.9110 -11.8601 8.4311 -2.1732 43.2900 6.3839
# 6 6.6233 2.8462 3.1851 -2.4263 6.3839 44.0360
#
#
#
# Elastic Compliance Matrix: (Units=1/GPa)
#
#
# Indices 1 2 3 4 5 6 
#
# 1 0.010534 -0.003779 -0.003240 -0.002354 0.002365 -0.001578
# 2 -0.003779 0.012440 -0.001859 -0.001505 0.002830 -0.000594
# 3 -0.003240 -0.001859 0.009265 0.000344 -0.003175 0.000417
# 4 -0.002354 -0.001505 0.000344 0.035934 0.000385 0.002351
# 5 0.002365 0.002830 -0.003175 0.000385 0.025701 -0.004014
# 6 -0.001578 -0.000594 0.000417 0.002351 -0.004014 0.023666
#
#
# Mechanical properties :
#
#
# Convention : Reuss Voigt Hill
#
# Bulk Modulus (GPa) = 69.04851 73.92337 71.48594
# Shear Modulus (GPa) = 35.68254 38.97076 37.32665
#
# Velocity S-wave (km/s) = 4.06087 4.24385 4.15337
# Velocity P-wave (km/s) = 7.34154 7.62740 7.48583
#
# Compressibility (1/GPa) = 0.01448257
#
# Stress axis : x y z
#
# Youngs Moduli (GPa) = 94.93096 80.38460 107.93185
#
# Poissons Ratio (x) = 0.30378 0.34973
# Poissons Ratio (y) = 0.35875 0.20064
# Poissons Ratio (z) = 0.30761 0.14943
#
# Static dielectric constant tensor:
#      x y z
#    x 6.169980 -0.251150 -2.326490 
#    y -0.251150 4.001880 0.392180 
#    z -2.326490 0.392180 7.039770 
# 
# 
# High freq. dielectric constant tensor:
#      x y z
#    x 1.859760 -0.003390 0.001320 
#    y -0.003390 1.857480 0.000940 
#    z 0.001320 0.000940 1.856260 
# 
# From -- ./inp_files/245554.got.cif
#   From: 2010.06.25/outbox.cif.g09.slc.cpg/sg2_123_cif.got.tgz:245554.got - 2010.06.27 13:26:56.
