data_PCOD8031581
_publ_section_title
;
Structure prediction by ZEFSAII (Michael W. Deem and Ramdas Pophale) SiO2 
 PCOD8031581
Probable space group: P -1
;
_chemical_formula_sum "Si O2"
_cell_formula_units_Z 14
_cell_length_a 15.065697
_cell_length_b 7.923332
_cell_length_c 9.311737
_cell_angle_alpha 68.469446
_cell_angle_beta 43.167729
_cell_angle_gamma 92.665932
_cell_volume 615.170737
_symmetry_space_group_name_H-M "P -1"
_symmetry_group_IT_number 2
_symmetry_cell_setting 'triclinic'
loop_
_space_group_symop_operation_xyz
x,y,z
-x,-y,-z
loop_
_atom_site_type_symbol
_atom_site_label
_atom_site_fract_x
_atom_site_fract_y
_atom_site_fract_z
Si Si1 0.858020 0.917504 0.098897
Si Si2 0.308644 0.867492 0.638911
Si Si3 0.538796 0.580954 0.265379
Si Si4 0.146912 0.617246 0.387598
Si Si5 0.141599 0.019850 0.242878
Si Si6 0.598194 0.262100 0.159378
Si Si7 0.245574 0.548398 0.584905
O O1 0.791528 0.670845 0.230674
O O2 0.752309 0.979412 0.291898
O O3 0.899340 0.029263 0.860980
O O4 0.000000 0.000000 0.000000
O O5 0.304212 0.728754 0.821427
O O6 0.214457 0.699459 0.678770
O O7 0.479054 0.021285 0.338514
O O8 0.500000 0.500000 0.500000
O O9 0.513797 0.390556 0.252708
O O10 0.425910 0.659614 0.316141
O O11 0.709713 0.758821 0.986522
O O12 0.143479 0.505999 0.577236
O O13 0.000000 0.500000 0.500000
O O14 0.175621 0.845950 0.320709
O O15 0.289159 0.630955 0.136805
O O16 0.000000 0.000000 0.500000
#
# Coordination Sequence:
#
# PCOD8031581 Si02
#       7
#     2   2   2   2   2   2   2
#     4  12  26  48  72 105 148 194 253 305 364 445
#     4  11  23  44  77 105 138 194 250 302 365 441
#     4  12  22  46  78 109 147 190 253 308 361 444
#     4  12  28  49  68 107 156 192 240 314 381 439
#     4  12  26  47  74 106 151 199 242 307 379 435
#     4  11  22  44  73 104 146 190 238 305 374 432
#     4  12  27  46  77 111 143 195 256 303 369 449
#
# _framework density 22.757906999999999
#
# number of rings (size 3 to 8) (size 9 to 14) (size 15 to 20)
#    0.000    0.286    5.714    2.571    2.000    3.429 
#    0.000    0.000    0.000    0.000    0.000    0.000 
#    0.000    0.000    0.000    0.000    0.000    0.000 
#
# Total GULP energy -173578.844338 kJ/mol
# GULP energy per Si atom -12398.488881 kJ/mol
# Density = 2.270611 g / cm^3
# Si number density = 22.757907 Si / 1000 Ang^3
#
#
#
# Elastic Constant Matrix: (Units=GPa)
#
#
# Indices 1 2 3 4 5 6 
#
# 1 122.3144 22.3605 20.3149 4.1409 2.1308 1.8792
# 2 22.3605 138.4660 37.9531 12.7180 5.4215 5.2633
# 3 20.3149 37.9531 98.2332 12.8178 -6.1552 0.1191
# 4 4.1409 12.7180 12.8178 34.6799 1.3103 1.5017
# 5 2.1308 5.4215 -6.1552 1.3103 32.1383 -4.8108
# 6 1.8792 5.2633 0.1191 1.5017 -4.8108 34.9344
#
#
#
# Elastic Compliance Matrix: (Units=1/GPa)
#
#
# Indices 1 2 3 4 5 6 
#
# 1 0.008611 -0.000938 -0.001451 -0.000101 -0.000749 -0.000416
# 2 -0.000938 0.008489 -0.002985 -0.001757 -0.002084 -0.001430
# 3 -0.001451 -0.002985 0.012285 -0.003442 0.003255 0.001082
# 4 -0.000101 -0.001757 -0.003442 0.030888 -0.001809 -0.001295
# 5 -0.000749 -0.002084 0.003255 -0.001809 0.032956 0.004959
# 6 -0.000416 -0.001430 0.001082 -0.001295 0.004959 0.029598
#
#
# Mechanical properties :
#
#
# Convention : Reuss Voigt Hill
#
# Bulk Modulus (GPa) = 53.66183 57.80784 55.73484
# Shear Modulus (GPa) = 35.76793 38.90952 37.33873
#
# Velocity S-wave (km/s) = 3.96873 4.13936 4.05494
# Velocity P-wave (km/s) = 6.68070 6.94997 6.81666
#
# Compressibility (1/GPa) = 0.01863522
#
# Stress axis : x y z
#
# Youngs Moduli (GPa) = 116.12898 117.79769 81.39828
#
# Poissons Ratio (x) = 0.11053 0.11815
# Poissons Ratio (y) = 0.10897 0.24300
# Poissons Ratio (z) = 0.16856 0.35167
#
# Static dielectric constant tensor:
#      x y z
#    x 3.989450 -0.234570 0.135370 
#    y -0.234570 3.643750 0.526970 
#    z 0.135370 0.526970 3.659690 
# 
# 
# High freq. dielectric constant tensor:
#      x y z
#    x 1.893150 -0.000010 -0.012580 
#    y -0.000010 1.914560 0.000680 
#    z -0.012580 0.000680 1.891960 
# 
# From -- ./inp_files/297571.got.cif
#   From: 2010.06.25/outbox.cif.g09.slc.cpg/sg2_149_cif.got.tgz:297571.got - 2010.06.27 13:26:56.
