data_PCOD8031760
_publ_section_title
;
Structure prediction by ZEFSAII (Michael W. Deem and Ramdas Pophale) SiO2 
 PCOD8031760
Probable space group: P -1
;
_chemical_formula_sum "Si O2"
_cell_formula_units_Z 16
_cell_length_a 8.912604
_cell_length_b 13.517614
_cell_length_c 11.162250
_cell_angle_alpha 31.426924
_cell_angle_beta 97.486188
_cell_angle_gamma 88.513942
_cell_volume 670.317631
_symmetry_space_group_name_H-M "P -1"
_symmetry_group_IT_number 2
_symmetry_cell_setting 'triclinic'
loop_
_space_group_symop_operation_xyz
x,y,z
-x,-y,-z
loop_
_atom_site_type_symbol
_atom_site_label
_atom_site_fract_x
_atom_site_fract_y
_atom_site_fract_z
Si Si1 0.453918 0.784670 0.317692
Si Si2 0.003648 0.288920 0.414295
Si Si3 0.286701 0.505381 0.966030
Si Si4 0.108790 0.992339 0.134817
Si Si5 0.603876 0.348736 0.785815
Si Si6 0.445217 0.768632 0.841786
Si Si7 0.669291 0.829511 0.500165
Si Si8 0.936664 0.414810 0.699866
O O1 0.291258 0.931083 0.188336
O O2 0.469597 0.552443 0.580709
O O3 0.464676 0.794797 0.162374
O O4 0.590803 0.841413 0.348270
O O5 0.156079 0.140861 0.524199
O O6 0.072145 0.435432 0.348834
O O7 0.893928 0.414170 0.170725
O O8 0.911127 0.167143 0.607134
O O9 0.353829 0.695297 0.799076
O O10 0.375643 0.365711 0.010760
O O11 0.314627 0.382996 0.218995
O O12 0.000000 0.000000 0.000000
O O13 0.061747 0.210454 0.959489
O O14 0.762290 0.381141 0.706060
O O15 0.636677 0.245801 0.023700
O O16 0.429666 0.003209 0.591511
O O17 0.000000 0.500000 0.500000
#
# Coordination Sequence:
#
# PCOD8031760 Si02
#       8
#     2   2   2   2   2   2   2   2
#     4  11  24  43  72 103 146 179 229 291 347 419
#     4  12  26  45  73 102 139 188 231 294 349 410
#     4  11  26  49  70 101 144 183 240 291 351 407
#     4  12  25  45  67 104 145 183 231 280 350 424
#     4  11  22  46  70 102 146 188 225 288 360 413
#     4  11  25  45  74  99 141 187 233 296 347 410
#     4  12  26  46  73 108 139 182 245 286 344 425
#     4  12  24  44  69 102 144 183 228 285 349 422
#
# _framework density 23.869281000000001
#
# number of rings (size 3 to 8) (size 9 to 14) (size 15 to 20)
#    0.000    0.500    5.000    2.250    3.500    3.000 
#    0.000    0.000    0.000    0.000    0.000    0.000 
#    0.000    0.000    0.000    0.000    0.000    0.000 
#
# Total GULP energy -198342.703943 kJ/mol
# GULP energy per Si atom -12396.418996 kJ/mol
# Density = 2.381495 g / cm^3
# Si number density = 23.869281 Si / 1000 Ang^3
#
#
#
# Elastic Constant Matrix: (Units=GPa)
#
#
# Indices 1 2 3 4 5 6 
#
# 1 101.1559 23.3074 32.1702 11.0575 38.9086 -5.3699
# 2 23.3074 107.1608 32.5262 -11.3731 23.5262 1.9875
# 3 32.1702 32.5262 93.6580 -6.0141 27.9678 2.9757
# 4 11.0575 -11.3731 -6.0141 42.9175 -8.0543 4.9622
# 5 38.9086 23.5262 27.9678 -8.0543 39.4436 -1.0365
# 6 -5.3699 1.9875 2.9757 4.9622 -1.0365 31.8773
#
#
#
# Elastic Compliance Matrix: (Units=1/GPa)
#
#
# Indices 1 2 3 4 5 6 
#
# 1 0.019169 -0.000579 -0.001316 -0.009413 -0.019441 0.004221
# 2 -0.000579 0.011318 -0.002331 0.002172 -0.004111 -0.001057
# 3 -0.001316 -0.002331 0.014216 0.000538 -0.007327 -0.001725
# 4 -0.009413 0.002172 0.000538 0.029596 0.013496 -0.005940
# 5 -0.019441 -0.004111 -0.007327 0.013496 0.054863 -0.002652
# 6 0.004221 -0.001057 -0.001725 -0.005940 -0.002652 0.033147
#
#
# Mechanical properties :
#
#
# Convention : Reuss Voigt Hill
#
# Bulk Modulus (GPa) = 27.58592 53.10914 40.34753
# Shear Modulus (GPa) = 27.34561 37.11241 32.22901
#
# Velocity S-wave (km/s) = 3.38840 3.94740 3.67853
# Velocity P-wave (km/s) = 5.18561 6.56310 5.91459
#
# Compressibility (1/GPa) = 0.03625038
#
# Stress axis : x y z
#
# Youngs Moduli (GPa) = 52.16855 88.35562 70.34306
#
# Poissons Ratio (x) = 0.05114 0.09259
# Poissons Ratio (y) = 0.03020 0.16397
# Poissons Ratio (z) = 0.06867 0.20596
#
# Static dielectric constant tensor:
#      x y z
#    x 4.114250 -0.155550 0.200770 
#    y -0.155550 4.421900 -0.244370 
#    z 0.200770 -0.244370 4.485700 
# 
# 
# High freq. dielectric constant tensor:
#      x y z
#    x 1.938310 -0.011100 0.011770 
#    y -0.011100 1.953020 -0.011180 
#    z 0.011770 -0.011180 1.953080 
# 
# From -- ./inp_files/398211.got.cif
#   From: 2010.06.25/outbox.cif.g09.slc.cpg/sg2_200_cif.got.tgz:398211.got - 2010.06.27 13:26:56.
