data_PCOD8031333
_publ_section_title
;
Structure prediction by ZEFSAII (Michael W. Deem and Ramdas Pophale) SiO2 
 PCOD8031333
Probable space group: P -1
;
_chemical_formula_sum "Si O2"
_cell_formula_units_Z 16
_cell_length_a 11.730560
_cell_length_b 9.005818
_cell_length_c 9.676467
_cell_angle_alpha 48.653753
_cell_angle_beta 100.196964
_cell_angle_gamma 92.087683
_cell_volume 750.817628
_symmetry_space_group_name_H-M "P -1"
_symmetry_group_IT_number 2
_symmetry_cell_setting 'triclinic'
loop_
_space_group_symop_operation_xyz
x,y,z
-x,-y,-z
loop_
_atom_site_type_symbol
_atom_site_label
_atom_site_fract_x
_atom_site_fract_y
_atom_site_fract_z
Si Si1 0.893803 0.929694 0.102329
Si Si2 0.238987 0.399599 0.421204
Si Si3 0.952329 0.856396 0.463351
Si Si4 0.148098 0.513849 0.623658
Si Si5 0.502656 0.764510 0.408150
Si Si6 0.537016 0.193986 0.122440
Si Si7 0.679573 0.225969 0.872603
Si Si8 0.609119 0.422198 0.245295
O O1 0.908794 0.974166 0.242163
O O2 0.885141 0.700233 0.204724
O O3 0.775532 0.053718 0.945547
O O4 0.000000 0.000000 0.000000
O O5 0.158083 0.242596 0.434135
O O6 0.170018 0.510021 0.466895
O O7 0.361332 0.285542 0.570466
O O8 0.260488 0.571086 0.209108
O O9 0.046815 0.681408 0.540207
O O10 0.000000 0.000000 0.500000
O O11 0.259968 0.577650 0.682734
O O12 0.419918 0.704732 0.304336
O O13 0.474497 0.645737 0.611679
O O14 0.477277 0.001831 0.276393
O O15 0.612019 0.264785 0.219867
O O16 0.623844 0.138845 0.048562
O O17 0.435678 0.359496 0.951959
#
# Coordination Sequence:
#
# PCOD8031333 Si02
#       8
#     2   2   2   2   2   2   2   2
#     4  11  24  44  68 100 129 174 233 284 331 399
#     4  11  22  43  71  98 131 180 225 274 336 404
#     4  11  26  46  68  95 133 178 228 278 343 400
#     4  11  22  43  70  91 133 178 223 273 339 404
#     4  12  23  42  71  98 137 182 225 271 345 404
#     4  11  24  40  60 104 139 174 222 277 334 404
#     4  12  22  41  69  98 136 171 230 282 331 404
#     4  11  24  42  64  98 143 177 220 275 345 402
#
# _framework density 21.310102000000001
#
# number of rings (size 3 to 8) (size 9 to 14) (size 15 to 20)
#    0.000    0.750    2.500    7.125    3.500    0.000 
#    2.250    1.250    0.000    0.000    0.000    0.000 
#    0.000    0.000    0.000    0.000    0.000    0.000 
#
# Total GULP energy -198423.438513 kJ/mol
# GULP energy per Si atom -12401.464907 kJ/mol
# Density = 2.126160 g / cm^3
# Si number density = 21.310102 Si / 1000 Ang^3
#
#
#
# Elastic Constant Matrix: (Units=GPa)
#
#
# Indices 1 2 3 4 5 6 
#
# 1 105.3484 15.6133 14.8261 -2.7214 19.6185 10.8997
# 2 15.6133 63.0500 28.4670 -7.4997 15.5981 9.5077
# 3 14.8261 28.4670 59.0217 -10.0703 -2.2540 15.5535
# 4 -2.7214 -7.4997 -10.0703 26.4550 6.3155 -6.1671
# 5 19.6185 15.5981 -2.2540 6.3155 23.1481 -3.1325
# 6 10.8997 9.5077 15.5535 -6.1671 -3.1325 35.3259
#
#
#
# Elastic Compliance Matrix: (Units=1/GPa)
#
#
# Indices 1 2 3 4 5 6 
#
# 1 0.012787 0.003146 -0.003686 0.003427 -0.014776 -0.003881
# 2 0.003146 0.029440 -0.013477 0.009061 -0.026797 -0.003755
# 3 -0.003686 -0.013477 0.026570 0.001371 0.013677 -0.005481
# 4 0.003427 0.009061 0.001371 0.046853 -0.021363 0.002185
# 5 -0.014776 -0.026797 0.013677 -0.021363 0.082200 0.009309
# 6 -0.003881 -0.003755 -0.005481 0.002185 0.009309 0.034136
#
#
# Mechanical properties :
#
#
# Convention : Reuss Voigt Hill
#
# Bulk Modulus (GPa) = 24.53304 38.35921 31.44613
# Shear Modulus (GPa) = 18.27439 28.22005 23.24722
#
# Velocity S-wave (km/s) = 2.93157 3.64298 3.30646
# Velocity P-wave (km/s) = 4.79543 5.97785 5.41899
#
# Compressibility (1/GPa) = 0.04076136
#
# Stress axis : x y z
#
# Youngs Moduli (GPa) = 78.20719 33.96780 37.63635
#
# Poissons Ratio (x) = -0.10687 0.13874
# Poissons Ratio (y) = -0.24607 0.50724
# Poissons Ratio (z) = 0.28830 0.45780
#
# Static dielectric constant tensor:
#      x y z
#    x 4.064910 0.211840 -0.015950 
#    y 0.211840 3.899430 -0.130970 
#    z -0.015950 -0.130970 3.974030 
# 
# 
# High freq. dielectric constant tensor:
#      x y z
#    x 1.852810 0.007590 0.001760 
#    y 0.007590 1.828210 -0.021530 
#    z 0.001760 -0.021530 1.838840 
# 
# From -- ./inp_files/242145.got.cif
#   From: 2010.06.25/outbox.cif.g09.slc.cpg/sg2_122_cif.got.tgz:242145.got - 2010.06.27 13:26:56.
