data_PCOD8031784
_publ_section_title
;
Structure prediction by ZEFSAII (Michael W. Deem and Ramdas Pophale) SiO2 
 PCOD8031784
Probable space group: P -1
;
_chemical_formula_sum "Si O2"
_cell_formula_units_Z 14
_cell_length_a 8.089298
_cell_length_b 10.601736
_cell_length_c 8.162964
_cell_angle_alpha 81.464713
_cell_angle_beta 79.898050
_cell_angle_gamma 53.390266
_cell_volume 552.387234
_symmetry_space_group_name_H-M "P -1"
_symmetry_group_IT_number 2
_symmetry_cell_setting 'triclinic'
loop_
_space_group_symop_operation_xyz
x,y,z
-x,-y,-z
loop_
_atom_site_type_symbol
_atom_site_label
_atom_site_fract_x
_atom_site_fract_y
_atom_site_fract_z
Si Si1 0.017785 0.585006 0.140886
Si Si2 0.336471 0.176954 0.442310
Si Si3 0.288734 0.442526 0.612051
Si Si4 0.561022 0.602503 0.059491
Si Si5 0.095225 0.726693 0.377880
Si Si6 0.704246 0.859931 0.905985
Si Si7 0.172355 0.925780 0.123566
O O1 0.935326 0.509598 0.290749
O O2 0.794281 0.547857 0.982785
O O3 0.124730 0.649710 0.210162
O O4 0.827282 0.722925 0.043114
O O5 0.378935 0.293299 0.503554
O O6 0.339278 0.199919 0.241680
O O7 0.127376 0.204349 0.528412
O O8 0.500000 0.000000 0.500000
O O9 0.442986 0.409286 0.739814
O O10 0.261804 0.589846 0.497786
O O11 0.390438 0.788993 0.021362
O O12 0.500000 0.500000 0.000000
O O13 0.126089 0.861425 0.305867
O O14 0.829715 0.932457 0.826170
O O15 0.500000 0.000000 0.000000
O O16 0.000000 0.000000 0.000000
#
# Coordination Sequence:
#
# PCOD8031784 Si02
#       7
#     2   2   2   2   2   2   2
#     4  11  22  46  72 110 141 192 253 299 358 445
#     4  11  24  45  71 112 145 195 246 304 370 430
#     4  11  26  46  75 105 151 186 244 311 364 434
#     4  12  24  46  74 108 144 195 246 298 369 441
#     4  11  24  47  70 107 152 189 240 307 375 428
#     4  12  25  46  79 108 146 198 252 299 362 447
#     4  12  26  48  72 105 153 193 244 310 368 439
#
# _framework density 25.344539999999999
#
# number of rings (size 3 to 8) (size 9 to 14) (size 15 to 20)
#    0.000    0.571    2.857    6.429    0.000    4.571 
#    0.000    0.000    0.000    0.000    0.000    0.000 
#    0.000    0.000    0.000    0.000    0.000    0.000 
#
# Total GULP energy -173555.330156 kJ/mol
# GULP energy per Si atom -12396.809297 kJ/mol
# Density = 2.528685 g / cm^3
# Si number density = 25.344540 Si / 1000 Ang^3
#
#
#
# Elastic Constant Matrix: (Units=GPa)
#
#
# Indices 1 2 3 4 5 6 
#
# 1 59.6043 49.7244 44.6742 -8.4358 19.5030 15.7436
# 2 49.7244 131.4910 62.1978 -14.8511 6.2257 -12.5899
# 3 44.6742 62.1978 159.1384 -12.5550 19.7119 5.8300
# 4 -8.4358 -14.8511 -12.5550 52.9347 8.1905 2.6097
# 5 19.5030 6.2257 19.7119 8.1905 57.4592 2.7496
# 6 15.7436 -12.5899 5.8300 2.6097 2.7496 69.0973
#
#
#
# Elastic Compliance Matrix: (Units=1/GPa)
#
#
# Indices 1 2 3 4 5 6 
#
# 1 0.035468 -0.011832 -0.003518 0.003458 -0.009579 -0.009690
# 2 -0.011832 0.013722 -0.002566 0.000621 0.003069 0.005267
# 3 -0.003518 -0.002566 0.008565 0.001015 -0.001594 -0.000364
# 4 0.003458 0.000621 0.001015 0.020615 -0.004463 -0.001361
# 5 -0.009579 0.003069 -0.001594 -0.004463 0.021400 0.002193
# 6 -0.009690 0.005267 -0.000364 -0.001361 0.002193 0.017635
#
#
# Mechanical properties :
#
#
# Convention : Reuss Voigt Hill
#
# Bulk Modulus (GPa) = 45.61255 73.71405 59.66330
# Shear Modulus (GPa) = 31.14381 48.80740 39.97560
#
# Velocity S-wave (km/s) = 3.50925 4.39310 3.97582
# Velocity P-wave (km/s) = 5.86991 7.40813 6.68342
#
# Compressibility (1/GPa) = 0.02192379
#
# Stress axis : x y z
#
# Youngs Moduli (GPa) = 28.19425 72.87387 116.75354
#
# Poissons Ratio (x) = 0.86226 0.41074
# Poissons Ratio (y) = 0.33360 0.29956
# Poissons Ratio (z) = 0.09919 0.18698
#
# Static dielectric constant tensor:
#      x y z
#    x 4.789660 0.220780 0.123510 
#    y 0.220780 5.016830 0.163340 
#    z 0.123510 0.163340 4.767490 
# 
# 
# High freq. dielectric constant tensor:
#      x y z
#    x 2.023900 0.003910 0.003520 
#    y 0.003910 2.026830 -0.003420 
#    z 0.003520 -0.003420 2.018330 
# 
# From -- ./inp_files/186605.got.cif
#   From: 2010.06.25/outbox.cif.g09.slc.cpg/sg2_94_cif.got.tgz:186605.got - 2010.06.27 13:26:56.
