data_PCOD8031272
_publ_section_title
;
Structure prediction by ZEFSAII (Michael W. Deem and Ramdas Pophale) SiO2 
 PCOD8031272
Probable space group: P -1
;
_chemical_formula_sum "Si O2"
_cell_formula_units_Z 16
_cell_length_a 8.989962
_cell_length_b 11.678848
_cell_length_c 12.515472
_cell_angle_alpha 107.767030
_cell_angle_beta 46.539901
_cell_angle_gamma 128.762956
_cell_volume 725.194791
_symmetry_space_group_name_H-M "P -1"
_symmetry_group_IT_number 2
_symmetry_cell_setting 'triclinic'
loop_
_space_group_symop_operation_xyz
x,y,z
-x,-y,-z
loop_
_atom_site_type_symbol
_atom_site_label
_atom_site_fract_x
_atom_site_fract_y
_atom_site_fract_z
Si Si1 0.561123 0.661941 0.498190
Si Si2 0.443705 0.420400 0.180532
Si Si3 0.210412 0.909930 0.923245
Si Si4 0.515509 0.791664 0.772667
Si Si5 0.280907 0.298491 0.010230
Si Si6 0.662670 0.220634 0.802093
Si Si7 0.120601 0.898259 0.204401
Si Si8 0.137535 0.466874 0.506541
O O1 0.500000 0.500000 0.500000
O O2 0.583192 0.747019 0.617891
O O3 0.318816 0.617169 0.532131
O O4 0.820686 0.773906 0.336601
O O5 0.555693 0.330767 0.135504
O O6 0.673601 0.585428 0.070866
O O7 0.308166 0.427710 0.352546
O O8 0.239308 0.339225 0.160207
O O9 0.268754 0.788502 0.870880
O O10 0.456886 0.065284 0.795713
O O11 0.156431 0.947232 0.077391
O O12 0.976813 0.858657 0.944296
O O13 0.762022 0.955782 0.736813
O O14 0.534951 0.305976 0.901406
O O15 0.725923 0.173256 0.868817
O O16 0.929445 0.320660 0.636233
O O17 0.000000 0.500000 0.500000
#
# Coordination Sequence:
#
# PCOD8031272 Si02
#       8
#     2   2   2   2   2   2   2   2
#     4  12  24  43  71 100 128 177 227 272 329 400
#     4  11  23  42  63  97 132 177 217 279 331 386
#     4  11  25  42  68 100 132 181 225 265 339 396
#     4  11  24  43  68 101 137 171 223 275 334 390
#     4  11  24  40  65  95 137 176 224 270 326 400
#     4  11  22  43  67  93 134 174 217 277 326 392
#     4  11  23  45  71 100 137 174 219 279 333 392
#     4  12  25  43  66  94 133 173 218 272 334 389
#
# _framework density 22.063039
#
# number of rings (size 3 to 8) (size 9 to 14) (size 15 to 20)
#    0.000    0.750    3.750    4.500    1.750    1.500 
#    0.000    0.625    0.000    0.000    0.000    0.000 
#    0.000    0.000    0.000    0.000    0.000    0.000 
#
# Total GULP energy -198360.841368 kJ/mol
# GULP energy per Si atom -12397.552586 kJ/mol
# Density = 2.201282 g / cm^3
# Si number density = 22.063039 Si / 1000 Ang^3
#
#
#
# Elastic Constant Matrix: (Units=GPa)
#
#
# Indices 1 2 3 4 5 6 
#
# 1 87.7956 37.1186 10.7715 -1.6423 -1.0536 16.3558
# 2 37.1186 113.1886 38.0182 0.3914 -1.3165 16.7149
# 3 10.7715 38.0182 73.8704 2.3050 0.5160 19.8619
# 4 -1.6423 0.3914 2.3050 33.5370 4.3628 -1.4792
# 5 -1.0536 -1.3165 0.5160 4.3628 22.9579 0.1494
# 6 16.3558 16.7149 19.8619 -1.4792 0.1494 49.2391
#
#
#
# Elastic Compliance Matrix: (Units=1/GPa)
#
#
# Indices 1 2 3 4 5 6 
#
# 1 0.013774 -0.004390 0.001190 0.000449 0.000291 -0.003552
# 2 -0.004390 0.012204 -0.005518 -0.000082 0.000641 -0.000463
# 3 0.001190 -0.005518 0.017789 -0.001304 -0.000377 -0.005736
# 4 0.000449 -0.000082 -0.001304 0.030745 -0.005806 0.001346
# 5 0.000291 0.000641 -0.000377 -0.005806 0.044723 -0.000473
# 6 -0.003552 -0.000463 -0.005736 0.001346 -0.000473 0.024002
#
#
# Mechanical properties :
#
#
# Convention : Reuss Voigt Hill
#
# Bulk Modulus (GPa) = 37.97869 49.63013 43.80441
# Shear Modulus (GPa) = 29.50710 33.74325 31.62518
#
# Velocity S-wave (km/s) = 3.66102 3.91500 3.79014
# Velocity P-wave (km/s) = 5.92636 6.55590 6.24906
#
# Compressibility (1/GPa) = 0.02633056
#
# Stress axis : x y z
#
# Youngs Moduli (GPa) = 72.60106 81.93943 56.21367
#
# Poissons Ratio (x) = 0.35974 -0.06690
# Poissons Ratio (y) = 0.31874 0.31020
# Poissons Ratio (z) = -0.08641 0.45216
#
# Static dielectric constant tensor:
#      x y z
#    x 4.770080 1.080390 -0.999290 
#    y 1.080390 5.969250 -1.891590 
#    z -0.999290 -1.891590 6.054760 
# 
# 
# High freq. dielectric constant tensor:
#      x y z
#    x 1.881020 0.000750 0.005810 
#    y 0.000750 1.874890 -0.002590 
#    z 0.005810 -0.002590 1.854850 
# 
# From -- ./inp_files/186611.got.cif
#   From: 2010.06.25/outbox.cif.g09.slc.cpg/sg2_94_cif.got.tgz:186611.got - 2010.06.27 13:26:56.
