data_PCOD8031406
_publ_section_title
;
Structure prediction by ZEFSAII (Michael W. Deem and Ramdas Pophale) SiO2 
 PCOD8031406
Probable space group: P -1
;
_chemical_formula_sum "Si O2"
_cell_formula_units_Z 16
_cell_length_a 9.355552
_cell_length_b 9.255446
_cell_length_c 14.584312
_cell_angle_alpha 112.829407
_cell_angle_beta 139.210046
_cell_angle_gamma 67.345359
_cell_volume 751.562085
_symmetry_space_group_name_H-M "P -1"
_symmetry_group_IT_number 2
_symmetry_cell_setting 'triclinic'
loop_
_space_group_symop_operation_xyz
x,y,z
-x,-y,-z
loop_
_atom_site_type_symbol
_atom_site_label
_atom_site_fract_x
_atom_site_fract_y
_atom_site_fract_z
Si Si1 0.929891 0.095352 0.771133
Si Si2 0.023705 0.564589 0.127430
Si Si3 0.425123 0.022413 0.308680
Si Si4 0.078792 0.063563 0.458856
Si Si5 0.424586 0.378654 0.362292
Si Si6 0.376691 0.985708 0.072115
Si Si7 0.459412 0.358010 0.009979
Si Si8 0.343187 0.729755 0.731221
O O1 0.854567 0.282846 0.789324
O O2 0.732422 0.011918 0.694370
O O3 0.957967 0.058695 0.668791
O O4 0.157681 0.037203 0.919904
O O5 0.166490 0.431714 0.226576
O O6 0.793893 0.618968 0.078715
O O7 0.000000 0.500000 0.000000
O O8 0.460937 0.204747 0.381085
O O9 0.664994 0.912394 0.404888
O O10 0.312599 0.989247 0.149211
O O11 0.921724 0.229099 0.400880
O O12 0.000000 0.000000 0.500000
O O13 0.500000 0.500000 0.500000
O O14 0.560112 0.379188 0.333404
O O15 0.548492 0.108285 0.168784
O O16 0.486996 0.809619 0.056125
O O17 0.610804 0.365696 0.175464
O O18 0.500000 0.500000 0.000000
#
# Coordination Sequence:
#
# PCOD8031406 Si02
#       8
#     2   2   2   2   2   2   2   2
#     4  12  25  43  72  98 139 182 234 288 337 403
#     4  12  25  42  68  97 140 184 220 283 356 404
#     4  11  26  43  70 106 133 183 237 284 334 414
#     4  12  23  42  72  99 135 179 238 278 335 404
#     4  11  24  42  69  99 144 179 228 274 353 412
#     4  11  22  43  73  99 136 178 239 282 342 403
#     4  12  26  42  68 106 138 175 225 289 351 402
#     4  11  22  45  71 103 134 186 231 285 335 416
#
# _framework density 21.288993000000001
#
# number of rings (size 3 to 8) (size 9 to 14) (size 15 to 20)
#    0.000    0.500    6.250    3.375    3.500    0.000 
#    0.000    0.000    0.000    3.000    0.000    0.000 
#    0.000    0.000    0.000    0.000    0.000    0.000 
#
# Total GULP energy -198458.539210 kJ/mol
# GULP energy per Si atom -12403.658701 kJ/mol
# Density = 2.124054 g / cm^3
# Si number density = 21.288993 Si / 1000 Ang^3
#
#
#
# Elastic Constant Matrix: (Units=GPa)
#
#
# Indices 1 2 3 4 5 6 
#
# 1 124.5290 60.7646 56.7951 4.2294 -17.7565 -4.0102
# 2 60.7646 100.1682 40.2002 -7.5998 -8.2094 -10.4028
# 3 56.7951 40.2002 125.0259 -13.6903 -14.3681 -6.4679
# 4 4.2294 -7.5998 -13.6903 43.5656 -15.0104 -4.4503
# 5 -17.7565 -8.2094 -14.3681 -15.0104 41.2917 -2.9206
# 6 -4.0102 -10.4028 -6.4679 -4.4503 -2.9206 35.8421
#
#
#
# Elastic Compliance Matrix: (Units=1/GPa)
#
#
# Indices 1 2 3 4 5 6 
#
# 1 0.013604 -0.006830 -0.004247 -0.003430 0.001660 -0.001517
# 2 -0.006830 0.015391 -0.001026 0.003964 0.001499 0.004132
# 3 -0.004247 -0.001026 0.011450 0.005484 0.004110 0.002309
# 4 -0.003430 0.003964 0.005484 0.030822 0.012895 0.006634
# 5 0.001660 0.001499 0.004110 0.012895 0.031740 0.005550
# 6 -0.001517 0.004132 0.002309 0.006634 0.005550 0.030622
#
#
# Mechanical properties :
#
#
# Convention : Reuss Voigt Hill
#
# Bulk Modulus (GPa) = 61.58025 73.91587 67.74806
# Shear Modulus (GPa) = 30.62798 36.93746 33.78272
#
# Velocity S-wave (km/s) = 3.79710 4.16991 3.98787
# Velocity P-wave (km/s) = 6.94353 7.61445 7.28672
#
# Compressibility (1/GPa) = 0.01623897
#
# Stress axis : x y z
#
# Youngs Moduli (GPa) = 73.50554 64.97325 87.33732
#
# Poissons Ratio (x) = 0.44377 0.37094
# Poissons Ratio (y) = 0.50204 0.08960
# Poissons Ratio (z) = 0.31219 0.06666
#
# Static dielectric constant tensor:
#      x y z
#    x 3.759890 -0.216460 -0.147390 
#    y -0.216460 4.059740 -0.273440 
#    z -0.147390 -0.273440 4.184060 
# 
# 
# High freq. dielectric constant tensor:
#      x y z
#    x 1.841620 -0.019880 -0.015040 
#    y -0.019880 1.829900 -0.020190 
#    z -0.015040 -0.020190 1.846370 
# 
# From -- ./inp_files/399254.got.cif
#   From: 2010.06.25/outbox.cif.g09.slc.cpg/sg2_200_cif.got.tgz:399254.got - 2010.06.27 13:26:56.
