data_PCOD8031163
_publ_section_title
;
Structure prediction by ZEFSAII (Michael W. Deem and Ramdas Pophale) SiO2 
 PCOD8031163
Probable space group: P -1
;
_chemical_formula_sum "Si O2"
_cell_formula_units_Z 16
_cell_length_a 13.596166
_cell_length_b 21.986089
_cell_length_c 5.077173
_cell_angle_alpha 95.897768
_cell_angle_beta 93.860325
_cell_angle_gamma 24.090969
_cell_volume 614.914439
_symmetry_space_group_name_H-M "P -1"
_symmetry_group_IT_number 2
_symmetry_cell_setting 'triclinic'
loop_
_space_group_symop_operation_xyz
x,y,z
-x,-y,-z
loop_
_atom_site_type_symbol
_atom_site_label
_atom_site_fract_x
_atom_site_fract_y
_atom_site_fract_z
Si Si1 0.993901 0.215342 0.180411
Si Si2 0.156672 0.809187 0.144769
Si Si3 0.418944 0.478930 0.549944
Si Si4 0.209423 0.259752 0.429783
Si Si5 0.427914 0.772564 0.174941
Si Si6 0.701558 0.578360 0.656092
Si Si7 0.712208 0.029367 0.519399
Si Si8 0.249773 0.159856 0.901658
O O1 0.105051 0.176669 0.904890
O O2 0.839780 0.362060 0.295303
O O3 0.195699 0.085302 0.377713
O O4 0.842023 0.238347 0.124985
O O5 0.380993 0.660873 0.288571
O O6 0.212562 0.847199 0.088341
O O7 0.897284 0.950965 0.301491
O O8 0.500000 0.500000 0.500000
O O9 0.358808 0.460073 0.315576
O O10 0.448112 0.166801 0.408995
O O11 0.145223 0.270756 0.132379
O O12 0.983151 0.427962 0.567229
O O13 0.258346 0.177417 0.611904
O O14 0.536102 0.696645 0.445091
O O15 0.311203 0.905963 0.225813
O O16 0.638679 0.651392 0.940062
O O17 0.500000 0.000000 0.000000
#
# Coordination Sequence:
#
# PCOD8031163 Si02
#       8
#     2   2   2   2   2   2   2   2
#     4  12  25  42  71 109 143 189 231 293 372 433
#     4  11  26  45  71 107 144 190 242 298 365 428
#     4  11  22  42  70 105 142 184 239 294 361 435
#     4  12  27  46  74 107 148 191 242 298 361 432
#     4  11  28  50  76 102 146 192 252 304 351 423
#     4  11  26  49  73 107 141 197 245 301 361 417
#     4  12  28  47  72 108 143 196 243 297 365 431
#     4  12  25  43  70 107 154 184 232 292 366 440
#
# _framework density 26.019879
#
# number of rings (size 3 to 8) (size 9 to 14) (size 15 to 20)
#    0.000    0.500    3.750    3.375    8.750    1.500 
#    0.000    0.000    0.000    0.000    0.000    0.000 
#    0.000    0.000    0.000    0.000    0.000    0.000 
#
# Total GULP energy -198318.184602 kJ/mol
# GULP energy per Si atom -12394.886538 kJ/mol
# Density = 2.596066 g / cm^3
# Si number density = 26.019879 Si / 1000 Ang^3
#
#
#
# Elastic Constant Matrix: (Units=GPa)
#
#
# Indices 1 2 3 4 5 6 
#
# 1 72.9532 24.7985 0.3603 1.1420 8.5992 -14.2108
# 2 24.7985 101.8051 2.6994 22.0185 -0.3550 -8.4515
# 3 0.3603 2.6994 68.1221 12.4793 5.8446 16.7492
# 4 1.1420 22.0185 12.4793 31.8491 0.6574 6.7963
# 5 8.5992 -0.3550 5.8446 0.6574 37.0335 1.4197
# 6 -14.2108 -8.4515 16.7492 6.7963 1.4197 14.5099
#
#
#
# Elastic Compliance Matrix: (Units=1/GPa)
#
#
# Indices 1 2 3 4 5 6 
#
# 1 0.020318 -0.001935 -0.005803 -0.002837 -0.004816 0.027271
# 2 -0.001935 0.014088 -0.001845 -0.011942 0.000551 0.013981
# 3 -0.005803 -0.001845 0.023097 -0.000484 -0.001038 -0.033091
# 4 -0.002837 -0.011942 -0.000484 0.046557 0.000986 -0.031080
# 5 -0.004816 0.000551 -0.001038 0.000986 0.028520 -0.006449
# 6 0.027271 0.013981 -0.033091 -0.031080 -0.006449 0.157157
#
#
# Mechanical properties :
#
#
# Convention : Reuss Voigt Hill
#
# Bulk Modulus (GPa) = 26.08362 33.17740 29.63051
# Shear Modulus (GPa) = 15.54334 31.01331 23.27832
#
# Velocity S-wave (km/s) = 2.44675 3.45615 2.99429
# Velocity P-wave (km/s) = 4.24599 5.35771 4.83392
#
# Compressibility (1/GPa) = 0.03833824
#
# Stress axis : x y z
#
# Youngs Moduli (GPa) = 49.21780 70.98096 43.29532
#
# Poissons Ratio (x) = 0.13732 0.25124
# Poissons Ratio (y) = 0.09521 0.07988
# Poissons Ratio (z) = 0.28561 0.13097
#
# Static dielectric constant tensor:
#      x y z
#    x 4.982870 -0.393470 0.377730 
#    y -0.393470 4.912880 0.392010 
#    z 0.377730 0.392010 5.055980 
# 
# 
# High freq. dielectric constant tensor:
#      x y z
#    x 2.046040 -0.007620 0.008630 
#    y -0.007620 2.056250 0.013280 
#    z 0.008630 0.013280 2.029300 
# 
# From -- ./inp_files/101232.got.cif
#   From: 2010.06.25/outbox.cif.g09.slc.cpg/sg2_51_cif.got.tgz:101232.got - 2010.06.27 13:26:56.
