data_PCOD8031003
_publ_section_title
;
Structure prediction by ZEFSAII (Michael W. Deem and Ramdas Pophale) SiO2 
 PCOD8031003
Probable space group: P -1
;
_chemical_formula_sum "Si O2"
_cell_formula_units_Z 16
_cell_length_a 11.792342
_cell_length_b 14.277244
_cell_length_c 8.895655
_cell_angle_alpha 79.139534
_cell_angle_beta 109.864787
_cell_angle_gamma 149.296415
_cell_volume 702.227382
_symmetry_space_group_name_H-M "P -1"
_symmetry_group_IT_number 2
_symmetry_cell_setting 'triclinic'
loop_
_space_group_symop_operation_xyz
x,y,z
-x,-y,-z
loop_
_atom_site_type_symbol
_atom_site_label
_atom_site_fract_x
_atom_site_fract_y
_atom_site_fract_z
Si Si1 0.711943 0.976181 0.884062
Si Si2 0.309874 0.309327 0.372491
Si Si3 0.993802 0.687524 0.554463
Si Si4 0.644970 0.712897 0.931313
Si Si5 0.361124 0.814194 0.551134
Si Si6 0.844815 0.682841 0.197211
Si Si7 0.220906 0.983012 0.758353
Si Si8 0.553929 0.300060 0.594769
O O1 0.760646 0.895818 0.916272
O O2 0.463469 0.838377 0.743371
O O3 0.912825 0.172156 0.826401
O O4 0.720281 0.010415 0.050611
O O5 0.500000 0.500000 0.500000
O O6 0.330568 0.336671 0.192944
O O7 0.356112 0.227981 0.441592
O O8 0.038373 0.146546 0.342691
O O9 0.879348 0.686432 0.388633
O O10 0.798260 0.527179 0.642133
O O11 0.090121 0.661371 0.513107
O O12 0.217082 0.886650 0.680455
O O13 0.362494 0.528926 0.892813
O O14 0.768613 0.741252 0.116650
O O15 0.377767 0.747511 0.450139
O O16 0.500000 0.000000 0.500000
O O17 0.439983 0.198816 0.736416
#
# Coordination Sequence:
#
# PCOD8031003 Si02
#       8
#     2   2   2   2   2   2   2   2
#     4  12  25  44  69 103 139 183 233 292 348 409
#     4  12  23  44  69 104 145 181 223 285 354 425
#     4  12  25  47  71 104 138 189 241 287 345 412
#     4  11  24  41  67 107 138 182 233 282 353 420
#     4  12  24  47  78  98 133 188 249 291 335 413
#     4  11  22  41  71  95 141 179 232 287 340 416
#     4  12  27  42  69 105 144 183 225 291 357 420
#     4  12  25  47  71 103 141 187 236 282 354 416
#
# _framework density 22.784642999999999
#
# number of rings (size 3 to 8) (size 9 to 14) (size 15 to 20)
#    0.000    0.250    7.500    1.125    0.000    4.500 
#    0.000    0.625    0.000    0.000    0.000    0.000 
#    0.000    0.000    0.000    0.000    0.000    0.000 
#
# Total GULP energy -198337.705480 kJ/mol
# GULP energy per Si atom -12396.106593 kJ/mol
# Density = 2.273278 g / cm^3
# Si number density = 22.784643 Si / 1000 Ang^3
#
#
#
# Elastic Constant Matrix: (Units=GPa)
#
#
# Indices 1 2 3 4 5 6 
#
# 1 82.7671 10.9697 18.3245 -4.3825 2.5761 -0.0747
# 2 10.9697 123.3070 29.5388 -25.2086 -6.7105 18.2669
# 3 18.3245 29.5388 105.4543 -4.6088 -3.6227 -5.9381
# 4 -4.3825 -25.2086 -4.6088 24.7244 -0.5434 1.5451
# 5 2.5761 -6.7105 -3.6227 -0.5434 26.5683 3.3486
# 6 -0.0747 18.2669 -5.9381 1.5451 3.3486 34.6720
#
#
#
# Elastic Compliance Matrix: (Units=1/GPa)
#
#
# Indices 1 2 3 4 5 6 
#
# 1 0.012724 -0.000435 -0.002084 0.001389 -0.001598 -0.000008
# 2 -0.000435 0.013182 -0.003367 0.013363 0.004261 -0.008530
# 3 -0.002084 -0.003367 0.010921 -0.001990 0.000334 0.003696
# 4 0.001389 0.013363 -0.001990 0.054710 0.005391 -0.010337
# 5 -0.001598 0.004261 0.000334 0.005391 0.039817 -0.006277
# 6 -0.000008 -0.008530 0.003696 -0.010337 -0.006277 0.035035
#
#
# Mechanical properties :
#
#
# Convention : Reuss Voigt Hill
#
# Bulk Modulus (GPa) = 39.90980 47.68827 43.79904
# Shear Modulus (GPa) = 26.80781 34.03930 30.42356
#
# Velocity S-wave (km/s) = 3.43384 3.86937 3.65809
# Velocity P-wave (km/s) = 5.76852 6.39829 6.09155
#
# Compressibility (1/GPa) = 0.02505650
#
# Stress axis : x y z
#
# Youngs Moduli (GPa) = 78.58927 75.85890 91.56958
#
# Poissons Ratio (x) = 0.03296 0.19083
# Poissons Ratio (y) = 0.03415 0.30831
# Poissons Ratio (z) = 0.16378 0.25541
#
# Static dielectric constant tensor:
#      x y z
#    x 4.203190 0.062970 0.114660 
#    y 0.062970 4.378160 -0.056480 
#    z 0.114660 -0.056480 4.011440 
# 
# 
# High freq. dielectric constant tensor:
#      x y z
#    x 1.888450 0.009130 0.006500 
#    y 0.009130 1.913900 -0.008670 
#    z 0.006500 -0.008670 1.886590 
# 
# From -- ./inp_files/272978.got.cif
#   From: 2010.06.25/outbox.cif.g09.slc.cpg/sg2_137_cif.got.tgz:272978.got - 2010.06.27 13:26:56.
