data_PCOD8031334
_publ_section_title
;
Structure prediction by ZEFSAII (Michael W. Deem and Ramdas Pophale) SiO2 
 PCOD8031334
Probable space group: P -1
;
_chemical_formula_sum "Si O2"
_cell_formula_units_Z 16
_cell_length_a 13.114285
_cell_length_b 16.348371
_cell_length_c 18.364085
_cell_angle_alpha 29.015222
_cell_angle_beta 45.692303
_cell_angle_gamma 25.942443
_cell_volume 760.455098
_symmetry_space_group_name_H-M "P -1"
_symmetry_group_IT_number 2
_symmetry_cell_setting 'triclinic'
loop_
_space_group_symop_operation_xyz
x,y,z
-x,-y,-z
loop_
_atom_site_type_symbol
_atom_site_label
_atom_site_fract_x
_atom_site_fract_y
_atom_site_fract_z
Si Si1 0.455392 0.715790 0.147026
Si Si2 0.997765 0.326971 0.827284
Si Si3 0.488228 0.350266 0.671307
Si Si4 0.448707 0.717699 0.812199
Si Si5 0.447403 0.705200 0.652182
Si Si6 0.001228 0.371452 0.309607
Si Si7 0.004578 0.306002 0.672428
Si Si8 0.802318 0.702551 0.004303
O O1 0.430849 0.660721 0.281777
O O2 0.606400 0.431315 0.243958
O O3 0.597013 0.756222 0.053461
O O4 0.170486 0.021957 0.020588
O O5 0.050205 0.465169 0.720434
O O6 0.083975 0.221056 0.783389
O O7 0.699712 0.588065 0.789637
O O8 0.500000 0.500000 0.500000
O O9 0.193757 0.589593 0.627555
O O10 0.663745 0.018404 0.821391
O O11 0.380024 0.761139 0.727783
O O12 0.211871 0.027621 0.731417
O O13 0.500000 0.500000 0.000000
O O14 0.737617 0.469902 0.671257
O O15 0.278734 0.011605 0.456404
O O16 0.960048 0.529364 0.135872
O O17 0.000000 0.500000 0.500000
O O18 0.000000 0.500000 0.000000
#
# Coordination Sequence:
#
# PCOD8031334 Si02
#       8
#     2   2   2   2   2   2   2   2
#     4  11  23  45  66  93 137 175 217 271 333 390
#     4  11  22  43  70  92 132 181 216 271 334 392
#     4  11  25  44  69  99 132 168 220 276 326 396
#     4  11  24  43  65  98 135 171 224 278 327 388
#     4  11  26  41  66 102 132 177 224 273 328 394
#     4  11  23  45  66  93 137 175 217 271 333 390
#     4  11  24  43  65  98 135 171 224 278 327 388
#     4  11  25  44  67  99 133 171 221 271 330 397
#
# _framework density 21.040033000000001
#
# number of rings (size 3 to 8) (size 9 to 14) (size 15 to 20)
#    0.000    1.000    2.500    3.750    3.500   11.000 
#    0.000    0.000    0.000    0.000    0.000    0.000 
#    0.000    0.000    0.000    0.000    0.000    0.000 
#
# Total GULP energy -198355.906674 kJ/mol
# GULP energy per Si atom -12397.244167 kJ/mol
# Density = 2.099214 g / cm^3
# Si number density = 21.040033 Si / 1000 Ang^3
#
#
#
# Elastic Constant Matrix: (Units=GPa)
#
#
# Indices 1 2 3 4 5 6 
#
# 1 120.0909 52.1379 68.9600 -5.2423 9.3289 29.1959
# 2 52.1379 143.8807 64.3865 -3.7816 12.1217 32.2158
# 3 68.9600 64.3865 176.7623 -2.7937 0.8916 16.4064
# 4 -5.2423 -3.7816 -2.7937 42.9051 3.5692 -5.7486
# 5 9.3289 12.1217 0.8916 3.5692 35.6765 -6.9215
# 6 29.1959 32.2158 16.4064 -5.7486 -6.9215 25.4540
#
#
#
# Elastic Compliance Matrix: (Units=1/GPa)
#
#
# Indices 1 2 3 4 5 6 
#
# 1 0.015731 0.001382 -0.004847 -0.000129 -0.008117 -0.018905
# 2 0.001382 0.012580 -0.003461 -0.000645 -0.007893 -0.017568
# 3 -0.004847 -0.003461 0.008281 0.000108 0.003297 0.005523
# 4 -0.000129 -0.000645 0.000108 0.024138 -0.000985 0.006079
# 5 -0.008117 -0.007893 0.003297 -0.000985 0.038151 0.027326
# 6 -0.018905 -0.017568 0.005523 0.006079 0.027326 0.088449
#
#
# Mechanical properties :
#
#
# Convention : Reuss Voigt Hill
#
# Bulk Modulus (GPa) = 43.97535 90.18921 67.08228
# Shear Modulus (GPa) = 23.95055 37.82375 30.88715
#
# Velocity S-wave (km/s) = 3.37758 4.24453 3.83563
# Velocity P-wave (km/s) = 6.01306 8.18413 7.18112
#
# Compressibility (1/GPa) = 0.02274001
#
# Stress axis : x y z
#
# Youngs Moduli (GPa) = 63.56715 79.49217 120.75179
#
# Poissons Ratio (x) = -0.10985 0.58529
# Poissons Ratio (y) = -0.08784 0.41795
# Poissons Ratio (z) = 0.30811 0.27514
#
# Static dielectric constant tensor:
#      x y z
#    x 4.074060 0.037040 0.152200 
#    y 0.037040 3.746340 0.018830 
#    z 0.152200 0.018830 3.980220 
# 
# 
# High freq. dielectric constant tensor:
#      x y z
#    x 1.839790 0.007620 0.003490 
#    y 0.007620 1.822560 -0.006040 
#    z 0.003490 -0.006040 1.841730 
# 
# From -- ./inp_files/273116.got.cif
#   From: 2010.06.25/outbox.cif.g09.slc.cpg/sg2_137_cif.got.tgz:273116.got - 2010.06.27 13:26:56.
