data_PCOD8031118
_publ_section_title
;
Structure prediction by ZEFSAII (Michael W. Deem and Ramdas Pophale) SiO2 
 PCOD8031118
Probable space group: P -1
;
_chemical_formula_sum "Si O2"
_cell_formula_units_Z 14
_cell_length_a 10.331008
_cell_length_b 7.745699
_cell_length_c 15.603486
_cell_angle_alpha 128.099492
_cell_angle_beta 40.320757
_cell_angle_gamma 101.248920
_cell_volume 534.801493
_symmetry_space_group_name_H-M "P -1"
_symmetry_group_IT_number 2
_symmetry_cell_setting 'triclinic'
loop_
_space_group_symop_operation_xyz
x,y,z
-x,-y,-z
loop_
_atom_site_type_symbol
_atom_site_label
_atom_site_fract_x
_atom_site_fract_y
_atom_site_fract_z
Si Si1 0.751726 0.267265 0.448165
Si Si2 0.570293 0.478160 0.781477
Si Si3 0.600494 0.692068 0.527063
Si Si4 0.294011 0.249030 0.865482
Si Si5 0.811416 0.715054 0.263134
Si Si6 0.734088 0.978128 0.839796
Si Si7 0.072928 0.198560 0.495412
O O1 0.585936 0.468526 0.666939
O O2 0.633149 0.419466 0.462487
O O3 0.795289 0.986164 0.356852
O O4 0.012662 0.227227 0.306772
O O5 0.532805 0.249937 0.766930
O O6 0.811482 0.455112 0.683570
O O7 0.329276 0.732674 0.016087
O O8 0.610670 0.722202 0.427694
O O9 0.815658 0.710845 0.461763
O O10 0.352653 0.957135 0.763301
O O11 0.242462 0.340104 0.820379
O O12 0.059268 0.470002 0.100840
O O13 0.754751 0.918741 0.710004
O O14 0.500000 0.000000 0.000000
O O15 0.000000 0.000000 0.500000
#
# Coordination Sequence:
#
# PCOD8031118 Si02
#       7
#     2   2   2   2   2   2   2
#     4  11  24  42  69 100 136 169 228 276 327 404
#     4  11  22  42  68  95 136 181 216 267 344 391
#     4  12  24  43  69 101 130 173 221 278 332 394
#     4  11  24  45  70  92 133 178 222 276 335 395
#     4  11  25  48  66  96 133 175 226 277 331 398
#     4  11  23  41  64  97 140 183 214 272 340 397
#     4  11  23  40  64 103 137 172 224 276 328 410
#
# _framework density 26.177938000000001
#
# number of rings (size 3 to 8) (size 9 to 14) (size 15 to 20)
#    0.000    0.857    4.286    3.000    0.000    6.857 
#    0.000    1.429    0.000    0.000    0.000    0.000 
#    0.000    0.000    0.000    0.000    0.000    0.000 
#
# Total GULP energy -173492.817715 kJ/mol
# GULP energy per Si atom -12392.344122 kJ/mol
# Density = 2.611836 g / cm^3
# Si number density = 26.177938 Si / 1000 Ang^3
#
#
#
# Elastic Constant Matrix: (Units=GPa)
#
#
# Indices 1 2 3 4 5 6 
#
# 1 41.5620 5.6074 1.0327 0.8899 -1.6038 -5.5588
# 2 5.6074 146.8331 36.6531 11.5729 -12.6337 7.9864
# 3 1.0327 36.6531 143.3123 15.7493 -11.6098 -0.4149
# 4 0.8899 11.5729 15.7493 41.0084 1.0569 -3.7549
# 5 -1.6038 -12.6337 -11.6098 1.0569 35.0831 -3.8080
# 6 -5.5588 7.9864 -0.4149 -3.7549 -3.8080 38.4577
#
#
#
# Elastic Compliance Matrix: (Units=1/GPa)
#
#
# Indices 1 2 3 4 5 6 
#
# 1 0.024779 -0.001110 0.000214 0.000022 0.001231 0.003938
# 2 -0.001110 0.007659 -0.001600 -0.001734 0.002042 -0.001735
# 3 0.000214 -0.001600 0.007845 -0.002584 0.002152 0.000409
# 4 0.000022 -0.001734 -0.002584 0.026164 -0.001974 0.002695
# 5 0.001231 0.002042 0.002152 -0.001974 0.030348 0.002589
# 6 0.003938 -0.001735 0.000409 0.002695 0.002589 0.027456
#
#
# Mechanical properties :
#
#
# Convention : Reuss Voigt Hill
#
# Bulk Modulus (GPa) = 28.33569 46.47708 37.40639
# Shear Modulus (GPa) = 35.45952 42.13744 38.79848
#
# Velocity S-wave (km/s) = 3.68442 4.01640 3.85399
# Velocity P-wave (km/s) = 5.38031 6.26909 5.84163
#
# Compressibility (1/GPa) = 0.03529118
#
# Stress axis : x y z
#
# Youngs Moduli (GPa) = 40.35735 130.56593 127.47166
#
# Poissons Ratio (x) = 0.14489 -0.02727
# Poissons Ratio (y) = 0.04479 0.20394
# Poissons Ratio (z) = -0.00863 0.20889
#
# Static dielectric constant tensor:
#      x y z
#    x 5.621890 0.321430 0.483100 
#    y 0.321430 4.764500 0.558200 
#    z 0.483100 0.558200 6.810440 
# 
# 
# High freq. dielectric constant tensor:
#      x y z
#    x 2.068100 0.022140 -0.018890 
#    y 0.022140 2.049490 0.011500 
#    z -0.018890 0.011500 2.058870 
# 
# From -- ./inp_files/566915.got.cif
#   From: 2010.06.25/outbox.cif.g09.slc.cpg/sg2_284_cif.got.tgz:566915.got - 2010.06.27 13:26:56.
