data_PCOD8031572
_publ_section_title
;
Structure prediction by ZEFSAII (Michael W. Deem and Ramdas Pophale) SiO2 
 PCOD8031572
Probable space group: P -1
;
_chemical_formula_sum "Si O2"
_cell_formula_units_Z 16
_cell_length_a 8.932823
_cell_length_b 11.201335
_cell_length_c 15.569575
_cell_angle_alpha 59.130129
_cell_angle_beta 55.344758
_cell_angle_gamma 103.112502
_cell_volume 746.392296
_symmetry_space_group_name_H-M "P -1"
_symmetry_group_IT_number 2
_symmetry_cell_setting 'triclinic'
loop_
_space_group_symop_operation_xyz
x,y,z
-x,-y,-z
loop_
_atom_site_type_symbol
_atom_site_label
_atom_site_fract_x
_atom_site_fract_y
_atom_site_fract_z
Si Si1 0.083097 0.286482 0.365820
Si Si2 0.849563 0.019588 0.836915
Si Si3 0.609415 0.407469 0.145078
Si Si4 0.286606 0.950239 0.946925
Si Si5 0.504657 0.933845 0.615756
Si Si6 0.323615 0.662729 0.041177
Si Si7 0.920397 0.122697 0.133269
Si Si8 0.903689 0.289961 0.600405
O O1 0.309976 0.298445 0.274535
O O2 0.147967 0.462154 0.228978
O O3 0.059750 0.305328 0.466549
O O4 0.804267 0.073972 0.498512
O O5 0.972784 0.233510 0.682360
O O6 0.721208 0.971269 0.990378
O O7 0.072651 0.024348 0.769195
O O8 0.628251 0.837932 0.910357
O O9 0.630821 0.295604 0.250233
O O10 0.690452 0.391353 0.032745
O O11 0.810219 0.642350 0.019170
O O12 0.097182 0.913029 0.950370
O O13 0.587857 0.116240 0.751558
O O14 0.187384 0.736435 0.070597
O O15 0.346282 0.948110 0.724716
O O16 0.500000 0.000000 0.500000
O O17 0.000000 0.500000 0.500000
#
# Coordination Sequence:
#
# PCOD8031572 Si02
#       8
#     2   2   2   2   2   2   2   2
#     4  12  24  43  68 103 133 175 227 285 336 392
#     4  11  24  43  71  99 129 182 234 273 330 410
#     4  12  26  45  69 100 135 186 229 268 335 414
#     4  11  23  45  69  96 135 181 228 275 337 403
#     4  12  27  42  66 101 145 173 215 284 350 392
#     4  11  22  44  72  98 129 179 237 272 324 414
#     4  12  25  46  67 100 141 177 225 275 336 416
#     4  11  23  44  70  98 137 171 230 283 340 393
#
# _framework density 21.436449
#
# number of rings (size 3 to 8) (size 9 to 14) (size 15 to 20)
#    0.000    0.500    3.750    6.000    5.250    0.000 
#    0.000    0.625    0.000    0.000    0.000    0.000 
#    0.000    0.000    0.000    0.000    0.000    0.000 
#
# Total GULP energy -198432.381890 kJ/mol
# GULP energy per Si atom -12402.023868 kJ/mol
# Density = 2.138766 g / cm^3
# Si number density = 21.436449 Si / 1000 Ang^3
#
#
#
# Elastic Constant Matrix: (Units=GPa)
#
#
# Indices 1 2 3 4 5 6 
#
# 1 137.8350 35.2719 39.7779 -14.2879 19.4879 -0.1295
# 2 35.2719 77.8316 27.9702 -5.7904 11.6825 7.0620
# 3 39.7779 27.9702 92.6989 0.0537 16.1517 -3.9743
# 4 -14.2879 -5.7904 0.0537 25.9134 -6.0538 11.0023
# 5 19.4879 11.6825 16.1517 -6.0538 44.6704 1.4157
# 6 -0.1295 7.0620 -3.9743 11.0023 1.4157 35.5539
#
#
#
# Elastic Compliance Matrix: (Units=1/GPa)
#
#
# Indices 1 2 3 4 5 6 
#
# 1 0.009523 -0.002473 -0.003102 0.004841 -0.001690 -0.001251
# 2 -0.002473 0.016273 -0.003876 0.004115 -0.001062 -0.004906
# 3 -0.003102 -0.003876 0.014085 -0.005166 -0.003555 0.004073
# 4 0.004841 0.004115 -0.005166 0.051017 0.006145 -0.017409
# 5 -0.001690 -0.001062 -0.003555 0.006145 0.025618 -0.003114
# 6 -0.001251 -0.004906 0.004073 -0.017409 -0.003114 0.035063
#
#
# Mechanical properties :
#
#
# Convention : Reuss Voigt Hill
#
# Bulk Modulus (GPa) = 47.66993 57.15616 52.41305
# Shear Modulus (GPa) = 28.17303 34.91724 31.54514
#
# Velocity S-wave (km/s) = 3.62920 4.04031 3.84026
# Velocity P-wave (km/s) = 6.31249 6.96322 6.64582
#
# Compressibility (1/GPa) = 0.02097758
#
# Stress axis : x y z
#
# Youngs Moduli (GPa) = 105.01116 61.45189 70.99572
#
# Poissons Ratio (x) = 0.15200 0.22023
# Poissons Ratio (y) = 0.25974 0.27520
# Poissons Ratio (z) = 0.32574 0.23821
#
# Static dielectric constant tensor:
#      x y z
#    x 4.080520 -0.051400 0.232850 
#    y -0.051400 3.930400 -0.052130 
#    z 0.232850 -0.052130 3.926820 
# 
# 
# High freq. dielectric constant tensor:
#      x y z
#    x 1.857070 -0.004400 0.014980 
#    y -0.004400 1.843990 0.002780 
#    z 0.014980 0.002780 1.837100 
# 
# From -- ./inp_files/274067.got.cif
#   From: 2010.06.25/outbox.cif.g09.slc.cpg/sg2_138_cif.got.tgz:274067.got - 2010.06.27 13:26:56.
