data_PCOD8031745
_publ_section_title
;
Structure prediction by ZEFSAII (Michael W. Deem and Ramdas Pophale) SiO2 
 PCOD8031745
Probable space group: P -1
;
_chemical_formula_sum "Si O2"
_cell_formula_units_Z 16
_cell_length_a 8.943327
_cell_length_b 9.858003
_cell_length_c 10.922876
_cell_angle_alpha 90.497945
_cell_angle_beta 126.431337
_cell_angle_gamma 107.225883
_cell_volume 718.385981
_symmetry_space_group_name_H-M "P -1"
_symmetry_group_IT_number 2
_symmetry_cell_setting 'triclinic'
loop_
_space_group_symop_operation_xyz
x,y,z
-x,-y,-z
loop_
_atom_site_type_symbol
_atom_site_label
_atom_site_fract_x
_atom_site_fract_y
_atom_site_fract_z
Si Si1 0.633123 0.618974 0.692603
Si Si2 0.101408 0.663061 0.604020
Si Si3 0.840475 0.839822 0.408483
Si Si4 0.551155 0.841389 0.793360
Si Si5 0.807043 0.147625 0.832261
Si Si6 0.938086 0.233552 0.168414
Si Si7 0.464170 0.695741 0.375673
Si Si8 0.160308 0.093615 0.859661
O O1 0.659899 0.728135 0.818453
O O2 0.484080 0.654640 0.525825
O O3 0.562295 0.454554 0.710350
O O4 0.838446 0.649937 0.723710
O O5 0.315360 0.760874 0.650333
O O6 0.154522 0.686326 0.776241
O O7 0.000000 0.500000 0.500000
O O8 0.932189 0.724290 0.492519
O O9 0.650174 0.822209 0.401749
O O10 0.780178 0.814648 0.235624
O O11 0.000000 0.000000 0.500000
O O12 0.637734 0.984011 0.750094
O O13 0.628925 0.884978 0.970134
O O14 0.725367 0.254398 0.718313
O O15 0.007396 0.142196 0.867578
O O16 0.840846 0.212246 0.986852
O O17 0.940102 0.079794 0.219740
#
# Coordination Sequence:
#
# PCOD8031745 Si02
#       8
#     2   2   2   2   2   2   2   2
#     4  11  22  46  66  91 141 178 220 276 337 395
#     4  12  27  44  66 101 134 182 225 271 341 403
#     4  12  24  45  66  98 140 178 224 281 334 393
#     4  11  24  43  70  99 135 179 225 278 334 398
#     4  11  24  43  71 106 126 174 238 272 329 399
#     4  11  22  46  70  94 140 177 217 283 335 391
#     4  11  26  40  67  98 132 184 223 272 337 397
#     4  11  23  44  71 103 137 171 227 284 335 390
#
# _framework density 22.272148999999999
#
# number of rings (size 3 to 8) (size 9 to 14) (size 15 to 20)
#    0.000    0.750    5.000    2.250    5.250    2.000 
#    2.250    1.250    0.000    0.000    0.000    0.000 
#    0.000    0.000    0.000    0.000    0.000    0.000 
#
# Total GULP energy -198267.946956 kJ/mol
# GULP energy per Si atom -12391.746685 kJ/mol
# Density = 2.222146 g / cm^3
# Si number density = 22.272149 Si / 1000 Ang^3
#
#
#
# Elastic Constant Matrix: (Units=GPa)
#
#
# Indices 1 2 3 4 5 6 
#
# 1 67.6849 8.7509 11.8979 7.2824 -0.4014 -7.2454
# 2 8.7509 81.7650 19.6078 17.6904 5.2272 -15.0949
# 3 11.8979 19.6078 50.4225 7.8238 13.9306 -0.6289
# 4 7.2824 17.6904 7.8238 32.9921 -5.9478 -1.9423
# 5 -0.4014 5.2272 13.9306 -5.9478 32.5077 2.3224
# 6 -7.2454 -15.0949 -0.6289 -1.9423 2.3224 31.2922
#
#
#
# Elastic Compliance Matrix: (Units=1/GPa)
#
#
# Indices 1 2 3 4 5 6 
#
# 1 0.016046 0.000296 -0.003783 -0.002400 0.001079 0.003553
# 2 0.000296 0.016575 -0.004420 -0.007952 -0.002772 0.007688
# 3 -0.003783 -0.004420 0.026401 -0.005238 -0.011469 -0.001951
# 4 -0.002400 -0.007952 -0.005238 0.038098 0.010673 -0.002924
# 5 0.001079 -0.002772 -0.011469 0.010673 0.038339 -0.003501
# 6 0.003553 0.007688 -0.001951 -0.002924 -0.003501 0.036527
#
#
# Mechanical properties :
#
#
# Convention : Reuss Voigt Hill
#
# Bulk Modulus (GPa) = 23.14346 31.15394 27.14870
# Shear Modulus (GPa) = 24.72777 29.99944 27.36361
#
# Velocity S-wave (km/s) = 3.33566 3.67406 3.50894
# Velocity P-wave (km/s) = 5.02487 5.65831 5.35097
#
# Compressibility (1/GPa) = 0.04320875
#
# Stress axis : x y z
#
# Youngs Moduli (GPa) = 62.32096 60.33067 37.87771
#
# Poissons Ratio (x) = -0.01786 0.14328
# Poissons Ratio (y) = -0.01845 0.16742
# Poissons Ratio (z) = 0.23574 0.26666
#
# Static dielectric constant tensor:
#      x y z
#    x 3.851260 0.344340 -0.298340 
#    y 0.344340 3.182570 0.416610 
#    z -0.298340 0.416610 3.984320 
# 
# 
# High freq. dielectric constant tensor:
#      x y z
#    x 1.874710 -0.002350 -0.002680 
#    y -0.002350 1.874730 0.012410 
#    z -0.002680 0.012410 1.878760 
# 
# From -- ./inp_files/187827.got.cif
#   From: 2010.06.25/outbox.cif.g09.slc.cpg/sg2_94_cif.got.tgz:187827.got - 2010.06.27 13:26:56.
