data_PCOD8031094
_publ_section_title
;
Structure prediction by ZEFSAII (Michael W. Deem and Ramdas Pophale) SiO2 
 PCOD8031094
Probable space group: P -1
;
_chemical_formula_sum "Si O2"
_cell_formula_units_Z 16
_cell_length_a 22.623994
_cell_length_b 19.101538
_cell_length_c 12.068578
_cell_angle_alpha 149.277576
_cell_angle_beta 39.609260
_cell_angle_gamma 162.006753
_cell_volume 785.396148
_symmetry_space_group_name_H-M "P -1"
_symmetry_group_IT_number 2
_symmetry_cell_setting 'triclinic'
loop_
_space_group_symop_operation_xyz
x,y,z
-x,-y,-z
loop_
_atom_site_type_symbol
_atom_site_label
_atom_site_fract_x
_atom_site_fract_y
_atom_site_fract_z
Si Si1 0.187057 0.812681 0.596462
Si Si2 0.954208 0.726854 0.699864
Si Si3 0.545203 0.781120 0.048059
Si Si4 0.548257 0.176065 0.079456
Si Si5 0.973630 0.852729 0.430731
Si Si6 0.104183 0.123359 0.838107
Si Si7 0.352568 0.179575 0.283098
Si Si8 0.518167 0.036080 0.351866
O O1 0.000000 0.500000 0.500000
O O2 0.098971 0.787522 0.589998
O O3 0.311041 0.068970 0.853184
O O4 0.332529 0.891651 0.442190
O O5 0.727914 0.391091 0.538368
O O6 0.951941 0.807864 0.928497
O O7 0.058974 0.943324 0.743456
O O8 0.509815 0.899868 0.266603
O O9 0.337122 0.426675 0.877671
O O10 0.660544 0.897583 0.926902
O O11 0.774817 0.511061 0.229103
O O12 0.421102 0.151502 0.232973
O O13 0.500000 0.000000 0.000000
O O14 0.512755 0.063794 0.860106
O O15 0.000000 0.000000 0.500000
O O16 0.970453 0.926131 0.653378
O O17 0.140799 0.954517 0.325429
O O18 0.500000 0.500000 0.500000
#
# Coordination Sequence:
#
# PCOD8031094 Si02
#       8
#     2   2   2   2   2   2   2   2
#     4  12  24  38  68  93 121 172 216 255 322 391
#     4  11  25  43  64  95 134 171 208 266 335 375
#     4  11  22  42  67  93 129 162 217 272 316 377
#     4  11  26  43  67  98 133 173 216 273 330 388
#     4  12  24  43  71  96 129 178 225 264 330 393
#     4  11  24  44  63  96 137 166 209 277 320 381
#     4  11  23  43  66  97 129 169 221 273 320 388
#     4  11  23  45  63  94 132 163 215 270 317 382
#
# _framework density 20.371884999999999
#
# number of rings (size 3 to 8) (size 9 to 14) (size 15 to 20)
#    0.000    0.750    5.000    2.625    3.500    2.000 
#    0.000    0.000    0.000    0.000    0.000    0.000 
#    0.000    0.000    0.000    0.000    0.000    0.000 
#
# Total GULP energy -198425.113027 kJ/mol
# GULP energy per Si atom -12401.569564 kJ/mol
# Density = 2.032552 g / cm^3
# Si number density = 20.371885 Si / 1000 Ang^3
#
#
#
# Elastic Constant Matrix: (Units=GPa)
#
#
# Indices 1 2 3 4 5 6 
#
# 1 135.1596 40.0620 22.7945 -36.5684 -56.8652 1.8548
# 2 40.0620 118.8295 75.1219 38.5904 22.8003 17.8182
# 3 22.7945 75.1219 180.6987 81.4343 87.9336 17.1863
# 4 -36.5684 38.5904 81.4343 128.3275 101.9732 6.2093
# 5 -56.8652 22.8003 87.9336 101.9732 163.1273 13.1588
# 6 1.8548 17.8182 17.1863 6.2093 13.1588 39.8708
#
#
#
# Elastic Compliance Matrix: (Units=1/GPa)
#
#
# Indices 1 2 3 4 5 6 
#
# 1 0.011911 -0.003675 -0.003712 0.003115 0.004666 0.000663
# 2 -0.003675 0.013661 -0.003906 -0.003736 0.001589 -0.004193
# 3 -0.003712 -0.003906 0.011571 -0.003358 -0.004809 -0.000959
# 4 0.003115 -0.003736 -0.003358 0.018407 -0.008318 0.002851
# 5 0.004666 0.001589 -0.004809 -0.008318 0.015543 -0.002689
# 6 0.000663 -0.004193 -0.000959 0.002851 -0.002689 0.027781
#
#
# Mechanical properties :
#
#
# Convention : Reuss Voigt Hill
#
# Bulk Modulus (GPa) = 68.70226 78.96052 73.83139
# Shear Modulus (GPa) = 39.58398 86.04574 62.81486
#
# Velocity S-wave (km/s) = 4.41281 6.50609 5.55887
# Velocity P-wave (km/s) = 7.73053 9.76128 8.80465
#
# Compressibility (1/GPa) = 0.01455556
#
# Stress axis : x y z
#
# Youngs Moduli (GPa) = 83.95650 73.19941 86.42157
#
# Poissons Ratio (x) = 0.26903 0.32082
# Poissons Ratio (y) = 0.30857 0.33760
# Poissons Ratio (z) = 0.31166 0.28595
#
# Static dielectric constant tensor:
#      x y z
#    x 3.851990 -0.069990 0.112670 
#    y -0.069990 3.719140 0.012340 
#    z 0.112670 0.012340 3.908490 
# 
# 
# High freq. dielectric constant tensor:
#      x y z
#    x 1.802830 0.003600 0.005610 
#    y 0.003600 1.796380 0.004270 
#    z 0.005610 0.004270 1.813960 
# 
# From -- ./inp_files/273363.got.cif
#   From: 2010.06.25/outbox.cif.g09.slc.cpg/sg2_137_cif.got.tgz:273363.got - 2010.06.27 13:26:56.
