data_PCOD8031149
_publ_section_title
;
Structure prediction by ZEFSAII (Michael W. Deem and Ramdas Pophale) SiO2 
 PCOD8031149
Probable space group: P -1
;
_chemical_formula_sum "Si O2"
_cell_formula_units_Z 14
_cell_length_a 18.544340
_cell_length_b 10.279892
_cell_length_c 17.873231
_cell_angle_alpha 151.987911
_cell_angle_beta 24.193917
_cell_angle_gamma 140.394223
_cell_volume 644.978063
_symmetry_space_group_name_H-M "P -1"
_symmetry_group_IT_number 2
_symmetry_cell_setting 'triclinic'
loop_
_space_group_symop_operation_xyz
x,y,z
-x,-y,-z
loop_
_atom_site_type_symbol
_atom_site_label
_atom_site_fract_x
_atom_site_fract_y
_atom_site_fract_z
Si Si1 0.931620 0.915413 0.601915
Si Si2 0.907869 0.706087 0.854970
Si Si3 0.588736 0.112620 0.110964
Si Si4 0.195941 0.256382 0.573695
Si Si5 0.676471 0.684388 0.357254
Si Si6 0.058841 0.239908 0.981684
Si Si7 0.588144 0.764640 0.074644
O O1 0.951838 0.583728 0.425585
O O2 0.000000 0.000000 0.500000
O O3 0.057524 0.041432 0.605092
O O4 0.722101 0.048176 0.881446
O O5 0.848568 0.788877 0.038716
O O6 0.741739 0.670730 0.942483
O O7 0.009759 0.947599 0.850759
O O8 0.382620 0.089039 0.275941
O O9 0.565583 0.433191 0.325318
O O10 0.665512 0.892335 0.992138
O O11 0.215843 0.370680 0.695766
O O12 0.119482 0.518389 0.724814
O O13 0.808502 0.655935 0.148302
O O14 0.554879 0.992007 0.627729
O O15 0.500000 0.500000 0.000000
#
# Coordination Sequence:
#
# PCOD8031149 Si02
#       7
#     2   2   2   2   2   2   2
#     4  12  25  45  64 100 132 174 226 272 336 398
#     4  11  24  42  63  95 141 169 223 275 336 401
#     4  11  24  42  71  98 131 179 219 278 332 385
#     4  11  22  43  69  97 132 171 228 274 324 404
#     4  11  22  42  69  99 129 176 228 269 329 399
#     4  11  23  41  67  99 131 181 216 279 339 387
#     4  11  25  44  66 101 136 175 226 276 334 400
#
# _framework density 21.706164000000001
#
# number of rings (size 3 to 8) (size 9 to 14) (size 15 to 20)
#    0.000    0.857    2.857    5.571    4.000    1.714 
#    0.000    2.857    0.000    0.000    0.000    0.000 
#    0.000    0.000    0.000    0.000    0.000    0.000 
#
# Total GULP energy -173594.937121 kJ/mol
# GULP energy per Si atom -12399.638366 kJ/mol
# Density = 2.165676 g / cm^3
# Si number density = 21.706164 Si / 1000 Ang^3
#
#
#
# Elastic Constant Matrix: (Units=GPa)
#
#
# Indices 1 2 3 4 5 6 
#
# 1 74.5774 12.1976 15.4345 -3.1460 -2.5313 -9.2446
# 2 12.1976 107.2242 37.2041 17.7071 3.1061 -0.8694
# 3 15.4345 37.2041 113.1588 5.8505 0.5013 -7.8110
# 4 -3.1460 17.7071 5.8505 51.8355 -7.1406 9.3134
# 5 -2.5313 3.1061 0.5013 -7.1406 27.7073 1.3655
# 6 -9.2446 -0.8694 -7.8110 9.3134 1.3655 31.5445
#
#
#
# Elastic Compliance Matrix: (Units=1/GPa)
#
#
# Indices 1 2 3 4 5 6 
#
# 1 0.014443 -0.001377 -0.001342 0.001097 0.001610 0.003469
# 2 -0.001377 0.011360 -0.003305 -0.003986 -0.002385 0.000371
# 3 -0.001342 -0.003305 0.010289 -0.000541 -0.000188 0.002231
# 4 0.001097 -0.003986 -0.000541 0.022979 0.006824 -0.007002
# 5 0.001610 -0.002385 -0.000188 0.006824 0.038432 -0.003319
# 6 0.003469 0.000371 0.002231 -0.007002 -0.003319 0.035492
#
#
# Mechanical properties :
#
#
# Convention : Reuss Voigt Hill
#
# Bulk Modulus (GPa) = 41.58825 47.18142 44.38483
# Shear Modulus (GPa) = 32.66758 37.55907 35.11333
#
# Velocity S-wave (km/s) = 3.88363 4.16425 4.02639
# Velocity P-wave (km/s) = 6.26988 6.70111 6.48908
#
# Compressibility (1/GPa) = 0.02404525
#
# Stress axis : x y z
#
# Youngs Moduli (GPa) = 69.23917 88.02792 97.18677
#
# Poissons Ratio (x) = 0.12123 0.13038
# Poissons Ratio (y) = 0.09535 0.32118
# Poissons Ratio (z) = 0.09289 0.29091
#
# Static dielectric constant tensor:
#      x y z
#    x 3.973770 0.104920 -0.012320 
#    y 0.104920 4.141450 0.190590 
#    z -0.012320 0.190590 3.883240 
# 
# 
# High freq. dielectric constant tensor:
#      x y z
#    x 1.849800 0.002620 0.000750 
#    y 0.002620 1.864110 0.014440 
#    z 0.000750 0.014440 1.851460 
# 
# From -- ./inp_files/239887.got.cif
#   From: 2010.06.25/outbox.cif.g09.slc.cpg/sg2_120_cif.got.tgz:239887.got - 2010.06.27 13:26:56.
