data_PCOD8031300
_publ_section_title
;
Structure prediction by ZEFSAII (Michael W. Deem and Ramdas Pophale) SiO2 
 PCOD8031300
Probable space group: P -1
;
_chemical_formula_sum "Si O2"
_cell_formula_units_Z 14
_cell_length_a 15.778800
_cell_length_b 30.544134
_cell_length_c 12.492687
_cell_angle_alpha 159.899776
_cell_angle_beta 30.536821
_cell_angle_gamma 161.160146
_cell_volume 647.371068
_symmetry_space_group_name_H-M "P -1"
_symmetry_group_IT_number 2
_symmetry_cell_setting 'triclinic'
loop_
_space_group_symop_operation_xyz
x,y,z
-x,-y,-z
loop_
_atom_site_type_symbol
_atom_site_label
_atom_site_fract_x
_atom_site_fract_y
_atom_site_fract_z
Si Si1 0.668969 0.371027 0.752194
Si Si2 0.302322 0.414706 0.613291
Si Si3 0.252948 0.890942 0.593839
Si Si4 0.594069 0.729531 0.676081
Si Si5 0.051287 0.689115 0.576013
Si Si6 0.245506 0.356011 0.870208
Si Si7 0.845353 0.038731 0.741940
O O1 0.876173 0.393486 0.626038
O O2 0.452477 0.165308 0.445548
O O3 0.559372 0.393717 0.021317
O O4 0.802079 0.548554 0.931462
O O5 0.500000 0.500000 0.500000
O O6 0.251122 0.251477 0.354849
O O7 0.015913 0.293478 0.605752
O O8 0.206205 0.783453 0.508605
O O9 0.500000 0.000000 0.500000
O O10 0.313075 0.071011 0.970932
O O11 0.715373 0.748665 0.479060
O O12 0.273510 0.510402 0.539256
O O13 0.148132 0.874912 0.958547
O O14 0.978702 0.199175 0.870814
O O15 0.500000 0.500000 0.000000
O O16 0.000000 0.000000 0.500000
#
# Coordination Sequence:
#
# PCOD8031300 Si02
#       7
#     2   2   2   2   2   2   2
#     4  11  27  42  67 101 143 179 224 295 347 407
#     4  11  24  46  72  99 132 189 238 280 342 409
#     4  12  28  45  72 103 141 183 233 289 350 412
#     4  11  24  44  71 100 136 181 235 286 338 417
#     4  12  26  45  67 106 142 182 226 292 360 404
#     4  11  22  43  69 101 130 178 235 279 337 418
#     4  12  23  43  73  98 137 183 232 281 346 419
#
# _framework density 21.625927999999998
#
# number of rings (size 3 to 8) (size 9 to 14) (size 15 to 20)
#    0.000    0.571    4.286    3.429    4.000    5.143 
#    0.000    0.000    0.000    0.000    0.000    0.000 
#    0.000    0.000    0.000    0.000    0.000    0.000 
#
# Total GULP energy -173520.260709 kJ/mol
# GULP energy per Si atom -12394.304336 kJ/mol
# Density = 2.157671 g / cm^3
# Si number density = 21.625928 Si / 1000 Ang^3
#
#
#
# Elastic Constant Matrix: (Units=GPa)
#
#
# Indices 1 2 3 4 5 6 
#
# 1 123.6447 13.0866 36.1281 -18.9970 -6.5373 -1.7050
# 2 13.0866 69.0979 -0.3146 -12.4408 10.5560 -6.6724
# 3 36.1281 -0.3146 91.6087 1.8039 -3.4645 -2.8640
# 4 -18.9970 -12.4408 1.8039 29.0953 4.6001 3.7340
# 5 -6.5373 10.5560 -3.4645 4.6001 39.3526 -5.1989
# 6 -1.7050 -6.6724 -2.8640 3.7340 -5.1989 37.3457
#
#
#
# Elastic Compliance Matrix: (Units=1/GPa)
#
#
# Indices 1 2 3 4 5 6 
#
# 1 0.010491 -0.000985 -0.004260 0.006644 0.000779 -0.000580
# 2 -0.000985 0.016924 0.000150 0.007232 -0.005334 0.001525
# 3 -0.004260 0.000150 0.012752 -0.003837 0.000999 0.001333
# 4 0.006644 0.007232 -0.003837 0.043628 -0.006803 -0.004008
# 5 0.000779 -0.005334 0.000999 -0.006803 0.028355 0.003787
# 6 -0.000580 0.001525 0.001333 -0.004008 0.003787 0.028053
#
#
# Mechanical properties :
#
#
# Convention : Reuss Voigt Hill
#
# Bulk Modulus (GPa) = 33.36022 42.46130 37.91076
# Shear Modulus (GPa) = 31.17532 36.85547 34.01539
#
# Velocity S-wave (km/s) = 3.80092 4.13271 3.97028
# Velocity P-wave (km/s) = 5.89255 6.51532 6.21175
#
# Compressibility (1/GPa) = 0.02997582
#
# Stress axis : x y z
#
# Youngs Moduli (GPa) = 95.32287 59.08933 78.42146
#
# Poissons Ratio (x) = 0.05820 0.33409
# Poissons Ratio (y) = 0.09389 -0.01177
# Poissons Ratio (z) = 0.40609 -0.00887
#
# Static dielectric constant tensor:
#      x y z
#    x 0.000000 0.000000 0.000000 
#    y 0.000000 0.000000 0.000000 
#    z 0.000000 0.000000 0.000000 
# 
# 
# High freq. dielectric constant tensor:
#      x y z
#    x 1.872720 -0.006180 0.004370 
#    y -0.006180 1.839050 -0.001980 
#    z 0.004370 -0.001980 1.864300 
# 
# From -- ./inp_files/259803.got.cif
#   From: 2010.06.25/outbox.cif.g09.slc.cpg/sg2_130_cif.got.tgz:259803.got - 2010.06.27 13:26:56.
