data_PCOD8031620
_publ_section_title
;
Structure prediction by ZEFSAII (Michael W. Deem and Ramdas Pophale) SiO2 
 PCOD8031620
Probable space group: P -1
;
_chemical_formula_sum "Si O2"
_cell_formula_units_Z 16
_cell_length_a 22.547081
_cell_length_b 9.577244
_cell_length_c 10.763609
_cell_angle_alpha 94.752151
_cell_angle_beta 57.377563
_cell_angle_gamma 46.004300
_cell_volume 923.845247
_symmetry_space_group_name_H-M "P -1"
_symmetry_group_IT_number 2
_symmetry_cell_setting 'triclinic'
loop_
_space_group_symop_operation_xyz
x,y,z
-x,-y,-z
loop_
_atom_site_type_symbol
_atom_site_label
_atom_site_fract_x
_atom_site_fract_y
_atom_site_fract_z
Si Si1 0.797525 0.863252 0.139201
Si Si2 0.723688 0.224405 0.432606
Si Si3 0.574665 0.055156 0.526746
Si Si4 0.278898 0.982557 0.234448
Si Si5 0.495058 0.603351 0.179505
Si Si6 0.035238 0.296382 0.704464
Si Si7 0.443549 0.222453 0.427259
Si Si8 0.735672 0.821996 0.975401
O O1 0.713838 0.993786 0.108290
O O2 0.775367 0.055985 0.235174
O O3 0.727127 0.870268 0.311879
O O4 0.972687 0.520531 0.892705
O O5 0.583865 0.389613 0.662635
O O6 0.679002 0.461039 0.470825
O O7 0.858094 0.996855 0.363731
O O8 0.479857 0.309941 0.751847
O O9 0.468143 0.224460 0.541484
O O10 0.618196 0.827019 0.515546
O O11 0.394840 0.833439 0.195420
O O12 0.121909 0.223649 0.491937
O O13 0.345126 0.727739 0.074520
O O14 0.252739 0.151027 0.177446
O O15 0.891112 0.473625 0.816984
O O16 0.598802 0.955957 0.156451
#
# Coordination Sequence:
#
# PCOD8031620 Si02
#       8
#     2   2   2   2   2   2   2   2
#     4   8  18  30  51  75 100 126 159 206 246 292
#     4  10  17  31  52  79  97 122 167 208 248 287
#     4   9  19  34  50  75 100 129 161 205 255 284
#     4  10  17  31  50  76 101 129 166 200 242 286
#     4   9  19  30  52  77 102 121 166 215 237 281
#     4   9  19  30  48  74 104 132 154 203 250 293
#     4  10  19  32  54  75  99 127 165 205 247 293
#     4   9  18  30  49  73 103 128 161 199 245 290
#
# _framework density 17.318919000000001
#
# number of rings (size 3 to 8) (size 9 to 14) (size 15 to 20)
#    0.750    2.000    1.250    0.750    1.750    1.500 
#    0.000    1.250    0.000    0.750    0.000    0.000 
#    0.000    0.000    0.000    0.000    0.000    0.000 
#
# Total GULP energy -198272.079651 kJ/mol
# GULP energy per Si atom -12392.004978 kJ/mol
# Density = 1.727950 g / cm^3
# Si number density = 17.318919 Si / 1000 Ang^3
#
#
#
# Elastic Constant Matrix: (Units=GPa)
#
#
# Indices 1 2 3 4 5 6 
#
# 1 43.5604 30.2464 29.2118 -2.0462 7.1292 7.6484
# 2 30.2464 102.2654 31.5118 -4.3729 -2.9651 1.6525
# 3 29.2118 31.5118 108.4393 2.4287 4.7758 3.6188
# 4 -2.0462 -4.3729 2.4287 22.1988 -8.1673 2.8863
# 5 7.1292 -2.9651 4.7758 -8.1673 19.1764 1.4454
# 6 7.6484 1.6525 3.6188 2.8863 1.4454 20.5183
#
#
#
# Elastic Compliance Matrix: (Units=1/GPa)
#
#
# Indices 1 2 3 4 5 6 
#
# 1 0.038059 -0.009531 -0.006480 -0.001255 -0.013704 -0.011135
# 2 -0.009531 0.013592 -0.001894 0.004756 0.008025 0.001558
# 3 -0.006480 -0.001894 0.011651 -0.003215 -0.002240 0.001123
# 4 -0.001255 0.004756 -0.003215 0.057430 0.027166 -0.009341
# 5 -0.013704 0.008025 -0.002240 0.027166 0.070910 -0.003960
# 6 -0.011135 0.001558 0.001123 -0.009341 -0.003960 0.054157
#
#
# Mechanical properties :
#
#
# Convention : Reuss Voigt Hill
#
# Bulk Modulus (GPa) = 36.37401 48.46724 42.42063
# Shear Modulus (GPa) = 17.19566 23.26502 20.23034
#
# Velocity S-wave (km/s) = 3.15442 3.66912 3.42146
# Velocity P-wave (km/s) = 5.85792 6.78202 6.33684
#
# Compressibility (1/GPa) = 0.02749216
#
# Stress axis : x y z
#
# Youngs Moduli (GPa) = 26.27529 73.57307 85.83083
#
# Poissons Ratio (x) = 0.70122 0.55614
# Poissons Ratio (y) = 0.25043 0.16258
# Poissons Ratio (z) = 0.17025 0.13936
#
# Static dielectric constant tensor:
#      x y z
#    x 2.954800 -0.195350 0.137900 
#    y -0.195350 3.073500 -0.073390 
#    z 0.137900 -0.073390 3.340900 
# 
# 
# High freq. dielectric constant tensor:
#      x y z
#    x 1.631990 -0.027260 0.011730 
#    y -0.027260 1.655170 -0.003300 
#    z 0.011730 -0.003300 1.675120 
# 
# From -- ./inp_files/276669.got.cif
#   From: 2010.06.25/outbox.cif.g09.slc.cpg/sg2_139_cif.got.tgz:276669.got - 2010.06.27 13:26:56.
