data_PCOD8031647
_publ_section_title
;
Structure prediction by ZEFSAII (Michael W. Deem and Ramdas Pophale) SiO2 
 PCOD8031647
Probable space group: P -1
;
_chemical_formula_sum "Si O2"
_cell_formula_units_Z 16
_cell_length_a 9.689119
_cell_length_b 11.283632
_cell_length_c 14.771526
_cell_angle_alpha 27.574117
_cell_angle_beta 96.149035
_cell_angle_gamma 86.082294
_cell_volume 694.908711
_symmetry_space_group_name_H-M "P -1"
_symmetry_group_IT_number 2
_symmetry_cell_setting 'triclinic'
loop_
_space_group_symop_operation_xyz
x,y,z
-x,-y,-z
loop_
_atom_site_type_symbol
_atom_site_label
_atom_site_fract_x
_atom_site_fract_y
_atom_site_fract_z
Si Si1 0.291900 0.764024 0.926040
Si Si2 0.804978 0.605543 0.259102
Si Si3 0.591383 0.761548 0.984101
Si Si4 0.535873 0.677003 0.306684
Si Si5 0.797138 0.657627 0.913367
Si Si6 0.061944 0.229394 0.316052
Si Si7 0.252348 0.792550 0.107557
Si Si8 0.861192 0.666986 0.558865
O O1 0.471500 0.624347 0.040329
O O2 0.249271 0.070947 0.677140
O O3 0.233566 0.586402 0.975649
O O4 0.216256 0.785989 0.003784
O O5 0.707863 0.563375 0.365161
O O6 0.969753 0.382289 0.426770
O O7 0.727010 0.564338 0.187917
O O8 0.819612 0.904815 0.059938
O O9 0.659209 0.834538 0.846271
O O10 0.500133 0.022435 0.860141
O O11 0.500000 0.500000 0.500000
O O12 0.430737 0.689872 0.204286
O O13 0.831943 0.859676 0.705773
O O14 0.934620 0.514949 0.086574
O O15 0.156389 0.284900 0.367102
O O16 0.000000 0.000000 0.500000
O O17 0.185677 0.592909 0.292170
#
# Coordination Sequence:
#
# PCOD8031647 Si02
#       8
#     2   2   2   2   2   2   2   2
#     4  12  23  43  69  99 139 171 218 284 335 393
#     4  11  23  45  70  95 137 182 221 276 332 404
#     4  11  22  45  68  96 131 183 220 271 337 397
#     4  11  23  45  71  99 136 178 230 272 328 408
#     4  11  24  42  71  95 133 177 224 271 339 392
#     4  11  23  44  65  97 134 176 223 276 328 400
#     4  11  23  44  68  99 139 174 220 280 336 392
#     4  12  25  42  70 101 136 175 224 278 337 396
#
# _framework density 23.024608000000001
#
# number of rings (size 3 to 8) (size 9 to 14) (size 15 to 20)
#    0.000    0.750    6.250    2.250    0.000    1.500 
#    4.500    0.625    0.000    0.000    0.000    0.000 
#    0.000    0.000    0.000    0.000    0.000    0.000 
#
# Total GULP energy -198402.536293 kJ/mol
# GULP energy per Si atom -12400.158518 kJ/mol
# Density = 2.297220 g / cm^3
# Si number density = 23.024608 Si / 1000 Ang^3
#
#
#
# Elastic Constant Matrix: (Units=GPa)
#
#
# Indices 1 2 3 4 5 6 
#
# 1 107.8711 31.7757 28.3245 3.8304 -8.3928 -12.2411
# 2 31.7757 79.4551 22.6024 23.3202 3.1290 -11.7711
# 3 28.3245 22.6024 84.7728 19.0216 -22.9403 1.6572
# 4 3.8304 23.3202 19.0216 19.9408 -2.5420 -7.1241
# 5 -8.3928 3.1290 -22.9403 -2.5420 38.8241 5.6465
# 6 -12.2411 -11.7711 1.6572 -7.1241 5.6465 46.1508
#
#
#
# Elastic Compliance Matrix: (Units=1/GPa)
#
#
# Indices 1 2 3 4 5 6 
#
# 1 0.012455 -0.006315 -0.004854 0.010938 0.000542 0.003489
# 2 -0.006315 0.023046 0.000706 -0.026786 -0.004648 0.000612
# 3 -0.004854 0.000706 0.020952 -0.020782 0.010843 -0.006394
# 4 0.010938 -0.026786 -0.020782 0.103526 -0.002890 0.013150
# 5 0.000542 -0.004648 0.010843 -0.002890 0.033333 -0.005955
# 6 0.003489 0.000612 -0.006394 0.013150 -0.005955 0.025738
#
#
# Mechanical properties :
#
#
# Convention : Reuss Voigt Hill
#
# Bulk Modulus (GPa) = 28.14735 48.61158 38.37947
# Shear Modulus (GPa) = 19.85571 33.60956 26.73264
#
# Velocity S-wave (km/s) = 2.93980 3.82478 3.41111
# Velocity P-wave (km/s) = 4.87593 6.37683 5.67620
#
# Compressibility (1/GPa) = 0.03552732
#
# Stress axis : x y z
#
# Youngs Moduli (GPa) = 80.29081 43.39190 47.72806
#
# Poissons Ratio (x) = 0.27402 0.23165
# Poissons Ratio (y) = 0.50704 -0.03370
# Poissons Ratio (z) = 0.38969 -0.03064
#
# Static dielectric constant tensor:
#      x y z
#    x 4.302410 0.115530 -0.060970 
#    y 0.115530 4.279120 0.255120 
#    z -0.060970 0.255120 3.987270 
# 
# 
# High freq. dielectric constant tensor:
#      x y z
#    x 1.921660 0.006330 -0.009870 
#    y 0.006330 1.912640 0.023280 
#    z -0.009870 0.023280 1.887680 
# 
# From -- ./inp_files/382619.got.cif
#   From: 2010.06.25/outbox.cif.g09.slc.cpg/sg2_192_cif.got.tgz:382619.got - 2010.06.27 13:26:56.
