data_PCOD8031435
_publ_section_title
;
Structure prediction by ZEFSAII (Michael W. Deem and Ramdas Pophale) SiO2 
 PCOD8031435
Probable space group: P -1
;
_chemical_formula_sum "Si O2"
_cell_formula_units_Z 16
_cell_length_a 8.874792
_cell_length_b 14.820007
_cell_length_c 8.439797
_cell_angle_alpha 105.260797
_cell_angle_beta 107.189226
_cell_angle_gamma 40.663179
_cell_volume 689.646527
_symmetry_space_group_name_H-M "P -1"
_symmetry_group_IT_number 2
_symmetry_cell_setting 'triclinic'
loop_
_space_group_symop_operation_xyz
x,y,z
-x,-y,-z
loop_
_atom_site_type_symbol
_atom_site_label
_atom_site_fract_x
_atom_site_fract_y
_atom_site_fract_z
Si Si1 0.311910 0.480884 0.281923
Si Si2 0.096524 0.896505 0.199387
Si Si3 0.533605 0.702118 0.053814
Si Si4 0.144684 0.086768 0.383315
Si Si5 0.565846 0.079389 0.070921
Si Si6 0.582958 0.870876 0.622233
Si Si7 0.284423 0.699140 0.450482
Si Si8 0.866468 0.611748 0.373151
O O1 0.340395 0.580036 0.316866
O O2 0.479405 0.368553 0.421852
O O3 0.045544 0.576773 0.287137
O O4 0.377354 0.407165 0.101486
O O5 0.270723 0.788560 0.062813
O O6 0.192752 0.820418 0.363655
O O7 0.087827 0.012315 0.253555
O O8 0.844859 0.965254 0.114892
O O9 0.697280 0.619143 0.221125
O O10 0.537522 0.809051 0.046775
O O11 0.266293 0.099332 0.293911
O O12 0.904665 0.237765 0.440987
O O13 0.318612 0.007189 0.550179
O O14 0.439879 0.171235 0.235987
O O15 0.500000 0.000000 0.000000
O O16 0.706449 0.759615 0.471054
O O17 0.000000 0.500000 0.500000
#
# Coordination Sequence:
#
# PCOD8031435 Si02
#       8
#     2   2   2   2   2   2   2   2
#     4  11  26  45  69 107 147 194 244 297 359 431
#     4  12  25  45  74 104 145 193 241 299 371 437
#     4  12  27  47  73 105 152 190 244 304 360 432
#     4  11  22  43  77 104 138 186 245 308 351 432
#     4  12  28  45  71 113 148 187 237 309 379 428
#     4  11  24  44  75 106 142 188 244 297 370 428
#     4  11  24  45  74 103 146 192 244 300 360 437
#     4  12  25  48  73 104 143 198 249 290 363 440
#
# _framework density 23.200291
#
# number of rings (size 3 to 8) (size 9 to 14) (size 15 to 20)
#    0.000    0.500    3.750    4.125    5.250    1.500 
#    0.000    0.000    0.000    0.000    0.000    0.000 
#    0.000    0.000    0.000    0.000    0.000    0.000 
#
# Total GULP energy -198464.263009 kJ/mol
# GULP energy per Si atom -12404.016438 kJ/mol
# Density = 2.314749 g / cm^3
# Si number density = 23.200291 Si / 1000 Ang^3
#
#
#
# Elastic Constant Matrix: (Units=GPa)
#
#
# Indices 1 2 3 4 5 6 
#
# 1 117.5338 34.1246 53.3401 10.3430 6.9389 -24.0876
# 2 34.1246 103.8890 56.2831 8.0420 5.9665 -15.1762
# 3 53.3401 56.2831 125.3737 13.6686 4.1936 -11.9765
# 4 10.3430 8.0420 13.6686 45.4250 1.0530 -9.3814
# 5 6.9389 5.9665 4.1936 1.0530 44.4773 3.1017
# 6 -24.0876 -15.1762 -11.9765 -9.3814 3.1017 38.8336
#
#
#
# Elastic Compliance Matrix: (Units=1/GPa)
#
#
# Indices 1 2 3 4 5 6 
#
# 1 0.011916 -0.000704 -0.004115 -0.000075 -0.001791 0.005972
# 2 -0.000704 0.013286 -0.005320 0.000113 -0.001401 0.003254
# 3 -0.004115 -0.005320 0.012197 -0.002089 0.000353 -0.001403
# 4 -0.000075 0.000113 -0.002089 0.023719 -0.000727 0.005141
# 5 -0.001791 -0.001401 0.000353 -0.000727 0.023184 -0.003577
# 6 0.005972 0.003254 -0.001403 0.005141 -0.003577 0.031822
#
#
# Mechanical properties :
#
#
# Convention : Reuss Voigt Hill
#
# Bulk Modulus (GPa) = 58.40319 70.47688 64.44003
# Shear Modulus (GPa) = 35.18433 39.28376 37.23405
#
# Velocity S-wave (km/s) = 3.89851 4.11937 4.01046
# Velocity P-wave (km/s) = 6.74482 7.28486 7.02004
#
# Compressibility (1/GPa) = 0.01712235
#
# Stress axis : x y z
#
# Youngs Moduli (GPa) = 83.91740 75.26857 81.98682
#
# Poissons Ratio (x) = 0.05295 0.33741
# Poissons Ratio (y) = 0.05904 0.43614
# Poissons Ratio (z) = 0.34535 0.40040
#
# Static dielectric constant tensor:
#      x y z
#    x 4.392190 -0.254960 -0.113290 
#    y -0.254960 4.375350 0.031940 
#    z -0.113290 0.031940 4.098780 
# 
# 
# High freq. dielectric constant tensor:
#      x y z
#    x 1.929270 -0.016310 -0.004940 
#    y -0.016310 1.918430 0.006230 
#    z -0.004940 0.006230 1.917900 
# 
# From -- ./inp_files/208451.got.cif
#   From: 2010.06.25/outbox.cif.g09.slc.cpg/sg2_105_cif.got.tgz:208451.got - 2010.06.27 13:26:56.
