data_PCOD8031811
_publ_section_title
;
Structure prediction by ZEFSAII (Michael W. Deem and Ramdas Pophale) SiO2 
 PCOD8031811
Probable space group: P -1
;
_chemical_formula_sum "Si O2"
_cell_formula_units_Z 16
_cell_length_a 14.575453
_cell_length_b 12.939124
_cell_length_c 8.893684
_cell_angle_alpha 109.766134
_cell_angle_beta 106.222766
_cell_angle_gamma 134.008615
_cell_volume 738.012610
_symmetry_space_group_name_H-M "P -1"
_symmetry_group_IT_number 2
_symmetry_cell_setting 'triclinic'
loop_
_space_group_symop_operation_xyz
x,y,z
-x,-y,-z
loop_
_atom_site_type_symbol
_atom_site_label
_atom_site_fract_x
_atom_site_fract_y
_atom_site_fract_z
Si Si1 0.737959 0.440120 0.156513
Si Si2 0.932158 0.861090 0.540775
Si Si3 0.240032 0.054484 0.943285
Si Si4 0.812018 0.368771 0.422097
Si Si5 0.320065 0.976829 0.685231
Si Si6 0.922132 0.667305 0.826815
Si Si7 0.623355 0.535923 0.478603
Si Si8 0.008587 0.630115 0.134933
O O1 0.853433 0.668259 0.343660
O O2 0.703473 0.344843 0.251668
O O3 0.856634 0.475080 0.125265
O O4 0.526521 0.245353 0.887414
O O5 0.761112 0.734732 0.513599
O O6 0.000000 0.000000 0.500000
O O7 0.128026 0.048470 0.823744
O O8 0.201399 0.923777 0.733590
O O9 0.469035 0.305678 0.202784
O O10 0.133129 0.914478 0.979760
O O11 0.656531 0.122929 0.288699
O O12 0.871856 0.497481 0.658109
O O13 0.000000 0.500000 0.500000
O O14 0.218072 0.871173 0.423245
O O15 0.755942 0.592269 0.676245
O O16 0.950101 0.672538 0.019137
O O17 0.500000 0.500000 0.500000
O O18 0.000000 0.500000 0.000000
#
# Coordination Sequence:
#
# PCOD8031811 Si02
#       8
#     2   2   2   2   2   2   2   2
#     4  12  24  43  67 102 137 180 240 281 340 427
#     4  11  24  45  74 101 135 181 238 296 355 415
#     4  11  22  46  74  99 132 182 236 285 349 423
#     4  12  18  41  72 100 133 185 226 277 340 416
#     4  12  23  41  72 102 138 182 231 281 340 423
#     4  11  23  43  68 100 145 180 226 282 350 424
#     4  11  26  48  72 105 137 178 243 303 354 409
#     4  12  25  43  64 103 151 182 219 283 357 419
#
# _framework density 21.679846000000001
#
# number of rings (size 3 to 8) (size 9 to 14) (size 15 to 20)
#    0.000    0.500    8.750    0.375    0.000    6.000 
#    2.250    0.000    0.000    0.000    0.000    0.000 
#    0.000    0.000    0.000    0.000    0.000    0.000 
#
# Total GULP energy -198307.925147 kJ/mol
# GULP energy per Si atom -12394.245322 kJ/mol
# Density = 2.163050 g / cm^3
# Si number density = 21.679846 Si / 1000 Ang^3
#
#
#
# Elastic Constant Matrix: (Units=GPa)
#
#
# Indices 1 2 3 4 5 6 
#
# 1 102.7777 29.8382 32.0729 -2.5525 -3.3765 3.8118
# 2 29.8382 123.9836 50.3748 -10.4887 8.3894 -10.9539
# 3 32.0729 50.3748 135.0195 -9.5041 15.2646 -6.0722
# 4 -2.5525 -10.4887 -9.5041 31.0362 7.3027 2.3941
# 5 -3.3765 8.3894 15.2646 7.3027 34.0812 -1.6068
# 6 3.8118 -10.9539 -6.0722 2.3941 -1.6068 26.0076
#
#
#
# Elastic Compliance Matrix: (Units=1/GPa)
#
#
# Indices 1 2 3 4 5 6 
#
# 1 0.011305 -0.002299 -0.002347 -0.001004 0.002816 -0.002907
# 2 -0.002299 0.010430 -0.002770 0.002659 -0.001949 0.003718
# 3 -0.002347 -0.002770 0.009745 0.002839 -0.004480 0.000914
# 4 -0.001004 0.002659 0.002839 0.036397 -0.009920 -0.002033
# 5 0.002816 -0.001949 -0.004480 -0.009920 0.034268 0.000751
# 6 -0.002907 0.003718 0.000914 -0.002033 0.000751 0.040889
#
#
# Mechanical properties :
#
#
# Convention : Reuss Voigt Hill
#
# Bulk Modulus (GPa) = 60.07492 65.15028 62.61260
# Shear Modulus (GPa) = 30.59658 34.85800 32.72729
#
# Velocity S-wave (km/s) = 3.76079 4.01415 3.88954
# Velocity P-wave (km/s) = 6.82849 7.18338 7.00818
#
# Compressibility (1/GPa) = 0.01664588
#
# Stress axis : x y z
#
# Youngs Moduli (GPa) = 88.45532 95.87859 102.61656
#
# Poissons Ratio (x) = 0.22045 0.24088
# Poissons Ratio (y) = 0.20339 0.28429
# Poissons Ratio (z) = 0.20764 0.26562
#
# Static dielectric constant tensor:
#      x y z
#    x 3.885560 0.020880 0.010870 
#    y 0.020880 3.960970 -0.116310 
#    z 0.010870 -0.116310 4.067250 
# 
# 
# High freq. dielectric constant tensor:
#      x y z
#    x 1.852210 0.004780 0.000230 
#    y 0.004780 1.841900 -0.002780 
#    z 0.000230 -0.002780 1.862850 
# 
# From -- ./inp_files/308137.got.cif
#   From: 2010.06.25/outbox.cif.g09.slc.cpg/sg2_155_cif.got.tgz:308137.got - 2010.06.27 13:26:56.
