data_PCOD8031704
_publ_section_title
;
Structure prediction by ZEFSAII (Michael W. Deem and Ramdas Pophale) SiO2 
 PCOD8031704
Probable space group: P -1
;
_chemical_formula_sum "Si O2"
_cell_formula_units_Z 16
_cell_length_a 13.452068
_cell_length_b 19.281816
_cell_length_c 15.128879
_cell_angle_alpha 25.250715
_cell_angle_beta 135.503060
_cell_angle_gamma 152.659651
_cell_volume 682.623198
_symmetry_space_group_name_H-M "P -1"
_symmetry_group_IT_number 2
_symmetry_cell_setting 'triclinic'
loop_
_space_group_symop_operation_xyz
x,y,z
-x,-y,-z
loop_
_atom_site_type_symbol
_atom_site_label
_atom_site_fract_x
_atom_site_fract_y
_atom_site_fract_z
Si Si1 0.599243 0.477970 0.218555
Si Si2 0.508458 0.844046 0.067414
Si Si3 0.941234 0.018195 0.176597
Si Si4 0.819172 0.427027 0.536712
Si Si5 0.755846 0.357263 0.043247
Si Si6 0.267653 0.464532 0.015507
Si Si7 0.586453 0.941211 0.539763
Si Si8 0.072205 0.359067 0.457553
O O1 0.624404 0.373033 0.434779
O O2 0.418509 0.239947 0.302319
O O3 0.877151 0.745048 0.055023
O O4 0.493916 0.557916 0.079851
O O5 0.383062 0.688111 0.073326
O O6 0.661406 0.149939 0.808242
O O7 0.304493 0.678630 0.203942
O O8 0.679169 0.854112 0.190184
O O9 0.056222 0.168942 0.171694
O O10 0.897672 0.789842 0.393949
O O11 0.961036 0.659981 0.435167
O O12 0.000000 0.500000 0.500000
O O13 0.841874 0.574330 0.917194
O O14 0.558683 0.051697 0.318054
O O15 0.000000 0.500000 0.000000
O O16 0.370010 0.719412 0.731500
O O17 0.834367 0.214955 0.430208
#
# Coordination Sequence:
#
# PCOD8031704 Si02
#       8
#     2   2   2   2   2   2   2   2
#     4  11  22  47  74 107 142 181 245 300 347 422
#     4  12  27  47  70 104 148 190 235 295 362 424
#     4  11  24  47  73 107 143 187 243 287 362 426
#     4  12  28  45  72 107 145 187 238 298 353 420
#     4  12  27  45  70 107 146 187 239 295 355 427
#     4  11  25  45  79 103 140 190 239 299 352 421
#     4  11  22  45  73 103 138 187 239 293 352 423
#     4  12  26  46  73 101 148 191 232 292 363 429
#
# _framework density 23.438991999999999
#
# number of rings (size 3 to 8) (size 9 to 14) (size 15 to 20)
#    0.000    0.500    6.250    1.875    5.250    1.500 
#    0.000    1.250    0.000    0.000    0.000    0.000 
#    0.000    0.000    0.000    0.000    0.000    0.000 
#
# Total GULP energy -198333.407611 kJ/mol
# GULP energy per Si atom -12395.837976 kJ/mol
# Density = 2.338564 g / cm^3
# Si number density = 23.438992 Si / 1000 Ang^3
#
#
#
# Elastic Constant Matrix: (Units=GPa)
#
#
# Indices 1 2 3 4 5 6 
#
# 1 146.9261 62.7983 33.0934 1.4588 -6.1925 -17.0103
# 2 62.7983 133.5166 20.4807 2.2895 -1.7249 -5.1958
# 3 33.0934 20.4807 74.6254 -2.9378 -0.9396 -0.5177
# 4 1.4588 2.2895 -2.9378 38.2992 2.3431 3.9603
# 5 -6.1925 -1.7249 -0.9396 2.3431 18.5698 8.4461
# 6 -17.0103 -5.1958 -0.5177 3.9603 8.4461 24.4398
#
#
#
# Elastic Compliance Matrix: (Units=1/GPa)
#
#
# Indices 1 2 3 4 5 6 
#
# 1 0.009959 -0.003913 -0.003339 -0.001046 0.000120 0.006157
# 2 -0.003913 0.009446 -0.000879 -0.000411 -0.000138 -0.000619
# 3 -0.003339 -0.000879 0.015174 0.001582 0.000576 -0.002645
# 4 -0.001046 -0.000411 0.001582 0.026868 -0.001615 -0.004577
# 5 0.000120 -0.000138 0.000576 -0.001615 0.064026 -0.021798
# 6 0.006157 -0.000619 -0.002645 -0.004577 -0.021798 0.053289
#
#
# Mechanical properties :
#
#
# Convention : Reuss Voigt Hill
#
# Bulk Modulus (GPa) = 54.59915 65.31252 59.95583
# Shear Modulus (GPa) = 24.85952 32.17481 28.51717
#
# Velocity S-wave (km/s) = 3.26023 3.70902 3.49184
# Velocity P-wave (km/s) = 6.12510 6.80205 6.47243
#
# Compressibility (1/GPa) = 0.01831530
#
# Stress axis : x y z
#
# Youngs Moduli (GPa) = 100.41223 105.86382 65.90327
#
# Poissons Ratio (x) = 0.41422 0.22008
# Poissons Ratio (y) = 0.39289 0.05796
# Poissons Ratio (z) = 0.33533 0.09311
#
# Static dielectric constant tensor:
#      x y z
#    x 4.196040 -0.175230 0.019510 
#    y -0.175230 4.240950 -0.051370 
#    z 0.019510 -0.051370 4.269030 
# 
# 
# High freq. dielectric constant tensor:
#      x y z
#    x 1.931850 -0.007790 0.009630 
#    y -0.007790 1.932390 0.000480 
#    z 0.009630 0.000480 1.923570 
# 
# From -- ./inp_files/209306.got.cif
#   From: 2010.06.25/outbox.cif.g09.slc.cpg/sg2_105_cif.got.tgz:209306.got - 2010.06.27 13:26:56.
