data_PCOD8031022
_publ_section_title
;
Structure prediction by ZEFSAII (Michael W. Deem and Ramdas Pophale) SiO2 
 PCOD8031022
Probable space group: P -1
;
_chemical_formula_sum "Si O2"
_cell_formula_units_Z 16
_cell_length_a 14.196681
_cell_length_b 9.457416
_cell_length_c 11.733493
_cell_angle_alpha 76.277531
_cell_angle_beta 153.764763
_cell_angle_gamma 109.730705
_cell_volume 647.325899
_symmetry_space_group_name_H-M "P -1"
_symmetry_group_IT_number 2
_symmetry_cell_setting 'triclinic'
loop_
_space_group_symop_operation_xyz
x,y,z
-x,-y,-z
loop_
_atom_site_type_symbol
_atom_site_label
_atom_site_fract_x
_atom_site_fract_y
_atom_site_fract_z
Si Si1 0.330735 0.677986 0.294776
Si Si2 0.316335 0.753115 0.512843
Si Si3 0.938865 0.839604 0.725446
Si Si4 0.827570 0.661497 0.858244
Si Si5 0.177988 0.190201 0.952103
Si Si6 0.854179 0.109400 0.281292
Si Si7 0.918256 0.336525 0.497809
Si Si8 0.513190 0.925553 0.276070
O O1 0.208030 0.688704 0.282912
O O2 0.591388 0.696115 0.589168
O O3 0.205206 0.517497 0.131787
O O4 0.326107 0.817631 0.178454
O O5 0.222054 0.655039 0.542188
O O6 0.328339 0.928771 0.514216
O O7 0.562817 0.743702 0.762331
O O8 0.962740 0.726680 0.875639
O O9 0.681191 0.835431 0.432102
O O10 0.001416 0.782149 0.682083
O O11 0.100882 0.009534 0.891925
O O12 0.945058 0.752592 0.083744
O O13 0.124046 0.273150 0.765906
O O14 0.789175 0.211892 0.288884
O O15 0.615650 0.021620 0.979392
O O16 0.000000 0.000000 0.500000
O O17 0.000000 0.500000 0.500000
#
# Coordination Sequence:
#
# PCOD8031022 Si02
#       8
#     2   2   2   2   2   2   2   2
#     4   9  21  39  65 105 133 171 216 267 348 412
#     4  11  22  44  69  93 138 174 217 279 337 392
#     4  11  22  42  69 100 130 178 223 276 329 401
#     4   9  21  39  67  98 139 169 215 275 341 405
#     4  11  22  45  68  96 134 175 222 274 340 394
#     4  12  25  46  67  97 132 176 238 269 325 398
#     4  12  29  45  64 100 133 173 236 280 324 399
#     4  11  22  41  72  99 132 175 218 280 332 398
#
# _framework density 24.717071000000001
#
# number of rings (size 3 to 8) (size 9 to 14) (size 15 to 20)
#    0.000    1.250    3.750    0.750    3.500    4.500 
#    0.000    1.250    0.000    0.000    0.000    0.000 
#    0.000    0.000    0.000    0.000    0.000    0.000 
#
# Total GULP energy -198390.618936 kJ/mol
# GULP energy per Si atom -12399.413684 kJ/mol
# Density = 2.466081 g / cm^3
# Si number density = 24.717071 Si / 1000 Ang^3
#
#
#
# Elastic Constant Matrix: (Units=GPa)
#
#
# Indices 1 2 3 4 5 6 
#
# 1 151.8855 29.3012 33.8027 0.2237 -18.3001 11.1175
# 2 29.3012 138.4699 41.7431 -9.1677 -29.4331 19.5202
# 3 33.8027 41.7431 94.9195 -1.4998 -31.9901 2.4426
# 4 0.2237 -9.1677 -1.4998 32.4398 1.2717 -6.4104
# 5 -18.3001 -29.4331 -31.9901 1.2717 37.3282 1.4473
# 6 11.1175 19.5202 2.4426 -6.4104 1.4473 45.5481
#
#
#
# Elastic Compliance Matrix: (Units=1/GPa)
#
#
# Indices 1 2 3 4 5 6 
#
# 1 0.007413 -0.000446 -0.001793 -0.000663 0.001833 -0.001674
# 2 -0.000446 0.009858 -0.002066 0.001681 0.005879 -0.003955
# 3 -0.001793 -0.002066 0.015795 -0.000256 0.011032 0.000090
# 4 -0.000663 0.001681 -0.000256 0.032101 -0.000467 0.003988
# 5 0.001833 0.005879 0.011032 -0.000467 0.041987 -0.004958
# 6 -0.001674 -0.003955 0.000090 0.003988 -0.004958 0.024772
#
#
# Mechanical properties :
#
#
# Convention : Reuss Voigt Hill
#
# Bulk Modulus (GPa) = 40.89465 66.10767 53.50116
# Shear Modulus (GPa) = 33.62729 41.75840 37.69285
#
# Velocity S-wave (km/s) = 3.69248 4.11476 3.90933
# Velocity P-wave (km/s) = 5.89578 7.02700 6.48610
#
# Compressibility (1/GPa) = 0.02445308
#
# Stress axis : x y z
#
# Youngs Moduli (GPa) = 134.88941 101.44341 63.31303
#
# Poissons Ratio (x) = 0.04529 0.11355
# Poissons Ratio (y) = 0.06022 0.13083
# Poissons Ratio (z) = 0.24191 0.20963
#
# Static dielectric constant tensor:
#      x y z
#    x 5.073480 -0.071470 0.199380 
#    y -0.071470 4.076590 -0.040220 
#    z 0.199380 -0.040220 4.890700 
# 
# 
# High freq. dielectric constant tensor:
#      x y z
#    x 2.014910 -0.006680 0.021220 
#    y -0.006680 1.951870 -0.007350 
#    z 0.021220 -0.007350 2.027750 
# 
# From -- ./inp_files/447285.got.cif
#   From: 2010.06.25/outbox.cif.g09.slc.cpg/sg2_224_cif.got.tgz:447285.got - 2010.06.27 13:26:56.
