data_PCOD8031130
_publ_section_title
;
Structure prediction by ZEFSAII (Michael W. Deem and Ramdas Pophale) SiO2 
 PCOD8031130
Probable space group: P -1
;
_chemical_formula_sum "Si O2"
_cell_formula_units_Z 16
_cell_length_a 22.037546
_cell_length_b 5.159594
_cell_length_c 9.749545
_cell_angle_alpha 72.219786
_cell_angle_beta 120.712556
_cell_angle_gamma 129.606728
_cell_volume 733.948612
_symmetry_space_group_name_H-M "P -1"
_symmetry_group_IT_number 2
_symmetry_cell_setting 'triclinic'
loop_
_space_group_symop_operation_xyz
x,y,z
-x,-y,-z
loop_
_atom_site_type_symbol
_atom_site_label
_atom_site_fract_x
_atom_site_fract_y
_atom_site_fract_z
Si Si1 0.287811 0.411991 0.113963
Si Si2 0.952360 0.606281 0.020640
Si Si3 0.602672 0.230569 0.069604
Si Si4 0.699246 0.914913 0.236979
Si Si5 0.832707 0.628961 0.225383
Si Si6 0.999285 0.270410 0.649714
Si Si7 0.802695 0.697837 0.493818
Si Si8 0.757242 0.268052 0.762598
O O1 0.283522 0.591205 0.212964
O O2 0.300972 0.134788 0.227248
O O3 0.370164 0.690305 0.071869
O O4 0.198836 0.224612 0.948208
O O5 0.959472 0.513570 0.199589
O O6 0.853650 0.414273 0.896261
O O7 0.000000 0.500000 0.000000
O O8 0.000000 0.000000 0.000000
O O9 0.641109 0.580329 0.133627
O O10 0.638906 0.025894 0.206506
O O11 0.500000 0.000000 0.000000
O O12 0.747348 0.852474 0.424173
O O13 0.779233 0.229361 0.189675
O O14 0.937155 0.831149 0.309999
O O15 0.800349 0.628117 0.340769
O O16 0.000000 0.500000 0.500000
O O17 0.902182 0.946997 0.619690
O O18 0.757571 0.365972 0.588576
#
# Coordination Sequence:
#
# PCOD8031130 Si02
#       8
#     2   2   2   2   2   2   2   2
#     4  11  24  44  70  98 129 172 224 284 332 399
#     4  12  27  45  59  88 134 186 239 281 325 382
#     4  11  24  45  78 109 132 164 219 285 353 416
#     4  11  22  42  69 103 135 171 220 278 341 407
#     4  11  24  43  66  96 139 181 239 288 331 385
#     4  12  26  39  65  99 136 189 244 293 327 381
#     4  12  26  42  65  99 143 192 227 278 347 392
#     4  12  27  42  67  93 141 185 230 273 338 403
#
# _framework density 21.799893000000001
#
# number of rings (size 3 to 8) (size 9 to 14) (size 15 to 20)
#    0.000    0.500    6.250    3.000    5.250    0.000 
#    0.000    0.000    0.000    4.500    0.000    0.000 
#    0.000    0.000    0.000    0.000    0.000    0.000 
#
# Total GULP energy -198355.177191 kJ/mol
# GULP energy per Si atom -12397.198574 kJ/mol
# Density = 2.175028 g / cm^3
# Si number density = 21.799893 Si / 1000 Ang^3
#
#
#
# Elastic Constant Matrix: (Units=GPa)
#
#
# Indices 1 2 3 4 5 6 
#
# 1 131.7069 47.3244 36.5782 -7.0566 11.9613 -2.2192
# 2 47.3244 86.5866 22.1407 -11.1018 13.1586 -13.8161
# 3 36.5782 22.1407 90.4728 -29.4719 -1.9484 -6.8095
# 4 -7.0566 -11.1018 -29.4719 38.8931 1.5765 2.5712
# 5 11.9613 13.1586 -1.9484 1.5765 38.3672 8.9558
# 6 -2.2192 -13.8161 -6.8095 2.5712 8.9558 42.8514
#
#
#
# Elastic Compliance Matrix: (Units=1/GPa)
#
#
# Indices 1 2 3 4 5 6 
#
# 1 0.010449 -0.005017 -0.003884 -0.002341 -0.001341 -0.001273
# 2 -0.005017 0.016710 -0.000700 0.003163 -0.005739 0.006026
# 3 -0.003884 -0.000700 0.016700 0.011608 0.001540 0.001208
# 4 -0.002341 0.003163 0.011608 0.034981 -0.001423 0.000941
# 5 -0.001341 -0.005739 0.001540 -0.001423 0.030443 -0.007952
# 6 -0.001273 0.006026 0.001208 0.000941 -0.007952 0.027011
#
#
# Mechanical properties :
#
#
# Convention : Reuss Voigt Hill
#
# Bulk Modulus (GPa) = 40.55914 57.87253 49.21583
# Shear Modulus (GPa) = 30.54074 37.53721 34.03897
#
# Velocity S-wave (km/s) = 3.74700 4.15408 3.95578
# Velocity P-wave (km/s) = 6.11274 7.04367 6.59465
#
# Compressibility (1/GPa) = 0.02465536
#
# Stress axis : x y z
#
# Youngs Moduli (GPa) = 95.70318 59.84554 59.87955
#
# Poissons Ratio (x) = 0.30027 0.23257
# Poissons Ratio (y) = 0.48018 0.04194
# Poissons Ratio (z) = 0.37171 0.04192
#
# Static dielectric constant tensor:
#      x y z
#    x 4.074700 -0.144470 0.074810 
#    y -0.144470 4.186950 -0.182300 
#    z 0.074810 -0.182300 4.020450 
# 
# 
# High freq. dielectric constant tensor:
#      x y z
#    x 1.852480 -0.017860 -0.000190 
#    y -0.017860 1.854560 -0.017360 
#    z -0.000190 -0.017360 1.849970 
# 
# From -- ./inp_files/350999.got.cif
#   From: 2010.06.25/outbox.cif.g09.slc.cpg/sg2_176_cif.got.tgz:350999.got - 2010.06.27 13:26:56.
