data_PCOD8031304
_publ_section_title
;
Structure prediction by ZEFSAII (Michael W. Deem and Ramdas Pophale) SiO2 
 PCOD8031304
Probable space group: P -1
;
_chemical_formula_sum "Si O2"
_cell_formula_units_Z 14
_cell_length_a 7.846966
_cell_length_b 21.124938
_cell_length_c 15.498302
_cell_angle_alpha 155.280152
_cell_angle_beta 45.932111
_cell_angle_gamma 145.638528
_cell_volume 590.089146
_symmetry_space_group_name_H-M "P -1"
_symmetry_group_IT_number 2
_symmetry_cell_setting 'triclinic'
loop_
_space_group_symop_operation_xyz
x,y,z
-x,-y,-z
loop_
_atom_site_type_symbol
_atom_site_label
_atom_site_fract_x
_atom_site_fract_y
_atom_site_fract_z
Si Si1 0.686533 0.707615 0.146272
Si Si2 0.320158 0.020427 0.829571
Si Si3 0.157861 0.411788 0.489510
Si Si4 0.186767 0.289705 0.152086
Si Si5 0.814466 0.233059 0.049887
Si Si6 0.696275 0.053172 0.583311
Si Si7 0.248153 0.472100 0.862699
O O1 0.678696 0.870356 0.393168
O O2 0.500000 0.500000 0.000000
O O3 0.541994 0.652594 0.034924
O O4 0.034570 0.792338 0.116532
O O5 0.569062 0.104392 0.768429
O O6 0.149326 0.109154 0.984090
O O7 0.457912 0.076420 0.949234
O O8 0.074585 0.785535 0.616933
O O9 0.500000 0.500000 0.500000
O O10 0.102732 0.376601 0.362798
O O11 0.080974 0.550124 0.716110
O O12 0.559142 0.470683 0.223330
O O13 0.919400 0.197855 0.058782
O O14 0.500000 0.000000 0.500000
O O15 0.063170 0.242997 0.671517
O O16 0.000000 0.500000 0.000000
#
# Coordination Sequence:
#
# PCOD8031304 Si02
#       7
#     2   2   2   2   2   2   2
#     4  11  24  41  66 104 144 181 234 290 350 422
#     4  12  26  47  74 104 145 185 241 296 360 426
#     4  12  27  48  76 104 138 192 242 297 363 422
#     4  11  25  48  74 105 143 192 236 298 356 421
#     4  11  26  48  68 105 144 185 240 297 352 424
#     4  12  24  41  74 106 138 194 230 284 364 428
#     4  11  22  43  69 102 144 181 234 287 350 424
#
# _framework density 23.725228000000001
#
# number of rings (size 3 to 8) (size 9 to 14) (size 15 to 20)
#    0.000    0.571    4.286    3.429    2.000    5.143 
#    2.571    0.000    0.000    0.000    0.000    0.000 
#    0.000    0.000    0.000    0.000    0.000    0.000 
#
# Total GULP energy -173446.548895 kJ/mol
# GULP energy per Si atom -12389.039207 kJ/mol
# Density = 2.367123 g / cm^3
# Si number density = 23.725228 Si / 1000 Ang^3
#
#
#
# Elastic Constant Matrix: (Units=GPa)
#
#
# Indices 1 2 3 4 5 6 
#
# 1 141.8596 11.6491 29.7159 7.3665 1.2222 8.9309
# 2 11.6491 61.4167 5.3834 10.9727 -1.0892 -1.8134
# 3 29.7159 5.3834 114.2930 9.9958 -17.2439 8.8751
# 4 7.3665 10.9727 9.9958 43.5976 0.5389 1.8870
# 5 1.2222 -1.0892 -17.2439 0.5389 43.3410 -0.3536
# 6 8.9309 -1.8134 8.8751 1.8870 -0.3536 23.2713
#
#
#
# Elastic Compliance Matrix: (Units=1/GPa)
#
#
# Indices 1 2 3 4 5 6 
#
# 1 0.007729 -0.001311 -0.001882 -0.000431 -0.001013 -0.002331
# 2 -0.001311 0.017377 -0.000218 -0.004207 0.000458 0.002289
# 3 -0.001882 -0.000218 0.010272 -0.001904 0.004134 -0.002995
# 4 -0.000431 -0.004207 -0.001904 0.024582 -0.001168 -0.001447
# 5 -0.001013 0.000458 0.004134 -0.001168 0.024766 -0.000681
# 6 -0.002331 0.002289 -0.002995 -0.001447 -0.000681 0.045293
#
#
# Mechanical properties :
#
#
# Convention : Reuss Voigt Hill
#
# Bulk Modulus (GPa) = 35.01939 45.67399 40.34669
# Shear Modulus (GPa) = 34.16214 40.09673 37.12943
#
# Velocity S-wave (km/s) = 3.79873 4.11548 3.96027
# Velocity P-wave (km/s) = 5.83377 6.47116 6.16071
#
# Compressibility (1/GPa) = 0.02855561
#
# Stress axis : x y z
#
# Youngs Moduli (GPa) = 129.38376 57.54652 97.35462
#
# Poissons Ratio (x) = 0.07543 0.18321
# Poissons Ratio (y) = 0.16959 0.02127
# Poissons Ratio (z) = 0.24349 0.01257
#
# Static dielectric constant tensor:
#      x y z
#    x 4.167940 -0.070660 -0.028950 
#    y -0.070660 4.065140 -0.103430 
#    z -0.028950 -0.103430 4.422200 
# 
# 
# High freq. dielectric constant tensor:
#      x y z
#    x 1.947580 0.004750 0.001730 
#    y 0.004750 1.940220 -0.004910 
#    z 0.001730 -0.004910 1.945150 
# 
# From -- ./inp_files/563325.got.cif
#   From: 2010.06.25/outbox.cif.g09.slc.cpg/sg2_282_cif.got.tgz:563325.got - 2010.06.27 13:26:56.
