data_PCOD8031617
_publ_section_title
;
Structure prediction by ZEFSAII (Michael W. Deem and Ramdas Pophale) SiO2 
 PCOD8031617
Probable space group: P -1
;
_chemical_formula_sum "Si O2"
_cell_formula_units_Z 16
_cell_length_a 11.715809
_cell_length_b 9.209525
_cell_length_c 9.267477
_cell_angle_alpha 92.998163
_cell_angle_beta 93.136949
_cell_angle_gamma 135.095076
_cell_volume 698.921073
_symmetry_space_group_name_H-M "P -1"
_symmetry_group_IT_number 2
_symmetry_cell_setting 'triclinic'
loop_
_space_group_symop_operation_xyz
x,y,z
-x,-y,-z
loop_
_atom_site_type_symbol
_atom_site_label
_atom_site_fract_x
_atom_site_fract_y
_atom_site_fract_z
Si Si1 0.628156 0.929752 0.433624
Si Si2 0.199420 0.641046 0.589428
Si Si3 0.624947 0.203856 0.830930
Si Si4 0.582552 0.851282 0.942302
Si Si5 0.432033 0.617191 0.655559
Si Si6 0.834785 0.854979 0.387999
Si Si7 0.940799 0.582993 0.715377
Si Si8 0.098065 0.000002 0.889483
O O1 0.486909 0.853012 0.314063
O O2 0.561938 0.770909 0.549356
O O3 0.769404 0.960751 0.374353
O O4 0.720697 0.161660 0.497637
O O5 0.333461 0.674493 0.687473
O O6 0.115853 0.455555 0.459300
O O7 0.090555 0.605135 0.711322
O O8 0.809992 0.404239 0.810545
O O9 0.621893 0.031928 0.863237
O O10 0.561939 0.247191 0.960038
O O11 0.524941 0.672164 0.816214
O O12 0.742731 0.935019 0.034489
O O13 0.311867 0.381358 0.578773
O O14 0.866157 0.844362 0.221844
O O15 0.000000 0.000000 0.500000
O O16 0.985500 0.779834 0.790398
O O17 0.000000 0.000000 0.000000
#
# Coordination Sequence:
#
# PCOD8031617 Si02
#       8
#     2   2   2   2   2   2   2   2
#     4  12  23  48  75 108 146 189 247 307 362 434
#     4  11  22  44  76 111 142 180 250 313 357 426
#     4  11  23  45  77 107 146 187 246 308 366 434
#     4  11  26  47  71 109 146 189 247 304 364 440
#     4  12  26  43  74 110 140 196 245 298 371 431
#     4  12  29  49  70 106 153 194 247 303 361 441
#     4  11  24  42  75 106 141 193 241 297 371 419
#     4  12  29  51  70 103 157 202 240 299 368 446
#
# _framework density 22.892429
#
# number of rings (size 3 to 8) (size 9 to 14) (size 15 to 20)
#    0.000    0.500    5.000    2.250    7.000    3.000 
#    0.000    0.000    0.000    0.000    0.000    0.000 
#    0.000    0.000    0.000    0.000    0.000    0.000 
#
# Total GULP energy -198278.203473 kJ/mol
# GULP energy per Si atom -12392.387717 kJ/mol
# Density = 2.284032 g / cm^3
# Si number density = 22.892429 Si / 1000 Ang^3
#
#
#
# Elastic Constant Matrix: (Units=GPa)
#
#
# Indices 1 2 3 4 5 6 
#
# 1 104.3458 36.3603 37.2714 -2.7451 -4.1877 1.9293
# 2 36.3603 105.1825 49.1471 14.9307 2.2212 12.2392
# 3 37.2714 49.1471 127.3216 6.2563 -7.2779 4.9625
# 4 -2.7451 14.9307 6.2563 35.9156 2.5408 -6.6544
# 5 -4.1877 2.2212 -7.2779 2.5408 32.9501 -0.3499
# 6 1.9293 12.2392 4.9625 -6.6544 -0.3499 28.6575
#
#
#
# Elastic Compliance Matrix: (Units=1/GPa)
#
#
# Indices 1 2 3 4 5 6 
#
# 1 0.011747 -0.003735 -0.002164 0.003108 0.001047 0.001914
# 2 -0.003735 0.014454 -0.003998 -0.006727 -0.001886 -0.006815
# 3 -0.002164 -0.003998 0.010182 -0.000435 0.002277 0.000017
# 4 0.003108 -0.006727 -0.000435 0.032995 -0.001682 0.010380
# 5 0.001047 -0.001886 0.002277 -0.001682 0.031245 0.000332
# 6 0.001914 -0.006815 0.000017 0.010380 0.000332 0.040088
#
#
# Mechanical properties :
#
#
# Convention : Reuss Voigt Hill
#
# Bulk Modulus (GPa) = 60.28437 64.71195 62.49816
# Shear Modulus (GPa) = 30.11419 33.77604 31.94511
#
# Velocity S-wave (km/s) = 3.63087 3.84529 3.73962
# Velocity P-wave (km/s) = 6.63088 6.93139 6.78280
#
# Compressibility (1/GPa) = 0.01658805
#
# Stress axis : x y z
#
# Youngs Moduli (GPa) = 85.13094 69.18419 98.21614
#
# Poissons Ratio (x) = 0.25843 0.21256
# Poissons Ratio (y) = 0.31800 0.39262
# Poissons Ratio (z) = 0.18424 0.27657
#
# Static dielectric constant tensor:
#      x y z
#    x 4.292250 0.176610 -0.071660 
#    y 0.176610 4.291410 -0.081540 
#    z -0.071660 -0.081540 4.175420 
# 
# 
# High freq. dielectric constant tensor:
#      x y z
#    x 1.912230 0.012600 -0.006410 
#    y 0.012600 1.908000 -0.001050 
#    z -0.006410 -0.001050 1.907060 
# 
# From -- ./inp_files/244585.got.cif
#   From: 2010.06.25/outbox.cif.g09.slc.cpg/sg2_123_cif.got.tgz:244585.got - 2010.06.27 13:26:56.
