data_PCOD8031195
_publ_section_title
;
Structure prediction by ZEFSAII (Michael W. Deem and Ramdas Pophale) SiO2 
 PCOD8031195
Probable space group: P -1
;
_chemical_formula_sum "Si O2"
_cell_formula_units_Z 14
_cell_length_a 9.145514
_cell_length_b 6.599528
_cell_length_c 11.362235
_cell_angle_alpha 75.034809
_cell_angle_beta 100.437192
_cell_angle_gamma 98.381562
_cell_volume 648.012561
_symmetry_space_group_name_H-M "P -1"
_symmetry_group_IT_number 2
_symmetry_cell_setting 'triclinic'
loop_
_space_group_symop_operation_xyz
x,y,z
-x,-y,-z
loop_
_atom_site_type_symbol
_atom_site_label
_atom_site_fract_x
_atom_site_fract_y
_atom_site_fract_z
Si Si1 0.616489 0.611426 0.591181
Si Si2 0.552429 0.203412 0.773454
Si Si3 0.844120 0.978177 0.546957
Si Si4 0.934582 0.679137 0.036063
Si Si5 0.145325 0.946329 0.184239
Si Si6 0.385943 0.454308 0.886601
Si Si7 0.600769 0.151739 0.341672
O O1 0.500000 0.500000 0.500000
O O2 0.643921 0.422699 0.711286
O O3 0.543071 0.804535 0.610920
O O4 0.773227 0.733142 0.552314
O O5 0.684418 0.055821 0.840608
O O6 0.446904 0.258153 0.856697
O O7 0.436673 0.080977 0.683897
O O8 0.861636 0.039561 0.677586
O O9 0.744526 0.145132 0.446767
O O10 0.000000 0.000000 0.500000
O O11 0.774449 0.611850 0.075602
O O12 0.043577 0.741620 0.152529
O O13 0.000000 0.500000 0.000000
O O14 0.924987 0.858048 0.910856
O O15 0.369691 0.661445 0.776006
O O16 0.500000 0.500000 0.000000
#
# Coordination Sequence:
#
# PCOD8031195 Si02
#       7
#     2   2   2   2   2   2   2
#     4  11  22  42  71  98 137 187 229 285 353 421
#     4  11  23  43  74 100 138 178 242 293 351 425
#     4  12  27  43  71 105 146 188 236 295 360 425
#     4  11  27  47  71 101 146 188 235 294 359 432
#     4  11  26  46  71 101 141 192 233 291 366 419
#     4  11  26  43  72 108 136 183 242 294 354 421
#     4  11  24  44  69 103 141 182 235 297 351 423
#
# _framework density 21.604519
#
# number of rings (size 3 to 8) (size 9 to 14) (size 15 to 20)
#    0.000    0.857    2.857    3.000    8.000    3.429 
#    0.000    2.143    0.000    0.000    0.000    0.000 
#    0.000    0.000    0.000    0.000    0.000    0.000 
#
# Total GULP energy -173554.632916 kJ/mol
# GULP energy per Si atom -12396.759494 kJ/mol
# Density = 2.155535 g / cm^3
# Si number density = 21.604519 Si / 1000 Ang^3
#
#
#
# Elastic Constant Matrix: (Units=GPa)
#
#
# Indices 1 2 3 4 5 6 
#
# 1 137.0151 50.2816 61.4294 29.4268 -12.1159 8.6229
# 2 50.2816 125.3964 57.6369 35.6914 -5.6511 -1.3837
# 3 61.4294 57.6369 139.5987 23.1948 10.6121 2.4469
# 4 29.4268 35.6914 23.1948 32.3419 -3.8099 5.1526
# 5 -12.1159 -5.6511 10.6121 -3.8099 40.2751 0.6701
# 6 8.6229 -1.3837 2.4469 5.1526 0.6701 41.7177
#
#
#
# Elastic Compliance Matrix: (Units=1/GPa)
#
#
# Indices 1 2 3 4 5 6 
#
# 1 0.010931 -0.000921 -0.003755 -0.005577 0.003645 -0.001439
# 2 -0.000921 0.013240 -0.003266 -0.011633 0.001304 0.002237
# 3 -0.003755 -0.003266 0.010709 -0.001235 -0.004531 0.000265
# 4 -0.005577 -0.011633 -0.001235 0.050815 0.001913 -0.005468
# 5 0.003645 0.001304 -0.004531 0.001913 0.027502 -0.001122
# 6 -0.001439 0.002237 0.000265 -0.005468 -0.001122 0.025020
#
#
# Mechanical properties :
#
#
# Convention : Reuss Voigt Hill
#
# Bulk Modulus (GPa) = 52.64547 82.30065 67.47306
# Shear Modulus (GPa) = 31.16547 38.37775 34.77161
#
# Velocity S-wave (km/s) = 3.80220 4.21928 4.01616
# Velocity P-wave (km/s) = 6.61032 7.86850 7.26669
#
# Compressibility (1/GPa) = 0.01899499
#
# Stress axis : x y z
#
# Youngs Moduli (GPa) = 91.48561 75.52779 93.37657
#
# Poissons Ratio (x) = 0.06959 0.35060
# Poissons Ratio (y) = 0.08429 0.30501
# Poissons Ratio (z) = 0.34350 0.24671
#
# Static dielectric constant tensor:
#      x y z
#    x 3.940390 -0.025990 0.062190 
#    y -0.025990 4.149510 -0.001780 
#    z 0.062190 -0.001780 3.920160 
# 
# 
# High freq. dielectric constant tensor:
#      x y z
#    x 1.850670 -0.000780 0.009510 
#    y -0.000780 1.862530 0.002700 
#    z 0.009510 0.002700 1.857300 
# 
# From -- ./inp_files/26729.got.cif
#   From: 2010.06.25/outbox.cif.g09.slc.cpg/sg2_14_cif.got.tgz:26729.got - 2010.06.27 13:26:56.
