data_PCOD8031687
_publ_section_title
;
Structure prediction by ZEFSAII (Michael W. Deem and Ramdas Pophale) SiO2 
 PCOD8031687
Probable space group: P -1
;
_chemical_formula_sum "Si O2"
_cell_formula_units_Z 16
_cell_length_a 11.702286
_cell_length_b 9.830580
_cell_length_c 9.818279
_cell_angle_alpha 70.192042
_cell_angle_beta 53.832954
_cell_angle_gamma 53.181274
_cell_volume 729.771499
_symmetry_space_group_name_H-M "P -1"
_symmetry_group_IT_number 2
_symmetry_cell_setting 'triclinic'
loop_
_space_group_symop_operation_xyz
x,y,z
-x,-y,-z
loop_
_atom_site_type_symbol
_atom_site_label
_atom_site_fract_x
_atom_site_fract_y
_atom_site_fract_z
Si Si1 0.004234 0.686728 0.181383
Si Si2 0.786940 0.542819 0.418296
Si Si3 0.283595 0.544180 0.232119
Si Si4 0.483018 0.873436 0.451756
Si Si5 0.997656 0.724006 0.867701
Si Si6 0.843344 0.072910 0.232596
Si Si7 0.623183 0.928372 0.064244
Si Si8 0.637307 0.233471 0.062562
O O1 0.860112 0.663569 0.352748
O O2 0.173362 0.547388 0.183123
O O3 0.961488 0.878795 0.166883
O O4 0.024968 0.639086 0.024851
O O5 0.814998 0.421501 0.568594
O O6 0.591779 0.676658 0.487542
O O7 0.871788 0.420289 0.273779
O O8 0.446691 0.359918 0.193425
O O9 0.322236 0.690741 0.123674
O O10 0.293423 0.918674 0.570434
O O11 0.540228 0.874543 0.256862
O O12 0.500000 0.000000 0.500000
O O13 0.038984 0.874076 0.792290
O O14 0.808930 0.784444 0.933291
O O15 0.754723 0.199230 0.122634
O O16 0.659514 0.058659 0.066139
O O17 0.500000 0.000000 0.000000
#
# Coordination Sequence:
#
# PCOD8031687 Si02
#       8
#     2   2   2   2   2   2   2   2
#     4  12  23  43  75  97 137 189 236 282 340 424
#     4  12  25  42  67 105 148 170 234 293 355 401
#     4  11  25  40  69 104 139 177 234 291 343 408
#     4  12  22  46  74 103 132 189 239 284 338 423
#     4  12  26  44  69 107 139 184 226 292 356 410
#     4  12  23  46  81  97 134 191 247 279 334 431
#     4  12  27  45  71 101 144 181 233 288 354 414
#     4  11  22  45  71  98 135 187 234 281 347 416
#
# _framework density 21.924672000000001
#
# number of rings (size 3 to 8) (size 9 to 14) (size 15 to 20)
#    0.000    0.250    7.500    1.875    1.750    2.500 
#    0.000    1.875    0.000    0.000    0.000    0.000 
#    0.000    0.000    0.000    0.000    0.000    0.000 
#
# Total GULP energy -198384.424577 kJ/mol
# GULP energy per Si atom -12399.026536 kJ/mol
# Density = 2.187477 g / cm^3
# Si number density = 21.924672 Si / 1000 Ang^3
#
#
#
# Elastic Constant Matrix: (Units=GPa)
#
#
# Indices 1 2 3 4 5 6 
#
# 1 117.2823 15.8133 45.6927 6.4767 0.9719 -22.0914
# 2 15.8133 67.2951 33.0792 21.2678 12.3733 -15.6506
# 3 45.6927 33.0792 139.5607 3.6243 -1.6469 -14.8953
# 4 6.4767 21.2678 3.6243 8.8900 -9.0612 -0.8681
# 5 0.9719 12.3733 -1.6469 -9.0612 30.6145 -3.4548
# 6 -22.0914 -15.6506 -14.8953 -0.8681 -3.4548 28.1939
#
#
#
# Elastic Compliance Matrix: (Units=1/GPa)
#
#
# Indices 1 2 3 4 5 6 
#
# 1 0.010209 -0.005112 -0.001809 0.011926 0.005770 0.005280
# 2 -0.005112 -0.021338 0.004144 0.087089 0.034017 -0.006811
# 3 -0.001809 0.004144 0.007541 -0.017384 -0.005950 0.003603
# 4 0.011926 0.087089 -0.017384 -0.183051 -0.087057 0.032201
# 5 0.005770 0.034017 -0.005950 -0.087057 -0.005446 0.016913
# 6 0.005280 -0.006811 0.003603 0.032201 0.016913 0.040792
#
#
# Mechanical properties :
#
#
# Convention : Reuss Voigt Hill
#
# Bulk Modulus (GPa) = -109.39327 57.03429 -26.17949
# Shear Modulus (GPa) = -33.60495 28.84321 -2.38087
#
# Velocity S-wave (km/s) = -3.91928 3.63100 -1.04321
# Velocity P-wave (km/s) = 8.39550 6.60675 3.66301
#
# Compressibility (1/GPa) = -0.00914133
#
# Stress axis : x y z
#
# Youngs Moduli (GPa) = 97.95756 -46.86452 132.60725
#
# Poissons Ratio (x) = -0.23955 0.23986
# Poissons Ratio (y) = 0.50072 -0.54953
# Poissons Ratio (z) = 0.17719 0.19421
#
# Static dielectric constant tensor:
#      x y z
#    x 4.084090 -0.121910 -0.313290 
#    y -0.121910 3.852160 -0.152340 
#    z -0.313290 -0.152340 4.188480 
# 
# 
# High freq. dielectric constant tensor:
#      x y z
#    x 1.857910 -0.012370 -0.024040 
#    y -0.012370 1.859550 -0.009760 
#    z -0.024040 -0.009760 1.876040 
# 
# From -- ./inp_files/243407.got.cif
#   From: 2010.06.25/outbox.cif.g09.slc.cpg/sg2_122_cif.got.tgz:243407.got - 2010.06.27 13:26:56.
