data_PCOD8031924
_publ_section_title
;
Structure prediction by ZEFSAII (Michael W. Deem and Ramdas Pophale) SiO2 
 PCOD8031924
Probable space group: P -1
;
_chemical_formula_sum "Si O2"
_cell_formula_units_Z 16
_cell_length_a 11.131187
_cell_length_b 16.982456
_cell_length_c 9.341270
_cell_angle_alpha 52.972076
_cell_angle_beta 83.155879
_cell_angle_gamma 40.807301
_cell_volume 703.834571
_symmetry_space_group_name_H-M "P -1"
_symmetry_group_IT_number 2
_symmetry_cell_setting 'triclinic'
loop_
_space_group_symop_operation_xyz
x,y,z
-x,-y,-z
loop_
_atom_site_type_symbol
_atom_site_label
_atom_site_fract_x
_atom_site_fract_y
_atom_site_fract_z
Si Si1 0.818382 0.557147 0.547276
Si Si2 0.998727 0.722171 0.380358
Si Si3 0.509101 0.572146 0.296409
Si Si4 0.687358 0.105487 0.867642
Si Si5 0.915659 0.115970 0.171494
Si Si6 0.897548 0.716736 0.681000
Si Si7 0.712255 0.642880 0.789846
Si Si8 0.175834 0.011523 0.511011
O O1 0.879552 0.405438 0.641809
O O2 0.539219 0.780221 0.311652
O O3 0.854439 0.528473 0.744323
O O4 0.000000 0.500000 0.500000
O O5 0.207011 0.620420 0.568008
O O6 0.889681 0.715552 0.508512
O O7 0.797481 0.941128 0.126674
O O8 0.500000 0.500000 0.500000
O O9 0.401658 0.751954 0.163642
O O10 0.342939 0.658508 0.091020
O O11 0.884891 0.015339 0.836135
O O12 0.898076 0.012664 0.327370
O O13 0.985770 0.134557 0.275130
O O14 0.721489 0.752087 0.716592
O O15 0.808013 0.888048 0.548495
O O16 0.159179 0.512555 0.936168
O O17 0.440037 0.796726 0.649716
#
# Coordination Sequence:
#
# PCOD8031924 Si02
#       8
#     2   2   2   2   2   2   2   2
#     4  11  24  46  70 100 136 174 232 287 340 402
#     4  11  24  43  68 105 134 179 226 278 344 406
#     4  11  23  38  66  96 136 175 218 275 336 396
#     4  11  24  42  69  98 141 175 224 284 339 407
#     4  11  23  44  65 100 136 179 226 276 334 408
#     4  11  25  44  71  96 136 181 227 279 345 404
#     4  11  24  47  69  98 137 178 229 285 337 406
#     4  11  25  44  67  97 138 180 228 275 340 409
#
# _framework density 22.732614999999999
#
# number of rings (size 3 to 8) (size 9 to 14) (size 15 to 20)
#    0.000    1.000    3.750    2.250    3.500    1.500 
#    2.250    1.875    0.000    0.000    0.000    0.000 
#    0.000    0.000    0.000    0.000    0.000    0.000 
#
# Total GULP energy -198370.534025 kJ/mol
# GULP energy per Si atom -12398.158377 kJ/mol
# Density = 2.268087 g / cm^3
# Si number density = 22.732615 Si / 1000 Ang^3
#
#
#
# Elastic Constant Matrix: (Units=GPa)
#
#
# Indices 1 2 3 4 5 6 
#
# 1 77.9167 13.3520 41.3759 -1.4961 4.4074 -8.0645
# 2 13.3520 59.6988 29.9883 7.6867 -9.3731 0.7572
# 3 41.3759 29.9883 163.1589 5.6719 -2.3281 1.4013
# 4 -1.4961 7.6867 5.6719 35.4084 -4.4827 2.7810
# 5 4.4074 -9.3731 -2.3281 -4.4827 40.1016 1.3155
# 6 -8.0645 0.7572 1.4013 2.7810 1.3155 36.1676
#
#
#
# Elastic Compliance Matrix: (Units=1/GPa)
#
#
# Indices 1 2 3 4 5 6 
#
# 1 0.015716 -0.002247 -0.003679 0.001139 -0.002460 0.003696
# 2 -0.002247 0.019828 -0.002891 -0.003328 0.004365 -0.000707
# 3 -0.003679 -0.002891 0.007627 -0.000654 0.000132 -0.001010
# 4 0.001139 -0.003328 -0.000654 0.029583 0.002432 -0.002014
# 5 -0.002460 0.004365 0.000132 0.002432 0.026566 -0.001798
# 6 0.003696 -0.000707 -0.001010 -0.002014 -0.001798 0.028747
#
#
# Mechanical properties :
#
#
# Convention : Reuss Voigt Hill
#
# Bulk Modulus (GPa) = 39.15696 52.24520 45.70108
# Shear Modulus (GPa) = 32.42269 36.73939 34.58104
#
# Velocity S-wave (km/s) = 3.78069 4.02450 3.90450
# Velocity P-wave (km/s) = 6.02665 6.68041 6.36193
#
# Compressibility (1/GPa) = 0.02553824
#
# Stress axis : x y z
#
# Youngs Moduli (GPa) = 63.62751 50.43356 131.12115
#
# Poissons Ratio (x) = 0.11331 0.48241
# Poissons Ratio (y) = 0.14296 0.37901
# Poissons Ratio (z) = 0.23409 0.14578
#
# Static dielectric constant tensor:
#      x y z
#    x 4.184210 0.182400 0.160400 
#    y 0.182400 3.399030 0.155590 
#    z 0.160400 0.155590 4.233620 
# 
# 
# High freq. dielectric constant tensor:
#      x y z
#    x 1.906420 -0.010310 0.003530 
#    y -0.010310 1.881820 0.008130 
#    z 0.003530 0.008130 1.909770 
# 
# From -- ./inp_files/279020.got.cif
#   From: 2010.06.25/outbox.cif.g09.slc.cpg/sg2_140_cif.got.tgz:279020.got - 2010.06.27 13:26:56.
