data_PCOD8031574
_publ_section_title
;
Structure prediction by ZEFSAII (Michael W. Deem and Ramdas Pophale) SiO2 
 PCOD8031574
Probable space group: P -1
;
_chemical_formula_sum "Si O2"
_cell_formula_units_Z 16
_cell_length_a 8.961984
_cell_length_b 16.420168
_cell_length_c 9.030353
_cell_angle_alpha 48.186760
_cell_angle_beta 76.038509
_cell_angle_gamma 107.845443
_cell_volume 733.650557
_symmetry_space_group_name_H-M "P -1"
_symmetry_group_IT_number 2
_symmetry_cell_setting 'triclinic'
loop_
_space_group_symop_operation_xyz
x,y,z
-x,-y,-z
loop_
_atom_site_type_symbol
_atom_site_label
_atom_site_fract_x
_atom_site_fract_y
_atom_site_fract_z
Si Si1 0.364520 0.100781 0.438742
Si Si2 0.412852 0.680713 0.384624
Si Si3 0.170820 0.364747 0.789913
Si Si4 0.061868 0.623050 0.719195
Si Si5 0.586927 0.697265 0.039230
Si Si6 0.213696 0.133914 0.722948
Si Si7 0.766730 0.607574 0.596277
Si Si8 0.785894 0.197625 0.265940
O O1 0.262493 0.071517 0.656806
O O2 0.604830 0.198479 0.277663
O O3 0.272727 0.953473 0.561799
O O4 0.311891 0.181398 0.255328
O O5 0.356884 0.526860 0.599476
O O6 0.229917 0.667971 0.504571
O O7 0.450843 0.713172 0.159569
O O8 0.617126 0.803891 0.269112
O O9 0.231892 0.272250 0.944046
O O10 0.130788 0.347691 0.644700
O O11 0.967452 0.316110 0.971459
O O12 0.148205 0.762188 0.627448
O O13 0.873900 0.578388 0.724361
O O14 0.000000 0.500000 0.000000
O O15 0.459236 0.542760 0.178025
O O16 0.222793 0.262918 0.505487
O O17 0.000000 0.000000 0.000000
#
# Coordination Sequence:
#
# PCOD8031574 Si02
#       8
#     2   2   2   2   2   2   2   2
#     4  11  27  44  69  97 142 184 227 276 347 408
#     4  11  23  44  69 100 139 173 225 287 334 407
#     4  11  22  44  72  99 141 173 228 285 342 404
#     4  12  25  44  70 105 139 178 230 283 339 409
#     4  11  24  43  70 104 137 178 229 285 340 404
#     4  12  25  47  70 100 138 184 229 281 343 405
#     4  11  25  43  71 104 135 182 228 281 344 403
#     4  11  25  46  65 101 141 181 224 282 340 409
#
# _framework density 21.808745999999999
#
# number of rings (size 3 to 8) (size 9 to 14) (size 15 to 20)
#    0.000    0.750    5.000    2.250    3.500    3.000 
#    0.000    1.250    0.000    0.000    0.000    0.000 
#    0.000    0.000    0.000    0.000    0.000    0.000 
#
# Total GULP energy -198417.027408 kJ/mol
# GULP energy per Si atom -12401.064213 kJ/mol
# Density = 2.175911 g / cm^3
# Si number density = 21.808746 Si / 1000 Ang^3
#
#
#
# Elastic Constant Matrix: (Units=GPa)
#
#
# Indices 1 2 3 4 5 6 
#
# 1 88.4566 39.5938 28.5809 2.8810 4.3544 10.3278
# 2 39.5938 125.2380 32.7746 2.0526 1.9417 -2.8706
# 3 28.5809 32.7746 83.2649 -2.9400 0.3806 5.5874
# 4 2.8810 2.0526 -2.9400 26.0024 -1.6461 -2.2624
# 5 4.3544 1.9417 0.3806 -1.6461 38.6620 7.5451
# 6 10.3278 -2.8706 5.5874 -2.2624 7.5451 39.0796
#
#
#
# Elastic Compliance Matrix: (Units=1/GPa)
#
#
# Indices 1 2 3 4 5 6 
#
# 1 0.014610 -0.003778 -0.003354 -0.002066 -0.000803 -0.003623
# 2 -0.003778 0.009977 -0.002794 -0.000525 -0.000499 0.002197
# 3 -0.003354 -0.002794 0.014427 0.002148 0.000741 -0.001400
# 4 -0.002066 -0.000525 0.002148 0.039255 0.001483 0.002187
# 5 -0.000803 -0.000499 0.000741 0.001483 0.027024 -0.005062
# 6 -0.003623 0.002197 -0.001400 0.002187 -0.005062 0.028012
#
#
# Mechanical properties :
#
#
# Convention : Reuss Voigt Hill
#
# Bulk Modulus (GPa) = 52.18560 55.42867 53.80714
# Shear Modulus (GPa) = 31.33921 33.81614 32.57768
#
# Velocity S-wave (km/s) = 3.79489 3.94201 3.86915
# Velocity P-wave (km/s) = 6.57133 6.79634 6.68478
#
# Compressibility (1/GPa) = 0.01916237
#
# Stress axis : x y z
#
# Youngs Moduli (GPa) = 68.44860 100.23001 69.31289
#
# Poissons Ratio (x) = 0.37865 0.23247
# Poissons Ratio (y) = 0.25859 0.19367
# Poissons Ratio (z) = 0.22957 0.28005
#
# Static dielectric constant tensor:
#      x y z
#    x 3.882190 -0.113180 -0.202520 
#    y -0.113180 4.241370 0.029030 
#    z -0.202520 0.029030 3.795750 
# 
# 
# High freq. dielectric constant tensor:
#      x y z
#    x 1.850340 -0.002510 -0.011900 
#    y -0.002510 1.877530 0.002040 
#    z -0.011900 0.002040 1.847850 
# 
# From -- ./inp_files/205596.got.cif
#   From: 2010.06.25/outbox.cif.g09.slc.cpg/sg2_103_cif.got.tgz:205596.got - 2010.06.27 13:26:56.
