data_PCOD8031343
_publ_section_title
;
Structure prediction by ZEFSAII (Michael W. Deem and Ramdas Pophale) SiO2 
 PCOD8031343
Probable space group: P -1
;
_chemical_formula_sum "Si O2"
_cell_formula_units_Z 16
_cell_length_a 9.006451
_cell_length_b 11.684964
_cell_length_c 20.195380
_cell_angle_alpha 158.021418
_cell_angle_beta 115.720568
_cell_angle_gamma 67.811693
_cell_volume 714.687714
_symmetry_space_group_name_H-M "P -1"
_symmetry_group_IT_number 2
_symmetry_cell_setting 'triclinic'
loop_
_space_group_symop_operation_xyz
x,y,z
-x,-y,-z
loop_
_atom_site_type_symbol
_atom_site_label
_atom_site_fract_x
_atom_site_fract_y
_atom_site_fract_z
Si Si1 0.435830 0.790532 0.605754
Si Si2 0.917485 0.807552 0.634548
Si Si3 0.263693 0.791310 0.089832
Si Si4 0.142926 0.162189 0.779800
Si Si5 0.818499 0.109715 0.019582
Si Si6 0.625673 0.513082 0.701942
Si Si7 0.879172 0.117625 0.594108
Si Si8 0.707298 0.601588 0.356926
O O1 0.500000 0.500000 0.500000
O O2 0.443039 0.729858 0.496486
O O3 0.543735 0.098732 0.812109
O O4 0.249055 0.870705 0.628686
O O5 0.787863 0.723917 0.506301
O O6 0.000000 0.500000 0.500000
O O7 0.828878 0.925678 0.745858
O O8 0.057895 0.079804 0.789677
O O9 0.204746 0.723560 0.966499
O O10 0.245231 0.490641 0.971797
O O11 0.989559 0.193333 0.719022
O O12 0.672201 0.839281 0.851472
O O13 0.802788 0.328976 0.197098
O O14 0.000000 0.000000 0.000000
O O15 0.796706 0.420377 0.717023
O O16 0.483354 0.520932 0.734317
O O17 0.726034 0.872483 0.451367
O O18 0.000000 0.000000 0.500000
#
# Coordination Sequence:
#
# PCOD8031343 Si02
#       8
#     2   2   2   2   2   2   2   2
#     4  12  24  44  70 102 137 186 231 284 358 423
#     4  11  24  42  72  99 142 183 230 285 353 420
#     4  12  24  46  66 103 140 179 236 286 350 417
#     4  11  25  42  69 103 138 181 234 291 348 415
#     4  12  26  43  71 102 140 183 236 288 347 416
#     4  12  24  44  70  99 143 181 236 288 349 419
#     4  11  22  43  70  98 135 186 230 284 348 419
#     4  11  25  44  66 104 137 180 233 290 351 410
#
# _framework density 22.387398000000001
#
# number of rings (size 3 to 8) (size 9 to 14) (size 15 to 20)
#    0.000    0.500    3.750    5.250    1.750    0.000 
#    0.000    1.250    0.000    0.000    0.000    0.000 
#    0.000    0.000    0.000    0.000    0.000    0.000 
#
# Total GULP energy -198382.030872 kJ/mol
# GULP energy per Si atom -12398.876929 kJ/mol
# Density = 2.233644 g / cm^3
# Si number density = 22.387398 Si / 1000 Ang^3
#
#
#
# Elastic Constant Matrix: (Units=GPa)
#
#
# Indices 1 2 3 4 5 6 
#
# 1 116.6036 31.5168 27.8358 3.9591 -2.4244 10.1072
# 2 31.5168 86.6168 17.2664 11.1541 0.5584 -4.6568
# 3 27.8358 17.2664 76.7810 5.5055 1.5137 -2.0577
# 4 3.9591 11.1541 5.5055 38.9984 6.1652 -1.8491
# 5 -2.4244 0.5584 1.5137 6.1652 50.3920 6.5226
# 6 10.1072 -4.6568 -2.0577 -1.8491 6.5226 34.0744
#
#
#
# Elastic Compliance Matrix: (Units=1/GPa)
#
#
# Indices 1 2 3 4 5 6 
#
# 1 0.010655 -0.003459 -0.003215 -0.000016 0.001174 -0.004053
# 2 -0.003459 0.013660 -0.001514 -0.003179 -0.000229 0.002673
# 3 -0.003215 -0.001514 0.014669 -0.001127 -0.000661 0.001698
# 4 -0.000016 -0.003179 -0.001127 0.027342 -0.003491 0.001654
# 5 0.001174 -0.000229 -0.000661 -0.003491 0.020948 -0.004619
# 6 -0.004053 0.002673 0.001698 0.001654 -0.004619 0.031992
#
#
# Mechanical properties :
#
#
# Convention : Reuss Voigt Hill
#
# Bulk Modulus (GPa) = 44.23279 48.13770 46.18525
# Shear Modulus (GPa) = 34.92114 38.25178 36.58646
#
# Velocity S-wave (km/s) = 3.95379 4.13804 4.04696
# Velocity P-wave (km/s) = 6.37527 6.66183 6.52012
#
# Compressibility (1/GPa) = 0.02260766
#
# Stress axis : x y z
#
# Youngs Moduli (GPa) = 93.85264 73.20555 68.16874
#
# Poissons Ratio (x) = 0.25325 0.21920
# Poissons Ratio (y) = 0.32467 0.10318
# Poissons Ratio (z) = 0.30178 0.11080
#
# Static dielectric constant tensor:
#      x y z
#    x 4.307660 0.303850 0.234070 
#    y 0.303850 4.127990 0.329640 
#    z 0.234070 0.329640 4.117600 
# 
# 
# High freq. dielectric constant tensor:
#      x y z
#    x 1.900610 0.006800 0.007020 
#    y 0.006800 1.878180 0.009470 
#    z 0.007020 0.009470 1.877710 
# 
# From -- ./inp_files/223432.got.cif
#   From: 2010.06.25/outbox.cif.g09.slc.cpg/sg2_112_cif.got.tgz:223432.got - 2010.06.27 13:26:56.
