data_PCOD8031257
_publ_section_title
;
Structure prediction by ZEFSAII (Michael W. Deem and Ramdas Pophale) SiO2 
 PCOD8031257
Probable space group: P -1
;
_chemical_formula_sum "Si O2"
_cell_formula_units_Z 14
_cell_length_a 15.339581
_cell_length_b 12.339992
_cell_length_c 9.494715
_cell_angle_alpha 137.018070
_cell_angle_beta 54.261602
_cell_angle_gamma 151.212907
_cell_volume 581.072651
_symmetry_space_group_name_H-M "P -1"
_symmetry_group_IT_number 2
_symmetry_cell_setting 'triclinic'
loop_
_space_group_symop_operation_xyz
x,y,z
-x,-y,-z
loop_
_atom_site_type_symbol
_atom_site_label
_atom_site_fract_x
_atom_site_fract_y
_atom_site_fract_z
Si Si1 0.184008 0.808575 0.429449
Si Si2 0.287039 0.455402 0.087569
Si Si3 0.980465 0.267354 0.036110
Si Si4 0.671608 0.075617 0.296331
Si Si5 0.829517 0.582159 0.551527
Si Si6 0.621240 0.671848 0.347515
Si Si7 0.773388 0.787381 0.598822
O O1 0.254385 0.807623 0.503622
O O2 0.095886 0.568036 0.181828
O O3 0.032474 0.760985 0.564344
O O4 0.349430 0.101527 0.474334
O O5 0.242649 0.381786 0.225119
O O6 0.102528 0.297842 0.042780
O O7 0.457133 0.779309 0.213087
O O8 0.339731 0.351810 0.866993
O O9 0.793193 0.083472 0.120424
O O10 0.923779 0.104436 0.793708
O O11 0.692879 0.266857 0.373683
O O12 0.831250 0.682723 0.500371
O O13 0.758775 0.760072 0.417513
O O14 0.417281 0.387620 0.318253
#
# Coordination Sequence:
#
# PCOD8031257 Si02
#       7
#     2   2   2   2   2   2   2
#     4  11  23  43  68 103 137 169 219 281 331 394
#     4  12  23  40  73 103 131 180 219 271 340 391
#     4  11  23  42  69 101 135 170 224 275 330 395
#     4  11  22  43  65 109 135 170 215 287 321 405
#     4  11  23  40  71  99 136 170 222 275 333 391
#     4  11  27  45  67  95 137 183 223 271 336 392
#     4  11  26  48  64  96 139 178 226 277 324 401
#
# _framework density 24.093375000000002
#
# number of rings (size 3 to 8) (size 9 to 14) (size 15 to 20)
#    0.000    0.857    4.286    3.000    4.000    5.143 
#    0.000    2.143    0.000    0.000    0.000    0.000 
#    0.000    0.000    0.000    0.000    0.000    0.000 
#
# Total GULP energy -173599.116343 kJ/mol
# GULP energy per Si atom -12399.936882 kJ/mol
# Density = 2.403854 g / cm^3
# Si number density = 24.093375 Si / 1000 Ang^3
#
#
#
# Elastic Constant Matrix: (Units=GPa)
#
#
# Indices 1 2 3 4 5 6 
#
# 1 75.4096 2.8854 24.3808 11.7983 -5.3260 -7.8107
# 2 2.8854 55.0102 26.6232 19.6226 -3.3615 0.1371
# 3 24.3808 26.6232 60.3967 30.9072 3.0416 -6.2208
# 4 11.7983 19.6226 30.9072 40.4330 2.6058 -9.5069
# 5 -5.3260 -3.3615 3.0416 2.6058 27.3920 2.2491
# 6 -7.8107 0.1371 -6.2208 -9.5069 2.2491 38.0174
#
#
#
# Elastic Compliance Matrix: (Units=1/GPa)
#
#
# Indices 1 2 3 4 5 6 
#
# 1 0.016219 0.003314 -0.007996 -0.000100 0.004315 0.001732
# 2 0.003314 0.025539 -0.009534 -0.007177 0.005775 -0.003108
# 3 -0.007996 -0.009534 0.033696 -0.018608 -0.004657 -0.000472
# 4 -0.000100 -0.007177 -0.018608 0.044676 -0.003770 0.008356
# 5 0.004315 0.005775 -0.004657 -0.003770 0.039190 -0.003158
# 6 0.001732 -0.003108 -0.000472 0.008356 -0.003158 0.028870
#
#
# Mechanical properties :
#
#
# Convention : Reuss Voigt Hill
#
# Bulk Modulus (GPa) = 21.26647 33.17729 27.22188
# Shear Modulus (GPa) = 21.52422 30.29697 25.91059
#
# Velocity S-wave (km/s) = 2.99217 3.54995 3.28292
# Velocity P-wave (km/s) = 4.55887 5.53200 5.06884
#
# Compressibility (1/GPa) = 0.04702239
#
# Stress axis : x y z
#
# Youngs Moduli (GPa) = 61.65575 39.15517 29.67702
#
# Poissons Ratio (x) = -0.12976 0.23730
# Poissons Ratio (y) = -0.20433 0.28295
# Poissons Ratio (z) = 0.49300 0.37331
#
# Static dielectric constant tensor:
#      x y z
#    x 4.205460 0.136250 0.005170 
#    y 0.136250 4.471980 0.191350 
#    z 0.005170 0.191350 4.299400 
# 
# 
# High freq. dielectric constant tensor:
#      x y z
#    x 1.950950 0.018350 -0.010550 
#    y 0.018350 1.965370 0.019550 
#    z -0.010550 0.019550 1.942930 
# 
# From -- ./inp_files/174585.got.cif
#   From: 2010.06.25/outbox.cif.g09.slc.cpg/sg2_88_cif.got.tgz:174585.got - 2010.06.27 13:26:56.
