data_PCOD8031579
_publ_section_title
;
Structure prediction by ZEFSAII (Michael W. Deem and Ramdas Pophale) SiO2 
 PCOD8031579
Probable space group: P -1
;
_chemical_formula_sum "Si O2"
_cell_formula_units_Z 16
_cell_length_a 11.198450
_cell_length_b 13.745290
_cell_length_c 9.892716
_cell_angle_alpha 64.098846
_cell_angle_beta 120.951807
_cell_angle_gamma 66.632798
_cell_volume 696.385443
_symmetry_space_group_name_H-M "P -1"
_symmetry_group_IT_number 2
_symmetry_cell_setting 'triclinic'
loop_
_space_group_symop_operation_xyz
x,y,z
-x,-y,-z
loop_
_atom_site_type_symbol
_atom_site_label
_atom_site_fract_x
_atom_site_fract_y
_atom_site_fract_z
Si Si1 0.855262 0.010177 0.189366
Si Si2 0.392378 0.497560 0.318508
Si Si3 0.804867 0.603577 0.707045
Si Si4 0.874936 0.630913 0.219043
Si Si5 0.650683 0.006563 0.840191
Si Si6 0.386818 0.845042 0.753943
Si Si7 0.078650 0.098686 0.204906
Si Si8 0.650502 0.349787 0.290613
O O1 0.074392 0.789177 0.467934
O O2 0.731339 0.108322 0.200856
O O3 0.943737 0.068107 0.145653
O O4 0.674149 0.069057 0.946210
O O5 0.500000 0.500000 0.500000
O O6 0.393135 0.366588 0.403792
O O7 0.544343 0.445625 0.314247
O O8 0.117313 0.688104 0.026047
O O9 0.937776 0.487921 0.718539
O O10 0.632845 0.816910 0.462191
O O11 0.000000 0.500000 0.000000
O O12 0.000000 0.500000 0.500000
O O13 0.755254 0.823632 0.052266
O O14 0.661541 0.686662 0.024384
O O15 0.787338 0.971079 0.815163
O O16 0.353889 0.773355 0.666976
O O17 0.245215 0.024042 0.477224
O O18 0.500000 0.500000 0.000000
#
# Coordination Sequence:
#
# PCOD8031579 Si02
#       8
#     2   2   2   2   2   2   2   2
#     4  11  23  43  70 105 143 188 236 293 373 430
#     4  12  24  42  71 108 144 184 240 301 359 433
#     4  12  27  48  74 108 145 192 245 296 367 438
#     4  12  29  49  71 103 146 196 249 297 357 438
#     4  12  26  47  74 105 146 192 240 303 360 428
#     4  11  25  45  68 101 144 189 242 293 358 439
#     4  11  22  44  73 104 142 184 236 302 368 429
#     4  11  23  40  68 103 141 183 235 299 360 423
#
# _framework density 22.975783
#
# number of rings (size 3 to 8) (size 9 to 14) (size 15 to 20)
#    0.000    0.500    1.250    8.625    3.500    3.000 
#    0.000    0.000    0.000    0.000    0.000    0.000 
#    0.000    0.000    0.000    0.000    0.000    0.000 
#
# Total GULP energy -198289.081015 kJ/mol
# GULP energy per Si atom -12393.067563 kJ/mol
# Density = 2.292349 g / cm^3
# Si number density = 22.975783 Si / 1000 Ang^3
#
#
#
# Elastic Constant Matrix: (Units=GPa)
#
#
# Indices 1 2 3 4 5 6 
#
# 1 65.3255 28.1109 34.8032 5.2872 -8.1161 -6.1669
# 2 28.1109 110.5643 40.2861 3.8473 -8.6747 -13.6064
# 3 34.8032 40.2861 155.6924 -7.8122 -5.9760 4.3021
# 4 5.2872 3.8473 -7.8122 49.3519 -4.7050 0.7773
# 5 -8.1161 -8.6747 -5.9760 -4.7050 37.6486 0.4535
# 6 -6.1669 -13.6064 4.3021 0.7773 0.4535 29.3419
#
#
#
# Elastic Compliance Matrix: (Units=1/GPa)
#
#
# Indices 1 2 3 4 5 6 
#
# 1 0.019321 -0.002889 -0.003674 -0.002230 0.002598 0.003279
# 2 -0.002889 0.011437 -0.002443 -0.000910 0.001450 0.005056
# 3 -0.003674 -0.002443 0.008068 0.001930 0.000205 -0.003143
# 4 -0.002230 -0.000910 0.001930 0.021123 0.002277 -0.001769
# 5 0.002598 0.001450 0.000205 0.002277 0.027764 0.000699
# 6 0.003279 0.005056 -0.003143 -0.001769 0.000699 0.037612
#
#
# Mechanical properties :
#
#
# Convention : Reuss Voigt Hill
#
# Bulk Modulus (GPa) = 48.04556 59.77583 53.91069
# Shear Modulus (GPa) = 33.27210 38.49395 35.88302
#
# Velocity S-wave (km/s) = 3.80957 4.09762 3.95622
# Velocity P-wave (km/s) = 6.34880 6.96137 6.66213
#
# Compressibility (1/GPa) = 0.02081358
#
# Stress axis : x y z
#
# Youngs Moduli (GPa) = 51.75595 87.43616 123.94532
#
# Poissons Ratio (x) = 0.25257 0.45543
# Poissons Ratio (y) = 0.14950 0.30284
# Poissons Ratio (z) = 0.19017 0.21364
#
# Static dielectric constant tensor:
#      x y z
#    x 4.188820 0.143120 -0.414090 
#    y 0.143120 4.359630 -0.664400 
#    z -0.414090 -0.664400 6.633400 
# 
# 
# High freq. dielectric constant tensor:
#      x y z
#    x 1.895970 -0.011300 -0.000800 
#    y -0.011300 1.916240 -0.009130 
#    z -0.000800 -0.009130 1.939290 
# 
# From -- ./inp_files/272691.got.cif
#   From: 2010.06.25/outbox.cif.g09.slc.cpg/sg2_137_cif.got.tgz:272691.got - 2010.06.27 13:26:56.
