data_PCOD8031373
_publ_section_title
;
Structure prediction by ZEFSAII (Michael W. Deem and Ramdas Pophale) SiO2 
 PCOD8031373
Probable space group: P -1
;
_chemical_formula_sum "Si O2"
_cell_formula_units_Z 16
_cell_length_a 13.633894
_cell_length_b 22.152818
_cell_length_c 11.325728
_cell_angle_alpha 32.905423
_cell_angle_beta 149.811174
_cell_angle_gamma 141.393120
_cell_volume 914.789998
_symmetry_space_group_name_H-M "P -1"
_symmetry_group_IT_number 2
_symmetry_cell_setting 'triclinic'
loop_
_space_group_symop_operation_xyz
x,y,z
-x,-y,-z
loop_
_atom_site_type_symbol
_atom_site_label
_atom_site_fract_x
_atom_site_fract_y
_atom_site_fract_z
Si Si1 0.020841 0.916998 0.823392
Si Si2 0.687350 0.480739 0.154111
Si Si3 0.779463 0.848336 0.313667
Si Si4 0.058803 0.686839 0.933005
Si Si5 0.684413 0.499417 0.849937
Si Si6 0.936809 0.320436 0.776739
Si Si7 0.432490 0.665513 0.204115
Si Si8 0.294048 0.039478 0.726676
O O1 0.788825 0.925780 0.543615
O O2 0.131673 0.021061 0.853484
O O3 0.130887 0.934086 0.781674
O O4 0.040500 0.791873 0.091088
O O5 0.753443 0.367587 0.454917
O O6 0.859035 0.590221 0.174155
O O7 0.500000 0.500000 0.000000
O O8 0.631016 0.461943 0.989543
O O9 0.959882 0.783171 0.613534
O O10 0.596834 0.780427 0.156494
O O11 0.686837 0.852740 0.342061
O O12 0.913553 0.563833 0.969881
O O13 0.107857 0.710020 0.083225
O O14 0.259414 0.692073 0.061804
O O15 0.536691 0.579192 0.526020
O O16 0.654778 0.386628 0.925048
O O17 0.500000 0.000000 0.000000
#
# Coordination Sequence:
#
# PCOD8031373 Si02
#       8
#     2   2   2   2   2   2   2   2
#     4   9  18  30  42  70 104 126 159 198 236 297
#     4  10  21  35  51  71  93 126 165 207 244 278
#     4   9  19  27  43  75 102 126 163 190 231 309
#     4  10  17  31  50  72 102 129 155 199 245 290
#     4   9  20  35  46  75  98 123 174 199 232 301
#     4  10  19  32  49  71  98 126 161 201 242 292
#     4  10  19  30  52  71 101 134 154 197 248 283
#     4   9  17  27  44  69 102 134 154 192 241 286
#
# _framework density 17.490352999999999
#
# number of rings (size 3 to 8) (size 9 to 14) (size 15 to 20)
#    0.750    1.750    1.250    1.125    3.500    1.000 
#    0.000    0.000    0.000    0.750    0.000    1.750 
#    0.000    0.000    0.000    0.000    0.000    0.000 
#
# Total GULP energy -198241.524771 kJ/mol
# GULP energy per Si atom -12390.095298 kJ/mol
# Density = 1.745054 g / cm^3
# Si number density = 17.490353 Si / 1000 Ang^3
#
#
#
# Elastic Constant Matrix: (Units=GPa)
#
#
# Indices 1 2 3 4 5 6 
#
# 1 53.5874 21.6019 30.4014 4.6717 13.1993 4.6693
# 2 21.6019 109.6584 43.9899 -10.4370 2.2889 -16.2167
# 3 30.4014 43.9899 87.9604 -1.9256 16.0351 6.1274
# 4 4.6717 -10.4370 -1.9256 25.1409 0.4242 2.7277
# 5 13.1993 2.2889 16.0351 0.4242 28.0435 5.9853
# 6 4.6693 -16.2167 6.1274 2.7277 5.9853 15.0762
#
#
#
# Elastic Compliance Matrix: (Units=1/GPa)
#
#
# Indices 1 2 3 4 5 6 
#
# 1 0.026447 -0.004642 -0.005092 -0.006349 -0.007576 -0.006958
# 2 -0.004642 0.017225 -0.008612 0.004928 0.000886 0.022223
# 3 -0.005092 -0.008612 0.019312 0.000412 -0.005045 -0.013607
# 4 -0.006349 0.004928 0.000412 0.043163 0.002020 -0.001512
# 5 -0.007576 0.000886 -0.005045 0.002020 0.044733 -0.012775
# 6 -0.006958 0.022223 -0.013607 -0.001512 -0.012775 0.103264
#
#
# Mechanical properties :
#
#
# Convention : Reuss Voigt Hill
#
# Bulk Modulus (GPa) = 38.03415 49.24361 43.63888
# Shear Modulus (GPa) = 16.68880 23.99967 20.34423
#
# Velocity S-wave (km/s) = 3.09232 3.70829 3.41423
# Velocity P-wave (km/s) = 5.87732 6.82284 6.36765
#
# Compressibility (1/GPa) = 0.02629216
#
# Stress axis : x y z
#
# Youngs Moduli (GPa) = 37.81088 58.05401 51.78073
#
# Poissons Ratio (x) = 0.26950 0.26369
# Poissons Ratio (y) = 0.17553 0.44592
# Poissons Ratio (z) = 0.19255 0.49994
#
# Static dielectric constant tensor:
#      x y z
#    x 2.870870 -0.089820 0.152300 
#    y -0.089820 3.536020 0.030790 
#    z 0.152300 0.030790 3.203480 
# 
# 
# High freq. dielectric constant tensor:
#      x y z
#    x 1.630340 -0.000250 0.032290 
#    y -0.000250 1.686970 0.000620 
#    z 0.032290 0.000620 1.668000 
# 
# From -- ./inp_files/457929.got.cif
#   From: 2010.06.25/outbox.cif.g09.slc.cpg/sg2_229_cif.got.tgz:457929.got - 2010.06.27 13:26:56.
