data_PCOD8031629
_publ_section_title
;
Structure prediction by ZEFSAII (Michael W. Deem and Ramdas Pophale) SiO2 
 PCOD8031629
Probable space group: P -1
;
_chemical_formula_sum "Si O2"
_cell_formula_units_Z 14
_cell_length_a 24.361890
_cell_length_b 14.951473
_cell_length_c 15.767239
_cell_angle_alpha 29.139650
_cell_angle_beta 159.806877
_cell_angle_gamma 161.756885
_cell_volume 612.008646
_symmetry_space_group_name_H-M "P -1"
_symmetry_group_IT_number 2
_symmetry_cell_setting 'triclinic'
loop_
_space_group_symop_operation_xyz
x,y,z
-x,-y,-z
loop_
_atom_site_type_symbol
_atom_site_label
_atom_site_fract_x
_atom_site_fract_y
_atom_site_fract_z
Si Si1 0.197958 0.654975 0.754528
Si Si2 0.682822 0.810085 0.899077
Si Si3 0.553164 0.771121 0.443089
Si Si4 0.188430 0.357122 0.118516
Si Si5 0.285291 0.570624 0.392507
Si Si6 0.267264 0.554057 0.765430
Si Si7 0.229164 0.931397 0.011102
O O1 0.181446 0.489737 0.792322
O O2 0.921629 0.475664 0.531985
O O3 0.361265 0.973654 0.696808
O O4 0.306014 0.633325 0.007423
O O5 0.413138 0.587545 0.645454
O O6 0.672076 0.857186 0.942984
O O7 0.776787 0.686176 0.136417
O O8 0.889680 0.115896 0.896122
O O9 0.306526 0.468243 0.291405
O O10 0.759451 0.793739 0.724527
O O11 0.487604 0.763617 0.450425
O O12 0.198801 0.694892 0.194614
O O13 0.035047 0.238104 0.273383
O O14 0.557062 0.870579 0.914722
#
# Coordination Sequence:
#
# PCOD8031629 Si02
#       7
#     2   2   2   2   2   2   2
#     4  11  23  42  68 102 132 177 225 277 338 401
#     4  12  24  43  68 101 133 183 224 275 340 399
#     4  11  22  45  66 102 140 171 225 285 329 405
#     4  11  24  40  71 102 137 175 223 278 343 397
#     4  11  24  42  71  93 134 181 225 278 336 393
#     4  11  24  42  66  97 140 171 227 283 329 403
#     4  11  24  46  64  97 137 177 228 280 326 406
#
# _framework density 22.875492999999999
#
# number of rings (size 3 to 8) (size 9 to 14) (size 15 to 20)
#    0.000    0.857    4.286    3.000    2.000    1.714 
#    0.000    0.000    0.000    0.000    0.000    0.000 
#    0.000    0.000    0.000    0.000    0.000    0.000 
#
# Total GULP energy -173569.249515 kJ/mol
# GULP energy per Si atom -12397.803537 kJ/mol
# Density = 2.282343 g / cm^3
# Si number density = 22.875493 Si / 1000 Ang^3
#
#
#
# Elastic Constant Matrix: (Units=GPa)
#
#
# Indices 1 2 3 4 5 6 
#
# 1 95.6211 25.5725 57.5153 7.0907 5.5674 -20.2056
# 2 25.5725 77.0017 26.9162 8.0014 4.7173 0.2515
# 3 57.5153 26.9162 107.0097 12.8302 -2.1095 -9.6629
# 4 7.0907 8.0014 12.8302 42.2206 -1.9309 1.1366
# 5 5.5674 4.7173 -2.1095 -1.9309 29.9376 4.6316
# 6 -20.2056 0.2515 -9.6629 1.1366 4.6316 33.9993
#
#
#
# Elastic Compliance Matrix: (Units=1/GPa)
#
#
# Indices 1 2 3 4 5 6 
#
# 1 0.018664 -0.002896 -0.008495 -0.000491 -0.005101 0.009410
# 2 -0.002896 0.015027 -0.002250 -0.001700 -0.001761 -0.002175
# 3 -0.008495 -0.002250 0.014724 -0.002453 0.002995 -0.001173
# 4 -0.000491 -0.001700 -0.002453 0.024989 0.002123 -0.002101
# 5 -0.005101 -0.001761 0.002995 0.002123 0.036083 -0.007153
# 6 0.009410 -0.002175 -0.001173 -0.002101 -0.007153 0.035732
#
#
# Mechanical properties :
#
#
# Convention : Reuss Voigt Hill
#
# Bulk Modulus (GPa) = 47.32244 55.51561 51.41903
# Shear Modulus (GPa) = 27.84804 32.54008 30.19406
#
# Velocity S-wave (km/s) = 3.49287 3.77568 3.63703
# Velocity P-wave (km/s) = 6.08266 6.58247 6.33750
#
# Compressibility (1/GPa) = 0.02113162
#
# Stress axis : x y z
#
# Youngs Moduli (GPa) = 53.57924 66.54783 67.91631
#
# Poissons Ratio (x) = 0.19274 0.57694
# Poissons Ratio (y) = 0.15518 0.15284
# Poissons Ratio (z) = 0.45515 0.14976
#
# Static dielectric constant tensor:
#      x y z
#    x 4.023620 -0.105140 0.194660 
#    y -0.105140 3.961510 0.126910 
#    z 0.194660 0.126910 4.056000 
# 
# 
# High freq. dielectric constant tensor:
#      x y z
#    x 1.899860 -0.010080 0.014720 
#    y -0.010080 1.902500 0.006840 
#    z 0.014720 0.006840 1.898300 
# 
# From -- ./inp_files/397112.got.cif
#   From: 2010.06.25/outbox.cif.g09.slc.cpg/sg2_199_cif.got.tgz:397112.got - 2010.06.27 13:26:56.
