data_PCOD8031669
_publ_section_title
;
Structure prediction by ZEFSAII (Michael W. Deem and Ramdas Pophale) SiO2 
 PCOD8031669
Probable space group: P -1
;
_chemical_formula_sum "Si O2"
_cell_formula_units_Z 14
_cell_length_a 9.171677
_cell_length_b 9.076497
_cell_length_c 21.770936
_cell_angle_alpha 127.654943
_cell_angle_beta 151.307126
_cell_angle_gamma 50.738228
_cell_volume 666.096210
_symmetry_space_group_name_H-M "P -1"
_symmetry_group_IT_number 2
_symmetry_cell_setting 'triclinic'
loop_
_space_group_symop_operation_xyz
x,y,z
-x,-y,-z
loop_
_atom_site_type_symbol
_atom_site_label
_atom_site_fract_x
_atom_site_fract_y
_atom_site_fract_z
Si Si1 0.647542 0.731732 0.821418
Si Si2 0.750663 0.962835 0.029901
Si Si3 0.425030 0.950160 0.320984
Si Si4 0.293037 0.100318 0.717846
Si Si5 0.639525 0.602030 0.398830
Si Si6 0.688563 0.294127 0.995693
Si Si7 0.570986 0.309870 0.518315
O O1 0.558331 0.530252 0.740357
O O2 0.959003 0.707077 0.890252
O O3 0.372948 0.892892 0.727809
O O4 0.703901 0.787944 0.926258
O O5 0.096047 0.909370 0.171934
O O6 0.693760 0.154496 0.018497
O O7 0.500000 0.000000 0.000000
O O8 0.663405 0.920813 0.344362
O O9 0.577502 0.805793 0.394365
O O10 0.376036 0.166993 0.382710
O O11 0.938684 0.207347 0.629637
O O12 0.525777 0.224975 0.859351
O O13 0.544878 0.631333 0.441658
O O14 0.000000 0.500000 0.500000
O O15 0.500000 0.500000 0.000000
O O16 0.500000 0.500000 0.500000
#
# Coordination Sequence:
#
# PCOD8031669 Si02
#       7
#     2   2   2   2   2   2   2
#     4  11  23  47  69  98 139 178 228 270 337 413
#     4  11  26  42  69 104 136 179 218 282 346 392
#     4  12  25  45  68  99 142 170 226 284 339 400
#     4  11  22  45  70  97 129 181 225 278 337 396
#     4  12  28  45  67 101 138 180 225 282 340 397
#     4  11  23  42  71 100 137 177 228 274 326 414
#     4  12  27  45  72  98 131 182 233 277 336 407
#
# _framework density 21.017983000000001
#
# number of rings (size 3 to 8) (size 9 to 14) (size 15 to 20)
#    0.000    0.571    2.857    5.143   10.000    1.714 
#    0.000    0.000    0.000    0.000    0.000    0.000 
#    0.000    0.000    0.000    0.000    0.000    0.000 
#
# Total GULP energy -173709.172079 kJ/mol
# GULP energy per Si atom -12407.798006 kJ/mol
# Density = 2.097015 g / cm^3
# Si number density = 21.017983 Si / 1000 Ang^3
#
#
#
# Elastic Constant Matrix: (Units=GPa)
#
#
# Indices 1 2 3 4 5 6 
#
# 1 148.3787 54.2042 65.0411 -4.4680 0.8187 -17.5814
# 2 54.2042 126.8399 48.7182 7.4482 -12.6046 -6.3362
# 3 65.0411 48.7182 107.7850 4.2458 -1.2976 -3.1601
# 4 -4.4680 7.4482 4.2458 45.6339 -3.1499 5.2855
# 5 0.8187 -12.6046 -1.2976 -3.1499 35.2545 -7.3078
# 6 -17.5814 -6.3362 -3.1601 5.2855 -7.3078 37.1270
#
#
#
# Elastic Compliance Matrix: (Units=1/GPa)
#
#
# Indices 1 2 3 4 5 6 
#
# 1 0.010346 -0.002389 -0.005113 0.001415 -0.000372 0.003782
# 2 -0.002389 0.010704 -0.003246 -0.001572 0.003915 0.001414
# 3 -0.005113 -0.003246 0.013808 -0.001112 -0.001015 -0.001841
# 4 0.001415 -0.001572 -0.001112 0.022791 0.000825 -0.002775
# 5 -0.000372 0.003915 -0.001015 0.000825 0.031140 0.006418
# 6 0.003782 0.001414 -0.001841 -0.002775 0.006418 0.030468
#
#
# Mechanical properties :
#
#
# Convention : Reuss Voigt Hill
#
# Bulk Modulus (GPa) = 74.83705 79.88118 77.35912
# Shear Modulus (GPa) = 34.43388 37.93909 36.18648
#
# Velocity S-wave (km/s) = 4.05199 4.25323 4.15383
# Velocity P-wave (km/s) = 7.58782 7.88724 7.73898
#
# Compressibility (1/GPa) = 0.01336236
#
# Stress axis : x y z
#
# Youngs Moduli (GPa) = 96.65509 93.42695 72.42296
#
# Poissons Ratio (x) = 0.22317 0.37029
# Poissons Ratio (y) = 0.23088 0.23509
# Poissons Ratio (z) = 0.49418 0.30327
#
# Static dielectric constant tensor:
#      x y z
#    x 3.918210 -0.033050 -0.006050 
#    y -0.033050 3.945760 0.123590 
#    z -0.006050 0.123590 4.114310 
# 
# 
# High freq. dielectric constant tensor:
#      x y z
#    x 1.836520 -0.005950 -0.000860 
#    y -0.005950 1.833630 0.002270 
#    z -0.000860 0.002270 1.839280 
# 
# From -- ./inp_files/156974.got.cif
#   From: 2010.06.25/outbox.cif.g09.slc.cpg/sg2_79_cif.got.tgz:156974.got - 2010.06.27 13:26:56.
