data_PCOD8031193
_publ_section_title
;
Structure prediction by ZEFSAII (Michael W. Deem and Ramdas Pophale) SiO2 
 PCOD8031193
Probable space group: P -1
;
_chemical_formula_sum "Si O2"
_cell_formula_units_Z 16
_cell_length_a 9.951219
_cell_length_b 11.481785
_cell_length_c 11.686556
_cell_angle_alpha 55.289734
_cell_angle_beta 91.793076
_cell_angle_gamma 53.152755
_cell_volume 723.746208
_symmetry_space_group_name_H-M "P -1"
_symmetry_group_IT_number 2
_symmetry_cell_setting 'triclinic'
loop_
_space_group_symop_operation_xyz
x,y,z
-x,-y,-z
loop_
_atom_site_type_symbol
_atom_site_label
_atom_site_fract_x
_atom_site_fract_y
_atom_site_fract_z
Si Si1 0.282427 0.747899 0.343663
Si Si2 0.707783 0.810034 0.272342
Si Si3 0.362419 0.265008 0.900797
Si Si4 0.563182 0.103907 0.620410
Si Si5 0.230092 0.357339 0.081618
Si Si6 0.643504 0.295946 0.878594
Si Si7 0.863497 0.976280 0.267514
Si Si8 0.472416 0.719948 0.716895
O O1 0.500000 0.500000 0.500000
O O2 0.297614 0.897250 0.303949
O O3 0.221947 0.781479 0.188654
O O4 0.104177 0.817101 0.377884
O O5 0.796451 0.658591 0.246701
O O6 0.660757 0.734742 0.415324
O O7 0.848799 0.824860 0.311430
O O8 0.492745 0.033073 0.089031
O O9 0.502438 0.277414 0.847000
O O10 0.244112 0.416186 0.923101
O O11 0.549263 0.158057 0.458349
O O12 0.646259 0.880381 0.752804
O O13 0.318047 0.407840 0.140069
O O14 0.000000 0.500000 0.000000
O O15 0.496932 0.542336 0.769773
O O16 0.783961 0.145987 0.073296
O O17 0.728731 0.107034 0.304946
#
# Coordination Sequence:
#
# PCOD8031193 Si02
#       8
#     2   2   2   2   2   2   2   2
#     4  12  26  47  64 101 136 177 228 276 339 394
#     4   9  18  39  68  91 123 171 219 264 327 387
#     4   9  18  37  65  93 125 165 218 273 316 383
#     4  11  23  44  70  90 142 177 216 278 334 397
#     4  11  25  41  68 102 132 174 227 273 335 400
#     4  11  22  42  71  97 134 174 226 280 327 401
#     4  11  25  42  71  97 132 179 226 277 331 396
#     4  12  24  43  67  99 140 173 223 272 344 402
#
# _framework density 22.107196999999999
#
# number of rings (size 3 to 8) (size 9 to 14) (size 15 to 20)
#    0.000    1.250    6.250    1.125    3.500    1.500 
#    2.250    0.625    0.000    0.000    0.000    0.000 
#    0.000    0.000    0.000    0.000    0.000    0.000 
#
# Total GULP energy -198232.550632 kJ/mol
# GULP energy per Si atom -12389.534415 kJ/mol
# Density = 2.205688 g / cm^3
# Si number density = 22.107197 Si / 1000 Ang^3
#
#
#
# Elastic Constant Matrix: (Units=GPa)
#
#
# Indices 1 2 3 4 5 6 
#
# 1 118.0394 40.8429 26.8699 9.8353 -2.3788 -8.4627
# 2 40.8429 91.1665 37.8841 36.6446 2.0955 -0.0636
# 3 26.8699 37.8841 68.6521 27.0446 -14.3112 -17.5294
# 4 9.8353 36.6446 27.0446 32.8857 -6.8749 -3.7650
# 5 -2.3788 2.0955 -14.3112 -6.8749 25.8973 0.2797
# 6 -8.4627 -0.0636 -17.5294 -3.7650 0.2797 40.7815
#
#
#
# Elastic Compliance Matrix: (Units=1/GPa)
#
#
# Indices 1 2 3 4 5 6 
#
# 1 0.010927 -0.006665 -0.002360 0.006731 0.002006 0.001851
# 2 -0.006665 0.028052 -0.006611 -0.027462 -0.013754 -0.006622
# 3 -0.002360 -0.006611 0.029490 -0.012150 0.013271 0.010963
# 4 0.006731 -0.027462 -0.012150 0.072508 0.015345 0.002720
# 5 0.002006 -0.013754 0.013271 0.015345 0.051241 0.007164
# 6 0.001851 -0.006622 0.010963 0.002720 0.007164 0.029809
#
#
# Mechanical properties :
#
#
# Convention : Reuss Voigt Hill
#
# Bulk Modulus (GPa) = 26.88331 54.33907 40.61119
# Shear Modulus (GPa) = 18.81834 31.39698 25.10766
#
# Velocity S-wave (km/s) = 2.92075 3.77266 3.37371
# Velocity P-wave (km/s) = 4.85399 6.60382 5.79533
#
# Compressibility (1/GPa) = 0.03719780
#
# Stress axis : x y z
#
# Youngs Moduli (GPa) = 91.51306 35.64804 33.90973
#
# Poissons Ratio (x) = 0.23760 0.08002
# Poissons Ratio (y) = 0.60995 0.22418
# Poissons Ratio (z) = 0.21594 0.23567
#
# Static dielectric constant tensor:
#      x y z
#    x 3.664780 0.580630 -0.055920 
#    y 0.580630 3.115840 0.019220 
#    z -0.055920 0.019220 3.636470 
# 
# 
# High freq. dielectric constant tensor:
#      x y z
#    x 1.873680 0.010300 -0.019580 
#    y 0.010300 1.874800 0.029330 
#    z -0.019580 0.029330 1.854550 
# 
# From -- ./inp_files/392096.got.cif
#   From: 2010.06.25/outbox.cif.g09.slc.cpg/sg2_197_cif.got.tgz:392096.got - 2010.06.27 13:26:56.
