data_PCOD8031698
_publ_section_title
;
Structure prediction by ZEFSAII (Michael W. Deem and Ramdas Pophale) SiO2 
 PCOD8031698
Probable space group: P -1
;
_chemical_formula_sum "Si O2"
_cell_formula_units_Z 16
_cell_length_a 13.887422
_cell_length_b 9.202034
_cell_length_c 13.514352
_cell_angle_alpha 89.309018
_cell_angle_beta 36.218784
_cell_angle_gamma 65.132349
_cell_volume 733.378967
_symmetry_space_group_name_H-M "P -1"
_symmetry_group_IT_number 2
_symmetry_cell_setting 'triclinic'
loop_
_space_group_symop_operation_xyz
x,y,z
-x,-y,-z
loop_
_atom_site_type_symbol
_atom_site_label
_atom_site_fract_x
_atom_site_fract_y
_atom_site_fract_z
Si Si1 0.811305 0.038997 0.220924
Si Si2 0.969359 0.624736 0.117967
Si Si3 0.952332 0.153830 0.258009
Si Si4 0.421185 0.759932 0.881308
Si Si5 0.167491 0.797596 0.422651
Si Si6 0.675401 0.510673 0.020126
Si Si7 0.335813 0.395400 0.520730
Si Si8 0.796110 0.530126 0.709426
O O1 0.846405 0.069724 0.304606
O O2 0.565501 0.247512 0.392968
O O3 0.841655 0.848432 0.185460
O O4 0.000000 0.000000 0.000000
O O5 0.809788 0.656344 0.334446
O O6 0.210151 0.511033 0.971101
O O7 0.000000 0.500000 0.000000
O O8 0.947631 0.162514 0.378660
O O9 0.816789 0.372487 0.320749
O O10 0.222312 0.992985 0.009136
O O11 0.608816 0.626299 0.640892
O O12 0.554855 0.741655 0.866236
O O13 0.306151 0.675577 0.002740
O O14 0.195027 0.635392 0.339942
O O15 0.412023 0.721307 0.237740
O O16 0.000000 0.000000 0.500000
O O17 0.797777 0.517243 0.827084
O O18 0.000000 0.500000 0.500000
#
# Coordination Sequence:
#
# PCOD8031698 Si02
#       8
#     2   2   2   2   2   2   2   2
#     4  12  25  47  73  99 139 193 235 292 349 424
#     4  12  28  46  70 108 144 186 240 296 360 415
#     4  12  23  43  76 101 139 185 243 281 353 423
#     4  11  22  46  73 104 140 186 237 287 345 434
#     4  11  24  43  70 108 135 184 243 285 344 434
#     4  11  22  45  72  98 144 190 233 287 350 427
#     4  12  25  45  69 106 144 180 236 297 356 410
#     4  11  23  44  72 102 146 181 226 298 361 411
#
# _framework density 21.816824
#
# number of rings (size 3 to 8) (size 9 to 14) (size 15 to 20)
#    0.000    0.500    5.000    5.250    1.750    0.000 
#    2.250    1.250    0.000    0.000    0.000    0.000 
#    0.000    0.000    0.000    0.000    0.000    0.000 
#
# Total GULP energy -198395.339126 kJ/mol
# GULP energy per Si atom -12399.708695 kJ/mol
# Density = 2.176717 g / cm^3
# Si number density = 21.816824 Si / 1000 Ang^3
#
#
#
# Elastic Constant Matrix: (Units=GPa)
#
#
# Indices 1 2 3 4 5 6 
#
# 1 120.5789 38.4203 30.2405 16.2302 -20.7450 -11.7936
# 2 38.4203 128.9650 58.5410 14.4884 -15.3111 -10.3154
# 3 30.2405 58.5410 115.2112 6.8824 -24.5180 -5.4775
# 4 16.2302 14.4884 6.8824 50.9759 -8.5270 -6.4824
# 5 -20.7450 -15.3111 -24.5180 -8.5270 45.7556 6.9490
# 6 -11.7936 -10.3154 -5.4775 -6.4824 6.9490 29.2146
#
#
#
# Elastic Compliance Matrix: (Units=1/GPa)
#
#
# Indices 1 2 3 4 5 6 
#
# 1 0.010049 -0.001891 -0.000872 -0.001802 0.002792 0.002161
# 2 -0.001891 0.010831 -0.004917 -0.001650 -0.000461 0.001883
# 3 -0.000872 -0.004917 0.012356 0.000718 0.004829 -0.000761
# 4 -0.001802 -0.001650 0.000718 0.021366 0.002548 0.002959
# 5 0.002792 -0.000461 0.004829 0.002548 0.026621 -0.003897
# 6 0.002161 0.001883 -0.000761 0.002959 -0.003897 0.037208
#
#
# Mechanical properties :
#
#
# Convention : Reuss Voigt Hill
#
# Bulk Modulus (GPa) = 55.94464 68.79544 62.37004
# Shear Modulus (GPa) = 35.77869 41.02610 38.40240
#
# Velocity S-wave (km/s) = 4.05403 4.34115 4.20005
# Velocity P-wave (km/s) = 6.90016 7.53188 7.22293
#
# Compressibility (1/GPa) = 0.01787481
#
# Stress axis : x y z
#
# Youngs Moduli (GPa) = 99.51324 92.33171 80.93423
#
# Poissons Ratio (x) = 0.17459 0.07060
# Poissons Ratio (y) = 0.18817 0.39795
# Poissons Ratio (z) = 0.08680 0.45399
#
# Static dielectric constant tensor:
#      x y z
#    x 4.255040 -0.253730 -0.265520 
#    y -0.253730 4.190740 0.223800 
#    z -0.265520 0.223800 4.331160 
# 
# 
# High freq. dielectric constant tensor:
#      x y z
#    x 1.866890 -0.022210 -0.005870 
#    y -0.022210 1.851900 0.007020 
#    z -0.005870 0.007020 1.864550 
# 
# From -- ./inp_files/529739.got.cif
#   From: 2010.06.25/outbox.cif.g09.slc.cpg/sg2_265_cif.got.tgz:529739.got - 2010.06.27 13:26:56.
