data_PCOD8031007
_publ_section_title
;
Structure prediction by ZEFSAII (Michael W. Deem and Ramdas Pophale) SiO2 
 PCOD8031007
Probable space group: P -1
;
_chemical_formula_sum "Si O2"
_cell_formula_units_Z 16
_cell_length_a 20.104413
_cell_length_b 11.436972
_cell_length_c 8.685102
_cell_angle_alpha 140.046460
_cell_angle_beta 34.479590
_cell_angle_gamma 129.174075
_cell_volume 725.984925
_symmetry_space_group_name_H-M "P -1"
_symmetry_group_IT_number 2
_symmetry_cell_setting 'triclinic'
loop_
_space_group_symop_operation_xyz
x,y,z
-x,-y,-z
loop_
_atom_site_type_symbol
_atom_site_label
_atom_site_fract_x
_atom_site_fract_y
_atom_site_fract_z
Si Si1 0.406849 0.823252 0.848021
Si Si2 0.961795 0.899574 0.817405
Si Si3 0.834691 0.630144 0.371858
Si Si4 0.201500 0.825242 0.735504
Si Si5 0.950248 0.518801 0.348930
Si Si6 0.554193 0.173427 0.875875
Si Si7 0.180098 0.954067 0.243702
Si Si8 0.422042 0.480945 0.279449
O O1 0.454037 0.649515 0.494333
O O2 0.505694 0.970619 0.770742
O O3 0.399705 0.770717 0.987763
O O4 0.278379 0.885878 0.104939
O O5 0.946252 0.679828 0.649250
O O6 0.054444 0.931106 0.537139
O O7 0.841001 0.991812 0.084686
O O8 0.000000 0.000000 0.000000
O O9 0.907011 0.618887 0.378880
O O10 0.715737 0.513659 0.493983
O O11 0.797015 0.836710 0.625546
O O12 0.916105 0.553481 0.000301
O O13 0.133645 0.649940 0.617568
O O14 0.339937 0.809251 0.429501
O O15 0.179163 0.833174 0.968842
O O16 0.450391 0.300939 0.141253
O O17 0.500000 0.500000 0.000000
#
# Coordination Sequence:
#
# PCOD8031007 Si02
#       8
#     2   2   2   2   2   2   2   2
#     4  11  25  46  69  94 141 182 220 284 342 400
#     4  12  26  44  66 100 138 176 218 273 344 412
#     4  11  22  41  71  99 131 173 223 285 332 392
#     4  12  25  43  70 101 130 176 230 282 329 403
#     4  11  23  43  68  99 134 171 220 278 341 390
#     4  11  26  45  67  99 138 180 226 277 343 401
#     4  12  22  45  71  98 131 179 227 281 338 394
#     4  12  25  43  70 104 132 179 234 278 334 398
#
# _framework density 22.039026
#
# number of rings (size 3 to 8) (size 9 to 14) (size 15 to 20)
#    0.000    0.500    3.750    6.000    1.750    2.500 
#    2.250    0.000    0.000    0.000    0.000    0.000 
#    0.000    0.000    0.000    0.000    0.000    0.000 
#
# Total GULP energy -198501.805927 kJ/mol
# GULP energy per Si atom -12406.362870 kJ/mol
# Density = 2.198886 g / cm^3
# Si number density = 22.039026 Si / 1000 Ang^3
#
#
#
# Elastic Constant Matrix: (Units=GPa)
#
#
# Indices 1 2 3 4 5 6 
#
# 1 95.0673 14.0976 37.1974 2.8360 5.4241 7.8841
# 2 14.0976 97.6372 41.5941 8.2845 9.7638 14.9213
# 3 37.1974 41.5941 105.7088 9.4929 4.1210 12.4170
# 4 2.8360 8.2845 9.4929 32.2775 12.1783 2.8248
# 5 5.4241 9.7638 4.1210 12.1783 40.9779 4.4514
# 6 7.8841 14.9213 12.4170 2.8248 4.4514 35.6997
#
#
#
# Elastic Compliance Matrix: (Units=1/GPa)
#
#
# Indices 1 2 3 4 5 6 
#
# 1 0.012324 0.000330 -0.004333 0.000727 -0.001355 -0.001241
# 2 0.000330 0.013000 -0.004651 -0.000927 -0.002011 -0.003565
# 3 -0.004333 -0.004651 0.013195 -0.002662 0.001324 -0.001643
# 4 0.000727 -0.000927 -0.002662 0.035827 -0.010211 -0.000409
# 5 -0.001355 -0.002011 0.001324 -0.010211 0.028183 -0.002027
# 6 -0.001241 -0.003565 -0.001643 -0.000409 -0.002027 0.030632
#
#
# Mechanical properties :
#
#
# Convention : Reuss Voigt Hill
#
# Bulk Modulus (GPa) = 47.14509 53.79906 50.47208
# Shear Modulus (GPa) = 31.73793 35.49264 33.61529
#
# Velocity S-wave (km/s) = 3.79895 4.01739 3.90970
# Velocity P-wave (km/s) = 6.37815 6.78108 6.58270
#
# Compressibility (1/GPa) = 0.02121111
#
# Stress axis : x y z
#
# Youngs Moduli (GPa) = 81.14290 76.92154 75.78478
#
# Poissons Ratio (x) = -0.02539 0.32839
# Poissons Ratio (y) = -0.02678 0.35248
# Poissons Ratio (z) = 0.35160 0.35777
#
# Static dielectric constant tensor:
#      x y z
#    x 4.008430 0.058710 -0.024270 
#    y 0.058710 3.983210 0.287990 
#    z -0.024270 0.287990 4.156910 
# 
# 
# High freq. dielectric constant tensor:
#      x y z
#    x 1.868120 0.004380 -0.009840 
#    y 0.004380 1.874970 0.015000 
#    z -0.009840 0.015000 1.873760 
# 
# From -- ./inp_files/333428.got.cif
#   From: 2010.06.25/outbox.cif.g09.slc.cpg/sg2_167_cif.got.tgz:333428.got - 2010.06.27 13:26:56.
