data_PCOD8031433
_publ_section_title
;
Structure prediction by ZEFSAII (Michael W. Deem and Ramdas Pophale) SiO2 
 PCOD8031433
Probable space group: P -1
;
_chemical_formula_sum "Si O2"
_cell_formula_units_Z 16
_cell_length_a 13.877517
_cell_length_b 14.815869
_cell_length_c 11.726085
_cell_angle_alpha 40.039628
_cell_angle_beta 119.806815
_cell_angle_gamma 148.887325
_cell_volume 704.616065
_symmetry_space_group_name_H-M "P -1"
_symmetry_group_IT_number 2
_symmetry_cell_setting 'triclinic'
loop_
_space_group_symop_operation_xyz
x,y,z
-x,-y,-z
loop_
_atom_site_type_symbol
_atom_site_label
_atom_site_fract_x
_atom_site_fract_y
_atom_site_fract_z
Si Si1 0.557959 0.581928 0.691250
Si Si2 0.078085 0.051450 0.294209
Si Si3 0.067219 0.413964 0.627155
Si Si4 0.672186 0.475218 0.703960
Si Si5 0.681445 0.841042 0.864691
Si Si6 0.242415 0.514247 0.872163
Si Si7 0.448471 0.765472 0.360059
Si Si8 0.793407 0.361208 0.048301
O O1 0.803934 0.823945 0.635210
O O2 0.514938 0.418843 0.725536
O O3 0.533809 0.713258 0.511479
O O4 0.406849 0.390437 0.896481
O O5 0.205352 0.083139 0.256872
O O6 0.081532 0.211669 0.090011
O O7 0.839688 0.743263 0.467550
O O8 0.204656 0.530527 0.707689
O O9 0.208900 0.532084 0.486036
O O10 0.000000 0.500000 0.500000
O O11 0.849717 0.092827 0.805067
O O12 0.543068 0.238532 0.768543
O O13 0.780134 0.492190 0.844720
O O14 0.487990 0.735855 0.820702
O O15 0.190073 0.583411 0.862113
O O16 0.588306 0.046048 0.210792
O O17 0.000000 0.500000 0.000000
#
# Coordination Sequence:
#
# PCOD8031433 Si02
#       8
#     2   2   2   2   2   2   2   2
#     4  11  24  43  73 105 142 189 246 301 364 430
#     4  11  22  43  76 103 144 186 246 301 362 426
#     4  12  28  45  74 108 149 194 243 299 371 438
#     4  12  25  46  72 107 144 190 243 302 362 431
#     4  11  23  47  74 107 146 189 243 307 362 429
#     4  11  26  47  74 107 145 193 245 302 358 438
#     4  12  27  46  70 108 145 189 245 304 362 437
#     4  12  28  47  71 101 149 200 239 294 370 440
#
# _framework density 22.707402999999999
#
# number of rings (size 3 to 8) (size 9 to 14) (size 15 to 20)
#    0.000    0.500    3.750    5.625    5.250    5.000 
#    0.000    0.000    0.000    0.000    0.000    0.000 
#    0.000    0.000    0.000    0.000    0.000    0.000 
#
# Total GULP energy -198482.415455 kJ/mol
# GULP energy per Si atom -12405.150966 kJ/mol
# Density = 2.265572 g / cm^3
# Si number density = 22.707403 Si / 1000 Ang^3
#
#
#
# Elastic Constant Matrix: (Units=GPa)
#
#
# Indices 1 2 3 4 5 6 
#
# 1 109.7096 19.4991 26.5303 4.7611 8.9005 -7.2707
# 2 19.4991 93.4675 25.8795 -2.6643 -3.7000 -14.7904
# 3 26.5303 25.8795 80.0660 -6.5426 6.0802 7.9826
# 4 4.7611 -2.6643 -6.5426 38.0978 -3.1820 -1.1522
# 5 8.9005 -3.7000 6.0802 -3.1820 28.6791 -3.6402
# 6 -7.2707 -14.7904 7.9826 -1.1522 -3.6402 34.9918
#
#
#
# Elastic Compliance Matrix: (Units=1/GPa)
#
#
# Indices 1 2 3 4 5 6 
#
# 1 0.010569 -0.001113 -0.003325 -0.002129 -0.002684 0.002135
# 2 -0.001113 0.013630 -0.004998 0.000797 0.004157 0.007129
# 3 -0.003325 -0.004998 0.016362 0.002361 -0.003688 -0.006842
# 4 -0.002129 0.000797 0.002361 0.027275 0.003366 0.000604
# 5 -0.002684 0.004157 -0.003688 0.003366 0.038170 0.006122
# 6 0.002135 0.007129 -0.006842 0.000604 0.006122 0.034253
#
#
# Mechanical properties :
#
#
# Convention : Reuss Voigt Hill
#
# Bulk Modulus (GPa) = 46.10828 47.45123 46.77976
# Shear Modulus (GPa) = 30.05503 34.44268 32.24886
#
# Velocity S-wave (km/s) = 3.64205 3.89884 3.77263
# Velocity P-wave (km/s) = 6.16729 6.41951 6.29467
#
# Compressibility (1/GPa) = 0.02168808
#
# Stress axis : x y z
#
# Youngs Moduli (GPa) = 94.62052 73.36531 61.11648
#
# Poissons Ratio (x) = 0.08168 0.20322
# Poissons Ratio (y) = 0.10534 0.30547
# Poissons Ratio (z) = 0.31462 0.36669
#
# Static dielectric constant tensor:
#      x y z
#    x 4.083180 -0.297220 0.071780 
#    y -0.297220 4.351560 -0.108500 
#    z 0.071780 -0.108500 4.066430 
# 
# 
# High freq. dielectric constant tensor:
#      x y z
#    x 1.910560 -0.014020 0.001440 
#    y -0.014020 1.900450 -0.001570 
#    z 0.001440 -0.001570 1.894190 
# 
# From -- ./inp_files/187805.got.cif
#   From: 2010.06.25/outbox.cif.g09.slc.cpg/sg2_94_cif.got.tgz:187805.got - 2010.06.27 13:26:56.
