data_PCOD8031366
_publ_section_title
;
Structure prediction by ZEFSAII (Michael W. Deem and Ramdas Pophale) SiO2 
 PCOD8031366
Probable space group: P -1
;
_chemical_formula_sum "Si O2"
_cell_formula_units_Z 16
_cell_length_a 9.506683
_cell_length_b 14.074400
_cell_length_c 8.869923
_cell_angle_alpha 102.704228
_cell_angle_beta 101.415634
_cell_angle_gamma 133.288688
_cell_volume 734.113344
_symmetry_space_group_name_H-M "P -1"
_symmetry_group_IT_number 2
_symmetry_cell_setting 'triclinic'
loop_
_space_group_symop_operation_xyz
x,y,z
-x,-y,-z
loop_
_atom_site_type_symbol
_atom_site_label
_atom_site_fract_x
_atom_site_fract_y
_atom_site_fract_z
Si Si1 0.354454 0.913529 0.128885
Si Si2 0.248902 0.357203 0.942509
Si Si3 0.926907 0.667428 0.796567
Si Si4 0.851501 0.238252 0.664691
Si Si5 0.111493 0.076199 0.821105
Si Si6 0.829621 0.098221 0.319116
Si Si7 0.669572 0.872165 0.814324
Si Si8 0.792813 0.402331 0.532010
O O1 0.333811 0.885366 0.294383
O O2 0.595996 0.005190 0.156491
O O3 0.312046 0.003553 0.113713
O O4 0.162894 0.753947 0.946076
O O5 0.167543 0.210469 0.810818
O O6 0.098008 0.361623 0.832409
O O7 0.500000 0.500000 0.000000
O O8 0.217373 0.349725 0.114404
O O9 0.794135 0.504293 0.657143
O O10 0.971061 0.762525 0.698322
O O11 0.841641 0.155491 0.501007
O O12 0.797600 0.317945 0.623519
O O13 0.159608 0.012821 0.693058
O O14 0.273065 0.149193 0.024135
O O15 0.851756 0.934686 0.753141
O O16 0.428042 0.714768 0.654853
O O17 0.000000 0.500000 0.500000
#
# Coordination Sequence:
#
# PCOD8031366 Si02
#       8
#     2   2   2   2   2   2   2   2
#     4  11  22  43  71  98 142 180 232 298 350 406
#     4  11  27  48  67  97 151 189 228 291 356 423
#     4  11  23  44  68 103 136 185 240 281 354 423
#     4  11  25  44  65 103 144 176 235 297 352 408
#     4  11  24  43  72 101 134 192 238 275 350 431
#     4  12  23  39  75 105 134 182 241 290 344 418
#     4  11  22  45  70  98 141 183 231 294 341 417
#     4  12  26  41  71 108 142 180 239 297 356 407
#
# _framework density 21.794998
#
# number of rings (size 3 to 8) (size 9 to 14) (size 15 to 20)
#    0.000    0.750    6.250    1.500    3.500    4.500 
#    0.000    1.875    0.000    0.000    0.000    0.000 
#    0.000    0.000    0.000    0.000    0.000    0.000 
#
# Total GULP energy -198451.017592 kJ/mol
# GULP energy per Si atom -12403.188599 kJ/mol
# Density = 2.174539 g / cm^3
# Si number density = 21.794998 Si / 1000 Ang^3
#
#
#
# Elastic Constant Matrix: (Units=GPa)
#
#
# Indices 1 2 3 4 5 6 
#
# 1 98.8940 33.9566 17.9013 13.7338 -2.4076 -2.8119
# 2 33.9566 93.5645 36.6286 8.3654 -4.6606 9.3736
# 3 17.9013 36.6286 75.3570 21.0075 2.3544 1.6704
# 4 13.7338 8.3654 21.0075 32.8735 2.2476 -0.4992
# 5 -2.4076 -4.6606 2.3544 2.2476 43.3063 11.8200
# 6 -2.8119 9.3736 1.6704 -0.4992 11.8200 35.4725
#
#
#
# Elastic Compliance Matrix: (Units=1/GPa)
#
#
# Indices 1 2 3 4 5 6 
#
# 1 0.012197 -0.004420 0.000370 -0.004163 -0.000180 0.002119
# 2 -0.004420 0.015542 -0.007080 0.002127 0.003101 -0.005127
# 3 0.000370 -0.007080 0.019649 -0.010778 -0.001623 0.001364
# 4 -0.004163 0.002127 -0.010778 0.038626 -0.001611 0.000696
# 5 -0.000180 0.003101 -0.001623 -0.001611 0.026181 -0.009504
# 6 0.002119 -0.005127 0.001364 0.000696 -0.009504 0.032826
#
#
# Mechanical properties :
#
#
# Convention : Reuss Voigt Hill
#
# Bulk Modulus (GPa) = 39.79882 49.42095 44.60988
# Shear Modulus (GPa) = 28.46469 34.28571 31.37520
#
# Velocity S-wave (km/s) = 3.61781 3.97054 3.79827
# Velocity P-wave (km/s) = 5.97926 6.61398 6.30462
#
# Compressibility (1/GPa) = 0.02512637
#
# Stress axis : x y z
#
# Youngs Moduli (GPa) = 81.99018 64.34204 50.89391
#
# Poissons Ratio (x) = 0.28442 -0.01885
# Poissons Ratio (y) = 0.36244 0.36035
# Poissons Ratio (z) = -0.03037 0.45557
#
# Static dielectric constant tensor:
#      x y z
#    x 4.038180 -0.016060 0.005300 
#    y -0.016060 4.030690 0.027750 
#    z 0.005300 0.027750 3.968300 
# 
# 
# High freq. dielectric constant tensor:
#      x y z
#    x 1.862690 0.003390 -0.001910 
#    y 0.003390 1.852370 -0.001210 
#    z -0.001910 -0.001210 1.857870 
# 
# From -- ./inp_files/208414.got.cif
#   From: 2010.06.25/outbox.cif.g09.slc.cpg/sg2_105_cif.got.tgz:208414.got - 2010.06.27 13:26:56.
