data_PCOD8031765
_publ_section_title
;
Structure prediction by ZEFSAII (Michael W. Deem and Ramdas Pophale) SiO2 
 PCOD8031765
Probable space group: P -1
;
_chemical_formula_sum "Si O2"
_cell_formula_units_Z 14
_cell_length_a 19.912145
_cell_length_b 17.199947
_cell_length_c 9.291342
_cell_angle_alpha 144.705139
_cell_angle_beta 144.060515
_cell_angle_gamma 20.101414
_cell_volume 616.788401
_symmetry_space_group_name_H-M "P -1"
_symmetry_group_IT_number 2
_symmetry_cell_setting 'triclinic'
loop_
_space_group_symop_operation_xyz
x,y,z
-x,-y,-z
loop_
_atom_site_type_symbol
_atom_site_label
_atom_site_fract_x
_atom_site_fract_y
_atom_site_fract_z
Si Si1 0.489331 0.372085 0.133822
Si Si2 0.260163 0.477749 0.134685
Si Si3 0.508225 0.357696 0.629001
Si Si4 0.664174 0.604721 0.360588
Si Si5 0.049271 0.093964 0.302867
Si Si6 0.858644 0.909454 0.238319
Si Si7 0.551664 0.982425 0.900226
O O1 0.317048 0.540059 0.212482
O O2 0.472636 0.520212 0.233616
O O3 0.705481 0.150287 0.247225
O O4 0.444479 0.292216 0.826520
O O5 0.379868 0.381368 0.344814
O O6 0.025105 0.699531 0.094993
O O7 0.354794 0.246174 0.888257
O O8 0.403354 0.461164 0.759798
O O9 0.725988 0.082108 0.615165
O O10 0.602485 0.800514 0.625651
O O11 0.903462 0.351718 0.377493
O O12 0.038467 0.101809 0.472360
O O13 0.000000 0.000000 0.000000
O O14 0.746245 0.890804 0.084893
O O15 0.500000 0.000000 0.000000
#
# Coordination Sequence:
#
# PCOD8031765 Si02
#       7
#     2   2   2   2   2   2   2
#     4  11  26  43  68 101 142 178 227 284 344 406
#     4  11  24  44  69 100 136 183 227 277 343 408
#     4  12  23  45  68  98 141 181 224 284 340 405
#     4  12  26  43  71 103 135 181 230 286 338 400
#     4  12  24  41  68 103 133 173 231 276 337 409
#     4  11  25  45  71 101 138 187 221 280 351 401
#     4  11  22  46  71 100 138 178 235 280 335 407
#
# _framework density 22.698222000000001
#
# number of rings (size 3 to 8) (size 9 to 14) (size 15 to 20)
#    0.000    0.571    7.143    0.857    0.000    8.571 
#    0.000    1.429    0.000    0.000    0.000    0.000 
#    0.000    0.000    0.000    0.000    0.000    0.000 
#
# Total GULP energy -173520.749328 kJ/mol
# GULP energy per Si atom -12394.339238 kJ/mol
# Density = 2.264656 g / cm^3
# Si number density = 22.698222 Si / 1000 Ang^3
#
#
#
# Elastic Constant Matrix: (Units=GPa)
#
#
# Indices 1 2 3 4 5 6 
#
# 1 109.6648 51.5012 13.9547 -0.5275 0.1085 -16.6041
# 2 51.5012 127.9345 55.4012 13.0144 -4.0120 -16.0071
# 3 13.9547 55.4012 106.0971 2.1847 -22.5440 1.6340
# 4 -0.5275 13.0144 2.1847 31.9548 5.6392 -6.4995
# 5 0.1085 -4.0120 -22.5440 5.6392 28.3981 -4.0327
# 6 -16.6041 -16.0071 1.6340 -6.4995 -4.0327 36.7598
#
#
#
# Elastic Compliance Matrix: (Units=1/GPa)
#
#
# Indices 1 2 3 4 5 6 
#
# 1 0.011944 -0.005058 0.000935 0.002953 -0.000084 0.003664
# 2 -0.005058 0.013531 -0.006842 -0.004131 -0.002263 0.002933
# 3 0.000935 -0.006842 0.015247 -0.000609 0.010951 -0.002141
# 4 0.002953 -0.004131 -0.000609 0.035391 -0.007395 0.005009
# 5 -0.000084 -0.002263 0.010951 -0.007395 0.045362 0.002159
# 6 0.003664 0.002933 -0.002141 0.005009 0.002159 0.031354
#
#
# Mechanical properties :
#
#
# Convention : Reuss Voigt Hill
#
# Bulk Modulus (GPa) = 53.20862 65.04564 59.12713
# Shear Modulus (GPa) = 27.62087 34.27847 30.94967
#
# Velocity S-wave (km/s) = 3.49216 3.89032 3.69660
# Velocity P-wave (km/s) = 6.30499 6.99274 6.65775
#
# Compressibility (1/GPa) = 0.01879395
#
# Stress axis : x y z
#
# Youngs Moduli (GPa) = 83.72437 73.90200 65.58555
#
# Poissons Ratio (x) = 0.37377 -0.06131
# Poissons Ratio (y) = 0.42344 0.44871
# Poissons Ratio (z) = -0.07827 0.50561
#
# Static dielectric constant tensor:
#      x y z
#    x 4.158420 -0.130060 -0.232010 
#    y -0.130060 4.295100 0.068450 
#    z -0.232010 0.068450 4.317810 
# 
# 
# High freq. dielectric constant tensor:
#      x y z
#    x 1.889790 -0.007000 -0.014860 
#    y -0.007000 1.901770 0.007430 
#    z -0.014860 0.007430 1.894400 
# 
# From -- ./inp_files/348724.got.cif
#   From: 2010.06.25/outbox.cif.g09.slc.cpg/sg2_175_cif.got.tgz:348724.got - 2010.06.27 13:26:56.
