data_PCOD8031623
_publ_section_title
;
Structure prediction by ZEFSAII (Michael W. Deem and Ramdas Pophale) SiO2 
 PCOD8031623
Probable space group: P -1
;
_chemical_formula_sum "Si O2"
_cell_formula_units_Z 12
_cell_length_a 18.073415
_cell_length_b 11.129524
_cell_length_c 7.883203
_cell_angle_alpha 40.762203
_cell_angle_beta 145.103165
_cell_angle_gamma 146.574280
_cell_volume 486.169236
_symmetry_space_group_name_H-M "P -1"
_symmetry_group_IT_number 2
_symmetry_cell_setting 'triclinic'
loop_
_space_group_symop_operation_xyz
x,y,z
-x,-y,-z
loop_
_atom_site_type_symbol
_atom_site_label
_atom_site_fract_x
_atom_site_fract_y
_atom_site_fract_z
Si Si1 0.120589 0.620063 0.396681
Si Si2 0.674971 0.211722 0.092791
Si Si3 0.836256 0.665588 0.814470
Si Si4 0.215587 0.848613 0.996004
Si Si5 0.325359 0.296626 0.845723
Si Si6 0.960257 0.833192 0.343607
O O1 0.229894 0.796133 0.560479
O O2 0.074512 0.369990 0.627932
O O3 0.204879 0.688229 0.297486
O O4 0.964141 0.609358 0.093328
O O5 0.741051 0.202915 0.045684
O O6 0.696350 0.453026 0.888914
O O7 0.500000 0.000000 0.000000
O O8 0.752042 0.636866 0.510356
O O9 0.918902 0.916538 0.781030
O O10 0.049311 0.824178 0.688091
O O11 0.345004 0.103296 0.024682
O O12 0.204823 0.203551 0.878954
O O13 0.500000 0.500000 0.000000
#
# Coordination Sequence:
#
# PCOD8031623 Si02
#       6
#     2   2   2   2   2   2
#     4  12  24  48  81 105 145 198 251 301 366 446
#     4  12  30  46  70 117 150 191 251 306 378 432
#     4  11  23  48  73 107 151 191 251 306 350 456
#     4  11  23  48  75 102 151 194 247 303 358 447
#     4  11  24  42  75 118 146 194 246 303 382 434
#     4  11  22  44  78 112 138 198 256 290 365 448
#
# _framework density 24.682763000000001
#
# number of rings (size 3 to 8) (size 9 to 14) (size 15 to 20)
#    0.000    0.667    5.000    3.000    4.667    1.333 
#    3.000    3.333    0.000    0.000    0.000    0.000 
#    0.000    0.000    0.000    0.000    0.000    0.000 
#
# Total GULP energy -148675.774617 kJ/mol
# GULP energy per Si atom -12389.647885 kJ/mol
# Density = 2.462658 g / cm^3
# Si number density = 24.682763 Si / 1000 Ang^3
#
#
#
# Elastic Constant Matrix: (Units=GPa)
#
#
# Indices 1 2 3 4 5 6 
#
# 1 94.4236 60.1556 41.2669 8.4299 -17.0077 2.5043
# 2 60.1556 242.8598 84.1058 14.2262 -3.5947 11.4613
# 3 41.2669 84.1058 78.8636 5.5704 4.2522 1.5005
# 4 8.4299 14.2262 5.5704 48.2948 0.3297 -1.5175
# 5 -17.0077 -3.5947 4.2522 0.3297 21.9493 1.7653
# 6 2.5043 11.4613 1.5005 -1.5175 1.7653 42.1736
#
#
#
# Elastic Compliance Matrix: (Units=1/GPa)
#
#
# Indices 1 2 3 4 5 6 
#
# 1 0.018336 -0.000894 -0.009338 -0.002009 0.016002 -0.001256
# 2 -0.000894 0.006897 -0.006878 -0.001149 0.001923 -0.001698
# 3 -0.009338 -0.006878 0.025527 0.000870 -0.013491 0.002111
# 4 -0.002009 -0.001149 0.000870 0.021351 -0.002336 0.001267
# 5 0.016002 0.001923 -0.013491 -0.002336 0.061215 -0.003639
# 6 -0.001256 -0.001698 0.002111 0.001267 -0.003639 0.024370
#
#
# Mechanical properties :
#
#
# Convention : Reuss Voigt Hill
#
# Bulk Modulus (GPa) = 60.45885 87.46707 73.96296
# Shear Modulus (GPa) = 25.32541 37.85811 31.59176
#
# Velocity S-wave (km/s) = 3.20666 3.92061 3.58147
# Velocity P-wave (km/s) = 6.18528 7.48387 6.86535
#
# Compressibility (1/GPa) = 0.01654018
#
# Stress axis : x y z
#
# Youngs Moduli (GPa) = 54.53632 144.99532 39.17393
#
# Poissons Ratio (x) = 0.12963 0.36582
# Poissons Ratio (y) = 0.04876 0.26942
# Poissons Ratio (z) = 0.50928 0.99722
#
# Static dielectric constant tensor:
#      x y z
#    x 4.267300 0.228670 -0.181370 
#    y 0.228670 5.522100 -0.216890 
#    z -0.181370 -0.216890 4.490670 
# 
# 
# High freq. dielectric constant tensor:
#      x y z
#    x 1.949170 -0.008090 -0.022210 
#    y -0.008090 2.015770 -0.003070 
#    z -0.022210 -0.003070 1.973930 
# 
# From -- ./inp_files/268486.got.cif
#   From: 2010.06.25/outbox.cif.g09.slc.cpg/sg2_135_cif.got.tgz:268486.got - 2010.06.27 13:26:56.
