data_PCOD8031680
_publ_section_title
;
Structure prediction by ZEFSAII (Michael W. Deem and Ramdas Pophale) SiO2 
 PCOD8031680
Probable space group: P -1
;
_chemical_formula_sum "Si O2"
_cell_formula_units_Z 12
_cell_length_a 9.225572
_cell_length_b 18.713520
_cell_length_c 15.408903
_cell_angle_alpha 159.542286
_cell_angle_beta 142.036591
_cell_angle_gamma 49.553961
_cell_volume 519.514261
_symmetry_space_group_name_H-M "P -1"
_symmetry_group_IT_number 2
_symmetry_cell_setting 'triclinic'
loop_
_space_group_symop_operation_xyz
x,y,z
-x,-y,-z
loop_
_atom_site_type_symbol
_atom_site_label
_atom_site_fract_x
_atom_site_fract_y
_atom_site_fract_z
Si Si1 0.471268 0.827411 0.364529
Si Si2 0.808400 0.402810 0.378860
Si Si3 0.268248 0.977762 0.604031
Si Si4 0.359037 0.287156 0.251097
Si Si5 0.873521 0.658792 0.390845
Si Si6 0.778781 0.170047 0.405263
O O1 0.745400 0.838235 0.542585
O O2 0.500000 0.000000 0.500000
O O3 0.303110 0.859037 0.398789
O O4 0.336448 0.593163 0.983107
O O5 0.816595 0.638779 0.685628
O O6 0.000000 0.500000 0.500000
O O7 0.911309 0.284063 0.366767
O O8 0.519589 0.218744 0.008309
O O9 0.221788 0.797133 0.454292
O O10 0.000000 0.000000 0.500000
O O11 0.500000 0.500000 0.500000
O O12 0.526255 0.196513 0.285328
O O13 0.207883 0.073649 0.875745
O O14 0.984980 0.661332 0.349151
#
# Coordination Sequence:
#
# PCOD8031680 Si02
#       6
#     2   2   2   2   2   2
#     4  11  27  50  72 105 153 194 234 307 372 437
#     4  12  27  45  77 111 144 194 249 300 361 440
#     4  12  28  47  73 110 148 191 246 305 365 430
#     4  11  22  45  71 104 146 184 240 301 361 427
#     4  11  26  47  75 106 144 197 244 292 378 432
#     4  11  24  43  73 105 138 193 242 297 362 430
#
# _framework density 23.098500999999999
#
# number of rings (size 3 to 8) (size 9 to 14) (size 15 to 20)
#    0.000    0.667    3.333    3.000   11.667    2.667 
#    0.000    0.000    0.000    0.000    0.000    0.000 
#    0.000    0.000    0.000    0.000    0.000    0.000 
#
# Total GULP energy -148691.621979 kJ/mol
# GULP energy per Si atom -12390.968498 kJ/mol
# Density = 2.304593 g / cm^3
# Si number density = 23.098501 Si / 1000 Ang^3
#
#
#
# Elastic Constant Matrix: (Units=GPa)
#
#
# Indices 1 2 3 4 5 6 
#
# 1 186.8721 80.6399 15.5416 6.2205 1.2968 8.4562
# 2 80.6399 160.5715 52.7199 9.7123 -0.3664 -2.4968
# 3 15.5416 52.7199 71.4765 5.9468 8.4936 1.3519
# 4 6.2205 9.7123 5.9468 38.8178 -3.5286 5.4561
# 5 1.2968 -0.3664 8.4936 -3.5286 39.2055 9.3364
# 6 8.4562 -2.4968 1.3519 5.4561 9.3364 52.2102
#
#
#
# Elastic Compliance Matrix: (Units=1/GPa)
#
#
# Indices 1 2 3 4 5 6 
#
# 1 0.007037 -0.004046 0.001532 -0.000196 -0.000311 -0.001297
# 2 -0.004046 0.010671 -0.007099 -0.000976 0.001397 0.001202
# 3 0.001532 -0.007099 0.019586 -0.001866 -0.004506 -0.000094
# 4 -0.000196 -0.000976 -0.001866 0.027143 0.003668 -0.003459
# 5 -0.000311 0.001397 -0.004506 0.003668 0.028067 -0.005168
# 6 -0.001297 0.001202 -0.000094 -0.003459 -0.005168 0.020709
#
#
# Mechanical properties :
#
#
# Convention : Reuss Voigt Hill
#
# Bulk Modulus (GPa) = 55.34440 79.63587 67.49014
# Shear Modulus (GPa) = 36.11096 44.04793 40.07945
#
# Velocity S-wave (km/s) = 3.95821 4.37161 4.17004
# Velocity P-wave (km/s) = 6.70090 7.74809 7.24344
#
# Compressibility (1/GPa) = 0.01806867
#
# Stress axis : x y z
#
# Youngs Moduli (GPa) = 142.10142 93.70833 51.05700
#
# Poissons Ratio (x) = 0.37916 -0.07822
# Poissons Ratio (y) = 0.57497 0.36245
# Poissons Ratio (z) = -0.21771 0.66522
#
# Static dielectric constant tensor:
#      x y z
#    x 4.731000 -0.096090 -0.305020 
#    y -0.096090 4.455560 0.120000 
#    z -0.305020 0.120000 4.388690 
# 
# 
# High freq. dielectric constant tensor:
#      x y z
#    x 1.929860 0.000440 0.007110 
#    y 0.000440 1.930490 0.011350 
#    z 0.007110 0.011350 1.898120 
# 
# From -- ./inp_files/22466.got.cif
#   From: 2010.06.25/outbox.cif.g09.slc.cpg/sg2_12_cif.got.tgz:22466.got - 2010.06.27 13:26:56.
