data_PCOD8031700
_publ_section_title
;
Structure prediction by ZEFSAII (Michael W. Deem and Ramdas Pophale) SiO2 
 PCOD8031700
Probable space group: P -1
;
_chemical_formula_sum "Si O2"
_cell_formula_units_Z 16
_cell_length_a 20.263826
_cell_length_b 8.875240
_cell_length_c 26.109730
_cell_angle_alpha 150.360888
_cell_angle_beta 19.549055
_cell_angle_gamma 140.601039
_cell_volume 745.993845
_symmetry_space_group_name_H-M "P -1"
_symmetry_group_IT_number 2
_symmetry_cell_setting 'triclinic'
loop_
_space_group_symop_operation_xyz
x,y,z
-x,-y,-z
loop_
_atom_site_type_symbol
_atom_site_label
_atom_site_fract_x
_atom_site_fract_y
_atom_site_fract_z
Si Si1 0.676379 0.596239 0.089969
Si Si2 0.345786 0.894343 0.116023
Si Si3 0.605718 0.756620 0.981849
Si Si4 0.668550 0.296891 0.277297
Si Si5 0.028536 0.279308 0.525044
Si Si6 0.625747 0.358825 0.208485
Si Si7 0.311959 0.691374 0.459676
Si Si8 0.992631 0.367396 0.878267
O O1 0.455628 0.626540 0.285313
O O2 0.715292 0.932917 0.151540
O O3 0.681845 0.435759 0.982513
O O4 0.851388 0.373132 0.932833
O O5 0.117315 0.130094 0.360861
O O6 0.454220 0.924029 0.098512
O O7 0.500000 0.000000 0.000000
O O8 0.829009 0.562398 0.741371
O O9 0.500000 0.500000 0.000000
O O10 0.622452 0.013936 0.087802
O O11 0.500000 0.500000 0.500000
O O12 0.584011 0.364957 0.301365
O O13 0.889141 0.366845 0.138332
O O14 0.184171 0.440078 0.486376
O O15 0.000000 0.000000 0.500000
O O16 0.450686 0.648903 0.396971
O O17 0.844226 0.422601 0.053082
O O18 0.165410 0.041259 0.663879
#
# Coordination Sequence:
#
# PCOD8031700 Si02
#       8
#     2   2   2   2   2   2   2   2
#     4  11  25  46  71 101 147 179 226 288 346 406
#     4  12  24  42  68 104 139 179 222 278 342 404
#     4  12  23  43  68  99 141 180 229 276 332 415
#     4  12  26  48  70 104 137 177 232 294 349 400
#     4  12  24  41  67 102 139 181 231 272 335 411
#     4  11  24  45  73  98 137 184 227 286 342 409
#     4  11  22  45  73 101 138 181 236 277 339 419
#     4  11  24  48  71  99 135 187 233 283 342 410
#
# _framework density 21.447899
#
# number of rings (size 3 to 8) (size 9 to 14) (size 15 to 20)
#    0.000    0.500    6.250    2.250    0.000    2.000 
#    9.000    0.000    0.000    0.000    0.000    0.000 
#    0.000    0.000    0.000    0.000    0.000    0.000 
#
# Total GULP energy -198266.685612 kJ/mol
# GULP energy per Si atom -12391.667851 kJ/mol
# Density = 2.139908 g / cm^3
# Si number density = 21.447899 Si / 1000 Ang^3
#
#
#
# Elastic Constant Matrix: (Units=GPa)
#
#
# Indices 1 2 3 4 5 6 
#
# 1 101.2066 24.1921 58.4547 -4.0582 13.4242 1.1869
# 2 24.1921 136.8025 43.6816 -12.7089 6.3187 9.6862
# 3 58.4547 43.6816 155.6186 0.2017 -1.9220 1.8322
# 4 -4.0582 -12.7089 0.2017 37.3096 -3.9470 0.3119
# 5 13.4242 6.3187 -1.9220 -3.9470 37.1590 -1.2129
# 6 1.1869 9.6862 1.8322 0.3119 -1.2129 31.5933
#
#
#
# Elastic Compliance Matrix: (Units=1/GPa)
#
#
# Indices 1 2 3 4 5 6 
#
# 1 0.013605 -0.000470 -0.005038 0.000818 -0.005018 -0.000276
# 2 -0.000470 0.008599 -0.002225 0.002785 -0.001195 -0.002563
# 3 -0.005038 -0.002225 0.008971 -0.001087 0.002562 0.000460
# 4 0.000818 0.002785 -0.001087 0.028079 0.002124 -0.001017
# 5 -0.005018 -0.001195 0.002562 0.002124 0.029335 0.001512
# 6 -0.000276 -0.002563 0.000460 -0.001017 0.001512 0.032490
#
#
# Mechanical properties :
#
#
# Convention : Reuss Voigt Hill
#
# Bulk Modulus (GPa) = 63.66412 71.80939 67.73675
# Shear Modulus (GPa) = 35.26568 39.03234 37.14901
#
# Velocity S-wave (km/s) = 4.05933 4.27062 4.16632
# Velocity P-wave (km/s) = 7.19156 7.60731 7.40235
#
# Compressibility (1/GPa) = 0.01570744
#
# Stress axis : x y z
#
# Youngs Moduli (GPa) = 73.50449 116.29429 111.47344
#
# Poissons Ratio (x) = 0.05464 0.56162
# Poissons Ratio (y) = 0.03453 0.24807
# Poissons Ratio (z) = 0.37033 0.25880
#
# Static dielectric constant tensor:
#      x y z
#    x 3.966060 0.282610 0.277920 
#    y 0.282610 4.296230 0.056960 
#    z 0.277920 0.056960 4.290740 
# 
# 
# High freq. dielectric constant tensor:
#      x y z
#    x 1.829540 0.002270 -0.005010 
#    y 0.002270 1.865070 -0.005230 
#    z -0.005010 -0.005230 1.855160 
# 
# From -- ./inp_files/592102.got.cif
#   From: 2010.06.25/outbox.cif.g09.slc.cpg/sg2_297_cif.got.tgz:592102.got - 2010.06.27 13:26:56.
