data_PCOD8031882
_publ_section_title
;
Structure prediction by ZEFSAII (Michael W. Deem and Ramdas Pophale) SiO2 
 PCOD8031882
Probable space group: P -1
;
_chemical_formula_sum "Si O2"
_cell_formula_units_Z 16
_cell_length_a 21.539189
_cell_length_b 6.961583
_cell_length_c 9.601135
_cell_angle_alpha 132.413185
_cell_angle_beta 62.685000
_cell_angle_gamma 87.682036
_cell_volume 798.774790
_symmetry_space_group_name_H-M "P -1"
_symmetry_group_IT_number 2
_symmetry_cell_setting 'triclinic'
loop_
_space_group_symop_operation_xyz
x,y,z
-x,-y,-z
loop_
_atom_site_type_symbol
_atom_site_label
_atom_site_fract_x
_atom_site_fract_y
_atom_site_fract_z
Si Si1 0.407507 0.192872 0.132743
Si Si2 0.397076 0.681238 0.554441
Si Si3 0.101969 0.277703 0.144275
Si Si4 0.343239 0.343807 0.974394
Si Si5 0.843467 0.275747 0.651901
Si Si6 0.087017 0.272730 0.475998
Si Si7 0.585465 0.388702 0.179310
Si Si8 0.091994 0.830518 0.763484
O O1 0.358685 0.517856 0.424042
O O2 0.403348 0.259165 0.003977
O O3 0.500000 0.000000 0.000000
O O4 0.371198 0.973360 0.084717
O O5 0.487419 0.568630 0.345792
O O6 0.398019 0.578425 0.660939
O O7 0.342746 0.048247 0.774495
O O8 0.155087 0.432959 0.148344
O O9 0.102660 0.175437 0.251392
O O10 0.010928 0.521642 0.298461
O O11 0.140579 0.963176 0.859728
O O12 0.249882 0.605162 0.239168
O O13 0.375668 0.461643 0.877078
O O14 0.904986 0.117441 0.379942
O O15 0.871964 0.031114 0.624755
O O16 0.129701 0.465636 0.567042
O O17 0.000000 0.000000 0.000000
#
# Coordination Sequence:
#
# PCOD8031882 Si02
#       8
#     2   2   2   2   2   2   2   2
#     4   9  20  38  60  84 110 147 193 236 275 327
#     4   9  19  37  59  81 109 148 190 229 274 333
#     4   9  19  37  59  81 109 148 190 229 274 333
#     4  11  23  36  54  85 120 148 181 231 286 336
#     4  11  23  36  54  85 120 148 181 231 286 336
#     4   9  19  36  59  85 111 144 188 234 277 328
#     4   9  19  36  59  85 111 144 188 234 277 328
#     4   9  20  38  60  84 110 147 193 236 275 327
#
# _framework density 20.030677000000001
#
# number of rings (size 3 to 8) (size 9 to 14) (size 15 to 20)
#    0.000    2.500    0.000    2.250    0.000   11.000 
#    0.000    0.000    0.000    0.000    0.000    0.000 
#    0.000    0.000    0.000    0.000    0.000    0.000 
#
# Total GULP energy -198293.872504 kJ/mol
# GULP energy per Si atom -12393.367031 kJ/mol
# Density = 1.998509 g / cm^3
# Si number density = 20.030677 Si / 1000 Ang^3
#
#
#
# Elastic Constant Matrix: (Units=GPa)
#
#
# Indices 1 2 3 4 5 6 
#
# 1 73.0515 48.4092 47.0906 2.4129 15.7333 -0.8985
# 2 48.4092 133.6490 47.8045 1.8662 0.9599 -2.4742
# 3 47.0906 47.8045 95.2362 5.2619 27.7180 0.3863
# 4 2.4129 1.8662 5.2619 7.3062 4.7873 5.3221
# 5 15.7333 0.9599 27.7180 4.7873 40.7082 6.2629
# 6 -0.8985 -2.4742 0.3863 5.3221 6.2629 5.2779
#
#
#
# Elastic Compliance Matrix: (Units=1/GPa)
#
#
# Indices 1 2 3 4 5 6 
#
# 1 0.023806 -0.005665 -0.005803 -0.019319 -0.007488 0.030188
# 2 -0.005665 0.010958 -0.004064 -0.000907 0.004864 -0.000387
# 3 -0.005803 -0.004064 0.023433 -0.054194 -0.018279 0.071729
# 4 -0.019319 -0.000907 -0.054194 0.756898 0.089008 -0.868596
# 5 -0.007488 0.004864 -0.018279 0.089008 0.052322 -0.149496
# 6 0.030188 -0.000387 0.071729 -0.868596 -0.149496 1.242435
#
#
# Mechanical properties :
#
#
# Convention : Reuss Voigt Hill
#
# Bulk Modulus (GPa) = 36.85471 65.39394 51.12432
# Shear Modulus (GPa) = 2.32563 21.23396 11.77979
#
# Velocity S-wave (km/s) = 1.07868 3.25941 2.42768
# Velocity P-wave (km/s) = 4.47107 6.84710 5.78244
#
# Compressibility (1/GPa) = 0.02713358
#
# Stress axis : x y z
#
# Youngs Moduli (GPa) = 42.00652 91.25676 42.67532
#
# Poissons Ratio (x) = 0.51693 0.24766
# Poissons Ratio (y) = 0.23795 0.17341
# Poissons Ratio (z) = 0.24378 0.37083
#
# Static dielectric constant tensor:
#      x y z
#    x 3.704400 0.177920 0.421490 
#    y 0.177920 3.559440 0.238540 
#    z 0.421490 0.238540 3.923090 
# 
# 
# High freq. dielectric constant tensor:
#      x y z
#    x 1.765630 0.007470 0.023650 
#    y 0.007470 1.780250 0.009770 
#    z 0.023650 0.009770 1.777960 
# 
# From -- ./inp_files/51118.got.cif
#   From: 2010.06.25/outbox.cif.g09.slc.cpg/sg2_26_cif.got.tgz:51118.got - 2010.06.27 13:26:56.
