data_PCOD8031173
_publ_section_title
;
Structure prediction by ZEFSAII (Michael W. Deem and Ramdas Pophale) SiO2 
 PCOD8031173
Probable space group: P -1
;
_chemical_formula_sum "Si O2"
_cell_formula_units_Z 16
_cell_length_a 12.582440
_cell_length_b 14.975260
_cell_length_c 17.822095
_cell_angle_alpha 25.536435
_cell_angle_beta 135.610698
_cell_angle_gamma 150.140530
_cell_volume 683.695971
_symmetry_space_group_name_H-M "P -1"
_symmetry_group_IT_number 2
_symmetry_cell_setting 'triclinic'
loop_
_space_group_symop_operation_xyz
x,y,z
-x,-y,-z
loop_
_atom_site_type_symbol
_atom_site_label
_atom_site_fract_x
_atom_site_fract_y
_atom_site_fract_z
Si Si1 0.921349 0.004571 0.535843
Si Si2 0.590881 0.014106 0.302370
Si Si3 0.346955 0.512776 0.454041
Si Si4 0.066372 0.385764 0.063725
Si Si5 0.376571 0.303975 0.159594
Si Si6 0.871104 0.942175 0.187770
Si Si7 0.256936 0.750353 0.462793
Si Si8 0.228108 0.263336 0.868064
O O1 0.715389 0.953177 0.457254
O O2 0.856224 0.742919 0.753924
O O3 0.000000 0.000000 0.500000
O O4 0.126571 0.338175 0.425503
O O5 0.498914 0.861852 0.287555
O O6 0.400992 0.915309 0.334640
O O7 0.754634 0.364259 0.097524
O O8 0.500000 0.500000 0.500000
O O9 0.278455 0.386440 0.601238
O O10 0.850527 0.113018 0.107471
O O11 0.000000 0.500000 0.000000
O O12 0.539564 0.567644 0.104631
O O13 0.133739 0.156029 0.158615
O O14 0.337300 0.014938 0.358354
O O15 0.500000 0.500000 0.000000
O O16 0.789324 0.889195 0.101569
O O17 0.276840 0.554031 0.662952
O O18 0.000000 0.500000 0.500000
O O19 0.000000 0.000000 0.000000
#
# Coordination Sequence:
#
# PCOD8031173 Si02
#       8
#     2   2   2   2   2   2   2   2
#     4  11  23  45  73 101 144 193 244 301 383 439
#     4  12  24  46  73 106 145 190 248 307 376 441
#     4  11  22  42  71 100 142 189 238 309 366 436
#     4  11  24  45  76 108 146 195 248 312 371 454
#     4  12  24  47  73 104 148 194 242 312 371 447
#     4  11  24  45  70 102 150 189 246 301 380 438
#     4  12  25  48  72 106 148 194 252 307 372 455
#     4  12  25  45  72 105 143 195 245 309 376 440
#
# _framework density 23.402213
#
# number of rings (size 3 to 8) (size 9 to 14) (size 15 to 20)
#    0.000    0.500    6.250    1.875    3.500    0.000 
#    2.250    5.625    0.000    0.000    0.000    0.000 
#    0.000    0.000    0.000    0.000    0.000    0.000 
#
# Total GULP energy -198218.745003 kJ/mol
# GULP energy per Si atom -12388.671563 kJ/mol
# Density = 2.334895 g / cm^3
# Si number density = 23.402213 Si / 1000 Ang^3
#
#
#
# Elastic Constant Matrix: (Units=GPa)
#
#
# Indices 1 2 3 4 5 6 
#
# 1 99.9472 49.2207 13.4998 -4.1873 -7.0808 -22.4735
# 2 49.2207 159.0834 22.1244 -8.3161 0.6698 -24.2473
# 3 13.4998 22.1244 113.3283 2.7938 -7.8547 -6.3657
# 4 -4.1873 -8.3161 2.7938 31.3441 -5.2416 -1.1443
# 5 -7.0808 0.6698 -7.8547 -5.2416 47.3038 -9.4773
# 6 -22.4735 -24.2473 -6.3657 -1.1443 -9.4773 54.9492
#
#
#
# Elastic Compliance Matrix: (Units=1/GPa)
#
#
# Indices 1 2 3 4 5 6 
#
# 1 0.012895 -0.003187 -0.000505 0.001572 0.002937 0.004348
# 2 -0.003187 0.007828 -0.001090 0.001795 -0.000162 0.002034
# 3 -0.000505 -0.001090 0.009258 -0.000908 0.001502 0.000625
# 4 0.001572 0.001795 -0.000908 0.033496 0.004326 0.002774
# 5 0.002937 -0.000162 0.001502 0.004326 0.023398 0.005429
# 6 0.004348 0.002034 0.000625 0.002774 0.005429 0.021941
#
#
# Mechanical properties :
#
#
# Convention : Reuss Voigt Hill
#
# Bulk Modulus (GPa) = 48.97633 60.22764 54.60198
# Shear Modulus (GPa) = 39.94066 45.88701 42.91383
#
# Velocity S-wave (km/s) = 4.13571 4.43289 4.28688
# Velocity P-wave (km/s) = 6.61657 7.21058 6.91995
#
# Compressibility (1/GPa) = 0.02041803
#
# Stress axis : x y z
#
# Youngs Moduli (GPa) = 77.55236 127.74387 108.00973
#
# Poissons Ratio (x) = 0.40710 0.05453
# Poissons Ratio (y) = 0.24715 0.11772
# Poissons Ratio (z) = 0.03915 0.13923
#
# Static dielectric constant tensor:
#      x y z
#    x 4.325840 -0.281280 0.014140 
#    y -0.281280 4.411360 -0.293400 
#    z 0.014140 -0.293400 4.556280 
# 
# 
# High freq. dielectric constant tensor:
#      x y z
#    x 1.938630 -0.019720 -0.012090 
#    y -0.019720 1.928440 -0.026740 
#    z -0.012090 -0.026740 1.934000 
# 
# From -- ./inp_files/569943.got.cif
#   From: 2010.06.25/outbox.cif.g09.slc.cpg/sg2_285_cif.got.tgz:569943.got - 2010.06.27 13:26:56.
