data_PCOD8031241
_publ_section_title
;
Structure prediction by ZEFSAII (Michael W. Deem and Ramdas Pophale) SiO2 
 PCOD8031241
Probable space group: P -1
;
_chemical_formula_sum "Si O2"
_cell_formula_units_Z 16
_cell_length_a 9.877560
_cell_length_b 26.510582
_cell_length_c 9.784567
_cell_angle_alpha 154.372330
_cell_angle_beta 133.216344
_cell_angle_gamma 42.082975
_cell_volume 741.646883
_symmetry_space_group_name_H-M "P -1"
_symmetry_group_IT_number 2
_symmetry_cell_setting 'triclinic'
loop_
_space_group_symop_operation_xyz
x,y,z
-x,-y,-z
loop_
_atom_site_type_symbol
_atom_site_label
_atom_site_fract_x
_atom_site_fract_y
_atom_site_fract_z
Si Si1 0.689454 0.011869 0.312512
Si Si2 0.989908 0.003375 0.724104
Si Si3 0.689177 0.737913 0.340763
Si Si4 0.784297 0.249845 0.604829
Si Si5 0.363899 0.234458 0.324727
Si Si6 0.089131 0.743064 0.586088
Si Si7 0.729169 0.478729 0.614936
Si Si8 0.034234 0.612561 0.724307
O O1 0.817084 0.998953 0.231951
O O2 0.536261 0.157188 0.581040
O O3 0.839572 0.969066 0.439713
O O4 0.571818 0.917885 0.988759
O O5 0.067805 0.897845 0.638394
O O6 0.862657 0.140975 0.037680
O O7 0.724562 0.699490 0.430685
O O8 0.846409 0.795028 0.534350
O O9 0.735227 0.612924 0.979762
O O10 0.551840 0.268871 0.500891
O O11 0.809566 0.299487 0.594773
O O12 0.839842 0.331085 0.955592
O O13 0.189219 0.284692 0.213200
O O14 0.165130 0.622109 0.440840
O O15 0.500000 0.500000 0.500000
O O16 0.836176 0.432016 0.431236
O O17 0.000000 0.500000 0.500000
#
# Coordination Sequence:
#
# PCOD8031241 Si02
#       8
#     2   2   2   2   2   2   2   2
#     4  11  22  42  75 106 136 188 235 291 349 421
#     4  11  22  43  72 105 145 178 236 294 353 413
#     4  12  23  43  72 100 137 186 240 287 345 424
#     4  12  27  46  72 108 145 183 233 297 355 415
#     4  12  24  46  76 104 138 191 239 284 355 420
#     4  12  26  45  69 104 145 181 231 296 352 414
#     4  12  27  46  70 103 140 187 240 288 351 420
#     4  12  28  50  73 104 145 187 237 291 350 424
#
# _framework density 21.573608
#
# number of rings (size 3 to 8) (size 9 to 14) (size 15 to 20)
#    0.000    0.250    5.000    4.125    5.250    0.500 
#    2.250    1.250    0.000    0.000    0.000    0.000 
#    0.000    0.000    0.000    0.000    0.000    0.000 
#
# Total GULP energy -198480.813759 kJ/mol
# GULP energy per Si atom -12405.050860 kJ/mol
# Density = 2.152451 g / cm^3
# Si number density = 21.573608 Si / 1000 Ang^3
#
#
#
# Elastic Constant Matrix: (Units=GPa)
#
#
# Indices 1 2 3 4 5 6 
#
# 1 145.7290 59.8298 60.0634 -17.9177 -0.6856 13.5410
# 2 59.8298 95.8506 44.5528 2.1582 -0.4360 3.6484
# 3 60.0634 44.5528 129.9172 -2.6650 -8.0507 -1.2138
# 4 -17.9177 2.1582 -2.6650 34.3571 -5.3525 2.7883
# 5 -0.6856 -0.4360 -8.0507 -5.3525 36.0988 -4.8582
# 6 13.5410 3.6484 -1.2138 2.7883 -4.8582 36.0546
#
#
#
# Elastic Compliance Matrix: (Units=1/GPa)
#
#
# Indices 1 2 3 4 5 6 
#
# 1 0.011897 -0.005810 -0.003429 0.006635 -0.000236 -0.004541
# 2 -0.005810 0.015405 -0.002749 -0.004441 -0.001098 0.000726
# 3 -0.003429 -0.002749 0.010385 -0.000617 0.002435 0.002291
# 4 0.006635 -0.004441 -0.000617 0.033814 0.004399 -0.004086
# 5 -0.000236 -0.001098 0.002435 0.004399 0.029405 0.003904
# 6 -0.004541 0.000726 0.002291 -0.004086 0.003904 0.030287
#
#
# Mechanical properties :
#
#
# Convention : Reuss Voigt Hill
#
# Bulk Modulus (GPa) = 72.93487 77.82099 75.37793
# Shear Modulus (GPa) = 31.30114 35.10549 33.20332
#
# Velocity S-wave (km/s) = 3.81320 4.03829 3.92736
# Velocity P-wave (km/s) = 7.29850 7.60883 7.45528
#
# Compressibility (1/GPa) = 0.01371086
#
# Stress axis : x y z
#
# Youngs Moduli (GPa) = 84.05280 64.91525 96.29480
#
# Poissons Ratio (x) = 0.37717 0.33018
# Poissons Ratio (y) = 0.48836 0.26471
# Poissons Ratio (z) = 0.28820 0.17845
#
# Static dielectric constant tensor:
#      x y z
#    x 3.303720 0.075550 0.401810 
#    y 0.075550 3.982570 -0.112490 
#    z 0.401810 -0.112490 3.739060 
# 
# 
# High freq. dielectric constant tensor:
#      x y z
#    x 1.844490 -0.004210 0.006060 
#    y -0.004210 1.855430 -0.004360 
#    z 0.006060 -0.004360 1.863010 
# 
# From -- ./inp_files/226839.got.cif
#   From: 2010.06.25/outbox.cif.g09.slc.cpg/sg2_114_cif.got.tgz:226839.got - 2010.06.27 13:26:56.
