data_PCOD8031742
_publ_section_title
;
Structure prediction by ZEFSAII (Michael W. Deem and Ramdas Pophale) SiO2 
 PCOD8031742
Probable space group: P -1
;
_chemical_formula_sum "Si O2"
_cell_formula_units_Z 14
_cell_length_a 16.083769
_cell_length_b 9.318370
_cell_length_c 21.088796
_cell_angle_alpha 31.586551
_cell_angle_beta 153.980227
_cell_angle_gamma 133.549026
_cell_volume 684.774167
_symmetry_space_group_name_H-M "P -1"
_symmetry_group_IT_number 2
_symmetry_cell_setting 'triclinic'
loop_
_space_group_symop_operation_xyz
x,y,z
-x,-y,-z
loop_
_atom_site_type_symbol
_atom_site_label
_atom_site_fract_x
_atom_site_fract_y
_atom_site_fract_z
Si Si1 0.546019 0.246664 0.976962
Si Si2 0.300609 0.497075 0.831474
Si Si3 0.995799 0.104943 0.355085
Si Si4 0.150072 0.203721 0.292656
Si Si5 0.084196 0.144024 0.129296
Si Si6 0.893994 0.703101 0.115971
Si Si7 0.588733 0.822572 0.749222
O O1 0.767243 0.120858 0.207766
O O2 0.363822 0.344831 0.864898
O O3 0.538783 0.522768 0.825002
O O4 0.500000 0.000000 0.000000
O O5 0.200317 0.309535 0.875152
O O6 0.147232 0.821577 0.597105
O O7 0.500000 0.500000 0.000000
O O8 0.024980 0.111709 0.296664
O O9 0.032566 0.384818 0.306663
O O10 0.108313 0.065644 0.249874
O O11 0.384574 0.091330 0.512659
O O12 0.090268 0.549624 0.115793
O O13 0.294626 0.159659 0.241781
O O14 0.031592 0.902784 0.142836
O O15 0.717375 0.838189 0.893454
#
# Coordination Sequence:
#
# PCOD8031742 Si02
#       7
#     2   2   2   2   2   2   2
#     4  11  25  40  67  96 127 171 218 265 322 390
#     4  12  23  45  64  95 135 169 214 269 328 384
#     4  11  23  44  66  93 136 172 211 274 328 379
#     4  11  23  42  69  89 133 175 209 270 330 371
#     4  11  25  43  65  97 130 168 224 266 317 389
#     4  11  24  42  68  98 131 172 218 266 321 392
#     4  11  22  46  63  93 135 168 214 268 324 385
#
# _framework density 20.444697000000001
#
# number of rings (size 3 to 8) (size 9 to 14) (size 15 to 20)
#    0.000    0.857    7.143    1.286    2.000    2.286 
#    2.571    0.000    0.000    0.000    0.000    0.000 
#    0.000    0.000    0.000    0.000    0.000    0.000 
#
# Total GULP energy -173640.736206 kJ/mol
# GULP energy per Si atom -12402.909729 kJ/mol
# Density = 2.039816 g / cm^3
# Si number density = 20.444697 Si / 1000 Ang^3
#
#
#
# Elastic Constant Matrix: (Units=GPa)
#
#
# Indices 1 2 3 4 5 6 
#
# 1 106.4252 26.5991 20.1721 -2.2105 10.4667 10.6020
# 2 26.5991 103.1391 20.1969 -15.5112 5.7277 -8.4608
# 3 20.1721 20.1969 126.5496 7.2649 16.1638 -1.6914
# 4 -2.2105 -15.5112 7.2649 16.9689 -3.5004 3.9695
# 5 10.4667 5.7277 16.1638 -3.5004 34.0380 -1.9129
# 6 10.6020 -8.4608 -1.6914 3.9695 -1.9129 24.5790
#
#
#
# Elastic Compliance Matrix: (Units=1/GPa)
#
#
# Indices 1 2 3 4 5 6 
#
# 1 0.011246 -0.003053 -0.001029 -0.000016 -0.002805 -0.006189
# 2 -0.003053 0.012972 -0.002383 0.011863 0.001321 0.003806
# 3 -0.001029 -0.002383 0.009470 -0.007561 -0.004493 0.001147
# 4 -0.000016 0.011863 -0.007561 0.076775 0.009038 -0.008125
# 5 -0.002805 0.001321 -0.004493 0.009038 0.033222 0.002482
# 6 -0.006189 0.003806 0.001147 -0.008125 0.002482 0.046249
#
#
# Mechanical properties :
#
#
# Convention : Reuss Voigt Hill
#
# Bulk Modulus (GPa) = 48.17171 52.22777 50.19974
# Shear Modulus (GPa) = 23.83412 33.06023 28.44718
#
# Velocity S-wave (km/s) = 3.41806 4.02563 3.73422
# Velocity P-wave (km/s) = 6.26024 6.87087 6.57265
#
# Compressibility (1/GPa) = 0.02075907
#
# Stress axis : x y z
#
# Youngs Moduli (GPa) = 88.91687 77.08623 105.60208
#
# Poissons Ratio (x) = 0.23537 0.10865
# Poissons Ratio (y) = 0.27149 0.25160
# Poissons Ratio (z) = 0.09148 0.18366
#
# Static dielectric constant tensor:
#      x y z
#    x 2.855750 -0.135750 -0.253230 
#    y -0.135750 3.416160 -0.051190 
#    z -0.253230 -0.051190 3.772550 
# 
# 
# High freq. dielectric constant tensor:
#      x y z
#    x 1.819940 -0.001760 0.004560 
#    y -0.001760 1.776320 -0.002100 
#    z 0.004560 -0.002100 1.807870 
# 
# From -- ./inp_files/178565.got.cif
#   From: 2010.06.25/outbox.cif.g09.slc.cpg/sg2_90_cif.got.tgz:178565.got - 2010.06.27 13:26:56.
