data_PCOD8031245
_publ_section_title
;
Structure prediction by ZEFSAII (Michael W. Deem and Ramdas Pophale) SiO2 
 PCOD8031245
Probable space group: P -1
;
_chemical_formula_sum "Si O2"
_cell_formula_units_Z 14
_cell_length_a 18.708136
_cell_length_b 5.161777
_cell_length_c 9.122457
_cell_angle_alpha 79.690292
_cell_angle_beta 136.852833
_cell_angle_gamma 98.049227
_cell_volume 592.660830
_symmetry_space_group_name_H-M "P -1"
_symmetry_group_IT_number 2
_symmetry_cell_setting 'triclinic'
loop_
_space_group_symop_operation_xyz
x,y,z
-x,-y,-z
loop_
_atom_site_type_symbol
_atom_site_label
_atom_site_fract_x
_atom_site_fract_y
_atom_site_fract_z
Si Si1 0.233659 0.386071 0.146015
Si Si2 0.155408 0.986689 0.619233
Si Si3 0.331835 0.581951 0.997785
Si Si4 0.700388 0.598721 0.336585
Si Si5 0.530717 0.889952 0.214348
Si Si6 0.052439 0.274678 0.692217
Si Si7 0.292596 0.838123 0.408749
O O1 0.312177 0.384182 0.123778
O O2 0.264878 0.654426 0.248454
O O3 0.241637 0.122816 0.281432
O O4 0.112977 0.393325 0.911607
O O5 0.209874 0.179773 0.563560
O O6 0.137382 0.128148 0.733978
O O7 0.043841 0.915242 0.385090
O O8 0.225442 0.735917 0.787666
O O9 0.430231 0.772746 0.160141
O O10 0.358362 0.418763 0.906602
O O11 0.618652 0.671416 0.335128
O O12 0.748871 0.317716 0.490436
O O13 0.582931 0.108684 0.378762
O O14 0.500000 0.000000 0.000000
O O15 0.000000 0.500000 0.500000
#
# Coordination Sequence:
#
# PCOD8031245 Si02
#       7
#     2   2   2   2   2   2   2
#     4  12  27  49  72 110 159 189 241 318 384 428
#     4  11  22  42  76 112 141 183 265 304 357 434
#     4  12  25  43  79 110 143 202 251 307 359 450
#     4  12  23  47  74 108 150 198 251 302 363 447
#     4  12  25  45  77 109 147 201 260 296 361 448
#     4  11  23  44  76 113 139 195 251 311 364 450
#     4  12  28  49  70 109 162 194 236 315 385 437
#
# _framework density 23.62228
#
# number of rings (size 3 to 8) (size 9 to 14) (size 15 to 20)
#    0.000    0.286    7.143    1.286    2.000    1.143 
#    0.000    1.429    0.000    0.000    0.000    0.000 
#    0.000    0.000    0.000    0.000    0.000    0.000 
#
# Total GULP energy -173543.278821 kJ/mol
# GULP energy per Si atom -12395.948487 kJ/mol
# Density = 2.356852 g / cm^3
# Si number density = 23.622280 Si / 1000 Ang^3
#
#
#
# Elastic Constant Matrix: (Units=GPa)
#
#
# Indices 1 2 3 4 5 6 
#
# 1 41.6467 3.5645 9.2868 3.9924 12.8503 1.0405
# 2 3.5645 104.8166 43.6100 10.1664 -1.1451 6.8969
# 3 9.2868 43.6100 148.7920 31.8013 -0.7878 1.5454
# 4 3.9924 10.1664 31.8013 53.5654 1.1293 -12.2805
# 5 12.8503 -1.1451 -0.7878 1.1293 31.1645 3.3283
# 6 1.0405 6.8969 1.5454 -12.2805 3.3283 35.3059
#
#
#
# Elastic Compliance Matrix: (Units=1/GPa)
#
#
# Indices 1 2 3 4 5 6 
#
# 1 0.028039 -0.000372 -0.001523 -0.000845 -0.011595 0.000112
# 2 -0.000372 0.011051 -0.003006 -0.000848 0.000769 -0.002384
# 3 -0.001523 -0.003006 0.008766 -0.004900 0.001083 -0.001558
# 4 -0.000845 -0.000848 -0.004900 0.023867 -0.001618 0.008859
# 5 -0.011595 0.000769 0.001083 -0.001618 0.037404 -0.003945
# 6 0.000112 -0.002384 -0.001558 0.008859 -0.003945 0.032308
#
#
# Mechanical properties :
#
#
# Convention : Reuss Voigt Hill
#
# Bulk Modulus (GPa) = 26.27797 45.35308 35.81552
# Shear Modulus (GPa) = 30.50233 39.92677 35.21455
#
# Velocity S-wave (km/s) = 3.59730 4.11568 3.86519
# Velocity P-wave (km/s) = 5.32940 6.46731 5.92573
#
# Compressibility (1/GPa) = 0.03805469
#
# Stress axis : x y z
#
# Youngs Moduli (GPa) = 35.66483 90.48803 114.07560
#
# Poissons Ratio (x) = 0.03366 0.17374
# Poissons Ratio (y) = 0.01327 0.34288
# Poissons Ratio (z) = 0.05432 0.27199
#
# Static dielectric constant tensor:
#      x y z
#    x 4.602210 -0.024330 -0.042160 
#    y -0.024330 4.851460 0.547820 
#    z -0.042160 0.547820 4.824540 
# 
# 
# High freq. dielectric constant tensor:
#      x y z
#    x 1.908370 0.013800 -0.000700 
#    y 0.013800 1.956800 0.017450 
#    z -0.000700 0.017450 1.936470 
# 
# From -- ./inp_files/88014.got.cif
#   From: 2010.06.25/outbox.cif.g09.slc.cpg/sg2_45_cif.got.tgz:88014.got - 2010.06.27 13:26:56.
