data_PCOD8031000
_publ_section_title
;
Structure prediction by ZEFSAII (Michael W. Deem and Ramdas Pophale) SiO2 
 PCOD8031000
Probable space group: P -1
;
_chemical_formula_sum "Si O2"
_cell_formula_units_Z 16
_cell_length_a 16.061015
_cell_length_b 9.654010
_cell_length_c 23.462320
_cell_angle_alpha 45.296456
_cell_angle_beta 17.943607
_cell_angle_gamma 45.210803
_cell_volume 786.188088
_symmetry_space_group_name_H-M "P -1"
_symmetry_group_IT_number 2
_symmetry_cell_setting 'triclinic'
loop_
_space_group_symop_operation_xyz
x,y,z
-x,-y,-z
loop_
_atom_site_type_symbol
_atom_site_label
_atom_site_fract_x
_atom_site_fract_y
_atom_site_fract_z
Si Si1 0.813461 0.208782 0.560841
Si Si2 0.264760 0.058498 0.977213
Si Si3 0.229984 0.441464 0.584817
Si Si4 0.131737 0.399760 0.388205
Si Si5 0.338029 0.910495 0.849313
Si Si6 0.263636 0.655176 0.134717
Si Si7 0.149957 0.594002 0.823917
Si Si8 0.863098 0.695576 0.189159
O O1 0.854387 0.323119 0.441696
O O2 0.892156 0.339476 0.523435
O O3 0.000000 0.000000 0.500000
O O4 0.498891 0.191909 0.779093
O O5 0.360425 0.867850 0.009704
O O6 0.196549 0.984817 0.979858
O O7 0.007442 0.181964 0.141753
O O8 0.534707 0.384257 0.376569
O O9 0.229327 0.396931 0.665341
O O10 0.019636 0.325071 0.722396
O O11 0.355932 0.205178 0.308596
O O12 0.246453 0.581014 0.231488
O O13 0.000000 0.500000 0.500000
O O14 0.346579 0.103922 0.748336
O O15 0.163241 0.756891 0.979756
O O16 0.500000 0.500000 0.000000
O O17 0.128102 0.471348 0.816086
O O18 0.000000 0.500000 0.000000
#
# Coordination Sequence:
#
# PCOD8031000 Si02
#       8
#     2   2   2   2   2   2   2   2
#     4  11  22  41  71  92 128 177 219 268 330 396
#     4  12  22  43  65  99 129 176 220 267 336 390
#     4  11  23  43  69  96 130 175 222 271 330 388
#     4  11  25  42  67  99 131 169 220 275 328 388
#     4  11  22  42  70  91 137 175 221 263 341 395
#     4  11  22  45  71  95 128 178 224 269 324 402
#     4  12  25  40  65  98 140 169 218 277 333 386
#     4  11  24  42  67  98 131 177 217 277 324 396
#
# _framework density 20.351364
#
# number of rings (size 3 to 8) (size 9 to 14) (size 15 to 20)
#    0.000    0.750    6.250    1.125    1.750    1.500 
#    2.250    0.625    0.000    0.000    0.000    0.000 
#    0.000    0.000    0.000    0.000    0.000    0.000 
#
# Total GULP energy -198347.714235 kJ/mol
# GULP energy per Si atom -12396.732140 kJ/mol
# Density = 2.030504 g / cm^3
# Si number density = 20.351364 Si / 1000 Ang^3
#
#
#
# Elastic Constant Matrix: (Units=GPa)
#
#
# Indices 1 2 3 4 5 6 
#
# 1 108.0896 52.0590 50.4172 0.9507 18.3924 -11.8609
# 2 52.0590 131.0850 42.2484 -2.9765 20.3055 -19.1099
# 3 50.4172 42.2484 101.1537 1.3297 12.3407 -6.0493
# 4 0.9507 -2.9765 1.3297 37.4641 -5.1315 5.8271
# 5 18.3924 20.3055 12.3407 -5.1315 45.4860 -8.0192
# 6 -11.8609 -19.1099 -6.0493 5.8271 -8.0192 37.0412
#
#
#
# Elastic Compliance Matrix: (Units=1/GPa)
#
#
# Indices 1 2 3 4 5 6 
#
# 1 0.013813 -0.003238 -0.005111 -0.001018 -0.002601 0.001515
# 2 -0.003238 0.010502 -0.002306 0.000161 -0.002114 0.003522
# 3 -0.005111 -0.002306 0.013451 -0.000522 -0.000737 -0.000707
# 4 -0.001018 0.000161 -0.000522 0.027779 0.002898 -0.004071
# 5 -0.002601 -0.002114 -0.000737 0.002898 0.025021 0.002917
# 6 0.001515 0.003522 -0.000707 -0.004071 0.002917 0.030455
#
#
# Mechanical properties :
#
#
# Convention : Reuss Voigt Hill
#
# Bulk Modulus (GPa) = 60.76717 69.97530 65.37123
# Shear Modulus (GPa) = 33.82544 37.03852 35.43198
#
# Velocity S-wave (km/s) = 4.08128 4.27072 4.17707
# Velocity P-wave (km/s) = 7.22031 7.66661 7.44681
#
# Compressibility (1/GPa) = 0.01645625
#
# Stress axis : x y z
#
# Youngs Moduli (GPa) = 72.39728 95.21668 74.34351
#
# Poissons Ratio (x) = 0.30828 0.37997
# Poissons Ratio (y) = 0.23440 0.17146
# Poissons Ratio (z) = 0.37002 0.21960
#
# Static dielectric constant tensor:
#      x y z
#    x 3.916170 -0.264410 -0.290280 
#    y -0.264410 3.944360 0.005270 
#    z -0.290280 0.005270 4.117730 
# 
# 
# High freq. dielectric constant tensor:
#      x y z
#    x 1.792640 -0.017910 -0.007250 
#    y -0.017910 1.804180 -0.013430 
#    z -0.007250 -0.013430 1.797460 
# 
# From -- ./inp_files/218796.got.cif
#   From: 2010.06.25/outbox.cif.g09.slc.cpg/sg2_110_cif.got.tgz:218796.got - 2010.06.27 13:26:56.
