data_PCOD8031188
_publ_section_title
;
Structure prediction by ZEFSAII (Michael W. Deem and Ramdas Pophale) SiO2 
 PCOD8031188
Probable space group: P -1
;
_chemical_formula_sum "Si O2"
_cell_formula_units_Z 16
_cell_length_a 12.226530
_cell_length_b 9.477896
_cell_length_c 14.542179
_cell_angle_alpha 66.872409
_cell_angle_beta 39.706092
_cell_angle_gamma 46.069450
_cell_volume 738.036001
_symmetry_space_group_name_H-M "P -1"
_symmetry_group_IT_number 2
_symmetry_cell_setting 'triclinic'
loop_
_space_group_symop_operation_xyz
x,y,z
-x,-y,-z
loop_
_atom_site_type_symbol
_atom_site_label
_atom_site_fract_x
_atom_site_fract_y
_atom_site_fract_z
Si Si1 0.298397 0.515328 0.593120
Si Si2 0.198934 0.759732 0.415271
Si Si3 0.000472 0.977850 0.113808
Si Si4 0.707323 0.472521 0.911494
Si Si5 0.379360 0.937611 0.542641
Si Si6 0.982057 0.345159 0.594862
Si Si7 0.164902 0.135097 0.104680
Si Si8 0.500265 0.199421 0.885616
O O1 0.500000 0.500000 0.500000
O O2 0.220446 0.623902 0.516688
O O3 0.405804 0.281601 0.583612
O O4 0.083354 0.644863 0.768624
O O5 0.433592 0.717110 0.257410
O O6 0.160105 0.686850 0.366949
O O7 0.000000 0.000000 0.500000
O O8 0.754809 0.099726 0.292179
O O9 0.140525 0.027060 0.064988
O O10 0.121160 0.744094 0.096373
O O11 0.000000 0.000000 0.000000
O O12 0.838915 0.475910 0.743282
O O13 0.500000 0.500000 0.000000
O O14 0.647010 0.640358 0.978597
O O15 0.500000 0.000000 0.500000
O O16 0.216777 0.112407 0.525794
O O17 0.000000 0.500000 0.500000
O O18 0.263241 0.001248 0.169171
O O19 0.346950 0.156933 0.949397
#
# Coordination Sequence:
#
# PCOD8031188 Si02
#       8
#     2   2   2   2   2   2   2   2
#     4  12  25  45  70  96 145 186 224 290 360 409
#     4  12  24  43  69 102 136 184 239 281 344 421
#     4  11  25  46  66  99 139 185 228 279 350 424
#     4  11  22  42  71  94 137 176 227 287 343 397
#     4  11  25  46  67 101 139 182 229 294 353 410
#     4  11  25  44  70 102 136 177 242 291 341 420
#     4  11  24  46  69 101 142 183 234 289 351 409
#     4  11  24  44  72 104 137 181 240 295 341 412
#
# _framework density 21.679158999999999
#
# number of rings (size 3 to 8) (size 9 to 14) (size 15 to 20)
#    0.000    0.750    5.000    2.250    7.000    1.000 
#    4.500    1.250    0.000    0.000    0.000    0.000 
#    0.000    0.000    0.000    0.000    0.000    0.000 
#
# Total GULP energy -198329.759630 kJ/mol
# GULP energy per Si atom -12395.609977 kJ/mol
# Density = 2.162982 g / cm^3
# Si number density = 21.679159 Si / 1000 Ang^3
#
#
#
# Elastic Constant Matrix: (Units=GPa)
#
#
# Indices 1 2 3 4 5 6 
#
# 1 110.3627 23.8443 35.1852 -10.8574 -14.2333 16.0710
# 2 23.8443 115.3432 57.6727 4.7084 4.0528 11.0977
# 3 35.1852 57.6727 102.2615 -7.1318 -2.6985 -2.7504
# 4 -10.8574 4.7084 -7.1318 46.9181 2.1627 -1.1671
# 5 -14.2333 4.0528 -2.6985 2.1627 34.9911 -7.2944
# 6 16.0710 11.0977 -2.7504 -1.1671 -7.2944 40.3117
#
#
#
# Elastic Compliance Matrix: (Units=1/GPa)
#
#
# Indices 1 2 3 4 5 6 
#
# 1 0.011529 -0.000372 -0.003643 0.001890 0.003489 -0.004056
# 2 -0.000372 0.013287 -0.007752 -0.002571 -0.003104 -0.004675
# 3 -0.003643 -0.007752 0.015745 0.002383 0.001527 0.005006
# 4 0.001890 -0.002571 0.002383 0.022389 0.000027 0.000770
# 5 0.003489 -0.003104 0.001527 0.000027 0.031575 0.005282
# 6 -0.004056 -0.004675 0.005006 0.000770 0.005282 0.029030
#
#
# Mechanical properties :
#
#
# Convention : Reuss Voigt Hill
#
# Bulk Modulus (GPa) = 58.72581 62.37465 60.55023
# Shear Modulus (GPa) = 32.73011 38.52852 35.62932
#
# Velocity S-wave (km/s) = 3.88977 4.22028 4.05839
# Velocity P-wave (km/s) = 6.87903 7.25133 7.06763
#
# Compressibility (1/GPa) = 0.01702829
#
# Stress axis : x y z
#
# Youngs Moduli (GPa) = 86.73584 75.26369 63.51068
#
# Poissons Ratio (x) = 0.02796 0.23134
# Poissons Ratio (y) = 0.03222 0.49236
# Poissons Ratio (z) = 0.31594 0.58347
#
# Static dielectric constant tensor:
#      x y z
#    x 4.028890 0.130590 -0.009420 
#    y 0.130590 3.914210 0.440910 
#    z -0.009420 0.440910 3.981450 
# 
# 
# High freq. dielectric constant tensor:
#      x y z
#    x 1.854100 0.009920 -0.007800 
#    y 0.009920 1.864150 0.006500 
#    z -0.007800 0.006500 1.854950 
# 
# From -- ./inp_files/244587.got.cif
#   From: 2010.06.25/outbox.cif.g09.slc.cpg/sg2_123_cif.got.tgz:244587.got - 2010.06.27 13:26:56.
