data_PCOD8031448
_publ_section_title
;
Structure prediction by ZEFSAII (Michael W. Deem and Ramdas Pophale) SiO2 
 PCOD8031448
Probable space group: P -1
;
_chemical_formula_sum "Si O2"
_cell_formula_units_Z 16
_cell_length_a 9.488134
_cell_length_b 15.397666
_cell_length_c 14.982153
_cell_angle_alpha 31.606411
_cell_angle_beta 94.455029
_cell_angle_gamma 117.044313
_cell_volume 764.685908
_symmetry_space_group_name_H-M "P -1"
_symmetry_group_IT_number 2
_symmetry_cell_setting 'triclinic'
loop_
_space_group_symop_operation_xyz
x,y,z
-x,-y,-z
loop_
_atom_site_type_symbol
_atom_site_label
_atom_site_fract_x
_atom_site_fract_y
_atom_site_fract_z
Si Si1 0.683752 0.600093 0.986675
Si Si2 0.496693 0.118064 0.481897
Si Si3 0.044604 0.682288 0.910320
Si Si4 0.102445 0.322139 0.756114
Si Si5 0.090858 0.579052 0.679796
Si Si6 0.329856 0.464902 0.471990
Si Si7 0.923807 0.085861 0.685298
Si Si8 0.286023 0.142569 0.953092
O O1 0.877472 0.678487 0.877719
O O2 0.796767 0.848898 0.824854
O O3 0.500000 0.500000 0.000000
O O4 0.574571 0.372108 0.245197
O O5 0.659903 0.177754 0.505637
O O6 0.500000 0.000000 0.500000
O O7 0.277922 0.950807 0.668400
O O8 0.000000 0.500000 0.000000
O O9 0.022276 0.602554 0.081203
O O10 0.062246 0.443119 0.710407
O O11 0.213721 0.474321 0.534190
O O12 0.247200 0.307122 0.823637
O O13 0.869673 0.046045 0.969067
O O14 0.002415 0.685879 0.564089
O O15 0.500000 0.500000 0.500000
O O16 0.142630 0.204082 0.636427
O O17 0.472798 0.690915 0.209958
O O18 0.762690 0.994711 0.837024
#
# Coordination Sequence:
#
# PCOD8031448 Si02
#       8
#     2   2   2   2   2   2   2   2
#     4  11  25  43  69  99 135 171 222 281 331 395
#     4  11  22  44  66  90 126 172 218 276 337 390
#     4  11  24  44  70  92 127 179 225 271 339 402
#     4   9  19  37  61  89 120 170 213 268 328 385
#     4  11  24  40  64  93 137 172 223 276 333 401
#     4   9  20  38  64  90 130 169 218 271 326 393
#     4  11  24  40  60 100 133 174 218 273 333 394
#     4   9  18  37  63  87 128 163 218 270 321 389
#
# _framework density 20.923622999999999
#
# number of rings (size 3 to 8) (size 9 to 14) (size 15 to 20)
#    0.000    1.750    2.500    3.000    0.000    7.500 
#    0.000    1.250    0.000    0.000    0.000    0.000 
#    0.000    0.000    0.000    0.000    0.000    0.000 
#
# Total GULP energy -198237.152311 kJ/mol
# GULP energy per Si atom -12389.822019 kJ/mol
# Density = 2.087600 g / cm^3
# Si number density = 20.923623 Si / 1000 Ang^3
#
#
#
# Elastic Constant Matrix: (Units=GPa)
#
#
# Indices 1 2 3 4 5 6 
#
# 1 100.1028 61.0929 60.1931 -5.6457 -12.9432 1.4906
# 2 61.0929 134.4996 45.4485 -18.7617 -3.8241 -3.7392
# 3 60.1931 45.4485 115.9467 -4.3403 -26.5524 -6.9438
# 4 -5.6457 -18.7617 -4.3403 33.7770 -4.8040 -0.8758
# 5 -12.9432 -3.8241 -26.5524 -4.8040 50.4076 -3.1999
# 6 1.4906 -3.7392 -6.9438 -0.8758 -3.1999 36.2221
#
#
#
# Elastic Compliance Matrix: (Units=1/GPa)
#
#
# Indices 1 2 3 4 5 6 
#
# 1 0.017917 -0.005977 -0.007154 -0.001304 0.000080 -0.002750
# 2 -0.005977 0.011281 -0.001234 0.005030 -0.000771 0.001227
# 3 -0.007154 -0.001234 0.014435 0.000915 0.005982 0.003485
# 4 -0.001304 0.005030 0.000915 0.032886 0.003782 0.001878
# 5 0.000080 -0.000771 0.005982 0.003782 0.023517 0.003233
# 6 -0.002750 0.001227 0.003485 0.001878 0.003233 0.028846
#
#
# Mechanical properties :
#
#
# Convention : Reuss Voigt Hill
#
# Bulk Modulus (GPa) = 67.09922 76.00201 71.55062
# Shear Modulus (GPa) = 30.75432 36.33566 33.54499
#
# Velocity S-wave (km/s) = 3.83801 4.17176 4.00836
# Velocity P-wave (km/s) = 7.19574 7.72057 7.46277
#
# Compressibility (1/GPa) = 0.01490330
#
# Stress axis : x y z
#
# Youngs Moduli (GPa) = 55.81295 88.64718 69.27689
#
# Poissons Ratio (x) = 0.52986 0.49560
# Poissons Ratio (y) = 0.33360 0.08546
# Poissons Ratio (z) = 0.39928 0.10936
#
# Static dielectric constant tensor:
#      x y z
#    x 3.949730 0.219920 0.352470 
#    y 0.219920 3.842430 0.356230 
#    z 0.352470 0.356230 6.731580 
# 
# 
# High freq. dielectric constant tensor:
#      x y z
#    x 1.803090 0.006510 -0.019100 
#    y 0.006510 1.823330 -0.002050 
#    z -0.019100 -0.002050 1.823410 
# 
# From -- ./inp_files/357797.got.cif
#   From: 2010.06.25/outbox.cif.g09.slc.cpg/sg2_179_cif.got.tgz:357797.got - 2010.06.27 13:26:56.
