data_PCOD8031127
_publ_section_title
;
Structure prediction by ZEFSAII (Michael W. Deem and Ramdas Pophale) SiO2 
 PCOD8031127
Probable space group: P -1
;
_chemical_formula_sum "Si O2"
_cell_formula_units_Z 14
_cell_length_a 21.789429
_cell_length_b 22.657267
_cell_length_c 9.704766
_cell_angle_alpha 26.642688
_cell_angle_beta 152.999191
_cell_angle_gamma 161.150707
_cell_volume 659.615019
_symmetry_space_group_name_H-M "P -1"
_symmetry_group_IT_number 2
_symmetry_cell_setting 'triclinic'
loop_
_space_group_symop_operation_xyz
x,y,z
-x,-y,-z
loop_
_atom_site_type_symbol
_atom_site_label
_atom_site_fract_x
_atom_site_fract_y
_atom_site_fract_z
Si Si1 0.671087 0.576851 0.850988
Si Si2 0.863067 0.018704 0.745120
Si Si3 0.557915 0.398435 0.281978
Si Si4 0.061450 0.421149 0.197032
Si Si5 0.138372 0.599212 0.704060
Si Si6 0.533753 0.733796 0.140249
Si Si7 0.885228 0.120434 0.886499
O O1 0.587280 0.666781 0.508044
O O2 0.525124 0.390534 0.851701
O O3 0.679946 0.505985 0.160365
O O4 0.895432 0.740047 0.898538
O O5 0.880196 0.038469 0.903197
O O6 0.925747 0.198927 0.423217
O O7 0.633379 0.831057 0.638605
O O8 0.000000 0.000000 0.000000
O O9 0.704653 0.438125 0.602603
O O10 0.500000 0.500000 0.000000
O O11 0.033508 0.431302 0.958196
O O12 0.000000 0.500000 0.000000
O O13 0.161432 0.759822 0.480635
O O14 0.000000 0.500000 0.500000
O O15 0.360576 0.708418 0.889991
O O16 0.731133 0.956384 0.032939
#
# Coordination Sequence:
#
# PCOD8031127 Si02
#       7
#     2   2   2   2   2   2   2
#     4  11  22  42  69 100 139 183 229 296 344 418
#     4  12  25  44  78 108 140 191 240 297 363 425
#     4  12  23  45  71 103 143 184 239 296 356 420
#     4  12  26  48  74 105 146 185 241 297 357 423
#     4  12  26  49  71 101 148 191 231 296 359 422
#     4  11  25  41  69 101 140 187 234 281 359 417
#     4  12  23  47  70 102 143 188 239 293 351 430
#
# _framework density 21.224501
#
# number of rings (size 3 to 8) (size 9 to 14) (size 15 to 20)
#    0.000    0.286    7.143    1.714    0.000    0.571 
#   10.286    0.000    0.000    0.000    0.000    0.000 
#    0.000    0.000    0.000    0.000    0.000    0.000 
#
# Total GULP energy -173657.709678 kJ/mol
# GULP energy per Si atom -12404.122120 kJ/mol
# Density = 2.117619 g / cm^3
# Si number density = 21.224501 Si / 1000 Ang^3
#
#
#
# Elastic Constant Matrix: (Units=GPa)
#
#
# Indices 1 2 3 4 5 6 
#
# 1 95.9238 26.2853 49.6339 -5.5511 7.5805 10.2005
# 2 26.2853 140.8752 51.2245 -7.3364 1.3230 22.5518
# 3 49.6339 51.2245 132.2375 1.2229 9.7420 4.7374
# 4 -5.5511 -7.3364 1.2229 37.7947 1.7972 5.4328
# 5 7.5805 1.3230 9.7420 1.7972 52.8782 1.7174
# 6 10.2005 22.5518 4.7374 5.4328 1.7174 34.3289
#
#
#
# Elastic Compliance Matrix: (Units=1/GPa)
#
#
# Indices 1 2 3 4 5 6 
#
# 1 0.013611 0.000005 -0.004927 0.002747 -0.001015 -0.003752
# 2 0.000005 0.009525 -0.003532 0.002837 0.000518 -0.006246
# 3 -0.004927 -0.003532 0.010792 -0.002087 -0.001210 0.002686
# 4 0.002747 0.002837 -0.002087 0.028506 -0.000826 -0.006862
# 5 -0.001015 0.000518 -0.001210 -0.000826 0.019318 -0.000707
# 6 -0.003752 -0.006246 0.002686 -0.006862 -0.000707 0.035099
#
#
# Mechanical properties :
#
#
# Convention : Reuss Voigt Hill
#
# Bulk Modulus (GPa) = 58.75563 69.25823 64.00693
# Shear Modulus (GPa) = 35.85993 41.12655 38.49324
#
# Velocity S-wave (km/s) = 4.11488 4.40670 4.26329
# Velocity P-wave (km/s) = 7.09361 7.65468 7.37948
#
# Compressibility (1/GPa) = 0.01701965
#
# Stress axis : x y z
#
# Youngs Moduli (GPa) = 73.46965 104.99104 92.66252
#
# Poissons Ratio (x) = -0.00053 0.45654
# Poissons Ratio (y) = -0.00037 0.32729
# Poissons Ratio (z) = 0.36198 0.37084
#
# Static dielectric constant tensor:
#      x y z
#    x 3.598040 -0.082290 0.383260 
#    y -0.082290 3.850230 -0.012020 
#    z 0.383260 -0.012020 3.925020 
# 
# 
# High freq. dielectric constant tensor:
#      x y z
#    x 1.839220 0.007480 0.006180 
#    y 0.007480 1.840070 -0.001340 
#    z 0.006180 -0.001340 1.842480 
# 
# From -- ./inp_files/262207.got.cif
#   From: 2010.06.25/outbox.cif.g09.slc.cpg/sg2_132_cif.got.tgz:262207.got - 2010.06.27 13:26:56.
