data_PCOD8031462
_publ_section_title
;
Structure prediction by ZEFSAII (Michael W. Deem and Ramdas Pophale) SiO2 
 PCOD8031462
Probable space group: P -1
;
_chemical_formula_sum "Si O2"
_cell_formula_units_Z 16
_cell_length_a 17.579368
_cell_length_b 9.253956
_cell_length_c 6.535372
_cell_angle_alpha 89.281382
_cell_angle_beta 44.997185
_cell_angle_gamma 89.329624
_cell_volume 751.669664
_symmetry_space_group_name_H-M "P -1"
_symmetry_group_IT_number 2
_symmetry_cell_setting 'triclinic'
loop_
_space_group_symop_operation_xyz
x,y,z
-x,-y,-z
loop_
_atom_site_type_symbol
_atom_site_label
_atom_site_fract_x
_atom_site_fract_y
_atom_site_fract_z
Si Si1 0.298088 0.556743 0.650295
Si Si2 0.901601 0.404673 0.265022
Si Si3 0.969153 0.084795 0.253693
Si Si4 0.378235 0.320105 0.226365
Si Si5 0.154227 0.100969 0.216433
Si Si6 0.791952 0.598448 0.784118
Si Si7 0.378543 0.110059 0.585531
Si Si8 0.539533 0.204173 0.607959
O O1 0.190751 0.601285 0.731219
O O2 0.381729 0.471099 0.343378
O O3 0.354952 0.698421 0.633555
O O4 0.267498 0.453886 0.898219
O O5 0.942275 0.247155 0.243420
O O6 0.858419 0.469291 0.558893
O O7 0.000000 0.500000 0.000000
O O8 0.074660 0.064859 0.187412
O O9 0.866740 0.009003 0.555367
O O10 0.000000 0.000000 0.000000
O O11 0.291850 0.332166 0.213475
O O12 0.340581 0.196976 0.457510
O O13 0.489057 0.271628 0.910157
O O14 0.129762 0.268318 0.315875
O O15 0.277480 0.075246 0.920685
O O16 0.462725 0.207528 0.554303
O O17 0.430238 0.961889 0.408174
#
# Coordination Sequence:
#
# PCOD8031462 Si02
#       8
#     2   2   2   2   2   2   2   2
#     4  11  25  42  69 100 135 176 220 279 329 394
#     4  11  26  44  69 103 134 174 222 270 334 397
#     4  11  27  43  71 100 133 175 221 274 329 402
#     4  11  22  44  67  98 128 181 221 269 332 391
#     4  11  24  45  68  98 133 179 219 270 338 388
#     4  11  24  44  71  96 135 176 218 278 328 397
#     4  11  25  43  69  97 136 178 220 276 335 393
#     4  11  25  43  66 100 134 175 225 276 333 395
#
# _framework density 21.285945000000002
#
# number of rings (size 3 to 8) (size 9 to 14) (size 15 to 20)
#    0.000    1.000    2.500    2.250    7.000    7.000 
#    2.250    0.000    0.000    0.000    0.000    0.000 
#    0.000    0.000    0.000    0.000    0.000    0.000 
#
# Total GULP energy -198419.061255 kJ/mol
# GULP energy per Si atom -12401.191328 kJ/mol
# Density = 2.123750 g / cm^3
# Si number density = 21.285945 Si / 1000 Ang^3
#
#
#
# Elastic Constant Matrix: (Units=GPa)
#
#
# Indices 1 2 3 4 5 6 
#
# 1 77.8964 32.0662 54.2545 -4.9337 -0.0524 9.8729
# 2 32.0662 124.7100 63.7011 -3.7585 0.8625 5.7533
# 3 54.2545 63.7011 113.9918 -0.4060 6.5228 2.1313
# 4 -4.9337 -3.7585 -0.4060 44.0152 -1.1037 -3.4619
# 5 -0.0524 0.8625 6.5228 -1.1037 34.1109 -3.7014
# 6 9.8729 5.7533 2.1313 -3.4619 -3.7014 41.6476
#
#
#
# Elastic Compliance Matrix: (Units=1/GPa)
#
#
# Indices 1 2 3 4 5 6 
#
# 1 0.020146 -0.000070 -0.009554 0.001888 0.001488 -0.003988
# 2 -0.000070 0.011338 -0.006327 0.000838 0.000833 -0.001082
# 3 -0.009554 -0.006327 0.016983 -0.001379 -0.002941 0.001894
# 4 0.001888 0.000838 -0.001379 0.023140 0.001161 0.001534
# 5 0.001488 0.000833 -0.002941 0.001161 0.030164 0.002460
# 6 -0.003988 -0.001082 0.001894 0.001534 0.002460 0.025355
#
#
# Mechanical properties :
#
#
# Convention : Reuss Voigt Hill
#
# Bulk Modulus (GPa) = 60.36179 68.51574 64.43877
# Shear Modulus (GPa) = 30.38603 35.05984 32.72294
#
# Velocity S-wave (km/s) = 3.78235 4.06284 3.92510
# Velocity P-wave (km/s) = 6.89159 7.36661 7.13306
#
# Compressibility (1/GPa) = 0.01656677
#
# Stress axis : x y z
#
# Youngs Moduli (GPa) = 49.63691 88.20086 58.88137
#
# Poissons Ratio (x) = 0.00614 0.56253
# Poissons Ratio (y) = 0.00346 0.37255
# Poissons Ratio (z) = 0.47421 0.55805
#
# Static dielectric constant tensor:
#      x y z
#    x 3.951960 0.406650 0.271570 
#    y 0.406650 5.271700 0.901270 
#    z 0.271570 0.901270 4.575800 
# 
# 
# High freq. dielectric constant tensor:
#      x y z
#    x 1.837650 0.002880 0.007420 
#    y 0.002880 1.848770 0.006070 
#    z 0.007420 0.006070 1.843470 
# 
# From -- ./inp_files/39853.got.cif
#   From: 2010.06.25/outbox.cif.g09.slc.cpg/sg2_20_cif.got.tgz:39853.got - 2010.06.27 13:26:56.
