data_PCOD8031261
_publ_section_title
;
Structure prediction by ZEFSAII (Michael W. Deem and Ramdas Pophale) SiO2 
 PCOD8031261
Probable space group: P -1
;
_chemical_formula_sum "Si O2"
_cell_formula_units_Z 14
_cell_length_a 22.005735
_cell_length_b 9.967965
_cell_length_c 9.673465
_cell_angle_alpha 138.535335
_cell_angle_beta 129.293925
_cell_angle_gamma 28.964743
_cell_volume 678.764273
_symmetry_space_group_name_H-M "P -1"
_symmetry_group_IT_number 2
_symmetry_cell_setting 'triclinic'
loop_
_space_group_symop_operation_xyz
x,y,z
-x,-y,-z
loop_
_atom_site_type_symbol
_atom_site_label
_atom_site_fract_x
_atom_site_fract_y
_atom_site_fract_z
Si Si1 0.258584 0.850566 0.614343
Si Si2 0.853401 0.808652 0.566302
Si Si3 0.146139 0.687347 0.439644
Si Si4 0.478350 0.605638 0.212552
Si Si5 0.717550 0.704086 0.418419
Si Si6 0.726559 0.281076 0.976875
Si Si7 0.854239 0.759104 0.991083
O O1 0.204968 0.728781 0.449081
O O2 0.399058 0.598850 0.678087
O O3 0.240388 0.965048 0.521591
O O4 0.173624 0.161472 0.827150
O O5 0.811654 0.683585 0.480319
O O6 0.000000 0.500000 0.500000
O O7 0.832297 0.034109 0.819668
O O8 0.208161 0.598356 0.608146
O O9 0.185769 0.384586 0.216964
O O10 0.000000 0.000000 0.500000
O O11 0.401268 0.574826 0.143800
O O12 0.398515 0.971611 0.410210
O O13 0.500000 0.500000 0.000000
O O14 0.685824 0.600344 0.174906
O O15 0.776420 0.074082 0.029547
O O16 0.000000 0.500000 0.000000
#
# Coordination Sequence:
#
# PCOD8031261 Si02
#       7
#     2   2   2   2   2   2   2
#     4  12  25  39  67 100 127 172 220 275 326 389
#     4  11  25  44  65  96 138 168 216 278 337 392
#     4  12  21  38  65  96 123 167 223 270 324 389
#     4  11  22  43  65  98 136 168 225 274 324 391
#     4  11  23  42  68  92 131 183 213 267 337 389
#     4  11  23  43  65  93 131 179 214 268 332 387
#     4  12  21  39  64  94 126 166 219 272 322 384
#
# _framework density 20.625716000000001
#
# number of rings (size 3 to 8) (size 9 to 14) (size 15 to 20)
#    0.000    0.571    7.143    1.714    0.000    7.429 
#    0.000    1.429    0.000    0.000    0.000    0.000 
#    0.000    0.000    0.000    0.000    0.000    0.000 
#
# Total GULP energy -173446.224541 kJ/mol
# GULP energy per Si atom -12389.016039 kJ/mol
# Density = 2.057877 g / cm^3
# Si number density = 20.625716 Si / 1000 Ang^3
#
#
#
# Elastic Constant Matrix: (Units=GPa)
#
#
# Indices 1 2 3 4 5 6 
#
# 1 59.7054 25.6869 40.3305 12.5355 -2.9444 -14.4923
# 2 25.6869 101.9282 33.7153 2.1322 -0.9570 -17.2336
# 3 40.3305 33.7153 167.1777 26.1621 4.5561 -2.4311
# 4 12.5355 2.1322 26.1621 32.8902 -0.3496 -5.9383
# 5 -2.9444 -0.9570 4.5561 -0.3496 39.5055 -6.2837
# 6 -14.4923 -17.2336 -2.4311 -5.9383 -6.2837 37.4034
#
#
#
# Elastic Compliance Matrix: (Units=1/GPa)
#
#
# Indices 1 2 3 4 5 6 
#
# 1 0.023970 -0.003172 -0.004507 -0.003960 0.003383 0.007473
# 2 -0.003172 0.012072 -0.002095 0.002981 0.001096 0.004854
# 3 -0.004507 -0.002095 0.008341 -0.005407 -0.001930 -0.003352
# 4 -0.003960 0.002981 -0.005407 0.037058 0.001626 0.005644
# 5 0.003383 0.001096 -0.001930 0.001626 0.026856 0.006460
# 6 0.007473 0.004854 -0.003352 0.005644 0.006460 0.033631
#
#
# Mechanical properties :
#
#
# Convention : Reuss Voigt Hill
#
# Bulk Modulus (GPa) = 40.26457 58.69741 49.48099
# Shear Modulus (GPa) = 29.45430 37.23171 33.34300
#
# Velocity S-wave (km/s) = 3.78304 4.25327 4.02503
# Velocity P-wave (km/s) = 6.21657 7.25538 6.75597
#
# Compressibility (1/GPa) = 0.02483573
#
# Stress axis : x y z
#
# Youngs Moduli (GPa) = 41.71903 82.83701 119.88316
#
# Poissons Ratio (x) = 0.26275 0.54027
# Poissons Ratio (y) = 0.13233 0.25117
# Poissons Ratio (z) = 0.18801 0.17356
#
# Static dielectric constant tensor:
#      x y z
#    x 4.596300 -1.885200 0.060280 
#    y -1.885200 7.105340 -0.073680 
#    z 0.060280 -0.073680 4.181420 
# 
# 
# High freq. dielectric constant tensor:
#      x y z
#    x 1.798890 -0.016200 0.005790 
#    y -0.016200 1.804150 0.003590 
#    z 0.005790 0.003590 1.828480 
# 
# From -- ./inp_files/343869.got.cif
#   From: 2010.06.25/outbox.cif.g09.slc.cpg/sg2_172_cif.got.tgz:343869.got - 2010.06.27 13:26:56.
