data_PCOD8031969
_publ_section_title
;
Structure prediction by ZEFSAII (Michael W. Deem and Ramdas Pophale) SiO2 
 PCOD8031969
Probable space group: P -1
;
_chemical_formula_sum "Si O2"
_cell_formula_units_Z 16
_cell_length_a 14.374880
_cell_length_b 8.641348
_cell_length_c 25.978228
_cell_angle_alpha 48.821672
_cell_angle_beta 21.177719
_cell_angle_gamma 40.697145
_cell_volume 743.834874
_symmetry_space_group_name_H-M "P -1"
_symmetry_group_IT_number 2
_symmetry_cell_setting 'triclinic'
loop_
_space_group_symop_operation_xyz
x,y,z
-x,-y,-z
loop_
_atom_site_type_symbol
_atom_site_label
_atom_site_fract_x
_atom_site_fract_y
_atom_site_fract_z
Si Si1 0.139734 0.661826 0.640455
Si Si2 0.785627 0.454535 0.657749
Si Si3 0.188508 0.621691 0.103140
Si Si4 0.689676 0.218162 0.093128
Si Si5 0.198008 0.136109 0.335665
Si Si6 0.835398 0.979369 0.380477
Si Si7 0.717426 0.067795 0.307997
Si Si8 0.700163 0.360366 0.619696
O O1 0.500000 0.500000 0.500000
O O2 0.979007 0.521587 0.770704
O O3 0.042328 0.753487 0.611763
O O4 0.034668 0.890871 0.680860
O O5 0.474573 0.679147 0.789893
O O6 0.707367 0.309882 0.688179
O O7 0.000000 0.500000 0.500000
O O8 0.952571 0.304601 0.655234
O O9 0.500000 0.500000 0.000000
O O10 0.250648 0.611674 0.011870
O O11 0.974311 0.904588 0.169298
O O12 0.494608 0.148884 0.172062
O O13 0.000000 0.000000 0.000000
O O14 0.019081 0.303182 0.441867
O O15 0.336071 0.850865 0.340364
O O16 0.497144 0.044536 0.554895
O O17 0.874994 0.025192 0.291207
O O18 0.556316 0.355802 0.318307
#
# Coordination Sequence:
#
# PCOD8031969 Si02
#       8
#     2   2   2   2   2   2   2   2
#     4  12  24  43  72 108 140 186 248 299 352 426
#     4  12  22  42  70 101 134 184 238 290 348 428
#     4  12  26  46  71 100 152 195 232 295 374 434
#     4  12  27  45  69 103 145 194 236 285 372 439
#     4  11  24  44  68 108 143 183 236 304 361 415
#     4  11  23  39  69 104 136 174 248 303 344 409
#     4  11  23  42  67 105 138 188 237 295 359 428
#     4  11  23  41  73 100 140 175 239 307 346 412
#
# _framework density 21.510149999999999
#
# number of rings (size 3 to 8) (size 9 to 14) (size 15 to 20)
#    0.000    0.500    6.250    2.250    1.750    3.000 
#    0.000    7.500    0.000    0.000    0.000    0.000 
#    0.000    0.000    0.000    0.000    0.000    0.000 
#
# Total GULP energy -198220.250630 kJ/mol
# GULP energy per Si atom -12388.765664 kJ/mol
# Density = 2.146119 g / cm^3
# Si number density = 21.510150 Si / 1000 Ang^3
#
#
#
# Elastic Constant Matrix: (Units=GPa)
#
#
# Indices 1 2 3 4 5 6 
#
# 1 129.5445 42.2876 54.8041 7.5512 3.1149 -11.9964
# 2 42.2876 125.1814 59.3255 5.1314 3.7506 -3.7054
# 3 54.8041 59.3255 124.4554 7.2880 4.2968 2.0417
# 4 7.5512 5.1314 7.2880 35.0099 1.2317 4.9877
# 5 3.1149 3.7506 4.2968 1.2317 42.2471 2.4419
# 6 -11.9964 -3.7054 2.0417 4.9877 2.4419 36.3555
#
#
#
# Elastic Compliance Matrix: (Units=1/GPa)
#
#
# Indices 1 2 3 4 5 6 
#
# 1 0.010244 -0.001493 -0.003745 -0.001724 -0.000406 0.003702
# 2 -0.001493 0.010629 -0.004383 -0.000440 -0.000428 0.000926
# 3 -0.003745 -0.004383 0.011864 -0.000688 -0.000393 -0.002228
# 4 -0.001724 -0.000440 -0.000688 0.029817 -0.000365 -0.004641
# 5 -0.000406 -0.000428 -0.000393 -0.000365 0.023888 -0.001710
# 6 0.003702 0.000926 -0.002228 -0.004641 -0.001710 0.029699
#
#
# Mechanical properties :
#
#
# Convention : Reuss Voigt Hill
#
# Bulk Modulus (GPa) = 74.11120 76.89061 75.50091
# Shear Modulus (GPa) = 35.74447 37.57344 36.65896
#
# Velocity S-wave (km/s) = 4.08088 4.18398 4.13275
# Velocity P-wave (km/s) = 7.53217 7.69186 7.61244
#
# Compressibility (1/GPa) = 0.01349324
#
# Stress axis : x y z
#
# Youngs Moduli (GPa) = 97.61547 94.08621 84.28848
#
# Poissons Ratio (x) = 0.14051 0.31566
# Poissons Ratio (y) = 0.14578 0.36947
# Poissons Ratio (z) = 0.36557 0.41242
#
# Static dielectric constant tensor:
#      x y z
#    x 4.215340 1.019280 -1.479170 
#    y 1.019280 2.516320 2.470920 
#    z -1.479170 2.470920 -0.274990 
# 
# 
# High freq. dielectric constant tensor:
#      x y z
#    x 1.859510 -0.002330 0.005610 
#    y -0.002330 1.854110 0.007470 
#    z 0.005610 0.007470 1.829950 
# 
# From -- ./inp_files/619251.got.cif
#   From: 2010.06.25/outbox.cif.g09.slc.cpg/sg2_310_cif.got.tgz:619251.got - 2010.06.27 13:26:56.
