data_PCOD8031514
_publ_section_title
;
Structure prediction by ZEFSAII (Michael W. Deem and Ramdas Pophale) SiO2 
 PCOD8031514
Probable space group: P -1
;
_chemical_formula_sum "Si O2"
_cell_formula_units_Z 14
_cell_length_a 9.248299
_cell_length_b 11.868561
_cell_length_c 17.798463
_cell_angle_alpha 151.894137
_cell_angle_beta 141.265940
_cell_angle_gamma 51.374701
_cell_volume 562.203518
_symmetry_space_group_name_H-M "P -1"
_symmetry_group_IT_number 2
_symmetry_cell_setting 'triclinic'
loop_
_space_group_symop_operation_xyz
x,y,z
-x,-y,-z
loop_
_atom_site_type_symbol
_atom_site_label
_atom_site_fract_x
_atom_site_fract_y
_atom_site_fract_z
Si Si1 0.650548 0.981360 0.832295
Si Si2 0.052271 0.582980 0.155474
Si Si3 0.476472 0.263136 0.627658
Si Si4 0.036590 0.768537 0.641975
Si Si5 0.342967 0.475522 0.847077
Si Si6 0.939857 0.872876 0.016501
Si Si7 0.880718 0.084908 0.400698
O O1 0.815215 0.951217 0.810332
O O2 0.369295 0.912438 0.657647
O O3 0.726256 0.270502 0.053788
O O4 0.732696 0.822298 0.839480
O O5 0.337285 0.632263 0.300448
O O6 0.981457 0.372303 0.065788
O O7 0.936201 0.813457 0.263503
O O8 0.000000 0.500000 0.000000
O O9 0.225084 0.202389 0.454183
O O10 0.499688 0.419217 0.806656
O O11 0.500000 0.000000 0.500000
O O12 0.000000 0.500000 0.500000
O O13 0.166286 0.816712 0.643000
O O14 0.167506 0.979956 0.875777
O O15 0.101407 0.266173 0.636976
O O16 0.500000 0.500000 0.000000
#
# Coordination Sequence:
#
# PCOD8031514 Si02
#       7
#     2   2   2   2   2   2   2
#     4  11  28  49  71 108 158 197 253 302 386 454
#     4  12  23  43  77 110 145 194 257 309 380 439
#     4  11  22  44  70 109 144 186 253 309 367 449
#     4  11  24  44  75 106 146 191 253 306 375 441
#     4  11  26  46  77 110 154 198 249 314 379 448
#     4  11  26  49  72 107 153 201 244 317 374 455
#     4  11  25  48  75 114 145 197 261 308 376 450
#
# _framework density 24.902014999999999
#
# number of rings (size 3 to 8) (size 9 to 14) (size 15 to 20)
#    0.000    0.857    4.286    2.571    8.000    1.143 
#    2.571    2.143    0.000    0.000    0.000    0.000 
#    0.000    0.000    0.000    0.000    0.000    0.000 
#
# Total GULP energy -173479.445379 kJ/mol
# GULP energy per Si atom -12391.388956 kJ/mol
# Density = 2.484534 g / cm^3
# Si number density = 24.902015 Si / 1000 Ang^3
#
#
#
# Elastic Constant Matrix: (Units=GPa)
#
#
# Indices 1 2 3 4 5 6 
#
# 1 89.4700 17.2226 19.3963 -23.0687 16.9943 -1.5088
# 2 17.2226 139.1307 27.5877 14.4892 3.7710 16.1958
# 3 19.3963 27.5877 87.4273 0.5868 4.7825 8.9209
# 4 -23.0687 14.4892 0.5868 45.3962 -9.1263 6.4029
# 5 16.9943 3.7710 4.7825 -9.1263 43.9752 -5.7021
# 6 -1.5088 16.1958 8.9209 6.4029 -5.7021 44.6066
#
#
#
# Elastic Compliance Matrix: (Units=1/GPa)
#
#
# Indices 1 2 3 4 5 6 
#
# 1 0.014714 -0.002019 -0.002496 0.007385 -0.003683 0.000199
# 2 -0.002019 0.008482 -0.001922 -0.003532 -0.000777 -0.002356
# 3 -0.002496 -0.001922 0.012837 -0.000680 -0.000659 -0.001941
# 4 0.007385 -0.003532 -0.000680 0.027801 0.003042 -0.001934
# 5 -0.003683 -0.000777 -0.000659 0.003042 0.025334 0.003091
# 6 0.000199 -0.002356 -0.001941 -0.001934 0.003091 0.024341
#
#
# Mechanical properties :
#
#
# Convention : Reuss Voigt Hill
#
# Bulk Modulus (GPa) = 43.17936 49.38233 46.28085
# Shear Modulus (GPa) = 37.28528 43.58372 40.43450
#
# Velocity S-wave (km/s) = 3.87367 4.18809 4.03394
# Velocity P-wave (km/s) = 6.11428 6.57727 6.35000
#
# Compressibility (1/GPa) = 0.02315921
#
# Stress axis : x y z
#
# Youngs Moduli (GPa) = 67.96383 117.90241 77.90071
#
# Poissons Ratio (x) = 0.23804 0.19441
# Poissons Ratio (y) = 0.13721 0.14972
# Poissons Ratio (z) = 0.16961 0.22660
#
# Static dielectric constant tensor:
#      x y z
#    x 5.101490 0.203540 0.368630 
#    y 0.203540 4.536910 0.319110 
#    z 0.368630 0.319110 4.890850 
# 
# 
# High freq. dielectric constant tensor:
#      x y z
#    x 2.006150 -0.000330 0.003750 
#    y -0.000330 2.003650 0.000390 
#    z 0.003750 0.000390 1.980550 
# 
# From -- ./inp_files/560222.got.cif
#   From: 2010.06.25/outbox.cif.g09.slc.cpg/sg2_281_cif.got.tgz:560222.got - 2010.06.27 13:26:56.
