data_PCOD8031352
_publ_section_title
;
Structure prediction by ZEFSAII (Michael W. Deem and Ramdas Pophale) SiO2 
 PCOD8031352
Probable space group: P -1
;
_chemical_formula_sum "Si O2"
_cell_formula_units_Z 16
_cell_length_a 19.936698
_cell_length_b 11.992815
_cell_length_c 15.989844
_cell_angle_alpha 136.988633
_cell_angle_beta 32.780435
_cell_angle_gamma 157.724216
_cell_volume 763.973329
_symmetry_space_group_name_H-M "P -1"
_symmetry_group_IT_number 2
_symmetry_cell_setting 'triclinic'
loop_
_space_group_symop_operation_xyz
x,y,z
-x,-y,-z
loop_
_atom_site_type_symbol
_atom_site_label
_atom_site_fract_x
_atom_site_fract_y
_atom_site_fract_z
Si Si1 0.637964 0.431873 0.282129
Si Si2 0.721113 0.300690 0.976405
Si Si3 0.549836 0.615834 0.918625
Si Si4 0.825321 0.366513 0.304047
Si Si5 0.355268 0.214051 0.609895
Si Si6 0.472881 0.710492 0.349877
Si Si7 0.106331 0.251660 0.087083
Si Si8 0.002027 0.684677 0.137227
O O1 0.446711 0.207161 0.432639
O O2 0.594517 0.541450 0.330744
O O3 0.896801 0.709252 0.200824
O O4 0.629552 0.264000 0.140808
O O5 0.840835 0.557428 0.931285
O O6 0.901069 0.353444 0.825854
O O7 0.500000 0.000000 0.000000
O O8 0.622457 0.537908 0.745645
O O9 0.747927 0.973651 0.908465
O O10 0.500000 0.500000 0.000000
O O11 0.323870 0.437808 0.014698
O O12 0.722072 0.364231 0.484768
O O13 0.808291 0.455618 0.286955
O O14 0.697923 0.048678 0.260089
O O15 0.476285 0.304743 0.620127
O O16 0.082231 0.887849 0.726713
O O17 0.000000 0.000000 0.000000
O O18 0.000000 0.500000 0.000000
#
# Coordination Sequence:
#
# PCOD8031352 Si02
#       8
#     2   2   2   2   2   2   2   2
#     4  11  24  42  69 100 140 181 223 291 353 410
#     4  12  24  43  67  99 136 180 231 275 345 420
#     4  12  26  43  69 106 136 183 239 287 345 420
#     4  11  23  42  70  96 135 182 225 282 354 404
#     4  11  22  43  71 101 133 181 233 281 352 411
#     4  11  23  45  69 100 135 180 235 288 341 422
#     4  12  22  43  73  94 134 182 229 280 343 418
#     4  12  24  42  69  98 139 178 227 288 351 410
#
# _framework density 20.94314
#
# number of rings (size 3 to 8) (size 9 to 14) (size 15 to 20)
#    0.000    0.500    6.250    2.250    0.000    0.500 
#    6.750    0.625    0.000    0.000    0.000    0.000 
#    0.000    0.000    0.000    0.000    0.000    0.000 
#
# Total GULP energy -198241.563636 kJ/mol
# GULP energy per Si atom -12390.097727 kJ/mol
# Density = 2.089547 g / cm^3
# Si number density = 20.943140 Si / 1000 Ang^3
#
#
#
# Elastic Constant Matrix: (Units=GPa)
#
#
# Indices 1 2 3 4 5 6 
#
# 1 107.2547 42.8738 42.3448 1.7363 9.2950 2.3997
# 2 42.8738 131.1803 59.3758 -2.6119 6.9402 11.4324
# 3 42.3448 59.3758 156.3624 -2.9078 6.5645 17.7765
# 4 1.7363 -2.6119 -2.9078 25.1246 -6.3147 -0.0487
# 5 9.2950 6.9402 6.5645 -6.3147 36.8320 -5.8481
# 6 2.3997 11.4324 17.7765 -0.0487 -5.8481 37.7290
#
#
#
# Elastic Compliance Matrix: (Units=1/GPa)
#
#
# Indices 1 2 3 4 5 6 
#
# 1 0.011463 -0.002796 -0.002070 -0.001874 -0.002199 0.000750
# 2 -0.002796 0.010010 -0.002808 0.000699 -0.000824 -0.001659
# 3 -0.002070 -0.002808 0.008423 0.000609 -0.000840 -0.003116
# 4 -0.001874 0.000699 0.000609 0.041977 0.007564 0.000847
# 5 -0.002199 -0.000824 -0.000840 0.007564 0.030176 0.005472
# 6 0.000750 -0.001659 -0.003116 0.000847 0.005472 0.029277
#
#
# Mechanical properties :
#
#
# Convention : Reuss Voigt Hill
#
# Bulk Modulus (GPa) = 68.73831 75.99847 72.36839
# Shear Modulus (GPa) = 32.99847 36.61735 34.80791
#
# Velocity S-wave (km/s) = 3.97372 4.18594 4.08121
# Velocity P-wave (km/s) = 7.34483 7.72849 7.53910
#
# Compressibility (1/GPa) = 0.01454793
#
# Stress axis : x y z
#
# Youngs Moduli (GPa) = 87.23995 99.90292 118.72130
#
# Poissons Ratio (x) = 0.27928 0.24581
# Poissons Ratio (y) = 0.24388 0.33334
# Poissons Ratio (z) = 0.18063 0.28050
#
# Static dielectric constant tensor:
#      x y z
#    x 4.124820 -0.093290 0.084430 
#    y -0.093290 3.556890 -0.149870 
#    z 0.084430 -0.149870 4.193040 
# 
# 
# High freq. dielectric constant tensor:
#      x y z
#    x 1.841770 -0.018010 -0.002440 
#    y -0.018010 1.796620 -0.007460 
#    z -0.002440 -0.007460 1.838940 
# 
# From -- ./inp_files/577990.got.cif
#   From: 2010.06.25/outbox.cif.g09.slc.cpg/sg2_289_cif.got.tgz:577990.got - 2010.06.27 13:26:56.
