data_PCOD8031630
_publ_section_title
;
Structure prediction by ZEFSAII (Michael W. Deem and Ramdas Pophale) SiO2 
 PCOD8031630
Probable space group: P -1
;
_chemical_formula_sum "Si O2"
_cell_formula_units_Z 16
_cell_length_a 8.924601
_cell_length_b 16.211094
_cell_length_c 12.266853
_cell_angle_alpha 40.818806
_cell_angle_beta 41.701789
_cell_angle_gamma 43.256868
_cell_volume 715.297859
_symmetry_space_group_name_H-M "P -1"
_symmetry_group_IT_number 2
_symmetry_cell_setting 'triclinic'
loop_
_space_group_symop_operation_xyz
x,y,z
-x,-y,-z
loop_
_atom_site_type_symbol
_atom_site_label
_atom_site_fract_x
_atom_site_fract_y
_atom_site_fract_z
Si Si1 0.504506 0.790762 0.199951
Si Si2 0.087937 0.746063 0.590052
Si Si3 0.180854 0.499806 0.308236
Si Si4 0.662718 0.959773 0.114968
Si Si5 0.728634 0.319669 0.216110
Si Si6 0.190123 0.785094 0.957852
Si Si7 0.035817 0.477685 0.823771
Si Si8 0.542459 0.926045 0.665909
O O1 0.264136 0.761414 0.385372
O O2 0.582636 0.850946 0.204421
O O3 0.715923 0.651857 0.190566
O O4 0.456755 0.891784 0.022656
O O5 0.181485 0.769739 0.634619
O O6 0.088191 0.594792 0.741503
O O7 0.826631 0.859310 0.599121
O O8 0.438841 0.383291 0.308478
O O9 0.000000 0.500000 0.500000
O O10 0.073060 0.463667 0.293131
O O11 0.208106 0.644150 0.142145
O O12 0.577066 0.966744 0.279550
O O13 0.954043 0.909239 0.003823
O O14 0.826956 0.220339 0.158637
O O15 0.835577 0.438775 0.035991
O O16 0.426988 0.810851 0.842083
O O17 0.500000 0.000000 0.500000
#
# Coordination Sequence:
#
# PCOD8031630 Si02
#       8
#     2   2   2   2   2   2   2   2
#     4  11  24  44  71 105 137 189 233 286 349 412
#     4  12  26  42  70 105 140 177 234 293 349 412
#     4  11  23  40  67 101 137 184 228 287 352 419
#     4  11  25  46  72  97 143 184 238 282 348 419
#     4  11  23  41  69  99 139 183 226 287 353 412
#     4  11  24  46  69  97 139 186 236 284 350 413
#     4  11  22  45  66 102 140 178 234 287 351 412
#     4  12  28  46  70 105 140 184 234 291 346 418
#
# _framework density 22.368304999999999
#
# number of rings (size 3 to 8) (size 9 to 14) (size 15 to 20)
#    0.000    0.750    2.500    6.375    3.500    3.500 
#    0.000    0.000    0.000    0.000    0.000    0.000 
#    0.000    0.000    0.000    0.000    0.000    0.000 
#
# Total GULP energy -198522.222752 kJ/mol
# GULP energy per Si atom -12407.638922 kJ/mol
# Density = 2.231739 g / cm^3
# Si number density = 22.368305 Si / 1000 Ang^3
#
#
#
# Elastic Constant Matrix: (Units=GPa)
#
#
# Indices 1 2 3 4 5 6 
#
# 1 71.4834 39.9987 14.7081 11.7787 21.6872 -22.2746
# 2 39.9987 128.8599 26.4046 23.6107 15.8303 -23.5066
# 3 14.7081 26.4046 63.9099 31.6134 18.3339 -9.5265
# 4 11.7787 23.6107 31.6134 34.1582 -2.4358 -5.7775
# 5 21.6872 15.8303 18.3339 -2.4358 45.5417 0.9465
# 6 -22.2746 -23.5066 -9.5265 -5.7775 0.9465 46.8406
#
#
#
# Elastic Compliance Matrix: (Units=1/GPa)
#
#
# Indices 1 2 3 4 5 6 
#
# 1 0.023496 -0.003063 0.007278 -0.012035 -0.013904 0.009913
# 2 -0.003063 0.010797 0.001265 -0.007236 -0.003261 0.003393
# 3 0.007278 0.001265 0.042915 -0.043446 -0.023670 0.007943
# 4 -0.012035 -0.007236 -0.043446 0.079261 0.030164 -0.009024
# 5 -0.013904 -0.003261 -0.023670 0.030164 0.041066 -0.010172
# 6 0.009913 0.003393 0.007943 -0.009024 -0.010172 0.028473
#
#
# Mechanical properties :
#
#
# Convention : Reuss Voigt Hill
#
# Bulk Modulus (GPa) = 11.34215 47.38620 29.36417
# Shear Modulus (GPa) = 20.45498 37.51754 28.98626
#
# Velocity S-wave (km/s) = 3.02729 4.09988 3.60372
# Velocity P-wave (km/s) = 4.15944 6.60625 5.52012
#
# Compressibility (1/GPa) = 0.08816674
#
# Stress axis : x y z
#
# Youngs Moduli (GPa) = 42.56052 92.61494 23.30206
#
# Poissons Ratio (x) = 0.28368 -0.16958
# Poissons Ratio (y) = 0.13036 -0.02947
# Poissons Ratio (z) = -0.30974 -0.11713
#
# Static dielectric constant tensor:
#      x y z
#    x 3.932480 0.088790 -0.137480 
#    y 0.088790 3.905410 0.146620 
#    z -0.137480 0.146620 4.149960 
# 
# 
# High freq. dielectric constant tensor:
#      x y z
#    x 1.891350 -0.007250 -0.002300 
#    y -0.007250 1.883960 0.010630 
#    z -0.002300 0.010630 1.889620 
# 
# From -- ./inp_files/402791.got.cif
#   From: 2010.06.25/outbox.cif.g09.slc.cpg/sg2_202_cif.got.tgz:402791.got - 2010.06.27 13:26:56.
