data_PCOD8031328
_publ_section_title
;
Structure prediction by ZEFSAII (Michael W. Deem and Ramdas Pophale) SiO2 
 PCOD8031328
Probable space group: P -1
;
_chemical_formula_sum "Si O2"
_cell_formula_units_Z 16
_cell_length_a 7.967493
_cell_length_b 10.690582
_cell_length_c 11.618334
_cell_angle_alpha 101.375187
_cell_angle_beta 100.737724
_cell_angle_gamma 46.281032
_cell_volume 699.436053
_symmetry_space_group_name_H-M "P -1"
_symmetry_group_IT_number 2
_symmetry_cell_setting 'triclinic'
loop_
_space_group_symop_operation_xyz
x,y,z
-x,-y,-z
loop_
_atom_site_type_symbol
_atom_site_label
_atom_site_fract_x
_atom_site_fract_y
_atom_site_fract_z
Si Si1 0.810299 0.819119 0.897677
Si Si2 0.545342 0.643136 0.219916
Si Si3 0.252406 0.997984 0.579766
Si Si4 0.461841 0.215279 0.982418
Si Si5 0.767542 0.269661 0.152233
Si Si6 0.246458 0.309770 0.357315
Si Si7 0.151854 0.323614 0.603321
Si Si8 0.103096 0.979760 0.325406
O O1 0.758267 0.732013 0.966361
O O2 0.819841 0.757469 0.760218
O O3 0.062118 0.761444 0.933666
O O4 0.606728 0.025462 0.914021
O O5 0.580621 0.473119 0.199064
O O6 0.693316 0.632155 0.338050
O O7 0.274765 0.816618 0.232116
O O8 0.636319 0.649034 0.109172
O O9 0.257164 0.144303 0.643672
O O10 0.024546 0.059245 0.620369
O O11 0.476088 0.810708 0.624690
O O12 0.245624 0.993199 0.438409
O O13 0.627500 0.215802 0.085379
O O14 0.924202 0.154159 0.260996
O O15 0.150959 0.301101 0.462770
O O16 0.112850 0.512673 0.357049
#
# Coordination Sequence:
#
# PCOD8031328 Si02
#       8
#     2   2   2   2   2   2   2   2
#     4  11  23  44  74 101 134 183 232 286 340 412
#     4  12  25  46  69 102 137 180 232 281 344 417
#     4  11  24  41  67 100 139 182 222 284 341 419
#     4  11  26  45  71 103 136 185 236 285 347 404
#     4  12  25  48  70  96 143 186 225 295 343 400
#     4  11  22  43  70 102 139 177 226 278 350 412
#     4  11  24  40  72 104 134 183 224 279 344 418
#     4  11  26  43  66 101 138 179 231 280 348 409
#
# _framework density 22.87557
#
# number of rings (size 3 to 8) (size 9 to 14) (size 15 to 20)
#    0.000    0.750    3.750    3.375    1.750    3.500 
#    0.000    2.500    0.000    0.000    0.000    0.000 
#    0.000    0.000    0.000    0.000    0.000    0.000 
#
# Total GULP energy -198394.341374 kJ/mol
# GULP energy per Si atom -12399.646336 kJ/mol
# Density = 2.282350 g / cm^3
# Si number density = 22.875570 Si / 1000 Ang^3
#
#
#
# Elastic Constant Matrix: (Units=GPa)
#
#
# Indices 1 2 3 4 5 6 
#
# 1 76.0914 22.5562 12.1286 15.9777 -15.4823 -0.9058
# 2 22.5562 132.1725 32.4299 7.6691 -6.4864 4.5775
# 3 12.1286 32.4299 82.1965 11.2091 -12.6072 8.9149
# 4 15.9777 7.6691 11.2091 29.1042 5.1067 4.6581
# 5 -15.4823 -6.4864 -12.6072 5.1067 16.6613 -4.1514
# 6 -0.9058 4.5775 8.9149 4.6581 -4.1514 21.4822
#
#
#
# Elastic Compliance Matrix: (Units=1/GPa)
#
#
# Indices 1 2 3 4 5 6 
#
# 1 0.025797 -0.002837 0.004890 -0.023657 0.036783 0.011901
# 2 -0.002837 0.008745 -0.003449 0.001238 -0.002548 -0.001313
# 3 0.004890 -0.003449 0.017539 -0.012113 0.020235 0.000199
# 4 -0.023657 0.001238 -0.012113 0.064849 -0.055794 -0.021078
# 5 0.036783 -0.002548 0.020235 -0.055794 0.133491 0.031592
# 6 0.011901 -0.001313 0.000199 -0.021078 0.031592 0.057924
#
#
# Mechanical properties :
#
#
# Convention : Reuss Voigt Hill
#
# Bulk Modulus (GPa) = 20.28844 47.18776 33.73810
# Shear Modulus (GPa) = 15.26410 28.33925 21.80167
#
# Velocity S-wave (km/s) = 2.58595 3.52354 3.09051
# Velocity P-wave (km/s) = 4.21954 6.10136 5.24552
#
# Compressibility (1/GPa) = 0.04928914
#
# Stress axis : x y z
#
# Youngs Moduli (GPa) = 38.76429 114.35427 57.01594
#
# Poissons Ratio (x) = 0.32437 -0.27879
# Poissons Ratio (y) = 0.10996 0.19664
# Poissons Ratio (z) = -0.18955 0.39440
#
# Static dielectric constant tensor:
#      x y z
#    x 4.067500 -0.041430 -0.062510 
#    y -0.041430 4.260480 0.180930 
#    z -0.062510 0.180930 4.145480 
# 
# 
# High freq. dielectric constant tensor:
#      x y z
#    x 1.891670 -0.000310 0.002300 
#    y -0.000310 1.914090 0.009650 
#    z 0.002300 0.009650 1.901720 
# 
# From -- ./inp_files/390444.got.cif
#   From: 2010.06.25/outbox.cif.g09.slc.cpg/sg2_196_cif.got.tgz:390444.got - 2010.06.27 13:26:56.
