data_PCOD8031904
_publ_section_title
;
Structure prediction by ZEFSAII (Michael W. Deem and Ramdas Pophale) SiO2 
 PCOD8031904
Probable space group: P -1
;
_chemical_formula_sum "Si O2"
_cell_formula_units_Z 16
_cell_length_a 13.569920
_cell_length_b 14.941239
_cell_length_c 15.167096
_cell_angle_alpha 28.023074
_cell_angle_beta 30.624371
_cell_angle_gamma 35.793701
_cell_volume 718.750627
_symmetry_space_group_name_H-M "P -1"
_symmetry_group_IT_number 2
_symmetry_cell_setting 'triclinic'
loop_
_space_group_symop_operation_xyz
x,y,z
-x,-y,-z
loop_
_atom_site_type_symbol
_atom_site_label
_atom_site_fract_x
_atom_site_fract_y
_atom_site_fract_z
Si Si1 0.313655 0.154664 0.072694
Si Si2 0.334779 0.774595 0.151957
Si Si3 0.795926 0.226363 0.204506
Si Si4 0.612704 0.673934 0.498831
Si Si5 0.930662 0.570992 0.867286
Si Si6 0.076725 0.079556 0.959349
Si Si7 0.624103 0.647035 0.310697
Si Si8 0.945062 0.079154 0.606277
O O1 0.155799 0.368360 0.020221
O O2 0.191792 0.981020 0.315066
O O3 0.468280 0.149298 0.038437
O O4 0.414511 0.161977 0.890484
O O5 0.368360 0.549785 0.292622
O O6 0.193915 0.785880 0.334440
O O7 0.235034 0.908449 0.032374
O O8 0.570617 0.199225 0.413706
O O9 0.787982 0.456155 0.025005
O O10 0.934809 0.116139 0.270864
O O11 0.885044 0.155647 0.102291
O O12 0.814367 0.745669 0.302082
O O13 0.563967 0.710315 0.400896
O O14 0.148225 0.450254 0.789156
O O15 0.906969 0.791201 0.655255
O O16 0.000000 0.000000 0.000000
O O17 0.500000 0.500000 0.500000
#
# Coordination Sequence:
#
# PCOD8031904 Si02
#       8
#     2   2   2   2   2   2   2   2
#     4  12  23  37  60  95 139 186 233 269 310 397
#     4  11  23  45  65  95 133 175 229 274 332 406
#     4  11  24  44  70  98 134 175 223 273 335 409
#     4  12  24  44  74  97 135 185 218 276 337 394
#     4  12  22  40  58  93 141 184 228 271 317 384
#     4  11  27  50  74 100 130 164 222 296 355 404
#     4  12  21  37  62  94 139 188 225 258 318 383
#     4  11  23  38  60  95 138 184 223 266 322 383
#
# _framework density 22.260849
#
# number of rings (size 3 to 8) (size 9 to 14) (size 15 to 20)
#    0.000    0.500    6.250    1.875    3.500    2.000 
#    0.000    0.625    0.000    0.000    0.000    0.000 
#    0.000    0.000    0.000    0.000    0.000    0.000 
#
# Total GULP energy -198352.284529 kJ/mol
# GULP energy per Si atom -12397.017783 kJ/mol
# Density = 2.221018 g / cm^3
# Si number density = 22.260849 Si / 1000 Ang^3
#
#
#
# Elastic Constant Matrix: (Units=GPa)
#
#
# Indices 1 2 3 4 5 6 
#
# 1 92.0484 37.7958 43.3586 -4.3547 -11.6399 18.4768
# 2 37.7958 92.2927 42.7583 14.4527 -4.6570 9.3701
# 3 43.3586 42.7583 115.8074 -2.9244 -9.0014 9.8850
# 4 -4.3547 14.4527 -2.9244 46.5579 -3.6754 -5.2091
# 5 -11.6399 -4.6570 -9.0014 -3.6754 25.8407 -2.5839
# 6 18.4768 9.3701 9.8850 -5.2091 -2.5839 30.5789
#
#
#
# Elastic Compliance Matrix: (Units=1/GPa)
#
#
# Indices 1 2 3 4 5 6 
#
# 1 0.016448 -0.004594 -0.003446 0.002412 0.005066 -0.006578
# 2 -0.004594 0.015684 -0.004198 -0.005902 -0.001727 -0.001824
# 3 -0.003446 -0.004198 0.011674 0.001885 0.002034 0.000088
# 4 0.002412 -0.005902 0.001885 0.024499 0.004594 0.004304
# 5 0.005066 -0.001727 0.002034 0.004594 0.042147 0.001154
# 6 -0.006578 -0.001824 0.000088 0.004304 0.001154 0.038038
#
#
# Mechanical properties :
#
#
# Convention : Reuss Voigt Hill
#
# Bulk Modulus (GPa) = 51.73451 60.88597 56.31024
# Shear Modulus (GPa) = 27.86916 32.34455 30.10685
#
# Velocity S-wave (km/s) = 3.54211 3.81593 3.68157
# Velocity P-wave (km/s) = 6.32608 6.84293 6.58957
#
# Compressibility (1/GPa) = 0.01932946
#
# Stress axis : x y z
#
# Youngs Moduli (GPa) = 60.79588 63.76017 85.66334
#
# Poissons Ratio (x) = 0.29289 0.29521
# Poissons Ratio (y) = 0.27928 0.35965
# Poissons Ratio (z) = 0.20951 0.26769
#
# Static dielectric constant tensor:
#      x y z
#    x 1.103970 -0.144390 3.409260 
#    y -0.144390 4.400850 0.089190 
#    z 3.409260 0.089190 -0.428250 
# 
# 
# High freq. dielectric constant tensor:
#      x y z
#    x 1.820750 -0.008140 -0.009970 
#    y -0.008140 1.901680 0.007350 
#    z -0.009970 0.007350 1.897370 
# 
# From -- ./inp_files/534079.got.cif
#   From: 2010.06.25/outbox.cif.g09.slc.cpg/sg2_268_cif.got.tgz:534079.got - 2010.06.27 13:26:56.
