data_PCOD8031133
_publ_section_title
;
Structure prediction by ZEFSAII (Michael W. Deem and Ramdas Pophale) SiO2 
 PCOD8031133
Probable space group: P -1
;
_chemical_formula_sum "Si O2"
_cell_formula_units_Z 14
_cell_length_a 9.253663
_cell_length_b 11.983873
_cell_length_c 23.869476
_cell_angle_alpha 25.891253
_cell_angle_beta 30.833451
_cell_angle_gamma 38.725006
_cell_volume 592.075090
_symmetry_space_group_name_H-M "P -1"
_symmetry_group_IT_number 2
_symmetry_cell_setting 'triclinic'
loop_
_space_group_symop_operation_xyz
x,y,z
-x,-y,-z
loop_
_atom_site_type_symbol
_atom_site_label
_atom_site_fract_x
_atom_site_fract_y
_atom_site_fract_z
Si Si1 0.806798 0.332794 0.558919
Si Si2 0.689067 0.750239 0.491096
Si Si3 0.947810 0.050863 0.847605
Si Si4 0.362233 0.748370 0.768579
Si Si5 0.189132 0.198904 0.813672
Si Si6 0.456395 0.365122 0.822215
Si Si7 0.042749 0.285523 0.376908
O O1 0.757057 0.631789 0.459569
O O2 0.518411 0.174742 0.731440
O O3 0.914798 0.323471 0.464092
O O4 0.026782 0.207867 0.586556
O O5 0.475297 0.558326 0.677097
O O6 0.534339 0.026320 0.409686
O O7 0.777946 0.291672 0.767233
O O8 0.162090 0.139011 0.783534
O O9 0.095035 0.863875 0.837951
O O10 0.707254 0.879557 0.033806
O O11 0.285063 0.504745 0.867027
O O12 0.623637 0.667324 0.757462
O O13 0.088975 0.498554 0.718941
O O14 0.000000 0.000000 0.000000
O O15 0.000000 0.000000 0.500000
#
# Coordination Sequence:
#
# PCOD8031133 Si02
#       7
#     2   2   2   2   2   2   2
#     4  11  23  43  71  98 138 187 225 281 345 414
#     4  11  22  42  69 106 131 171 234 283 337 401
#     4  11  24  44  68  95 141 186 220 278 349 413
#     4  12  23  42  69 103 137 170 230 283 340 410
#     4  12  25  47  68  98 140 187 232 284 348 411
#     4  11  23  43  69 101 138 179 226 278 340 411
#     4  12  25  44  69 102 140 181 235 284 344 413
#
# _framework density 23.645648000000001
#
# number of rings (size 3 to 8) (size 9 to 14) (size 15 to 20)
#    0.000    0.571    2.857    6.429    0.000    1.143 
#    2.571    1.429    0.000    0.000    0.000    0.000 
#    0.000    0.000    0.000    0.000    0.000    0.000 
#
# Total GULP energy -173581.841223 kJ/mol
# GULP energy per Si atom -12398.702944 kJ/mol
# Density = 2.359183 g / cm^3
# Si number density = 23.645648 Si / 1000 Ang^3
#
#
#
# Elastic Constant Matrix: (Units=GPa)
#
#
# Indices 1 2 3 4 5 6 
#
# 1 79.9545 24.3836 19.0577 -1.8577 -3.3923 9.7015
# 2 24.3836 118.6186 23.2090 -2.5427 5.3391 14.4311
# 3 19.0577 23.2090 85.8902 -12.4164 0.7428 -0.3238
# 4 -1.8577 -2.5427 -12.4164 34.0615 1.9285 -3.9008
# 5 -3.3923 5.3391 0.7428 1.9285 33.7893 -3.7949
# 6 9.7015 14.4311 -0.3238 -3.9008 -3.7949 36.5392
#
#
#
# Elastic Compliance Matrix: (Units=1/GPa)
#
#
# Indices 1 2 3 4 5 6 
#
# 1 0.014198 -0.002123 -0.002715 -0.000791 0.001542 -0.002879
# 2 -0.002123 0.009830 -0.002253 -0.000498 -0.002094 -0.003609
# 3 -0.002715 -0.002253 0.013573 0.004901 -0.000244 0.002229
# 4 -0.000791 -0.000498 0.004901 0.031569 -0.001499 0.003665
# 5 0.001542 -0.002094 -0.000244 -0.001499 0.030557 0.003429
# 6 -0.002879 -0.003609 0.002229 0.003665 0.003429 0.030325
#
#
# Mechanical properties :
#
#
# Convention : Reuss Voigt Hill
#
# Bulk Modulus (GPa) = 42.70035 46.41823 44.55929
# Shear Modulus (GPa) = 32.88576 35.39886 34.14231
#
# Velocity S-wave (km/s) = 3.73335 3.87338 3.80401
# Velocity P-wave (km/s) = 6.05653 6.29901 6.17896
#
# Compressibility (1/GPa) = 0.02341901
#
# Stress axis : x y z
#
# Youngs Moduli (GPa) = 70.43083 101.72606 73.67646
#
# Poissons Ratio (x) = 0.21601 0.20004
# Poissons Ratio (y) = 0.14956 0.16597
# Poissons Ratio (z) = 0.19123 0.22915
#
# Static dielectric constant tensor:
#      x y z
#    x 4.247590 0.061600 -0.099660 
#    y 0.061600 4.407490 -0.162790 
#    z -0.099660 -0.162790 4.247860 
# 
# 
# High freq. dielectric constant tensor:
#      x y z
#    x 1.931530 0.007030 -0.010120 
#    y 0.007030 1.941390 -0.005850 
#    z -0.010120 -0.005850 1.944760 
# 
# From -- ./inp_files/607737.got.cif
#   From: 2010.06.25/outbox.cif.g09.slc.cpg/sg2_304_cif.got.tgz:607737.got - 2010.06.27 13:26:56.
