data_PCOD8031341
_publ_section_title
;
Structure prediction by ZEFSAII (Michael W. Deem and Ramdas Pophale) SiO2 
 PCOD8031341
Probable space group: P -1
;
_chemical_formula_sum "Si O2"
_cell_formula_units_Z 16
_cell_length_a 12.432575
_cell_length_b 9.191339
_cell_length_c 20.902083
_cell_angle_alpha 132.961724
_cell_angle_beta 29.187861
_cell_angle_gamma 142.263681
_cell_volume 712.586664
_symmetry_space_group_name_H-M "P -1"
_symmetry_group_IT_number 2
_symmetry_cell_setting 'triclinic'
loop_
_space_group_symop_operation_xyz
x,y,z
-x,-y,-z
loop_
_atom_site_type_symbol
_atom_site_label
_atom_site_fract_x
_atom_site_fract_y
_atom_site_fract_z
Si Si1 0.521666 0.991014 0.709559
Si Si2 0.731453 0.959491 0.373563
Si Si3 0.328594 0.747090 0.043086
Si Si4 0.438639 0.527509 0.807877
Si Si5 0.141717 0.993912 0.815155
Si Si6 0.012353 0.737227 0.548307
Si Si7 0.448070 0.243303 0.936622
Si Si8 0.266146 0.497041 0.759247
O O1 0.263203 0.885959 0.766153
O O2 0.795610 0.118153 0.566967
O O3 0.562106 0.194465 0.799304
O O4 0.471654 0.753291 0.697824
O O5 0.908673 0.091604 0.258055
O O6 0.630635 0.681098 0.350584
O O7 0.500000 0.000000 0.500000
O O8 0.903825 0.093001 0.384284
O O9 0.415574 0.793284 0.085200
O O10 0.017524 0.630095 0.164872
O O11 0.409898 0.594781 0.914665
O O12 0.500000 0.000000 0.000000
O O13 0.375930 0.267641 0.774215
O O14 0.243974 0.535029 0.858787
O O15 0.720714 0.678722 0.671079
O O16 0.864603 0.943691 0.967897
O O17 0.000000 0.500000 0.500000
O O18 0.500000 0.500000 0.000000
#
# Coordination Sequence:
#
# PCOD8031341 Si02
#       8
#     2   2   2   2   2   2   2   2
#     4  12  25  44  67 103 148 181 230 296 356 402
#     4  11  23  46  72 102 132 183 240 278 346 425
#     4  12  23  43  69 102 137 181 236 289 343 419
#     4  11  22  43  70  97 135 187 235 279 344 420
#     4  11  22  44  70  97 134 187 231 284 338 420
#     4  12  24  44  71 101 137 186 240 283 343 427
#     4  12  26  42  68 106 142 184 231 288 354 411
#     4  11  25  44  68 105 141 181 230 299 356 406
#
# _framework density 22.453410000000002
#
# number of rings (size 3 to 8) (size 9 to 14) (size 15 to 20)
#    0.000    0.500    2.500    7.500    1.750    1.000 
#    0.000    0.000    0.000    0.000    0.000    0.000 
#    0.000    0.000    0.000    0.000    0.000    0.000 
#
# Total GULP energy -198260.980804 kJ/mol
# GULP energy per Si atom -12391.311300 kJ/mol
# Density = 2.240231 g / cm^3
# Si number density = 22.453410 Si / 1000 Ang^3
#
#
#
# Elastic Constant Matrix: (Units=GPa)
#
#
# Indices 1 2 3 4 5 6 
#
# 1 113.4619 39.7141 36.7087 8.1576 11.0243 2.8188
# 2 39.7141 116.4692 32.4213 5.6813 7.1082 -4.8703
# 3 36.7087 32.4213 117.1468 -1.1640 3.0411 8.8161
# 4 8.1576 5.6813 -1.1640 34.0685 8.7018 -1.8902
# 5 11.0243 7.1082 3.0411 8.7018 46.0809 3.6972
# 6 2.8188 -4.8703 8.8161 -1.8902 3.6972 40.1036
#
#
#
# Elastic Compliance Matrix: (Units=1/GPa)
#
#
# Indices 1 2 3 4 5 6 
#
# 1 0.010947 -0.002845 -0.002583 -0.001848 -0.001622 -0.000485
# 2 -0.002845 0.010307 -0.002095 -0.000803 -0.000775 0.001946
# 3 -0.002583 -0.002095 0.010101 0.001125 0.000244 -0.002263
# 4 -0.001848 -0.000803 0.001125 0.031497 -0.005599 0.001786
# 5 -0.001622 -0.000775 0.000244 -0.005599 0.023447 -0.002459
# 6 -0.000485 0.001946 -0.002263 0.001786 -0.002459 0.026014
#
#
# Mechanical properties :
#
#
# Convention : Reuss Voigt Hill
#
# Bulk Modulus (GPa) = 61.31646 62.75178 62.03412
# Shear Modulus (GPa) = 37.65161 39.93285 38.79223
#
# Velocity S-wave (km/s) = 4.09941 4.22177 4.16104
# Velocity P-wave (km/s) = 7.05510 7.19533 7.12556
#
# Compressibility (1/GPa) = 0.01630884
#
# Stress axis : x y z
#
# Youngs Moduli (GPa) = 91.34518 97.01898 99.00293
#
# Poissons Ratio (x) = 0.27603 0.25571
# Poissons Ratio (y) = 0.25988 0.20745
# Poissons Ratio (z) = 0.23593 0.20329
#
# Static dielectric constant tensor:
#      x y z
#    x 4.359570 0.204550 0.086630 
#    y 0.204550 4.242410 0.027690 
#    z 0.086630 0.027690 3.956390 
# 
# 
# High freq. dielectric constant tensor:
#      x y z
#    x 1.904690 0.007940 0.003360 
#    y 0.007940 1.889900 0.002030 
#    z 0.003360 0.002030 1.879270 
# 
# From -- ./inp_files/402920.got.cif
#   From: 2010.06.25/outbox.cif.g09.slc.cpg/sg2_202_cif.got.tgz:402920.got - 2010.06.27 13:26:56.
