data_PCOD8031625
_publ_section_title
;
Structure prediction by ZEFSAII (Michael W. Deem and Ramdas Pophale) SiO2 
 PCOD8031625
Probable space group: P -1
;
_chemical_formula_sum "Si O2"
_cell_formula_units_Z 14
_cell_length_a 9.449229
_cell_length_b 11.066870
_cell_length_c 15.427979
_cell_angle_alpha 119.631570
_cell_angle_beta 133.591726
_cell_angle_gamma 97.730813
_cell_volume 665.797743
_symmetry_space_group_name_H-M "P -1"
_symmetry_group_IT_number 2
_symmetry_cell_setting 'triclinic'
loop_
_space_group_symop_operation_xyz
x,y,z
-x,-y,-z
loop_
_atom_site_type_symbol
_atom_site_label
_atom_site_fract_x
_atom_site_fract_y
_atom_site_fract_z
Si Si1 0.313826 0.786419 0.391698
Si Si2 0.227913 0.978094 0.184962
Si Si3 0.641034 0.243608 0.303128
Si Si4 0.702536 0.497184 0.826364
Si Si5 0.801103 0.927002 0.082302
Si Si6 0.129210 0.347409 0.463252
Si Si7 0.727336 0.615674 0.058878
O O1 0.288372 0.647114 0.263935
O O2 0.006133 0.695370 0.252728
O O3 0.500000 0.000000 0.500000
O O4 0.482494 0.836741 0.568100
O O5 0.004599 0.986278 0.108618
O O6 0.358274 0.037311 0.164559
O O7 0.035818 0.737206 0.038550
O O8 0.782546 0.461158 0.480268
O O9 0.901234 0.266712 0.416486
O O10 0.523908 0.214181 0.144840
O O11 0.440326 0.449395 0.659739
O O12 0.633545 0.458388 0.886675
O O13 0.788603 0.801555 0.107997
O O14 0.949528 0.147209 0.255892
O O15 0.500000 0.500000 0.000000
#
# Coordination Sequence:
#
# PCOD8031625 Si02
#       7
#     2   2   2   2   2   2   2
#     4  12  23  45  66  93 131 172 212 261 320 380
#     4  11  24  40  67  96 126 168 217 257 315 387
#     4  11  25  41  66  95 130 167 213 262 318 381
#     4  11  23  44  66  93 135 166 212 267 320 372
#     4  11  22  45  63  93 133 165 210 266 318 376
#     4  11  23  41  66  91 131 170 206 264 324 370
#     4  11  25  42  70  96 129 167 217 267 317 382
#
# _framework density 21.027407
#
# number of rings (size 3 to 8) (size 9 to 14) (size 15 to 20)
#    0.000    0.857    7.143    1.286    2.000    2.857 
#    0.000    1.429    0.000    0.000    0.000    0.000 
#    0.000    0.000    0.000    0.000    0.000    0.000 
#
# Total GULP energy -173464.889799 kJ/mol
# GULP energy per Si atom -12390.349271 kJ/mol
# Density = 2.097955 g / cm^3
# Si number density = 21.027407 Si / 1000 Ang^3
#
#
#
# Elastic Constant Matrix: (Units=GPa)
#
#
# Indices 1 2 3 4 5 6 
#
# 1 130.2611 55.6875 57.3115 23.5925 18.4207 5.2454
# 2 55.6875 55.5328 34.3767 12.5757 -2.9061 2.7169
# 3 57.3115 34.3767 112.5053 14.1718 -8.5973 -8.5751
# 4 23.5925 12.5757 14.1718 29.1607 -6.1472 -0.7095
# 5 18.4207 -2.9061 -8.5973 -6.1472 41.8842 9.6079
# 6 5.2454 2.7169 -8.5751 -0.7095 9.6079 35.7371
#
#
#
# Elastic Compliance Matrix: (Units=1/GPa)
#
#
# Indices 1 2 3 4 5 6 
#
# 1 0.020021 -0.015294 -0.005247 -0.009660 -0.012385 0.000103
# 2 -0.015294 0.035625 -0.002675 0.000228 0.009522 -0.003661
# 3 -0.005247 -0.002675 0.012911 0.000061 0.004100 0.002970
# 4 -0.009660 0.000228 0.000061 0.044267 0.010921 -0.000642
# 5 -0.012385 0.009522 0.004100 0.010921 0.033998 -0.006846
# 6 0.000103 -0.003661 0.002970 -0.000642 -0.006846 0.030786
#
#
# Mechanical properties :
#
#
# Convention : Reuss Voigt Hill
#
# Bulk Modulus (GPa) = 45.19765 65.89451 55.54608
# Shear Modulus (GPa) = 21.60628 31.41797 26.51212
#
# Velocity S-wave (km/s) = 3.20899 3.86961 3.55468
# Velocity P-wave (km/s) = 5.93898 7.16733 6.58187
#
# Compressibility (1/GPa) = 0.02212504
#
# Stress axis : x y z
#
# Youngs Moduli (GPa) = 49.94848 28.06997 77.45400
#
# Poissons Ratio (x) = 0.42929 0.40643
# Poissons Ratio (y) = 0.76389 0.20718
# Poissons Ratio (z) = 0.26210 0.07508
#
# Static dielectric constant tensor:
#      x y z
#    x 4.992820 0.467010 -2.995100 
#    y 0.467010 3.991280 -1.735710 
#    z -2.995100 -1.735710 12.304700 
# 
# 
# High freq. dielectric constant tensor:
#      x y z
#    x 1.828190 -0.018540 0.010960 
#    y -0.018540 1.802920 -0.000920 
#    z 0.010960 -0.000920 1.844800 
# 
# From -- ./inp_files/188134.got.cif
#   From: 2010.06.25/outbox.cif.g09.slc.cpg/sg2_95_cif.got.tgz:188134.got - 2010.06.27 13:26:56.
