data_PCOD8031923
_publ_section_title
;
Structure prediction by ZEFSAII (Michael W. Deem and Ramdas Pophale) SiO2 
 PCOD8031923
Probable space group: P -1
;
_chemical_formula_sum "Si O2"
_cell_formula_units_Z 16
_cell_length_a 11.420670
_cell_length_b 9.325284
_cell_length_c 14.465473
_cell_angle_alpha 149.158538
_cell_angle_beta 111.553204
_cell_angle_gamma 71.779149
_cell_volume 734.566407
_symmetry_space_group_name_H-M "P -1"
_symmetry_group_IT_number 2
_symmetry_cell_setting 'triclinic'
loop_
_space_group_symop_operation_xyz
x,y,z
-x,-y,-z
loop_
_atom_site_type_symbol
_atom_site_label
_atom_site_fract_x
_atom_site_fract_y
_atom_site_fract_z
Si Si1 0.876498 0.777952 0.036796
Si Si2 0.835312 0.266714 0.874458
Si Si3 0.630627 0.431940 0.046648
Si Si4 0.271187 0.735787 0.644894
Si Si5 0.273577 0.487007 0.313088
Si Si6 0.600578 0.976453 0.412911
Si Si7 0.473835 0.029128 0.116765
Si Si8 0.347691 0.184291 0.465354
O O1 0.026178 0.790389 0.079437
O O2 0.832097 0.078251 0.228704
O O3 0.829266 0.540173 0.961406
O O4 0.826390 0.703244 0.878028
O O5 0.781518 0.992005 0.655537
O O6 0.740540 0.283864 0.941542
O O7 0.682777 0.744621 0.255262
O O8 0.500000 0.500000 0.000000
O O9 0.601442 0.244570 0.024513
O O10 0.218965 0.608482 0.462036
O O11 0.392976 0.932447 0.769705
O O12 0.313530 0.489050 0.588661
O O13 0.316704 0.742073 0.401277
O O14 0.393766 0.302082 0.268963
O O15 0.461865 0.036692 0.357025
O O16 0.580586 0.814526 0.415198
O O17 0.500000 0.000000 0.000000
#
# Coordination Sequence:
#
# PCOD8031923 Si02
#       8
#     2   2   2   2   2   2   2   2
#     4  11  26  48  71  95 140 193 228 281 344 411
#     4  11  24  48  69  97 138 181 237 282 338 415
#     4  12  24  40  70 104 133 178 229 285 344 408
#     4  12  25  43  69 104 139 179 227 287 351 406
#     4  12  24  43  68 104 135 179 233 281 343 414
#     4  11  23  38  66 102 133 171 220 286 343 402
#     4  12  24  41  70 105 146 178 223 287 353 407
#     4  11  23  41  65 100 137 171 222 281 344 403
#
# _framework density 21.781558
#
# number of rings (size 3 to 8) (size 9 to 14) (size 15 to 20)
#    0.000    0.500    5.000    4.125    1.750    0.500 
#    2.250    4.375    0.000    0.000    0.000    0.000 
#    0.000    0.000    0.000    0.000    0.000    0.000 
#
# Total GULP energy -198288.354844 kJ/mol
# GULP energy per Si atom -12393.022178 kJ/mol
# Density = 2.173198 g / cm^3
# Si number density = 21.781558 Si / 1000 Ang^3
#
#
#
# Elastic Constant Matrix: (Units=GPa)
#
#
# Indices 1 2 3 4 5 6 
#
# 1 114.3636 48.3795 51.4698 0.8656 -5.7661 -9.5394
# 2 48.3795 105.1843 47.8373 8.4157 -11.6554 -3.5801
# 3 51.4698 47.8373 122.7367 4.9116 -15.5831 -7.1202
# 4 0.8656 8.4157 4.9116 43.8136 0.4501 3.6533
# 5 -5.7661 -11.6554 -15.5831 0.4501 31.8181 3.7133
# 6 -9.5394 -3.5801 -7.1202 3.6533 3.7133 26.3772
#
#
#
# Elastic Compliance Matrix: (Units=1/GPa)
#
#
# Indices 1 2 3 4 5 6 
#
# 1 0.012273 -0.004132 -0.003568 0.000714 -0.001398 0.003013
# 2 -0.004132 0.013235 -0.003032 -0.002098 0.002715 -0.000608
# 3 -0.003568 -0.003032 0.011382 -0.000740 0.003717 0.000950
# 4 0.000714 -0.002098 -0.000740 0.023586 -0.000943 -0.003360
# 5 -0.001398 0.002715 0.003717 -0.000943 0.034453 -0.003853
# 6 0.003013 -0.000608 0.000950 -0.003360 -0.003853 0.040183
#
#
# Mechanical properties :
#
#
# Convention : Reuss Voigt Hill
#
# Bulk Modulus (GPa) = 64.82500 70.85089 67.83795
# Shear Modulus (GPa) = 30.91825 33.37498 32.14661
#
# Velocity S-wave (km/s) = 3.77167 3.91865 3.84587
# Velocity P-wave (km/s) = 6.98523 7.28512 7.13675
#
# Compressibility (1/GPa) = 0.01542615
#
# Stress axis : x y z
#
# Youngs Moduli (GPa) = 81.47962 75.55936 87.85781
#
# Poissons Ratio (x) = 0.31221 0.31344
# Poissons Ratio (y) = 0.33668 0.26640
# Poissons Ratio (z) = 0.29069 0.22911
#
# Static dielectric constant tensor:
#      x y z
#    x 3.507500 -0.227060 -0.329240 
#    y -0.227060 3.700500 0.061410 
#    z -0.329240 0.061410 4.720160 
# 
# 
# High freq. dielectric constant tensor:
#      x y z
#    x 1.828080 0.005110 -0.006000 
#    y 0.005110 1.860280 0.010030 
#    z -0.006000 0.010030 1.874250 
# 
# From -- ./inp_files/262583.got.cif
#   From: 2010.06.25/outbox.cif.g09.slc.cpg/sg2_132_cif.got.tgz:262583.got - 2010.06.27 13:26:56.
