data_PCOD8031063
_publ_section_title
;
Structure prediction by ZEFSAII (Michael W. Deem and Ramdas Pophale) SiO2 
 PCOD8031063
Probable space group: P -1
;
_chemical_formula_sum "Si O2"
_cell_formula_units_Z 14
_cell_length_a 16.592822
_cell_length_b 6.675206
_cell_length_c 9.230053
_cell_angle_alpha 48.188258
_cell_angle_beta 123.244642
_cell_angle_gamma 105.938838
_cell_volume 630.463421
_symmetry_space_group_name_H-M "P -1"
_symmetry_group_IT_number 2
_symmetry_cell_setting 'triclinic'
loop_
_space_group_symop_operation_xyz
x,y,z
-x,-y,-z
loop_
_atom_site_type_symbol
_atom_site_label
_atom_site_fract_x
_atom_site_fract_y
_atom_site_fract_z
Si Si1 0.942145 0.745095 0.237673
Si Si2 0.059353 0.244541 0.102417
Si Si3 0.467370 0.723323 0.560081
Si Si4 0.736913 0.866813 0.484886
Si Si5 0.747280 0.850349 0.173295
Si Si6 0.384270 0.574738 0.820916
Si Si7 0.364485 0.595163 0.246966
O O1 0.840990 0.804100 0.190083
O O2 0.000000 0.500000 0.500000
O O3 0.925714 0.670632 0.090121
O O4 0.997126 0.002808 0.173513
O O5 0.163575 0.138634 0.326433
O O6 0.000000 0.500000 0.000000
O O7 0.380141 0.657894 0.607270
O O8 0.430881 0.737749 0.353655
O O9 0.566345 0.500809 0.776652
O O10 0.500000 0.000000 0.500000
O O11 0.764064 0.759496 0.400618
O O12 0.673380 0.663135 0.595418
O O13 0.673825 0.169088 0.272669
O O14 0.668795 0.691308 0.091792
O O15 0.720220 0.175306 0.997545
O O16 0.500000 0.500000 0.000000
#
# Coordination Sequence:
#
# PCOD8031063 Si02
#       7
#     2   2   2   2   2   2   2
#     4  11  26  48  74 104 142 181 229 292 357 423
#     4  11  26  47  76 105 138 182 234 289 356 426
#     4  11  22  42  65  92 135 186 230 282 338 397
#     4  12  26  45  70 105 141 184 235 290 353 421
#     4  12  27  44  69 105 142 180 239 291 349 419
#     4  12  26  42  68 100 145 188 240 288 347 411
#     4  11  25  41  68  96 136 185 233 284 343 405
#
# _framework density 22.205888999999999
#
# number of rings (size 3 to 8) (size 9 to 14) (size 15 to 20)
#    0.000    0.571    2.857    4.286    4.000   10.286 
#    0.000    0.000    0.000    0.000    0.000    0.000 
#    0.000    0.000    0.000    0.000    0.000    0.000 
#
# Total GULP energy -173573.895402 kJ/mol
# GULP energy per Si atom -12398.135386 kJ/mol
# Density = 2.215535 g / cm^3
# Si number density = 22.205889 Si / 1000 Ang^3
#
#
#
# Elastic Constant Matrix: (Units=GPa)
#
#
# Indices 1 2 3 4 5 6 
#
# 1 158.6572 58.0925 42.3810 3.2122 6.4929 -14.9721
# 2 58.0925 122.3444 40.3214 -3.0778 8.5535 -4.4628
# 3 42.3810 40.3214 102.8793 -7.4656 17.4345 -1.9489
# 4 3.2122 -3.0778 -7.4656 36.5469 2.7650 4.5156
# 5 6.4929 8.5535 17.4345 2.7650 41.5753 0.4069
# 6 -14.9721 -4.4628 -1.9489 4.5156 0.4069 40.8868
#
#
#
# Elastic Compliance Matrix: (Units=1/GPa)
#
#
# Indices 1 2 3 4 5 6 
#
# 1 0.008383 -0.003176 -0.002364 -0.001867 0.000432 0.002812
# 2 -0.003176 0.010626 -0.002709 0.000691 -0.000598 -0.000203
# 3 -0.002364 -0.002709 0.012741 0.003035 -0.004610 -0.000843
# 4 -0.001867 0.000691 0.003035 0.028880 -0.003009 -0.003623
# 5 0.000432 -0.000598 -0.004610 -0.003009 0.026242 -0.000056
# 6 0.002812 -0.000203 -0.000843 -0.003623 -0.000056 0.025826
#
#
# Mechanical properties :
#
#
# Convention : Reuss Voigt Hill
#
# Bulk Modulus (GPa) = 65.56152 73.94119 69.75135
# Shear Modulus (GPa) = 37.23579 40.00753 38.62166
#
# Velocity S-wave (km/s) = 4.09937 4.24921 4.17496
# Velocity P-wave (km/s) = 7.21075 7.57922 7.39728
#
# Compressibility (1/GPa) = 0.01525285
#
# Stress axis : x y z
#
# Youngs Moduli (GPa) = 119.29302 94.10724 78.48582
#
# Poissons Ratio (x) = 0.29887 0.18554
# Poissons Ratio (y) = 0.37886 0.21260
# Poissons Ratio (z) = 0.28201 0.25491
#
# Static dielectric constant tensor:
#      x y z
#    x 4.095180 -0.066250 -0.503100 
#    y -0.066250 4.249640 0.073860 
#    z -0.503100 0.073860 4.263100 
# 
# 
# High freq. dielectric constant tensor:
#      x y z
#    x 1.891840 -0.008460 -0.004460 
#    y -0.008460 1.890150 -0.002340 
#    z -0.004460 -0.002340 1.878870 
# 
# From -- ./inp_files/138853.got.cif
#   From: 2010.06.25/outbox.cif.g09.slc.cpg/sg2_70_cif.got.tgz:138853.got - 2010.06.27 13:26:56.
