data_PCOD8031710
_publ_section_title
;
Structure prediction by ZEFSAII (Michael W. Deem and Ramdas Pophale) SiO2 
 PCOD8031710
Probable space group: P -1
;
_chemical_formula_sum "Si O2"
_cell_formula_units_Z 16
_cell_length_a 14.362069
_cell_length_b 10.984645
_cell_length_c 14.302193
_cell_angle_alpha 149.710074
_cell_angle_beta 140.437331
_cell_angle_gamma 57.087324
_cell_volume 670.241116
_symmetry_space_group_name_H-M "P -1"
_symmetry_group_IT_number 2
_symmetry_cell_setting 'triclinic'
loop_
_space_group_symop_operation_xyz
x,y,z
-x,-y,-z
loop_
_atom_site_type_symbol
_atom_site_label
_atom_site_fract_x
_atom_site_fract_y
_atom_site_fract_z
Si Si1 0.348292 0.516536 0.137244
Si Si2 0.580433 0.652410 0.254063
Si Si3 0.257259 0.730957 0.846891
Si Si4 0.067217 0.204447 0.102003
Si Si5 0.015691 0.417710 0.599306
Si Si6 0.867031 0.938773 0.432547
Si Si7 0.423407 0.307444 0.397493
Si Si8 0.156913 0.827675 0.251723
O O1 0.455627 0.694185 0.255980
O O2 0.452984 0.558796 0.337408
O O3 0.190183 0.573843 0.075476
O O4 0.292734 0.219542 0.854833
O O5 0.678408 0.496852 0.276647
O O6 0.680518 0.939434 0.489178
O O7 0.500000 0.500000 0.000000
O O8 0.138547 0.656668 0.793851
O O9 0.146603 0.754349 0.692805
O O10 0.402499 0.009117 0.159559
O O11 0.251844 0.288768 0.283823
O O12 0.037293 0.464357 0.273906
O O13 0.977806 0.115141 0.873993
O O14 0.000000 0.000000 0.000000
O O15 0.110810 0.243433 0.588867
O O16 0.869442 0.183709 0.661634
O O17 0.000000 0.000000 0.500000
O O18 0.500000 0.500000 0.500000
#
# Coordination Sequence:
#
# PCOD8031710 Si02
#       8
#     2   2   2   2   2   2   2   2
#     4  12  27  48  70 109 149 198 243 304 384 450
#     4  12  23  43  73 110 150 187 245 312 380 434
#     4  11  23  43  74 106 146 193 250 305 372 437
#     4  12  24  45  75 111 144 195 255 306 368 447
#     4  11  22  45  73 106 138 192 257 313 350 436
#     4  12  28  47  73 107 148 198 251 308 372 445
#     4  12  29  47  71 110 157 196 241 316 389 448
#     4  12  25  46  79 107 145 194 254 308 366 448
#
# _framework density 23.872005999999999
#
# number of rings (size 3 to 8) (size 9 to 14) (size 15 to 20)
#    0.000    0.250    5.000    4.125    3.500    1.500 
#    0.000    1.250    0.000    0.000    0.000    0.000 
#    0.000    0.000    0.000    0.000    0.000    0.000 
#
# Total GULP energy -198303.290437 kJ/mol
# GULP energy per Si atom -12393.955652 kJ/mol
# Density = 2.381767 g / cm^3
# Si number density = 23.872006 Si / 1000 Ang^3
#
#
#
# Elastic Constant Matrix: (Units=GPa)
#
#
# Indices 1 2 3 4 5 6 
#
# 1 151.3441 25.5674 24.5840 -7.2317 -4.9291 7.7161
# 2 25.5674 53.2433 32.2410 -29.7496 -4.8625 4.9382
# 3 24.5840 32.2410 94.9600 -35.5771 -10.1952 18.9062
# 4 -7.2317 -29.7496 -35.5771 39.3996 -0.2168 -7.1133
# 5 -4.9291 -4.8625 -10.1952 -0.2168 43.1293 -0.2620
# 6 7.7161 4.9382 18.9062 -7.1133 -0.2620 44.0229
#
#
#
# Elastic Compliance Matrix: (Units=1/GPa)
#
#
# Indices 1 2 3 4 5 6 
#
# 1 0.007512 -0.004644 -0.001635 -0.003730 -0.000074 -0.000697
# 2 -0.004644 0.036357 -0.001529 0.025514 0.003344 0.001535
# 3 -0.001635 -0.001529 0.018177 0.014068 0.003977 -0.005051
# 4 -0.003730 0.025514 0.014068 0.056875 0.006068 0.000976
# 5 -0.000074 0.003344 0.003977 0.006068 0.024520 -0.000944
# 6 -0.000697 0.001535 -0.005051 0.000976 -0.000944 0.024987
#
#
# Mechanical properties :
#
#
# Convention : Reuss Voigt Hill
#
# Bulk Modulus (GPa) = 21.53779 51.59247 36.56513
# Shear Modulus (GPa) = 25.06024 39.78737 32.42381
#
# Velocity S-wave (km/s) = 3.24354 4.08695 3.68942
# Velocity P-wave (km/s) = 4.80304 6.62796 5.78788
#
# Compressibility (1/GPa) = 0.04643001
#
# Stress axis : x y z
#
# Youngs Moduli (GPa) = 133.11338 27.50521 55.01555
#
# Poissons Ratio (x) = 0.12773 0.08995
# Poissons Ratio (y) = 0.61814 0.08413
# Poissons Ratio (z) = 0.21763 0.04206
#
# Static dielectric constant tensor:
#      x y z
#    x 4.831340 -0.329900 -0.496070 
#    y -0.329900 4.232320 0.125240 
#    z -0.496070 0.125240 4.945820 
# 
# 
# High freq. dielectric constant tensor:
#      x y z
#    x 1.960780 -0.005630 -0.012930 
#    y -0.005630 1.926320 -0.014940 
#    z -0.012930 -0.014940 1.959220 
# 
# From -- ./inp_files/532828.got.cif
#   From: 2010.06.25/outbox.cif.g09.slc.cpg/sg2_267_cif.got.tgz:532828.got - 2010.06.27 13:26:56.
