data_PCOD8031683
_publ_section_title
;
Structure prediction by ZEFSAII (Michael W. Deem and Ramdas Pophale) SiO2 
 PCOD8031683
Probable space group: P -1
;
_chemical_formula_sum "Si O2"
_cell_formula_units_Z 16
_cell_length_a 15.765816
_cell_length_b 5.156243
_cell_length_c 11.435197
_cell_angle_alpha 102.643844
_cell_angle_beta 130.296971
_cell_angle_gamma 91.654346
_cell_volume 673.423487
_symmetry_space_group_name_H-M "P -1"
_symmetry_group_IT_number 2
_symmetry_cell_setting 'triclinic'
loop_
_space_group_symop_operation_xyz
x,y,z
-x,-y,-z
loop_
_atom_site_type_symbol
_atom_site_label
_atom_site_fract_x
_atom_site_fract_y
_atom_site_fract_z
Si Si1 0.358607 0.529430 0.688828
Si Si2 0.876354 0.408797 0.826240
Si Si3 0.857072 0.824631 0.649609
Si Si4 0.406681 0.480439 0.076557
Si Si5 0.031894 0.801952 0.606424
Si Si6 0.706309 0.133132 0.134876
Si Si7 0.488435 0.745032 0.596018
Si Si8 0.347106 0.755730 0.263434
O O1 0.256779 0.278937 0.538398
O O2 0.459477 0.416883 0.834172
O O3 0.309552 0.747503 0.740088
O O4 0.426587 0.687712 0.657423
O O5 0.850848 0.648182 0.744982
O O6 0.788806 0.349551 0.852109
O O7 0.866077 0.138999 0.714745
O O8 0.000000 0.500000 0.000000
O O9 0.966528 0.809134 0.669898
O O10 0.394743 0.516756 0.212577
O O11 0.325390 0.657939 0.966445
O O12 0.370738 0.167207 0.976567
O O13 0.164127 0.889126 0.766669
O O14 0.000000 0.500000 0.500000
O O15 0.000000 0.000000 0.500000
O O16 0.500000 0.500000 0.500000
O O17 0.397713 0.858400 0.446487
O O18 0.608687 0.968094 0.746496
#
# Coordination Sequence:
#
# PCOD8031683 Si02
#       8
#     2   2   2   2   2   2   2   2
#     4  12  25  49  78 111 155 196 266 307 380 459
#     4  12  29  49  74 112 153 197 251 318 389 461
#     4  12  28  48  80 109 150 200 259 321 381 450
#     4  12  28  47  74 108 159 203 239 316 383 457
#     4  12  26  51  78 108 145 197 262 322 373 443
#     4  12  29  48  75 109 154 201 254 311 383 450
#     4  11  22  45  71 106 142 188 248 314 361 447
#     4  11  26  43  74 106 147 195 252 303 391 444
#
# _framework density 23.759195999999999
#
# number of rings (size 3 to 8) (size 9 to 14) (size 15 to 20)
#    0.000    0.250    3.750    4.125    5.250    2.000 
#    0.000    0.000    0.000    0.000    0.000    0.000 
#    0.000    0.000    0.000    0.000    0.000    0.000 
#
# Total GULP energy -198382.048516 kJ/mol
# GULP energy per Si atom -12398.878032 kJ/mol
# Density = 2.370512 g / cm^3
# Si number density = 23.759196 Si / 1000 Ang^3
#
#
#
# Elastic Constant Matrix: (Units=GPa)
#
#
# Indices 1 2 3 4 5 6 
#
# 1 158.0021 16.6238 43.8509 16.4936 25.3079 0.9047
# 2 16.6238 100.5690 35.1496 6.8622 2.4503 2.5179
# 3 43.8509 35.1496 137.7740 12.7194 24.1278 -1.3763
# 4 16.4936 6.8622 12.7194 47.3342 -7.3114 -3.4013
# 5 25.3079 2.4503 24.1278 -7.3114 49.1459 -1.6241
# 6 0.9047 2.5179 -1.3763 -3.4013 -1.6241 35.5238
#
#
#
# Elastic Compliance Matrix: (Units=1/GPa)
#
#
# Indices 1 2 3 4 5 6 
#
# 1 0.007660 -0.000471 -0.001421 -0.002832 -0.003666 -0.000656
# 2 -0.000471 0.011035 -0.002783 -0.000607 0.000938 -0.000893
# 3 -0.001421 -0.002783 0.009334 -0.002219 -0.004036 0.000198
# 4 -0.002832 -0.000607 -0.002219 0.023947 0.006227 0.002607
# 5 -0.003666 0.000938 -0.004036 0.006227 0.025150 0.001616
# 6 -0.000656 -0.000893 0.000198 0.002607 0.001616 0.028561
#
#
# Mechanical properties :
#
#
# Convention : Reuss Voigt Hill
#
# Bulk Modulus (GPa) = 53.53268 65.28817 59.41043
# Shear Modulus (GPa) = 41.23347 46.44884 43.84116
#
# Velocity S-wave (km/s) = 4.17042 4.42632 4.30027
# Velocity P-wave (km/s) = 6.76536 7.32542 7.05096
#
# Compressibility (1/GPa) = 0.01868018
#
# Stress axis : x y z
#
# Youngs Moduli (GPa) = 130.55617 90.62323 107.13551
#
# Poissons Ratio (x) = 0.04264 0.15222
# Poissons Ratio (y) = 0.06143 0.29812
# Poissons Ratio (z) = 0.18550 0.25217
#
# Static dielectric constant tensor:
#      x y z
#    x 5.069830 0.352410 -0.700970 
#    y 0.352410 4.681650 -0.750230 
#    z -0.700970 -0.750230 6.070960 
# 
# 
# High freq. dielectric constant tensor:
#      x y z
#    x 1.958060 -0.002950 -0.002420 
#    y -0.002950 1.949570 0.003390 
#    z -0.002420 0.003390 1.956670 
# 
# From -- ./inp_files/442199.got.cif
#   From: 2010.06.25/outbox.cif.g09.slc.cpg/sg2_222_cif.got.tgz:442199.got - 2010.06.27 13:26:56.
