data_PCOD8031294
_publ_section_title
;
Structure prediction by ZEFSAII (Michael W. Deem and Ramdas Pophale) SiO2 
 PCOD8031294
Probable space group: P -1
;
_chemical_formula_sum "Si O2"
_cell_formula_units_Z 16
_cell_length_a 30.886783
_cell_length_b 9.938427
_cell_length_c 11.347338
_cell_angle_alpha 130.827691
_cell_angle_beta 149.034210
_cell_angle_gamma 28.146927
_cell_volume 766.716382
_symmetry_space_group_name_H-M "P -1"
_symmetry_group_IT_number 2
_symmetry_cell_setting 'triclinic'
loop_
_space_group_symop_operation_xyz
x,y,z
-x,-y,-z
loop_
_atom_site_type_symbol
_atom_site_label
_atom_site_fract_x
_atom_site_fract_y
_atom_site_fract_z
Si Si1 0.869911 0.167498 0.206524
Si Si2 0.322658 0.168712 0.908468
Si Si3 0.693118 0.316678 0.080621
Si Si4 0.652684 0.708620 0.380310
Si Si5 0.359928 0.936811 0.616941
Si Si6 0.091650 0.665898 0.053719
Si Si7 0.160103 0.272746 0.791869
Si Si8 0.086796 0.190955 0.084203
O O1 0.786805 0.475186 0.127618
O O2 0.754830 0.246992 0.055027
O O3 0.000000 0.000000 0.500000
O O4 0.938943 0.937959 0.128331
O O5 0.276647 0.104804 0.862280
O O6 0.293013 0.143889 0.695482
O O7 0.494055 0.925165 0.186264
O O8 0.717324 0.447021 0.293509
O O9 0.777538 0.000555 0.146285
O O10 0.519899 0.574872 0.810171
O O11 0.764166 0.535196 0.649034
O O12 0.632922 0.928598 0.391734
O O13 0.259519 0.943436 0.352332
O O14 0.148250 0.468974 0.956281
O O15 0.981414 0.725143 0.898733
O O16 0.000000 0.000000 0.000000
O O17 0.000000 0.500000 0.500000
O O18 0.000000 0.500000 0.000000
#
# Coordination Sequence:
#
# PCOD8031294 Si02
#       8
#     2   2   2   2   2   2   2   2
#     4  12  22  38  65  95 126 168 219 261 317 388
#     4  11  23  43  68  93 129 176 214 258 330 390
#     4  11  23  41  67  97 129 173 211 268 326 379
#     4  11  22  44  69  94 134 168 215 271 321 392
#     4  11  22  43  68  98 133 164 219 270 323 384
#     4  12  26  45  66  93 134 174 213 266 332 385
#     4  12  26  44  64  97 134 168 219 271 320 389
#     4  12  24  39  65  95 128 171 214 271 320 374
#
# _framework density 20.868210999999999
#
# number of rings (size 3 to 8) (size 9 to 14) (size 15 to 20)
#    0.000    0.500    3.750    6.000    0.000    5.000 
#    0.000    0.000    0.000    0.000    0.000    0.000 
#    0.000    0.000    0.000    0.000    0.000    0.000 
#
# Total GULP energy -198511.888897 kJ/mol
# GULP energy per Si atom -12406.993056 kJ/mol
# Density = 2.082071 g / cm^3
# Si number density = 20.868211 Si / 1000 Ang^3
#
#
#
# Elastic Constant Matrix: (Units=GPa)
#
#
# Indices 1 2 3 4 5 6 
#
# 1 88.9075 1.6910 24.8440 -0.4290 9.0925 -1.6260
# 2 1.6910 98.4754 24.7539 -12.4585 -11.9485 8.8456
# 3 24.8440 24.7539 147.4185 -2.6459 -4.5693 -2.8426
# 4 -0.4290 -12.4585 -2.6459 24.0689 3.1987 -2.5303
# 5 9.0925 -11.9485 -4.5693 3.1987 37.4869 -1.1399
# 6 -1.6260 8.8456 -2.8426 -2.5303 -1.1399 35.2507
#
#
#
# Elastic Compliance Matrix: (Units=1/GPa)
#
#
# Indices 1 2 3 4 5 6 
#
# 1 0.012186 -0.000043 -0.002133 0.000427 -0.003256 0.000326
# 2 -0.000043 0.011896 -0.001853 0.005269 0.003046 -0.002660
# 3 -0.002133 -0.001853 0.007497 -0.000187 0.000887 0.000986
# 4 0.000427 0.005269 -0.000187 0.044747 -0.002210 0.001823
# 5 -0.003256 0.003046 0.000887 -0.002210 0.028731 -0.000073
# 6 0.000326 -0.002660 0.000986 0.001823 -0.000073 0.029259
#
#
# Mechanical properties :
#
#
# Convention : Reuss Voigt Hill
#
# Bulk Modulus (GPa) = 42.51575 48.59772 45.55674
# Shear Modulus (GPa) = 33.28569 38.26212 35.77391
#
# Velocity S-wave (km/s) = 3.99813 4.28660 4.14488
# Velocity P-wave (km/s) = 6.45996 6.91653 6.69214
#
# Compressibility (1/GPa) = 0.02352069
#
# Stress axis : x y z
#
# Youngs Moduli (GPa) = 82.06402 84.05934 133.38397
#
# Poissons Ratio (x) = 0.00364 0.28455
# Poissons Ratio (y) = 0.00356 0.24711
# Poissons Ratio (z) = 0.17507 0.15573
#
# Static dielectric constant tensor:
#      x y z
#    x 3.925370 -0.165210 -0.076700 
#    y -0.165210 2.935300 -1.333320 
#    z -0.076700 -1.333320 2.023770 
# 
# 
# High freq. dielectric constant tensor:
#      x y z
#    x 1.825840 -0.000690 0.004100 
#    y -0.000690 1.823420 -0.006230 
#    z 0.004100 -0.006230 1.828570 
# 
# From -- ./inp_files/187816.got.cif
#   From: 2010.06.25/outbox.cif.g09.slc.cpg/sg2_94_cif.got.tgz:187816.got - 2010.06.27 13:26:56.
