data_PCOD8031917
_publ_section_title
;
Structure prediction by ZEFSAII (Michael W. Deem and Ramdas Pophale) SiO2 
 PCOD8031917
Probable space group: P -1
;
_chemical_formula_sum "Si O2"
_cell_formula_units_Z 12
_cell_length_a 14.949572
_cell_length_b 11.247614
_cell_length_c 18.601285
_cell_angle_alpha 149.426870
_cell_angle_beta 21.613639
_cell_angle_gamma 150.852556
_cell_volume 539.785525
_symmetry_space_group_name_H-M "P -1"
_symmetry_group_IT_number 2
_symmetry_cell_setting 'triclinic'
loop_
_space_group_symop_operation_xyz
x,y,z
-x,-y,-z
loop_
_atom_site_type_symbol
_atom_site_label
_atom_site_fract_x
_atom_site_fract_y
_atom_site_fract_z
Si Si1 0.547053 0.233669 0.005733
Si Si2 0.254804 0.551496 0.180492
Si Si3 0.822545 0.048055 0.218374
Si Si4 0.723957 0.339075 0.083407
Si Si5 0.350418 0.185320 0.628729
Si Si6 0.990731 0.730614 0.580046
O O1 0.716883 0.397696 0.898812
O O2 0.436484 0.938193 0.907856
O O3 0.741546 0.286089 0.956674
O O4 0.306203 0.319891 0.249035
O O5 0.191626 0.768789 0.382510
O O6 0.997533 0.302629 0.261558
O O7 0.500000 0.500000 0.000000
O O8 0.576594 0.087706 0.386857
O O9 0.709946 0.824778 0.245285
O O10 0.000000 0.000000 0.000000
O O11 0.565141 0.523558 0.307284
O O12 0.000000 0.500000 0.000000
O O13 0.086182 0.998053 0.689514
O O14 0.000000 0.500000 0.500000
#
# Coordination Sequence:
#
# PCOD8031917 Si02
#       6
#     2   2   2   2   2   2
#     4  11  25  46  71  99 139 183 226 282 342 404
#     4  12  23  40  66 103 136 170 222 282 351 405
#     4  11  23  38  65 100 133 169 225 290 342 401
#     4  11  24  47  72  94 139 192 232 274 332 410
#     4  11  23  42  66  98 134 178 228 277 343 405
#     4  12  22  41  68 100 139 175 216 286 354 401
#
# _framework density 22.231052999999999
#
# number of rings (size 3 to 8) (size 9 to 14) (size 15 to 20)
#    0.000    0.667    5.000    3.000    2.333    0.000 
#    3.000   10.000    0.000    0.000    0.000    0.000 
#    0.000    0.000    0.000    0.000    0.000    0.000 
#
# Total GULP energy -148743.552313 kJ/mol
# GULP energy per Si atom -12395.296026 kJ/mol
# Density = 2.218045 g / cm^3
# Si number density = 22.231053 Si / 1000 Ang^3
#
#
#
# Elastic Constant Matrix: (Units=GPa)
#
#
# Indices 1 2 3 4 5 6 
#
# 1 98.5718 24.9058 36.8090 -7.7267 -1.5356 12.7898
# 2 24.9058 93.2816 13.7773 9.9503 -12.1086 5.9076
# 3 36.8090 13.7773 133.9075 -2.4154 13.4083 -10.6352
# 4 -7.7267 9.9503 -2.4154 35.1993 -0.1208 -1.7718
# 5 -1.5356 -12.1086 13.4083 -0.1208 31.2685 0.2839
# 6 12.7898 5.9076 -10.6352 -1.7718 0.2839 38.6019
#
#
#
# Elastic Compliance Matrix: (Units=1/GPa)
#
#
# Indices 1 2 3 4 5 6 
#
# 1 0.013168 -0.002833 -0.003777 0.003193 0.001225 -0.004832
# 2 -0.002833 0.012953 -0.001309 -0.004438 0.005436 -0.001648
# 3 -0.003777 -0.001309 0.009453 0.000380 -0.004782 0.004109
# 4 0.003193 -0.004438 0.000380 0.030443 -0.001617 0.001135
# 5 0.001225 0.005436 -0.004782 -0.001617 0.036217 -0.002896
# 6 -0.004832 -0.001648 0.004109 0.001135 -0.002896 0.028964
#
#
# Mechanical properties :
#
#
# Convention : Reuss Voigt Hill
#
# Bulk Modulus (GPa) = 50.67175 52.97169 51.82172
# Shear Modulus (GPa) = 32.54899 37.69853 35.12376
#
# Velocity S-wave (km/s) = 3.83054 4.12243 3.97916
# Velocity P-wave (km/s) = 6.51204 6.82193 6.66879
#
# Compressibility (1/GPa) = 0.01973486
#
# Stress axis : x y z
#
# Youngs Moduli (GPa) = 75.94435 77.19921 105.78979
#
# Poissons Ratio (x) = 0.21874 0.39956
# Poissons Ratio (y) = 0.21518 0.13849
# Poissons Ratio (z) = 0.28683 0.10107
#
# Static dielectric constant tensor:
#      x y z
#    x 4.080640 0.117070 0.006050 
#    y 0.117070 4.403040 0.104490 
#    z 0.006050 0.104490 4.454810 
# 
# 
# High freq. dielectric constant tensor:
#      x y z
#    x 1.876660 0.015710 -0.006800 
#    y 0.015710 1.883730 0.015810 
#    z -0.006800 0.015810 1.864410 
# 
# From -- ./inp_files/425938.got.cif
#   From: 2010.06.25/outbox.cif.g09.slc.cpg/sg2_213_cif.got.tgz:425938.got - 2010.06.27 13:26:56.
