data_PCOD8031779
_publ_section_title
;
Structure prediction by ZEFSAII (Michael W. Deem and Ramdas Pophale) SiO2 
 PCOD8031779
Probable space group: P -1
;
_chemical_formula_sum "Si O2"
_cell_formula_units_Z 16
_cell_length_a 9.458000
_cell_length_b 10.417480
_cell_length_c 9.146706
_cell_angle_alpha 101.887941
_cell_angle_beta 122.196594
_cell_angle_gamma 68.077652
_cell_volume 707.453788
_symmetry_space_group_name_H-M "P -1"
_symmetry_group_IT_number 2
_symmetry_cell_setting 'triclinic'
loop_
_space_group_symop_operation_xyz
x,y,z
-x,-y,-z
loop_
_atom_site_type_symbol
_atom_site_label
_atom_site_fract_x
_atom_site_fract_y
_atom_site_fract_z
Si Si1 0.699753 0.464922 0.139578
Si Si2 0.235871 0.597206 0.525538
Si Si3 0.676538 0.156620 0.500784
Si Si4 0.999565 0.074886 0.863559
Si Si5 0.301886 0.293617 0.425048
Si Si6 0.315033 0.010309 0.827098
Si Si7 0.831858 0.706521 0.342869
Si Si8 0.999304 0.359712 0.048248
O O1 0.736266 0.369821 0.282179
O O2 0.713552 0.613966 0.215697
O O3 0.829380 0.389050 0.064695
O O4 0.500000 0.500000 0.000000
O O5 0.301657 0.694252 0.479103
O O6 0.337551 0.439166 0.502655
O O7 0.030659 0.616398 0.397234
O O8 0.835354 0.066690 0.670777
O O9 0.490916 0.176606 0.482917
O O10 0.669381 0.089863 0.324239
O O11 0.181747 0.983020 0.866562
O O12 0.989292 0.236181 0.907796
O O13 0.000000 0.000000 0.000000
O O14 0.202156 0.250148 0.495858
O O15 0.183487 0.300102 0.219512
O O16 0.220170 0.164067 0.758837
O O17 0.500000 0.000000 0.000000
O O18 0.000000 0.500000 0.000000
#
# Coordination Sequence:
#
# PCOD8031779 Si02
#       8
#     2   2   2   2   2   2   2   2
#     4  11  25  39  71 106 139 185 236 302 358 429
#     4  11  22  46  72 103 143 188 239 296 368 422
#     4  12  28  46  75 104 145 194 239 300 361 436
#     4  12  30  47  72 110 147 187 248 305 362 432
#     4  11  24  44  71 107 140 189 240 300 358 432
#     4  12  29  50  74 100 144 197 242 295 362 443
#     4  11  23  47  72 101 147 186 244 291 368 424
#     4  12  25  44  71 103 148 188 242 298 366 425
#
# _framework density 22.616318
#
# number of rings (size 3 to 8) (size 9 to 14) (size 15 to 20)
#    0.000    0.500    3.750    3.750   12.250    0.500 
#    0.000    0.000    0.000    0.000    0.000    0.000 
#    0.000    0.000    0.000    0.000    0.000    0.000 
#
# Total GULP energy -198435.942257 kJ/mol
# GULP energy per Si atom -12402.246391 kJ/mol
# Density = 2.256484 g / cm^3
# Si number density = 22.616318 Si / 1000 Ang^3
#
#
#
# Elastic Constant Matrix: (Units=GPa)
#
#
# Indices 1 2 3 4 5 6 
#
# 1 107.8835 27.2796 47.4722 -11.4582 8.4032 -27.1792
# 2 27.2796 67.3808 31.7020 2.6328 0.4455 -14.1029
# 3 47.4722 31.7020 141.7169 -0.9176 16.3360 -11.8600
# 4 -11.4582 2.6328 -0.9176 35.2332 -3.0982 -4.4827
# 5 8.4032 0.4455 16.3360 -3.0982 45.9377 -7.7369
# 6 -27.1792 -14.1029 -11.8600 -4.4827 -7.7369 44.4175
#
#
#
# Elastic Compliance Matrix: (Units=1/GPa)
#
#
# Indices 1 2 3 4 5 6 
#
# 1 0.013878 -0.002686 -0.003434 0.005587 0.000322 0.007342
# 2 -0.002686 0.018165 -0.003103 -0.001707 0.001885 0.003451
# 3 -0.003434 -0.003103 0.009119 -0.001060 -0.002868 -0.001258
# 4 0.005587 -0.001707 -0.001060 0.031309 0.002526 0.006193
# 5 0.000322 0.001885 -0.002868 0.002526 0.023623 0.004399
# 6 0.007342 0.003451 -0.001258 0.006193 0.004399 0.029157
#
#
# Mechanical properties :
#
#
# Convention : Reuss Voigt Hill
#
# Bulk Modulus (GPa) = 44.02485 58.87654 51.45069
# Shear Modulus (GPa) = 33.05330 39.15283 36.10307
#
# Velocity S-wave (km/s) = 3.82708 4.16525 3.99974
# Velocity P-wave (km/s) = 6.24795 7.01582 6.64299
#
# Compressibility (1/GPa) = 0.02271445
#
# Stress axis : x y z
#
# Youngs Moduli (GPa) = 72.05823 55.05024 109.65684
#
# Poissons Ratio (x) = 0.14789 0.37660
# Poissons Ratio (y) = 0.19358 0.34028
# Poissons Ratio (z) = 0.24747 0.17083
#
# Static dielectric constant tensor:
#      x y z
#    x 4.226810 -0.003550 -0.134550 
#    y -0.003550 4.048340 0.032950 
#    z -0.134550 0.032950 4.254080 
# 
# 
# High freq. dielectric constant tensor:
#      x y z
#    x 1.903950 -0.004680 -0.004430 
#    y -0.004680 1.888320 0.000080 
#    z -0.004430 0.000080 1.905480 
# 
# From -- ./inp_files/188789.got.cif
#   From: 2010.06.25/outbox.cif.g09.slc.cpg/sg2_95_cif.got.tgz:188789.got - 2010.06.27 13:26:56.
