data_PCOD8031293
_publ_section_title
;
Structure prediction by ZEFSAII (Michael W. Deem and Ramdas Pophale) SiO2 
 PCOD8031293
Probable space group: P -1
;
_chemical_formula_sum "Si O2"
_cell_formula_units_Z 16
_cell_length_a 8.995211
_cell_length_b 11.870084
_cell_length_c 21.158716
_cell_angle_alpha 140.817725
_cell_angle_beta 150.031237
_cell_angle_gamma 49.761192
_cell_volume 710.658864
_symmetry_space_group_name_H-M "P -1"
_symmetry_group_IT_number 2
_symmetry_cell_setting 'triclinic'
loop_
_space_group_symop_operation_xyz
x,y,z
-x,-y,-z
loop_
_atom_site_type_symbol
_atom_site_label
_atom_site_fract_x
_atom_site_fract_y
_atom_site_fract_z
Si Si1 0.192979 0.377149 0.178429
Si Si2 0.407187 0.105987 0.588042
Si Si3 0.464162 0.070159 0.087219
Si Si4 0.001338 0.262421 0.715076
Si Si5 0.636799 0.257542 0.006899
Si Si6 0.860170 0.861391 0.623506
Si Si7 0.178618 0.495270 0.496866
Si Si8 0.815378 0.602956 0.289516
O O1 0.260641 0.240316 0.086745
O O2 0.501827 0.393171 0.338514
O O3 0.116384 0.576620 0.214704
O O4 0.925109 0.286624 0.081834
O O5 0.316336 0.206749 0.534814
O O6 0.385242 0.234796 0.695834
O O7 0.748789 0.052301 0.687413
O O8 0.195581 0.921889 0.431494
O O9 0.792266 0.122850 0.258710
O O10 0.311617 0.914980 0.007444
O O11 0.500000 0.000000 0.000000
O O12 0.341529 0.232639 0.844722
O O13 0.976718 0.330145 0.663290
O O14 0.607026 0.428051 0.116067
O O15 0.779502 0.717131 0.586740
O O16 0.000000 0.500000 0.500000
O O17 0.008689 0.561531 0.403042
#
# Coordination Sequence:
#
# PCOD8031293 Si02
#       8
#     2   2   2   2   2   2   2   2
#     4  11  24  44  71  96 136 183 223 278 348 395
#     4  11  22  43  68  98 131 177 225 278 331 399
#     4  12  25  44  67 102 138 180 227 279 339 411
#     4  11  24  46  68  96 137 181 228 277 336 403
#     4  11  26  47  68  97 142 182 225 280 338 408
#     4  11  23  41  67  97 131 176 220 277 341 396
#     4  12  22  42  70  97 138 170 225 288 339 392
#     4  11  24  42  68 100 132 177 231 276 333 403
#
# _framework density 22.514320000000001
#
# number of rings (size 3 to 8) (size 9 to 14) (size 15 to 20)
#    0.000    0.750    5.000    3.000    0.000    4.000 
#    2.250    1.250    0.000    0.000    0.000    0.000 
#    0.000    0.000    0.000    0.000    0.000    0.000 
#
# Total GULP energy -198313.835716 kJ/mol
# GULP energy per Si atom -12394.614732 kJ/mol
# Density = 2.246308 g / cm^3
# Si number density = 22.514320 Si / 1000 Ang^3
#
#
#
# Elastic Constant Matrix: (Units=GPa)
#
#
# Indices 1 2 3 4 5 6 
#
# 1 84.0621 47.1976 29.9396 -0.6560 -3.2862 -18.9089
# 2 47.1976 113.7518 21.7462 10.0362 -7.8786 -16.8801
# 3 29.9396 21.7462 59.5051 3.9998 9.7824 -9.7562
# 4 -0.6560 10.0362 3.9998 39.8114 -2.0936 -7.3841
# 5 -3.2862 -7.8786 9.7824 -2.0936 38.0741 4.3218
# 6 -18.9089 -16.8801 -9.7562 -7.3841 4.3218 51.1595
#
#
#
# Elastic Compliance Matrix: (Units=1/GPa)
#
#
# Indices 1 2 3 4 5 6 
#
# 1 0.018814 -0.006014 -0.007175 0.003378 0.001963 0.003923
# 2 -0.006014 0.012075 -0.001394 -0.002722 0.002083 0.000926
# 3 -0.007175 -0.001394 0.022449 -0.002119 -0.006957 0.001451
# 4 0.003378 -0.002722 -0.002119 0.026830 0.001327 0.003707
# 5 0.001963 0.002083 -0.006957 0.001327 0.028972 -0.002170
# 6 0.003923 0.000926 0.001451 0.003707 -0.002170 0.022297
#
#
# Mechanical properties :
#
#
# Convention : Reuss Voigt Hill
#
# Bulk Modulus (GPa) = 41.37251 50.56509 45.96880
# Shear Modulus (GPa) = 29.64541 36.37139 33.00840
#
# Velocity S-wave (km/s) = 3.63262 4.02366 3.83313
# Velocity P-wave (km/s) = 6.00088 6.64035 6.32870
#
# Compressibility (1/GPa) = 0.02417064
#
# Stress axis : x y z
#
# Youngs Moduli (GPa) = 53.15296 82.81571 44.54607
#
# Poissons Ratio (x) = 0.49809 0.31960
# Poissons Ratio (y) = 0.31969 0.06211
# Poissons Ratio (z) = 0.38135 0.11547
#
# Static dielectric constant tensor:
#      x y z
#    x 4.223700 -0.208190 0.161430 
#    y -0.208190 4.627280 0.234840 
#    z 0.161430 0.234840 4.098420 
# 
# 
# High freq. dielectric constant tensor:
#      x y z
#    x 1.878170 -0.010520 0.011990 
#    y -0.010520 1.909650 0.011980 
#    z 0.011990 0.011980 1.876620 
# 
# From -- ./inp_files/589669.got.cif
#   From: 2010.06.25/outbox.cif.g09.slc.cpg/sg2_295_cif.got.tgz:589669.got - 2010.06.27 13:26:56.
