data_PCOD8031941
_publ_section_title
;
Structure prediction by ZEFSAII (Michael W. Deem and Ramdas Pophale) SiO2 
 PCOD8031941
Probable space group: P -1
;
_chemical_formula_sum "Si O2"
_cell_formula_units_Z 16
_cell_length_a 12.625040
_cell_length_b 11.977954
_cell_length_c 14.466799
_cell_angle_alpha 152.033516
_cell_angle_beta 124.688878
_cell_angle_gamma 47.525361
_cell_volume 754.345372
_symmetry_space_group_name_H-M "P -1"
_symmetry_group_IT_number 2
_symmetry_cell_setting 'triclinic'
loop_
_space_group_symop_operation_xyz
x,y,z
-x,-y,-z
loop_
_atom_site_type_symbol
_atom_site_label
_atom_site_fract_x
_atom_site_fract_y
_atom_site_fract_z
Si Si1 0.588737 0.634599 0.529371
Si Si2 0.377366 0.133755 0.460178
Si Si3 0.089787 0.603837 0.737086
Si Si4 0.840452 0.594234 0.904244
Si Si5 0.886892 0.415281 0.595418
Si Si6 0.943019 0.188850 0.804642
Si Si7 0.841907 0.044531 0.834260
Si Si8 0.425266 0.894518 0.813806
O O1 0.545194 0.757673 0.495764
O O2 0.758741 0.548801 0.556340
O O3 0.495521 0.857148 0.720394
O O4 0.560044 0.380570 0.339698
O O5 0.230386 0.355975 0.591127
O O6 0.317361 0.945261 0.240599
O O7 0.500000 0.000000 0.500000
O O8 0.009918 0.504842 0.699964
O O9 0.980290 0.754681 0.707792
O O10 0.151564 0.786097 0.951419
O O11 0.807846 0.530681 0.738301
O O12 0.838780 0.355157 0.790544
O O13 0.989512 0.614524 0.987450
O O14 0.736567 0.878313 0.104662
O O15 0.947590 0.097767 0.390903
O O16 0.856900 0.158356 0.826234
O O17 0.500000 0.000000 0.000000
#
# Coordination Sequence:
#
# PCOD8031941 Si02
#       8
#     2   2   2   2   2   2   2   2
#     4  11  25  43  69  97 128 177 229 271 326 406
#     4  12  27  45  65  99 143 180 214 277 344 398
#     4  11  24  41  75 100 127 174 233 276 326 397
#     4  11  24  39  63  99 128 170 212 276 339 383
#     4  12  20  42  71  95 127 167 224 280 326 387
#     4  11  23  39  63  96 134 164 216 276 332 394
#     4  11  23  43  71 100 129 177 228 276 330 399
#     4  11  24  44  67  93 130 172 221 272 327 395
#
# _framework density 21.210443999999999
#
# number of rings (size 3 to 8) (size 9 to 14) (size 15 to 20)
#    0.000    0.750    6.250    1.500    0.000    3.500 
#    0.000    0.000    0.000    0.000    0.000    0.000 
#    0.000    0.000    0.000    0.000    0.000    0.000 
#
# Total GULP energy -198349.945829 kJ/mol
# GULP energy per Si atom -12396.871614 kJ/mol
# Density = 2.116217 g / cm^3
# Si number density = 21.210444 Si / 1000 Ang^3
#
#
#
# Elastic Constant Matrix: (Units=GPa)
#
#
# Indices 1 2 3 4 5 6 
#
# 1 108.4641 53.9911 26.8318 1.2192 -5.4760 17.4663
# 2 53.9911 130.3668 30.0238 -4.4986 6.9020 20.8828
# 3 26.8318 30.0238 71.0340 -1.2067 0.9757 4.9176
# 4 1.2192 -4.4986 -1.2067 26.9409 -4.2493 9.6718
# 5 -5.4760 6.9020 0.9757 -4.2493 31.0014 -4.8050
# 6 17.4663 20.8828 4.9176 9.6718 -4.8050 36.4768
#
#
#
# Elastic Compliance Matrix: (Units=1/GPa)
#
#
# Indices 1 2 3 4 5 6 
#
# 1 0.012650 -0.004280 -0.002808 0.000066 0.002840 -0.002872
# 2 -0.004280 0.011213 -0.002647 0.003312 -0.003546 -0.005358
# 3 -0.002808 -0.002647 0.016223 0.000151 -0.000305 0.000593
# 4 0.000066 0.003312 0.000151 0.042795 0.003139 -0.012881
# 5 0.002840 -0.003546 -0.000305 0.003139 0.034677 0.004447
# 6 -0.002872 -0.005358 0.000593 -0.012881 0.004447 0.035779
#
#
# Mechanical properties :
#
#
# Convention : Reuss Voigt Hill
#
# Bulk Modulus (GPa) = 48.50697 59.06201 53.78449
# Shear Modulus (GPa) = 27.82742 32.15169 29.98956
#
# Velocity S-wave (km/s) = 3.62604 3.89761 3.76427
# Velocity P-wave (km/s) = 6.36002 6.93983 6.65624
#
# Compressibility (1/GPa) = 0.02061559
#
# Stress axis : x y z
#
# Youngs Moduli (GPa) = 79.05110 89.18025 61.64110
#
# Poissons Ratio (x) = 0.38172 0.17310
# Poissons Ratio (y) = 0.33836 0.16315
# Poissons Ratio (z) = 0.22200 0.23604
#
# Static dielectric constant tensor:
#      x y z
#    x 3.561020 0.435460 0.378640 
#    y 0.435460 3.392110 -0.348040 
#    z 0.378640 -0.348040 3.761570 
# 
# 
# High freq. dielectric constant tensor:
#      x y z
#    x 1.831730 0.010130 0.004840 
#    y 0.010130 1.826500 -0.005130 
#    z 0.004840 -0.005130 1.842900 
# 
# From -- ./inp_files/451285.got.cif
#   From: 2010.06.25/outbox.cif.g09.slc.cpg/sg2_226_cif.got.tgz:451285.got - 2010.06.27 13:26:56.
