data_PCOD8031129
_publ_section_title
;
Structure prediction by ZEFSAII (Michael W. Deem and Ramdas Pophale) SiO2 
 PCOD8031129
Probable space group: P -1
;
_chemical_formula_sum "Si O2"
_cell_formula_units_Z 14
_cell_length_a 7.848918
_cell_length_b 11.345623
_cell_length_c 11.427544
_cell_angle_alpha 76.410215
_cell_angle_beta 86.610201
_cell_angle_gamma 140.377588
_cell_volume 581.551843
_symmetry_space_group_name_H-M "P -1"
_symmetry_group_IT_number 2
_symmetry_cell_setting 'triclinic'
loop_
_space_group_symop_operation_xyz
x,y,z
-x,-y,-z
loop_
_atom_site_type_symbol
_atom_site_label
_atom_site_fract_x
_atom_site_fract_y
_atom_site_fract_z
Si Si1 0.320162 0.040051 0.619791
Si Si2 0.292712 0.096348 0.356594
Si Si3 0.927089 0.523820 0.240096
Si Si4 0.189754 0.435835 0.277638
Si Si5 0.015318 0.046810 0.169806
Si Si6 0.812592 0.714361 0.108397
Si Si7 0.938614 0.291607 0.562971
O O1 0.096016 0.799976 0.695885
O O2 0.304696 0.100782 0.732702
O O3 0.227071 0.071935 0.504718
O O4 0.643174 0.180012 0.551354
O O5 0.634560 0.284003 0.281168
O O6 0.190178 0.145793 0.263720
O O7 0.131585 0.886533 0.359488
O O8 0.945021 0.655506 0.130004
O O9 0.177524 0.567208 0.193905
O O10 0.931019 0.564302 0.366138
O O11 0.479700 0.533479 0.203356
O O12 0.183291 0.441128 0.418173
O O13 0.157099 0.232987 0.041266
O O14 0.010203 0.918730 0.129263
#
# Coordination Sequence:
#
# PCOD8031129 Si02
#       7
#     2   2   2   2   2   2   2
#     4  11  22  43  71 100 140 173 218 289 342 395
#     4  11  22  42  69 102 136 173 226 278 345 397
#     4  12  23  42  73 103 135 182 225 275 342 404
#     4  11  23  43  69 102 138 174 227 279 335 408
#     4  11  25  48  64  95 144 178 229 288 325 405
#     4  11  27  46  67  99 136 188 232 270 338 403
#     4  11  22  43  67 104 143 168 223 281 342 405
#
# _framework density 24.073519999999998
#
# number of rings (size 3 to 8) (size 9 to 14) (size 15 to 20)
#    0.000    0.857    4.286    3.429    2.000    4.000 
#    2.571    3.571    0.000    0.000    0.000    0.000 
#    0.000    0.000    0.000    0.000    0.000    0.000 
#
# Total GULP energy -173516.899859 kJ/mol
# GULP energy per Si atom -12394.064276 kJ/mol
# Density = 2.401873 g / cm^3
# Si number density = 24.073520 Si / 1000 Ang^3
#
#
#
# Elastic Constant Matrix: (Units=GPa)
#
#
# Indices 1 2 3 4 5 6 
#
# 1 88.9523 7.7175 44.0080 1.9166 32.4013 -2.8804
# 2 7.7175 42.2215 17.1566 -6.0772 16.6980 6.1302
# 3 44.0080 17.1566 129.7491 14.7289 27.0854 16.0255
# 4 1.9166 -6.0772 14.7289 28.7823 -5.4719 0.4286
# 5 32.4013 16.6980 27.0854 -5.4719 40.4865 -7.7553
# 6 -2.8804 6.1302 16.0255 0.4286 -7.7553 32.9743
#
#
#
# Elastic Compliance Matrix: (Units=1/GPa)
#
#
# Indices 1 2 3 4 5 6 
#
# 1 0.017522 0.003393 -0.003358 -0.001283 -0.013468 -0.000619
# 2 0.003393 0.031863 -0.001439 0.004330 -0.015984 -0.008743
# 3 -0.003358 -0.001439 0.012467 -0.007790 -0.007601 -0.007771
# 4 -0.001283 0.004330 -0.007790 0.041755 0.011038 0.004922
# 5 -0.013468 -0.015984 -0.007601 0.011038 0.052015 0.017579
# 6 -0.000619 -0.008743 -0.007771 0.004922 0.017579 0.039745
#
#
# Mechanical properties :
#
#
# Convention : Reuss Voigt Hill
#
# Bulk Modulus (GPa) = 16.93621 44.29858 30.61740
# Shear Modulus (GPa) = 22.95077 33.25133 28.10105
#
# Velocity S-wave (km/s) = 3.09101 3.72054 3.42029
# Velocity P-wave (km/s) = 4.44855 6.07436 5.32388
#
# Compressibility (1/GPa) = 0.05904507
#
# Stress axis : x y z
#
# Youngs Moduli (GPa) = 57.06961 31.38408 80.20947
#
# Poissons Ratio (x) = -0.10650 0.26937
# Poissons Ratio (y) = -0.19366 0.11542
# Poissons Ratio (z) = 0.19166 0.04516
#
# Static dielectric constant tensor:
#      x y z
#    x 4.439290 -0.189360 0.137520 
#    y -0.189360 4.228900 0.011970 
#    z 0.137520 0.011970 4.289900 
# 
# 
# High freq. dielectric constant tensor:
#      x y z
#    x 1.954530 -0.007900 0.013470 
#    y -0.007900 1.960630 -0.003080 
#    z 0.013470 -0.003080 1.942240 
# 
# From -- ./inp_files/180236.got.cif
#   From: 2010.06.25/outbox.cif.g09.slc.cpg/sg2_91_cif.got.tgz:180236.got - 2010.06.27 13:26:56.
