data_PCOD8031389
_publ_section_title
;
Structure prediction by ZEFSAII (Michael W. Deem and Ramdas Pophale) SiO2 
 PCOD8031389
Probable space group: P -1
;
_chemical_formula_sum "Si O2"
_cell_formula_units_Z 16
_cell_length_a 13.108122
_cell_length_b 15.380865
_cell_length_c 9.821995
_cell_angle_alpha 43.454637
_cell_angle_beta 42.607322
_cell_angle_gamma 34.618855
_cell_volume 723.434727
_symmetry_space_group_name_H-M "P -1"
_symmetry_group_IT_number 2
_symmetry_cell_setting 'triclinic'
loop_
_space_group_symop_operation_xyz
x,y,z
-x,-y,-z
loop_
_atom_site_type_symbol
_atom_site_label
_atom_site_fract_x
_atom_site_fract_y
_atom_site_fract_z
Si Si1 0.462983 0.646185 0.285628
Si Si2 0.352735 0.279412 0.414024
Si Si3 0.097101 0.840978 0.255769
Si Si4 0.827698 0.744484 0.631662
Si Si5 0.377850 0.174264 0.989158
Si Si6 0.911482 0.631947 0.174957
Si Si7 0.273992 0.549864 0.001088
Si Si8 0.256071 0.817497 0.838137
O O1 0.500000 0.500000 0.500000
O O2 0.237720 0.768409 0.329701
O O3 0.510383 0.749121 0.206433
O O4 0.593393 0.576440 0.103068
O O5 0.289010 0.206667 0.450665
O O6 0.254531 0.304050 0.625811
O O7 0.583001 0.155780 0.351981
O O8 0.290808 0.450677 0.228830
O O9 0.984620 0.769963 0.434301
O O10 0.225389 0.791697 0.052339
O O11 0.941250 0.033295 0.205601
O O12 0.942835 0.559021 0.764741
O O13 0.673022 0.848012 0.784721
O O14 0.180853 0.292827 0.965298
O O15 0.500000 0.000000 0.000000
O O16 0.049907 0.675801 0.032962
O O17 0.339457 0.656532 0.853860
#
# Coordination Sequence:
#
# PCOD8031389 Si02
#       8
#     2   2   2   2   2   2   2   2
#     4  12  27  47  71  99 139 190 238 285 348 425
#     4  11  22  43  73 101 136 176 239 282 344 415
#     4  11  25  43  68 103 144 181 227 290 358 413
#     4  11  23  46  71  99 138 183 234 284 345 420
#     4  12  28  47  70 101 143 184 235 294 353 415
#     4  11  24  42  72 100 131 182 232 284 342 415
#     4  11  23  43  69  99 133 180 232 288 337 422
#     4  11  24  41  68 105 143 175 225 295 356 411
#
# _framework density 22.116714999999999
#
# number of rings (size 3 to 8) (size 9 to 14) (size 15 to 20)
#    0.000    0.750    3.750    4.500    8.750    0.500 
#    0.000    1.250    0.000    0.000    0.000    0.000 
#    0.000    0.000    0.000    0.000    0.000    0.000 
#
# Total GULP energy -198460.902826 kJ/mol
# GULP energy per Si atom -12403.806427 kJ/mol
# Density = 2.206638 g / cm^3
# Si number density = 22.116715 Si / 1000 Ang^3
#
#
#
# Elastic Constant Matrix: (Units=GPa)
#
#
# Indices 1 2 3 4 5 6 
#
# 1 128.8264 46.8254 31.2317 -1.2684 -15.1722 -14.3198
# 2 46.8254 89.6426 21.1813 10.2870 -1.1013 6.2073
# 3 31.2317 21.1813 65.4415 11.7318 -10.8819 -7.9812
# 4 -1.2684 10.2870 11.7318 34.0134 -5.4535 2.9388
# 5 -15.1722 -1.1013 -10.8819 -5.4535 36.6163 3.1101
# 6 -14.3198 6.2073 -7.9812 2.9388 3.1101 35.7003
#
#
#
# Elastic Compliance Matrix: (Units=1/GPa)
#
#
# Indices 1 2 3 4 5 6 
#
# 1 0.011693 -0.006049 -0.003074 0.003570 0.003906 0.004421
# 2 -0.006049 0.015718 -0.002583 -0.004122 -0.002979 -0.005138
# 3 -0.003074 -0.002583 0.019656 -0.005915 0.003285 0.003811
# 4 0.003570 -0.004122 -0.005915 0.033801 0.004833 -0.002377
# 5 0.003906 -0.002979 0.003285 0.004833 0.030556 -0.000241
# 6 0.004421 -0.005138 0.003811 -0.002377 -0.000241 0.031746
#
#
# Mechanical properties :
#
#
# Convention : Reuss Voigt Hill
#
# Bulk Modulus (GPa) = 42.27766 53.59862 47.93814
# Shear Modulus (GPa) = 28.65877 33.57747 31.11812
#
# Velocity S-wave (km/s) = 3.60362 3.90063 3.75506
# Velocity P-wave (km/s) = 6.03921 6.67635 6.36575
#
# Compressibility (1/GPa) = 0.02365316
#
# Stress axis : x y z
#
# Youngs Moduli (GPa) = 85.52179 63.62137 50.87629
#
# Poissons Ratio (x) = 0.38487 0.15638
# Poissons Ratio (y) = 0.51736 0.13144
# Poissons Ratio (z) = 0.26288 0.16436
#
# Static dielectric constant tensor:
#      x y z
#    x 4.365080 -0.199600 -0.187320 
#    y -0.199600 3.938460 0.037210 
#    z -0.187320 0.037210 3.983750 
# 
# 
# High freq. dielectric constant tensor:
#      x y z
#    x 1.885200 -0.009170 -0.009330 
#    y -0.009170 1.868480 0.004680 
#    z -0.009330 0.004680 1.868140 
# 
# From -- ./inp_files/187520.got.cif
#   From: 2010.06.25/outbox.cif.g09.slc.cpg/sg2_94_cif.got.tgz:187520.got - 2010.06.27 13:26:56.
