data_PCOD8031983
_publ_section_title
;
Structure prediction by ZEFSAII (Michael W. Deem and Ramdas Pophale) SiO2 
 PCOD8031983
Probable space group: P -1
;
_chemical_formula_sum "Si O2"
_cell_formula_units_Z 16
_cell_length_a 11.902062
_cell_length_b 11.668438
_cell_length_c 9.853807
_cell_angle_alpha 77.228734
_cell_angle_beta 51.868692
_cell_angle_gamma 107.930496
_cell_volume 855.760201
_symmetry_space_group_name_H-M "P -1"
_symmetry_group_IT_number 2
_symmetry_cell_setting 'triclinic'
loop_
_space_group_symop_operation_xyz
x,y,z
-x,-y,-z
loop_
_atom_site_type_symbol
_atom_site_label
_atom_site_fract_x
_atom_site_fract_y
_atom_site_fract_z
Si Si1 0.967950 0.175961 0.829909
Si Si2 0.724151 0.852646 0.081568
Si Si3 0.083261 0.465112 0.564430
Si Si4 0.044752 0.838780 0.843751
Si Si5 0.581772 0.404909 0.121625
Si Si6 0.020119 0.440462 0.139200
Si Si7 0.290492 0.164290 0.589065
Si Si8 0.532168 0.388414 0.851574
O O1 0.958770 0.293060 0.724852
O O2 0.141304 0.186848 0.656767
O O3 0.972826 0.209726 0.975539
O O4 0.795433 0.018665 0.964914
O O5 0.662865 0.803757 0.294889
O O6 0.562677 0.758448 0.125097
O O7 0.876373 0.835082 0.931143
O O8 0.270701 0.505445 0.372810
O O9 0.000000 0.500000 0.500000
O O10 0.100722 0.552632 0.662406
O O11 0.051537 0.726544 0.775172
O O12 0.219809 0.999903 0.649730
O O13 0.462943 0.271293 0.345689
O O14 0.562796 0.534061 0.130331
O O15 0.780224 0.461708 0.984556
O O16 0.523833 0.349537 0.025683
O O17 0.000000 0.500000 0.000000
#
# Coordination Sequence:
#
# PCOD8031983 Si02
#       8
#     2   2   2   2   2   2   2   2
#     4   9  18  38  61  89 120 155 193 249 299 343
#     4   9  19  36  65  90 115 151 202 249 291 347
#     4  12  24  41  58  85 127 163 192 237 306 362
#     4   9  18  38  60  92 119 150 199 247 296 348
#     4  11  23  40  59  91 121 154 203 251 286 343
#     4  12  24  39  62  87 124 160 193 246 302 354
#     4   9  19  36  65  90 115 149 203 255 287 337
#     4  11  23  40  60  87 124 157 202 243 288 357
#
# _framework density 18.696826999999999
#
# number of rings (size 3 to 8) (size 9 to 14) (size 15 to 20)
#    0.000    1.750    5.000    1.500    1.750    0.500 
#    2.250    3.750    0.000    0.000    0.000    0.000 
#    0.000    0.000    0.000    0.000    0.000    0.000 
#
# Total GULP energy -198427.633613 kJ/mol
# GULP energy per Si atom -12401.727101 kJ/mol
# Density = 1.865427 g / cm^3
# Si number density = 18.696827 Si / 1000 Ang^3
#
#
#
# Elastic Constant Matrix: (Units=GPa)
#
#
# Indices 1 2 3 4 5 6 
#
# 1 74.4154 26.4425 20.8333 -9.6368 13.7124 6.0190
# 2 26.4425 118.0542 47.7666 -9.9944 16.4903 5.0178
# 3 20.8333 47.7666 85.9569 -2.9453 6.6746 0.0662
# 4 -9.6368 -9.9944 -2.9453 30.1139 -2.2560 -0.7501
# 5 13.7124 16.4903 6.6746 -2.2560 25.5966 -3.2119
# 6 6.0190 5.0178 0.0662 -0.7501 -3.2119 30.2070
#
#
#
# Elastic Compliance Matrix: (Units=1/GPa)
#
#
# Indices 1 2 3 4 5 6 
#
# 1 0.016862 -0.001070 -0.002747 0.004094 -0.007756 -0.003899
# 2 -0.001070 0.012288 -0.006023 0.002650 -0.005836 -0.002370
# 3 -0.002747 -0.006023 0.015494 -0.001216 0.001409 0.001634
# 4 0.004094 0.002650 -0.001216 0.035227 -0.000534 -0.000435
# 5 -0.007756 -0.005836 0.001409 -0.000534 0.047516 0.007551
# 6 -0.003899 -0.002370 0.001634 -0.000435 0.007551 0.035064
#
#
# Mechanical properties :
#
#
# Convention : Reuss Voigt Hill
#
# Bulk Modulus (GPa) = 40.05699 52.05682 46.05690
# Shear Modulus (GPa) = 26.25337 29.40912 27.83124
#
# Velocity S-wave (km/s) = 3.75128 3.97034 3.86236
# Velocity P-wave (km/s) = 6.34301 6.99437 6.67664
#
# Compressibility (1/GPa) = 0.02496443
#
# Stress axis : x y z
#
# Youngs Moduli (GPa) = 59.30500 81.38205 64.54003
#
# Poissons Ratio (x) = 0.08705 0.17728
# Poissons Ratio (y) = 0.06344 0.38874
# Poissons Ratio (z) = 0.16290 0.49018
#
# Static dielectric constant tensor:
#      x y z
#    x 3.287150 0.056100 0.048230 
#    y 0.056100 3.512970 -0.060780 
#    z 0.048230 -0.060780 3.328770 
# 
# 
# High freq. dielectric constant tensor:
#      x y z
#    x 1.712950 0.000620 0.004850 
#    y 0.000620 1.732090 -0.003100 
#    z 0.004850 -0.003100 1.722360 
# 
# From -- ./inp_files/175362.got.cif
#   From: 2010.06.25/outbox.cif.g09.slc.cpg/sg2_88_cif.got.tgz:175362.got - 2010.06.27 13:26:56.
