data_PCOD8031259
_publ_section_title
;
Structure prediction by ZEFSAII (Michael W. Deem and Ramdas Pophale) SiO2 
 PCOD8031259
Probable space group: P -1
;
_chemical_formula_sum "Si O2"
_cell_formula_units_Z 16
_cell_length_a 15.903197
_cell_length_b 10.077059
_cell_length_c 11.264244
_cell_angle_alpha 48.486801
_cell_angle_beta 47.377023
_cell_angle_gamma 35.575879
_cell_volume 745.851711
_symmetry_space_group_name_H-M "P -1"
_symmetry_group_IT_number 2
_symmetry_cell_setting 'triclinic'
loop_
_space_group_symop_operation_xyz
x,y,z
-x,-y,-z
loop_
_atom_site_type_symbol
_atom_site_label
_atom_site_fract_x
_atom_site_fract_y
_atom_site_fract_z
Si Si1 0.871928 0.021655 0.483779
Si Si2 0.602363 0.732816 0.011865
Si Si3 0.789284 0.762265 0.144302
Si Si4 0.880868 0.656497 0.844795
Si Si5 0.413231 0.742460 0.005570
Si Si6 0.795004 0.276292 0.637047
Si Si7 0.606106 0.361679 0.370383
Si Si8 0.574330 0.766885 0.493549
O O1 0.862649 0.852461 0.669901
O O2 0.043565 0.880874 0.356782
O O3 0.822523 0.230652 0.495569
O O4 0.771509 0.130514 0.396663
O O5 0.537370 0.752420 0.932764
O O6 0.604305 0.549670 0.193203
O O7 0.777559 0.615339 0.903023
O O8 0.500000 0.000000 0.000000
O O9 0.666366 0.735128 0.307076
O O10 0.942886 0.584322 0.179556
O O11 0.821032 0.735919 0.989338
O O12 0.702465 0.033703 0.103968
O O13 0.307303 0.782310 0.189540
O O14 0.500000 0.500000 0.000000
O O15 0.701093 0.552161 0.587281
O O16 0.500000 0.500000 0.500000
O O17 0.547409 0.260532 0.405248
O O18 0.500000 0.000000 0.500000
#
# Coordination Sequence:
#
# PCOD8031259 Si02
#       8
#     2   2   2   2   2   2   2   2
#     4  11  23  40  70  96 134 166 221 280 323 382
#     4  12  24  42  65 100 133 168 221 275 323 389
#     4  11  24  40  69  97 129 177 218 271 334 383
#     4  11  23  41  65 101 132 164 222 279 326 383
#     4  12  25  44  67  95 135 177 217 267 332 399
#     4  11  22  43  65  95 130 172 222 267 324 388
#     4  12  24  41  67  99 130 172 222 270 328 384
#     4  12  25  45  67  95 135 176 220 266 326 401
#
# _framework density 21.451986000000002
#
# number of rings (size 3 to 8) (size 9 to 14) (size 15 to 20)
#    0.000    0.500    6.250    2.250    3.500    0.000 
#    0.000    2.500    0.000    0.000    0.000    0.000 
#    0.000    0.000    0.000    0.000    0.000    0.000 
#
# Total GULP energy -198304.029389 kJ/mol
# GULP energy per Si atom -12394.001837 kJ/mol
# Density = 2.140316 g / cm^3
# Si number density = 21.451986 Si / 1000 Ang^3
#
#
#
# Elastic Constant Matrix: (Units=GPa)
#
#
# Indices 1 2 3 4 5 6 
#
# 1 132.0125 90.0535 39.2795 -4.5373 -20.2799 -16.4885
# 2 90.0535 151.1675 42.4370 -32.3120 -10.3842 -19.3967
# 3 39.2795 42.4370 87.6548 -18.8443 -14.1646 -12.5349
# 4 -4.5373 -32.3120 -18.8443 37.9249 -6.3445 -0.8005
# 5 -20.2799 -10.3842 -14.1646 -6.3445 32.4891 -5.0113
# 6 -16.4885 -19.3967 -12.5349 -0.8005 -5.0113 40.1145
#
#
#
# Elastic Compliance Matrix: (Units=1/GPa)
#
#
# Indices 1 2 3 4 5 6 
#
# 1 0.015423 -0.009375 -0.003008 -0.006915 0.004161 0.001248
# 2 -0.009375 0.015557 0.000474 0.012882 0.002519 0.004389
# 3 -0.003008 0.000474 0.016794 0.009906 0.008376 0.005485
# 4 -0.006915 0.012882 0.009906 0.043993 0.014118 0.009124
# 5 0.004161 0.002519 0.008376 0.014118 0.042305 0.011113
# 6 0.001248 0.004389 0.005485 0.009124 0.011113 0.030848
#
#
# Mechanical properties :
#
#
# Convention : Reuss Voigt Hill
#
# Bulk Modulus (GPa) = 41.74465 79.37499 60.55982
# Shear Modulus (GPa) = 25.41622 35.37669 30.39645
#
# Velocity S-wave (km/s) = 3.44582 4.06533 3.76833
# Velocity P-wave (km/s) = 5.94419 7.68879 6.87207
#
# Compressibility (1/GPa) = 0.02395517
#
# Stress axis : x y z
#
# Youngs Moduli (GPa) = 64.83791 64.27931 59.54374
#
# Poissons Ratio (x) = 0.60265 0.17910
# Poissons Ratio (y) = 0.60788 -0.02820
# Poissons Ratio (z) = 0.19503 -0.03045
#
# Static dielectric constant tensor:
#      x y z
#    x 5.071550 -0.708430 -0.614470 
#    y -0.708430 4.087380 -0.108140 
#    z -0.614470 -0.108140 4.208060 
# 
# 
# High freq. dielectric constant tensor:
#      x y z
#    x 1.825030 -0.030380 -0.017260 
#    y -0.030380 1.846200 -0.023080 
#    z -0.017260 -0.023080 1.851780 
# 
# From -- ./inp_files/391938.got.cif
#   From: 2010.06.25/outbox.cif.g09.slc.cpg/sg2_196_cif.got.tgz:391938.got - 2010.06.27 13:26:56.
