data_PCOD8031189
_publ_section_title
;
Structure prediction by ZEFSAII (Michael W. Deem and Ramdas Pophale) SiO2 
 PCOD8031189
Probable space group: P -1
;
_chemical_formula_sum "Si O2"
_cell_formula_units_Z 16
_cell_length_a 11.343590
_cell_length_b 9.224860
_cell_length_c 13.693199
_cell_angle_alpha 126.181489
_cell_angle_beta 133.692533
_cell_angle_gamma 81.202769
_cell_volume 752.307934
_symmetry_space_group_name_H-M "P -1"
_symmetry_group_IT_number 2
_symmetry_cell_setting 'triclinic'
loop_
_space_group_symop_operation_xyz
x,y,z
-x,-y,-z
loop_
_atom_site_type_symbol
_atom_site_label
_atom_site_fract_x
_atom_site_fract_y
_atom_site_fract_z
Si Si1 0.650428 0.005220 0.514820
Si Si2 0.031595 0.715169 0.066008
Si Si3 0.536814 0.051432 0.261734
Si Si4 0.495645 0.442000 0.799292
Si Si5 0.769664 0.350117 0.019137
Si Si6 0.190200 0.833753 0.715901
Si Si7 0.166416 0.470461 0.682371
Si Si8 0.691461 0.797647 0.921401
O O1 0.848221 0.126414 0.721719
O O2 0.639765 0.112002 0.449088
O O3 0.500000 0.000000 0.500000
O O4 0.613475 0.777968 0.393474
O O5 0.131268 0.747440 0.031177
O O6 0.000000 0.500000 0.000000
O O7 0.851538 0.743650 0.955991
O O8 0.674146 0.086651 0.265596
O O9 0.406324 0.160181 0.211633
O O10 0.408316 0.816845 0.098671
O O11 0.695191 0.485838 0.970442
O O12 0.357163 0.460509 0.806064
O O13 0.532791 0.605746 0.802659
O O14 0.901240 0.480163 0.232890
O O15 0.206182 0.645699 0.697432
O O16 0.982778 0.745633 0.524738
O O17 0.232656 0.011640 0.887197
#
# Coordination Sequence:
#
# PCOD8031189 Si02
#       8
#     2   2   2   2   2   2   2   2
#     4  11  23  47  66  97 138 175 221 273 336 387
#     4  12  25  46  70  98 138 178 224 277 327 403
#     4  11  23  43  71  98 130 180 219 274 332 397
#     4  11  22  42  71  95 134 176 220 276 335 398
#     4  11  23  44  68  95 136 179 219 273 341 390
#     4  11  24  41  68  98 141 167 219 288 330 396
#     4  11  23  42  64 104 135 171 221 278 338 392
#     4  12  23  44  70 102 131 181 226 269 338 396
#
# _framework density 21.267887000000002
#
# number of rings (size 3 to 8) (size 9 to 14) (size 15 to 20)
#    0.000    0.750    6.250    2.250    1.750    1.500 
#    0.000    6.250    0.000    0.000    0.000    0.000 
#    0.000    0.000    0.000    0.000    0.000    0.000 
#
# Total GULP energy -198342.865445 kJ/mol
# GULP energy per Si atom -12396.429090 kJ/mol
# Density = 2.121948 g / cm^3
# Si number density = 21.267887 Si / 1000 Ang^3
#
#
#
# Elastic Constant Matrix: (Units=GPa)
#
#
# Indices 1 2 3 4 5 6 
#
# 1 121.9237 31.5087 40.6009 -3.2476 -2.3866 -9.2561
# 2 31.5087 80.7168 35.3440 6.7990 2.6547 -3.0488
# 3 40.6009 35.3440 99.2133 3.6963 -8.2924 2.1516
# 4 -3.2476 6.7990 3.6963 34.5554 -0.6272 7.5941
# 5 -2.3866 2.6547 -8.2924 -0.6272 31.2638 -8.0958
# 6 -9.2561 -3.0488 2.1516 7.5941 -8.0958 34.1897
#
#
#
# Elastic Compliance Matrix: (Units=1/GPa)
#
#
# Indices 1 2 3 4 5 6 
#
# 1 0.010218 -0.002577 -0.003298 0.001250 0.000839 0.002665
# 2 -0.002577 0.015850 -0.004713 -0.003146 -0.002570 0.001102
# 3 -0.003298 -0.004713 0.013435 -0.000483 0.003378 -0.001251
# 4 0.001250 -0.003146 -0.000483 0.031267 -0.000974 -0.007087
# 5 0.000839 -0.002570 0.003378 -0.000974 0.035310 0.008363
# 6 0.002665 0.001102 -0.001251 -0.007087 0.008363 0.033702
#
#
# Mechanical properties :
#
#
# Convention : Reuss Voigt Hill
#
# Bulk Modulus (GPa) = 54.56337 57.41789 55.99063
# Shear Modulus (GPa) = 29.92799 32.96178 31.44489
#
# Velocity S-wave (km/s) = 3.75532 3.94107 3.84932
# Velocity P-wave (km/s) = 6.67190 6.91125 6.79263
#
# Compressibility (1/GPa) = 0.01832731
#
# Stress axis : x y z
#
# Youngs Moduli (GPa) = 97.86649 63.09156 74.43001
#
# Poissons Ratio (x) = 0.16258 0.24545
# Poissons Ratio (y) = 0.25220 0.35082
# Poissons Ratio (z) = 0.32273 0.29738
#
# Static dielectric constant tensor:
#      x y z
#    x 5.906560 -1.749750 -1.890950 
#    y -1.749750 5.619690 1.633470 
#    z -1.890950 1.633470 5.777390 
# 
# 
# High freq. dielectric constant tensor:
#      x y z
#    x 1.838560 0.001330 0.005630 
#    y 0.001330 1.837960 0.001800 
#    z 0.005630 0.001800 1.834350 
# 
# From -- ./inp_files/516316.got.cif
#   From: 2010.06.25/outbox.cif.g09.slc.cpg/sg2_259_cif.got.tgz:516316.got - 2010.06.27 13:26:56.
