data_PCOD8031967
_publ_section_title
;
Structure prediction by ZEFSAII (Michael W. Deem and Ramdas Pophale) SiO2 
 PCOD8031967
Probable space group: P -1
;
_chemical_formula_sum "Si O2"
_cell_formula_units_Z 16
_cell_length_a 10.647583
_cell_length_b 12.900711
_cell_length_c 10.032430
_cell_angle_alpha 78.204996
_cell_angle_beta 89.503883
_cell_angle_gamma 146.213919
_cell_volume 708.653513
_symmetry_space_group_name_H-M "P -1"
_symmetry_group_IT_number 2
_symmetry_cell_setting 'triclinic'
loop_
_space_group_symop_operation_xyz
x,y,z
-x,-y,-z
loop_
_atom_site_type_symbol
_atom_site_label
_atom_site_fract_x
_atom_site_fract_y
_atom_site_fract_z
Si Si1 0.232572 0.699976 0.524000
Si Si2 0.666845 0.334340 0.222121
Si Si3 0.172331 0.719025 0.016693
Si Si4 0.519725 0.463125 0.153538
Si Si5 0.049340 0.106123 0.847855
Si Si6 0.998676 0.926352 0.648796
Si Si7 0.651678 0.988502 0.873577
Si Si8 0.733193 0.099709 0.310220
O O1 0.301933 0.645438 0.625029
O O2 0.176270 0.752164 0.618040
O O3 0.000000 0.500000 0.500000
O O4 0.444391 0.880991 0.373228
O O5 0.577150 0.381056 0.156324
O O6 0.471397 0.099911 0.251187
O O7 0.910725 0.475510 0.099260
O O8 0.401998 0.805584 0.010207
O O9 0.189593 0.810269 0.864002
O O10 0.182386 0.797674 0.132550
O O11 0.722748 0.657026 0.194228
O O12 0.271643 0.305291 0.269443
O O13 0.500000 0.500000 0.000000
O O14 0.097633 0.069566 0.729113
O O15 0.803162 0.991841 0.868979
O O16 0.000000 0.000000 0.000000
O O17 0.157692 0.935142 0.638956
O O18 0.000000 0.000000 0.500000
#
# Coordination Sequence:
#
# PCOD8031967 Si02
#       8
#     2   2   2   2   2   2   2   2
#     4  11  28  45  70  97 139 185 220 275 352 416
#     4  12  23  44  68 102 134 178 229 280 344 404
#     4  11  24  39  70 103 132 175 228 288 338 398
#     4  12  24  44  73 102 137 183 235 284 342 421
#     4  12  24  45  70 101 137 191 231 280 348 411
#     4  12  27  45  72 102 141 182 234 292 344 408
#     4  11  23  39  69 100 137 171 226 281 341 397
#     4  11  26  47  66  99 142 173 228 280 343 409
#
# _framework density 22.578029999999998
#
# number of rings (size 3 to 8) (size 9 to 14) (size 15 to 20)
#    0.000    0.500    5.000    2.625    3.500    2.500 
#    0.000    0.000    0.000    0.000    0.000    0.000 
#    0.000    0.000    0.000    0.000    0.000    0.000 
#
# Total GULP energy -198249.767335 kJ/mol
# GULP energy per Si atom -12390.610458 kJ/mol
# Density = 2.252664 g / cm^3
# Si number density = 22.578030 Si / 1000 Ang^3
#
#
#
# Elastic Constant Matrix: (Units=GPa)
#
#
# Indices 1 2 3 4 5 6 
#
# 1 112.0639 45.8856 29.0625 2.3704 -1.0667 2.7321
# 2 45.8856 169.3930 57.5026 12.5353 -0.8651 6.5216
# 3 29.0625 57.5026 125.2081 4.3136 17.3794 -0.5527
# 4 2.3704 12.5353 4.3136 41.6558 -0.8734 -4.0752
# 5 -1.0667 -0.8651 17.3794 -0.8734 35.9978 1.1351
# 6 2.7321 6.5216 -0.5527 -4.0752 1.1351 28.1313
#
#
#
# Elastic Compliance Matrix: (Units=1/GPa)
#
#
# Indices 1 2 3 4 5 6 
#
# 1 0.010253 -0.002265 -0.001487 0.000223 0.000989 -0.000508
# 2 -0.002265 0.007864 -0.003261 -0.002063 0.001710 -0.002035
# 3 -0.001487 -0.003261 0.010567 -0.000010 -0.005266 0.001319
# 4 0.000223 -0.002063 -0.000010 0.025022 0.000441 0.004063
# 5 0.000989 0.001710 -0.005266 0.000441 0.030458 -0.001761
# 6 -0.000508 -0.002035 0.001319 0.004063 -0.001761 0.036754
#
#
# Mechanical properties :
#
#
# Convention : Reuss Voigt Hill
#
# Bulk Modulus (GPa) = 68.22159 74.61850 71.42005
# Shear Modulus (GPa) = 35.75768 39.43795 37.59781
#
# Velocity S-wave (km/s) = 3.98394 4.18394 4.08516
# Velocity P-wave (km/s) = 7.17244 7.51408 7.34524
#
# Compressibility (1/GPa) = 0.01465812
#
# Stress axis : x y z
#
# Youngs Moduli (GPa) = 97.52800 127.16758 94.63756
#
# Poissons Ratio (x) = 0.28798 0.14074
# Poissons Ratio (y) = 0.22086 0.30862
# Poissons Ratio (z) = 0.14504 0.41471
#
# Static dielectric constant tensor:
#      x y z
#    x 4.247650 -0.026750 -0.055600 
#    y -0.026750 4.368520 0.069510 
#    z -0.055600 0.069510 3.974150 
# 
# 
# High freq. dielectric constant tensor:
#      x y z
#    x 1.901550 0.002920 -0.003200 
#    y 0.002920 1.916690 0.009960 
#    z -0.003200 0.009960 1.882280 
# 
# From -- ./inp_files/272930.got.cif
#   From: 2010.06.25/outbox.cif.g09.slc.cpg/sg2_137_cif.got.tgz:272930.got - 2010.06.27 13:26:56.
