data_PCOD8031753
_publ_section_title
;
Structure prediction by ZEFSAII (Michael W. Deem and Ramdas Pophale) SiO2 
 PCOD8031753
Probable space group: P -1
;
_chemical_formula_sum "Si O2"
_cell_formula_units_Z 16
_cell_length_a 7.883911
_cell_length_b 11.215683
_cell_length_c 20.233692
_cell_angle_alpha 41.670553
_cell_angle_beta 44.385446
_cell_angle_gamma 74.728502
_cell_volume 676.883340
_symmetry_space_group_name_H-M "P -1"
_symmetry_group_IT_number 2
_symmetry_cell_setting 'triclinic'
loop_
_space_group_symop_operation_xyz
x,y,z
-x,-y,-z
loop_
_atom_site_type_symbol
_atom_site_label
_atom_site_fract_x
_atom_site_fract_y
_atom_site_fract_z
Si Si1 0.382197 0.841388 0.820527
Si Si2 0.780992 0.964899 0.410366
Si Si3 0.687739 0.355431 0.729182
Si Si4 0.266024 0.878724 0.516247
Si Si5 0.775723 0.388159 0.837703
Si Si6 0.300907 0.403891 0.031931
Si Si7 0.058560 0.215299 0.928775
Si Si8 0.149523 0.811660 0.358531
O O1 0.292146 0.601693 0.923194
O O2 0.495434 0.986953 0.663110
O O3 0.648383 0.965105 0.748127
O O4 0.108314 0.831646 0.934732
O O5 0.432257 0.831692 0.545574
O O6 0.873758 0.817314 0.412487
O O7 0.830073 0.987612 0.468352
O O8 0.965420 0.205879 0.224943
O O9 0.708812 0.282689 0.827007
O O10 0.411051 0.371761 0.785044
O O11 0.656939 0.171891 0.764516
O O12 0.010708 0.584808 0.530874
O O13 0.976808 0.653040 0.663827
O O14 0.451980 0.315543 0.981594
O O15 0.947315 0.321664 0.864824
O O16 0.500000 0.500000 0.000000
O O17 0.000000 0.000000 0.000000
#
# Coordination Sequence:
#
# PCOD8031753 Si02
#       8
#     2   2   2   2   2   2   2   2
#     4  12  24  45  71 102 143 177 234 289 356 407
#     4  11  24  44  69 101 142 181 234 289 355 416
#     4  11  27  44  72 104 138 191 237 283 349 413
#     4  11  25  43  71 105 136 184 231 294 352 418
#     4  12  25  48  72 103 142 188 236 283 357 416
#     4  12  23  43  71 101 139 183 225 294 353 416
#     4  12  26  47  69 104 144 181 233 294 340 414
#     4  11  22  46  69 100 138 182 240 289 332 423
#
# _framework density 23.637751000000002
#
# number of rings (size 3 to 8) (size 9 to 14) (size 15 to 20)
#    0.000    0.500    6.250    0.750    3.500    4.000 
#    0.000    2.500    0.000    0.000    0.000    0.000 
#    0.000    0.000    0.000    0.000    0.000    0.000 
#
# Total GULP energy -198289.563832 kJ/mol
# GULP energy per Si atom -12393.097740 kJ/mol
# Density = 2.358395 g / cm^3
# Si number density = 23.637751 Si / 1000 Ang^3
#
#
#
# Elastic Constant Matrix: (Units=GPa)
#
#
# Indices 1 2 3 4 5 6 
#
# 1 82.7113 34.5636 23.3234 19.5233 -0.8904 8.5261
# 2 34.5636 128.6897 36.5468 33.7057 10.9050 -12.6737
# 3 23.3234 36.5468 92.8806 32.6014 6.1858 6.1083
# 4 19.5233 33.7057 32.6014 44.5294 1.2899 0.4436
# 5 -0.8904 10.9050 6.1858 1.2899 36.4488 6.6447
# 6 8.5261 -12.6737 6.1083 0.4436 6.6447 30.3689
#
#
#
# Elastic Compliance Matrix: (Units=1/GPa)
#
#
# Indices 1 2 3 4 5 6 
#
# 1 0.015438 -0.003934 -0.001037 -0.003055 0.003001 -0.006380
# 2 -0.003934 0.012056 -0.001849 -0.005990 -0.004561 0.007593
# 3 -0.001037 -0.001849 0.015298 -0.009281 -0.001163 -0.003167
# 4 -0.003055 -0.005990 -0.009281 0.035070 0.002191 -0.000767
# 5 0.003001 -0.004561 -0.001163 0.002191 0.030681 -0.009257
# 6 -0.006380 0.007593 -0.003167 -0.000767 -0.009257 0.040562
#
#
# Mechanical properties :
#
#
# Convention : Reuss Voigt Hill
#
# Bulk Modulus (GPa) = 34.30326 54.79436 44.54881
# Shear Modulus (GPa) = 28.99223 36.25927 32.62575
#
# Velocity S-wave (km/s) = 3.50597 3.92082 3.71919
# Velocity P-wave (km/s) = 5.56172 6.61274 6.10987
#
# Compressibility (1/GPa) = 0.02915175
#
# Stress axis : x y z
#
# Youngs Moduli (GPa) = 64.77666 82.94903 65.36999
#
# Poissons Ratio (x) = 0.32635 0.06776
# Poissons Ratio (y) = 0.25486 0.12084
# Poissons Ratio (z) = 0.06714 0.15334
#
# Static dielectric constant tensor:
#      x y z
#    x 3.985700 0.081720 -0.061440 
#    y 0.081720 4.828650 -0.081360 
#    z -0.061440 -0.081360 4.199520 
# 
# 
# High freq. dielectric constant tensor:
#      x y z
#    x 1.920290 0.003680 -0.014310 
#    y 0.003680 1.944930 0.013230 
#    z -0.014310 0.013230 1.947070 
# 
# From -- ./inp_files/399313.got.cif
#   From: 2010.06.25/outbox.cif.g09.slc.cpg/sg2_200_cif.got.tgz:399313.got - 2010.06.27 13:26:56.
