data_PCOD8031249
_publ_section_title
;
Structure prediction by ZEFSAII (Michael W. Deem and Ramdas Pophale) SiO2 
 PCOD8031249
Probable space group: P -1
;
_chemical_formula_sum "Si O2"
_cell_formula_units_Z 14
_cell_length_a 21.116458
_cell_length_b 6.758459
_cell_length_c 9.714780
_cell_angle_alpha 131.835013
_cell_angle_beta 47.030182
_cell_angle_gamma 134.586474
_cell_volume 673.576148
_symmetry_space_group_name_H-M "P -1"
_symmetry_group_IT_number 2
_symmetry_cell_setting 'triclinic'
loop_
_space_group_symop_operation_xyz
x,y,z
-x,-y,-z
loop_
_atom_site_type_symbol
_atom_site_label
_atom_site_fract_x
_atom_site_fract_y
_atom_site_fract_z
Si Si1 0.739978 0.222975 0.492143
Si Si2 0.742370 0.604238 0.199470
Si Si3 0.608704 0.256340 0.465338
Si Si4 0.955217 0.706756 0.336277
Si Si5 0.532786 0.657002 0.880909
Si Si6 0.945833 0.707169 0.031039
Si Si7 0.644517 0.317170 0.951359
O O1 0.673881 0.167991 0.429112
O O2 0.843426 0.506670 0.449742
O O3 0.686563 0.283106 0.727743
O O4 0.754802 0.932734 0.365696
O O5 0.652335 0.338415 0.286227
O O6 0.832990 0.563214 0.098717
O O7 0.730098 0.549591 0.028300
O O8 0.607279 0.556293 0.657141
O O9 0.500000 0.000000 0.500000
O O10 0.964034 0.797593 0.205779
O O11 0.000000 0.000000 0.500000
O O12 0.016777 0.526088 0.182351
O O13 0.591021 0.010274 0.971806
O O14 0.500000 0.500000 0.000000
O O15 0.434311 0.558886 0.893354
O O16 0.000000 0.000000 0.000000
#
# Coordination Sequence:
#
# PCOD8031249 Si02
#       7
#     2   2   2   2   2   2   2
#     4  12  25  46  68 101 138 178 235 284 341 429
#     4  12  26  45  69 102 138 183 230 281 353 412
#     4  12  25  43  69  97 144 188 224 285 345 403
#     4  11  27  47  74 105 137 180 234 291 354 423
#     4  11  22  43  62  95 140 177 229 281 328 398
#     4  11  25  48  72 101 143 177 228 295 352 420
#     4  11  26  40  68  98 132 181 231 277 335 406
#
# _framework density 20.784585
#
# number of rings (size 3 to 8) (size 9 to 14) (size 15 to 20)
#    0.000    0.571    5.714    1.714    4.000    4.000 
#    2.571    0.000    0.000    0.000    0.000    0.000 
#    0.000    0.000    0.000    0.000    0.000    0.000 
#
# Total GULP energy -173630.322049 kJ/mol
# GULP energy per Si atom -12402.165861 kJ/mol
# Density = 2.073728 g / cm^3
# Si number density = 20.784585 Si / 1000 Ang^3
#
#
#
# Elastic Constant Matrix: (Units=GPa)
#
#
# Indices 1 2 3 4 5 6 
#
# 1 125.1122 52.3846 44.1191 12.4120 -9.9723 2.9334
# 2 52.3846 135.7040 37.1571 -15.5506 3.0116 1.0279
# 3 44.1191 37.1571 91.4722 0.1961 3.0765 -0.9563
# 4 12.4120 -15.5506 0.1961 28.3779 0.8761 1.7158
# 5 -9.9723 3.0116 3.0765 0.8761 40.7132 -0.5054
# 6 2.9334 1.0279 -0.9563 1.7158 -0.5054 39.3627
#
#
#
# Elastic Compliance Matrix: (Units=1/GPa)
#
#
# Indices 1 2 3 4 5 6 
#
# 1 0.012614 -0.004713 -0.004290 -0.008160 0.003932 -0.000515
# 2 -0.004713 0.010711 -0.002032 0.008027 -0.001970 -0.000353
# 3 -0.004290 -0.002032 0.013898 0.000687 -0.001957 0.000655
# 4 -0.008160 0.008027 0.000687 0.043405 -0.003597 -0.001523
# 5 0.003932 -0.001970 -0.001957 -0.003597 0.025899 0.000200
# 6 -0.000515 -0.000353 0.000655 -0.001523 0.000200 0.025537
#
#
# Mechanical properties :
#
#
# Convention : Reuss Voigt Hill
#
# Bulk Modulus (GPa) = 65.99409 68.84555 67.41982
# Shear Modulus (GPa) = 31.40998 36.26593 33.83796
#
# Velocity S-wave (km/s) = 3.89165 4.18167 4.03926
# Velocity P-wave (km/s) = 7.21205 7.51734 7.36628
#
# Compressibility (1/GPa) = 0.01515287
#
# Stress axis : x y z
#
# Youngs Moduli (GPa) = 79.27754 93.36116 71.95281
#
# Poissons Ratio (x) = 0.44003 0.30864
# Poissons Ratio (y) = 0.37365 0.14623
# Poissons Ratio (z) = 0.34006 0.18974
#
# Static dielectric constant tensor:
#      x y z
#    x 3.812670 -0.130160 -0.179970 
#    y -0.130160 3.828830 -0.062580 
#    z -0.179970 -0.062580 3.451620 
# 
# 
# High freq. dielectric constant tensor:
#      x y z
#    x 1.825530 -0.009850 -0.007620 
#    y -0.009850 1.824090 -0.007480 
#    z -0.007620 -0.007480 1.821250 
# 
# From -- ./inp_files/39061.got.cif
#   From: 2010.06.25/outbox.cif.g09.slc.cpg/sg2_20_cif.got.tgz:39061.got - 2010.06.27 13:26:56.
