data_PCOD8031060
_publ_section_title
;
Structure prediction by ZEFSAII (Michael W. Deem and Ramdas Pophale) SiO2 
 PCOD8031060
Probable space group: P -1
;
_chemical_formula_sum "Si O2"
_cell_formula_units_Z 12
_cell_length_a 15.479001
_cell_length_b 12.181338
_cell_length_c 17.900371
_cell_angle_alpha 160.012911
_cell_angle_beta 149.615593
_cell_angle_gamma 32.822943
_cell_volume 574.877575
_symmetry_space_group_name_H-M "P -1"
_symmetry_group_IT_number 2
_symmetry_cell_setting 'triclinic'
loop_
_space_group_symop_operation_xyz
x,y,z
-x,-y,-z
loop_
_atom_site_type_symbol
_atom_site_label
_atom_site_fract_x
_atom_site_fract_y
_atom_site_fract_z
Si Si1 0.326906 0.855592 0.994278
Si Si2 0.499488 0.111717 0.154736
Si Si3 0.380375 0.859367 0.527469
Si Si4 0.969600 0.113161 0.965266
Si Si5 0.328362 0.113068 0.491324
Si Si6 0.153639 0.129340 0.656555
O O1 0.352245 0.977130 0.006632
O O2 0.486239 0.902976 0.197232
O O3 0.314562 0.477779 0.743634
O O4 0.150577 0.064634 0.026340
O O5 0.471985 0.499518 0.388243
O O6 0.683608 0.951471 0.220402
O O7 0.500000 0.000000 0.000000
O O8 0.335908 0.879960 0.420055
O O9 0.199954 0.955243 0.499684
O O10 0.839002 0.908321 0.697086
O O11 0.887270 0.488656 0.143226
O O12 0.000000 0.000000 0.000000
O O13 0.500000 0.000000 0.500000
O O14 0.000000 0.000000 0.500000
#
# Coordination Sequence:
#
# PCOD8031060 Si02
#       6
#     2   2   2   2   2   2
#     4  11  23  41  63  91 125 165 205 253 306 363
#     4  11  23  41  64  92 124 162 205 253 306 365
#     4  11  22  42  65  91 124 163 205 255 307 364
#     4  12  25  42  62  92 127 164 205 255 308 365
#     4  12  24  41  64  93 124 163 208 254 306 367
#     4  11  23  41  64  91 122 163 206 252 306 364
#
# _framework density 20.874008
#
# number of rings (size 3 to 8) (size 9 to 14) (size 15 to 20)
#    0.000    0.667    0.000   11.000    0.000    2.667 
#    0.000    3.333    0.000    0.000    0.000    0.000 
#    0.000    0.000    0.000    0.000    0.000    0.000 
#
# Total GULP energy -148869.599127 kJ/mol
# GULP energy per Si atom -12405.799927 kJ/mol
# Density = 2.082650 g / cm^3
# Si number density = 20.874008 Si / 1000 Ang^3
#
#
#
# Elastic Constant Matrix: (Units=GPa)
#
#
# Indices 1 2 3 4 5 6 
#
# 1 190.7470 79.4857 32.5945 -14.8337 -1.1112 -6.2000
# 2 79.4857 139.0066 53.1770 15.8517 0.8015 0.5556
# 3 32.5945 53.1770 95.6211 10.5167 3.8546 0.7681
# 4 -14.8337 15.8517 10.5167 48.0083 -1.5851 -0.2782
# 5 -1.1112 0.8015 3.8546 -1.5851 34.9479 -0.2738
# 6 -6.2000 0.5556 0.7681 -0.2782 -0.2738 47.5314
#
#
#
# Elastic Compliance Matrix: (Units=1/GPa)
#
#
# Indices 1 2 3 4 5 6 
#
# 1 0.007604 -0.004624 -0.000494 0.004011 0.000593 0.001081
# 2 -0.004624 0.012134 -0.004675 -0.004419 -0.000116 -0.000696
# 3 -0.000494 -0.004675 0.013465 -0.001608 -0.001468 -0.000245
# 4 0.004011 -0.004419 -0.001608 0.023934 0.001498 0.000750
# 5 0.000593 -0.000116 -0.001468 0.001498 0.028868 0.000277
# 6 0.001081 -0.000696 -0.000245 0.000750 0.000277 0.021198
#
#
# Mechanical properties :
#
#
# Convention : Reuss Voigt Hill
#
# Bulk Modulus (GPa) = 73.44711 83.98768 78.71739
# Shear Modulus (GPa) = 38.07225 43.43867 40.75546
#
# Velocity S-wave (km/s) = 4.27536 4.56674 4.42345
# Velocity P-wave (km/s) = 7.72230 8.25407 7.99261
#
# Compressibility (1/GPa) = 0.01361524
#
# Stress axis : x y z
#
# Youngs Moduli (GPa) = 131.50141 82.41174 74.26901
#
# Poissons Ratio (x) = 0.38111 0.03669
# Poissons Ratio (y) = 0.60812 0.34724
# Poissons Ratio (z) = 0.06497 0.38532
#
# Static dielectric constant tensor:
#      x y z
#    x 4.887750 0.000120 0.426200 
#    y 0.000120 3.820410 0.160970 
#    z 0.426200 0.160970 4.169420 
# 
# 
# High freq. dielectric constant tensor:
#      x y z
#    x 1.841720 -0.002150 -0.003200 
#    y -0.002150 1.829320 0.012930 
#    z -0.003200 0.012930 1.820300 
# 
# From -- ./inp_files/152550.got.cif
#   From: 2010.06.25/outbox.cif.g09.slc.cpg/sg2_77_cif.got.tgz:152550.got - 2010.06.27 13:26:56.
