data_PCOD8031860
_publ_section_title
;
Structure prediction by ZEFSAII (Michael W. Deem and Ramdas Pophale) SiO2 
 PCOD8031860
Probable space group: P -1
;
_chemical_formula_sum "Si O2"
_cell_formula_units_Z 14
_cell_length_a 15.695580
_cell_length_b 8.641957
_cell_length_c 9.324604
_cell_angle_alpha 108.038497
_cell_angle_beta 144.869444
_cell_angle_gamma 55.393173
_cell_volume 566.128790
_symmetry_space_group_name_H-M "P -1"
_symmetry_group_IT_number 2
_symmetry_cell_setting 'triclinic'
loop_
_space_group_symop_operation_xyz
x,y,z
-x,-y,-z
loop_
_atom_site_type_symbol
_atom_site_label
_atom_site_fract_x
_atom_site_fract_y
_atom_site_fract_z
Si Si1 0.256061 0.278626 0.028522
Si Si2 0.620821 0.084780 0.304851
Si Si3 0.113557 0.825382 0.224240
Si Si4 0.526382 0.297334 0.935210
Si Si5 0.118091 0.011473 0.784204
Si Si6 0.036315 0.293028 0.239728
Si Si7 0.768768 0.601970 0.658518
O O1 0.439396 0.139915 0.150016
O O2 0.315169 0.275655 0.273979
O O3 0.133829 0.194625 0.828395
O O4 0.132372 0.507139 0.859022
O O5 0.703984 0.182707 0.536063
O O6 0.783034 0.844610 0.455669
O O7 0.574309 0.157264 0.099033
O O8 0.178883 0.615779 0.318077
O O9 0.966546 0.985376 0.180103
O O10 0.022736 0.849117 0.947440
O O11 0.365194 0.308498 0.636008
O O12 0.500000 0.500000 0.000000
O O13 0.686635 0.194817 0.010951
O O14 0.000000 0.000000 0.500000
O O15 0.067459 0.384302 0.165245
#
# Coordination Sequence:
#
# PCOD8031860 Si02
#       7
#     2   2   2   2   2   2   2
#     4  11  26  47  78 114 141 194 246 303 370 428
#     4  12  27  47  71 115 152 185 244 309 370 422
#     4  11  22  48  72 109 142 196 243 297 362 438
#     4  12  27  47  71 104 149 198 243 299 365 441
#     4  12  23  45  78 100 141 198 250 283 368 449
#     4  11  24  45  78 108 151 185 246 309 356 433
#     4  11  22  47  79 100 150 196 246 294 358 448
#
# _framework density 24.729358000000001
#
# number of rings (size 3 to 8) (size 9 to 14) (size 15 to 20)
#    0.000    0.571    5.714    2.143    2.000    6.857 
#    2.571    1.429    0.000    0.000    0.000    0.000 
#    0.000    0.000    0.000    0.000    0.000    0.000 
#
# Total GULP energy -173573.870367 kJ/mol
# GULP energy per Si atom -12398.133598 kJ/mol
# Density = 2.467307 g / cm^3
# Si number density = 24.729358 Si / 1000 Ang^3
#
#
#
# Elastic Constant Matrix: (Units=GPa)
#
#
# Indices 1 2 3 4 5 6 
#
# 1 91.8018 30.2088 37.1115 -4.7779 2.8428 8.1956
# 2 30.2088 122.0099 48.2333 3.4447 -3.2938 -11.3584
# 3 37.1115 48.2333 138.9634 0.0537 -6.9333 4.1487
# 4 -4.7779 3.4447 0.0537 46.1068 8.2753 8.1964
# 5 2.8428 -3.2938 -6.9333 8.2753 43.2366 -4.4613
# 6 8.1956 -11.3584 4.1487 8.1964 -4.4613 35.3657
#
#
#
# Elastic Compliance Matrix: (Units=1/GPa)
#
#
# Indices 1 2 3 4 5 6 
#
# 1 0.013567 -0.002933 -0.002592 0.002945 -0.002589 -0.004791
# 2 -0.002933 0.010701 -0.003010 -0.002292 0.001500 0.005190
# 3 -0.002592 -0.003010 0.009034 -0.000060 0.001272 -0.001251
# 4 0.002945 -0.002292 -0.000060 0.024622 -0.005902 -0.007862
# 5 -0.002589 0.001500 0.001272 -0.005902 0.025313 0.005493
# 6 -0.004791 0.005190 -0.001251 -0.007862 0.005493 0.033715
#
#
# Mechanical properties :
#
#
# Convention : Reuss Voigt Hill
#
# Bulk Modulus (GPa) = 61.61232 64.87580 63.24406
# Shear Modulus (GPa) = 35.85914 40.75657 38.30785
#
# Velocity S-wave (km/s) = 3.81210 4.06409 3.94011
# Velocity P-wave (km/s) = 6.65920 6.95081 6.80656
#
# Compressibility (1/GPa) = 0.01623052
#
# Stress axis : x y z
#
# Youngs Moduli (GPa) = 73.70558 93.45292 110.69225
#
# Poissons Ratio (x) = 0.27414 0.28696
# Poissons Ratio (y) = 0.21621 0.33318
# Poissons Ratio (z) = 0.19108 0.28129
#
# Static dielectric constant tensor:
#      x y z
#    x 4.471490 0.079330 0.000930 
#    y 0.079330 4.773610 0.116240 
#    z 0.000930 0.116240 4.671350 
# 
# 
# High freq. dielectric constant tensor:
#      x y z
#    x 1.977250 0.017860 0.003170 
#    y 0.017860 2.009440 0.003440 
#    z 0.003170 0.003440 2.003230 
# 
# From -- ./inp_files/298975.got.cif
#   From: 2010.06.25/outbox.cif.g09.slc.cpg/sg2_150_cif.got.tgz:298975.got - 2010.06.27 13:26:56.
