data_PCOD8031759
_publ_section_title
;
Structure prediction by ZEFSAII (Michael W. Deem and Ramdas Pophale) SiO2 
 PCOD8031759
Probable space group: P -1
;
_chemical_formula_sum "Si O2"
_cell_formula_units_Z 16
_cell_length_a 11.162229
_cell_length_b 8.466159
_cell_length_c 12.086348
_cell_angle_alpha 51.204372
_cell_angle_beta 66.280974
_cell_angle_gamma 47.060356
_cell_volume 651.081846
_symmetry_space_group_name_H-M "P -1"
_symmetry_group_IT_number 2
_symmetry_cell_setting 'triclinic'
loop_
_space_group_symop_operation_xyz
x,y,z
-x,-y,-z
loop_
_atom_site_type_symbol
_atom_site_label
_atom_site_fract_x
_atom_site_fract_y
_atom_site_fract_z
Si Si1 0.766058 0.970644 0.406776
Si Si2 0.041255 0.776545 0.003849
Si Si3 0.609383 0.405644 0.112416
Si Si4 0.085956 0.537343 0.744987
Si Si5 0.549390 0.767908 0.155492
Si Si6 0.441022 0.779085 0.418368
Si Si7 0.237014 0.441355 0.504084
Si Si8 0.930590 0.025262 0.719222
O O1 0.796763 0.699849 0.512866
O O2 0.931472 0.932917 0.338354
O O3 0.648568 0.150143 0.267420
O O4 0.713078 0.075129 0.506169
O O5 0.002509 0.594740 0.148425
O O6 0.230138 0.614045 0.969732
O O7 0.000000 0.000000 0.000000
O O8 0.920567 0.905370 0.887338
O O9 0.519754 0.602718 0.160337
O O10 0.500000 0.500000 0.000000
O O11 0.260777 0.397898 0.802850
O O12 0.104467 0.541362 0.606042
O O13 0.963334 0.834130 0.693590
O O14 0.420040 0.888021 0.254042
O O15 0.500000 0.000000 0.000000
O O16 0.500000 0.500000 0.500000
O O17 0.580795 0.778134 0.427254
O O18 0.231454 0.683976 0.361412
#
# Coordination Sequence:
#
# PCOD8031759 Si02
#       8
#     2   2   2   2   2   2   2   2
#     4  11  22  46  70 100 144 181 233 291 350 413
#     4  11  25  44  69 102 142 182 229 289 348 413
#     4  11  25  45  71 101 142 185 232 287 352 416
#     4  11  22  46  71 100 143 181 233 291 347 412
#     4  11  25  44  71 103 136 185 234 290 351 410
#     4  11  23  46  68  98 138 181 234 288 343 416
#     4  11  25  41  70 102 137 184 225 289 350 414
#     4  11  23  45  68  99 137 180 232 287 345 416
#
# _framework density 24.574480999999999
#
# number of rings (size 3 to 8) (size 9 to 14) (size 15 to 20)
#    0.000    1.000    3.750    3.750    5.250    2.000 
#    4.500    0.000    0.000    0.000    0.000    0.000 
#    0.000    0.000    0.000    0.000    0.000    0.000 
#
# Total GULP energy -198291.383899 kJ/mol
# GULP energy per Si atom -12393.211494 kJ/mol
# Density = 2.451855 g / cm^3
# Si number density = 24.574481 Si / 1000 Ang^3
#
#
#
# Elastic Constant Matrix: (Units=GPa)
#
#
# Indices 1 2 3 4 5 6 
#
# 1 56.7702 10.5126 16.7244 0.9326 3.0464 23.5013
# 2 10.5126 89.2317 8.6713 -3.5185 8.0025 30.9009
# 3 16.7244 8.6713 112.5776 -4.2208 12.1307 0.0750
# 4 0.9326 -3.5185 -4.2208 45.7145 10.5725 -8.0946
# 5 3.0464 8.0025 12.1307 10.5725 40.5459 -3.0365
# 6 23.5013 30.9009 0.0750 -8.0946 -3.0365 34.0830
#
#
#
# Elastic Compliance Matrix: (Units=1/GPa)
#
#
# Indices 1 2 3 4 5 6 
#
# 1 0.029521 0.006689 -0.004742 -0.004764 -0.002960 -0.027805
# 2 0.006689 0.018751 -0.001966 -0.001729 -0.004846 -0.022451
# 3 -0.004742 -0.001966 0.010095 0.002408 -0.002501 0.005379
# 4 -0.004764 -0.001729 0.002408 0.025237 -0.005829 0.010322
# 5 -0.002960 -0.004846 -0.002501 -0.005829 0.028680 0.007610
# 6 -0.027805 -0.022451 0.005379 0.010322 0.007610 0.071985
#
#
# Mechanical properties :
#
#
# Convention : Reuss Voigt Hill
#
# Bulk Modulus (GPa) = 17.14397 36.71069 26.92733
# Shear Modulus (GPa) = 24.54000 38.91343 31.72672
#
# Velocity S-wave (km/s) = 3.16349 3.98363 3.59701
# Velocity P-wave (km/s) = 4.50944 6.01082 5.31343
#
# Compressibility (1/GPa) = 0.05832955
#
# Stress axis : x y z
#
# Youngs Moduli (GPa) = 33.87448 53.33092 99.06028
#
# Poissons Ratio (x) = -0.35675 0.46974
# Poissons Ratio (y) = -0.22660 0.19473
# Poissons Ratio (z) = 0.16063 0.10484
#
# Static dielectric constant tensor:
#      x y z
#    x 4.524760 -0.033980 -0.003500 
#    y -0.033980 5.971060 1.255340 
#    z -0.003500 1.255340 5.998160 
# 
# 
# High freq. dielectric constant tensor:
#      x y z
#    x 1.977400 0.009660 -0.000270 
#    y 0.009660 1.979850 0.003910 
#    z -0.000270 0.003910 1.987810 
# 
# From -- ./inp_files/418885.got.cif
#   From: 2010.06.25/outbox.cif.g09.slc.cpg/sg2_210_cif.got.tgz:418885.got - 2010.06.27 13:26:56.
