data_PCOD8031347
_publ_section_title
;
Structure prediction by ZEFSAII (Michael W. Deem and Ramdas Pophale) SiO2 
 PCOD8031347
Probable space group: P -1
;
_chemical_formula_sum "Si O2"
_cell_formula_units_Z 16
_cell_length_a 9.456189
_cell_length_b 17.945620
_cell_length_c 18.261843
_cell_angle_alpha 148.260331
_cell_angle_beta 27.895502
_cell_angle_gamma 141.977991
_cell_volume 754.460096
_symmetry_space_group_name_H-M "P -1"
_symmetry_group_IT_number 2
_symmetry_cell_setting 'triclinic'
loop_
_space_group_symop_operation_xyz
x,y,z
-x,-y,-z
loop_
_atom_site_type_symbol
_atom_site_label
_atom_site_fract_x
_atom_site_fract_y
_atom_site_fract_z
Si Si1 0.939507 0.754263 0.005477
Si Si2 0.148674 0.476209 0.623387
Si Si3 0.973760 0.403834 0.360317
Si Si4 0.217752 0.899952 0.856841
Si Si5 0.002075 0.699565 0.093169
Si Si6 0.075525 0.988746 0.373415
Si Si7 0.243832 0.757535 0.304207
Si Si8 0.352944 0.596653 0.975888
O O1 0.588305 0.777616 0.192773
O O2 0.098375 0.762383 0.020483
O O3 0.955500 0.595026 0.839688
O O4 0.107359 0.865922 0.962743
O O5 0.500000 0.500000 0.500000
O O6 0.147757 0.481564 0.540933
O O7 0.981183 0.329926 0.608698
O O8 0.763750 0.246199 0.321856
O O9 0.000000 0.500000 0.500000
O O10 0.287580 0.358547 0.149688
O O11 0.557783 0.984751 0.781874
O O12 0.000000 0.000000 0.000000
O O13 0.716191 0.572011 0.112819
O O14 0.925401 0.832393 0.285490
O O15 0.254717 0.627960 0.963712
O O16 0.887192 0.094739 0.506072
O O17 0.000000 0.000000 0.500000
O O18 0.210015 0.690201 0.181339
#
# Coordination Sequence:
#
# PCOD8031347 Si02
#       8
#     2   2   2   2   2   2   2   2
#     4  11  23  43  69  95 130 173 226 275 329 393
#     4  11  23  40  65 100 134 172 218 278 334 389
#     4  11  25  42  67 100 131 166 224 277 329 388
#     4  11  24  47  68  94 133 180 217 268 342 397
#     4  11  25  40  68  98 131 170 224 271 323 392
#     4  12  26  43  65  97 136 177 216 268 333 405
#     4  12  21  44  70  95 132 178 217 270 341 395
#     4  11  22  43  70  99 129 179 219 272 329 396
#
# _framework density 21.207218000000001
#
# number of rings (size 3 to 8) (size 9 to 14) (size 15 to 20)
#    0.000    0.750    5.000    4.125    3.500    1.000 
#    2.250    0.000    0.000    0.000    0.000    0.000 
#    0.000    0.000    0.000    0.000    0.000    0.000 
#
# Total GULP energy -198261.100640 kJ/mol
# GULP energy per Si atom -12391.318790 kJ/mol
# Density = 2.115895 g / cm^3
# Si number density = 21.207218 Si / 1000 Ang^3
#
#
#
# Elastic Constant Matrix: (Units=GPa)
#
#
# Indices 1 2 3 4 5 6 
#
# 1 139.2437 28.2219 34.2846 0.7973 4.3297 -26.9086
# 2 28.2219 87.9297 37.2492 2.1661 -1.8563 -14.8795
# 3 34.2846 37.2492 92.3333 10.1660 -10.7905 -4.3342
# 4 0.7973 2.1661 10.1660 36.5892 8.5257 -4.2458
# 5 4.3297 -1.8563 -10.7905 8.5257 46.7055 1.4548
# 6 -26.9086 -14.8795 -4.3342 -4.2458 1.4548 40.1194
#
#
#
# Elastic Compliance Matrix: (Units=1/GPa)
#
#
# Indices 1 2 3 4 5 6 
#
# 1 0.009365 -0.000645 -0.003418 0.001996 -0.002234 0.005965
# 2 -0.000645 0.014755 -0.005798 0.001548 -0.001120 0.004618
# 3 -0.003418 -0.005798 0.015420 -0.005379 0.004740 -0.003518
# 4 0.001996 0.001548 -0.005379 0.030923 -0.007163 0.004864
# 5 -0.002234 -0.001120 0.004740 -0.007163 0.024070 -0.003032
# 6 0.005965 0.004618 -0.003518 0.004864 -0.003032 0.030884
#
#
# Mechanical properties :
#
#
# Convention : Reuss Voigt Hill
#
# Bulk Modulus (GPa) = 50.45749 57.66868 54.06308
# Shear Modulus (GPa) = 32.95018 39.33289 36.14154
#
# Velocity S-wave (km/s) = 3.94601 4.31129 4.13269
# Velocity P-wave (km/s) = 6.67874 7.21352 6.95128
#
# Compressibility (1/GPa) = 0.01981866
#
# Stress axis : x y z
#
# Youngs Moduli (GPa) = 106.78495 67.77161 64.85287
#
# Poissons Ratio (x) = 0.04369 0.22166
# Poissons Ratio (y) = 0.06884 0.37600
# Poissons Ratio (z) = 0.36499 0.39293
#
# Static dielectric constant tensor:
#      x y z
#    x 5.736110 -0.574550 -0.451320 
#    y -0.574550 4.464110 0.668930 
#    z -0.451320 0.668930 4.257020 
# 
# 
# High freq. dielectric constant tensor:
#      x y z
#    x 1.850110 -0.012210 -0.011230 
#    y -0.012210 1.833370 0.005440 
#    z -0.011230 0.005440 1.822040 
# 
# From -- ./inp_files/189166.got.cif
#   From: 2010.06.25/outbox.cif.g09.slc.cpg/sg2_95_cif.got.tgz:189166.got - 2010.06.27 13:26:56.
