data_PCOD8031338
_publ_section_title
;
Structure prediction by ZEFSAII (Michael W. Deem and Ramdas Pophale) SiO2 
 PCOD8031338
Probable space group: P -1
;
_chemical_formula_sum "Si O2"
_cell_formula_units_Z 16
_cell_length_a 16.431094
_cell_length_b 21.616804
_cell_length_c 13.452993
_cell_angle_alpha 157.746560
_cell_angle_beta 35.431103
_cell_angle_gamma 156.569923
_cell_volume 700.523519
_symmetry_space_group_name_H-M "P -1"
_symmetry_group_IT_number 2
_symmetry_cell_setting 'triclinic'
loop_
_space_group_symop_operation_xyz
x,y,z
-x,-y,-z
loop_
_atom_site_type_symbol
_atom_site_label
_atom_site_fract_x
_atom_site_fract_y
_atom_site_fract_z
Si Si1 0.850158 0.987334 0.334090
Si Si2 0.709153 0.162098 0.970343
Si Si3 0.333380 0.106412 0.072695
Si Si4 0.474899 0.473829 0.635452
Si Si5 0.493559 0.894929 0.594755
Si Si6 0.122211 0.347340 0.207471
Si Si7 0.028539 0.176830 0.662763
Si Si8 0.153551 0.372605 0.438263
O O1 0.968622 0.109174 0.504374
O O2 0.006406 0.142641 0.316145
O O3 0.652691 0.934328 0.423327
O O4 0.762699 0.727013 0.029541
O O5 0.899459 0.212549 0.896710
O O6 0.629014 0.994783 0.707207
O O7 0.808000 0.423925 0.239855
O O8 0.500000 0.000000 0.000000
O O9 0.393960 0.234682 0.309497
O O10 0.368383 0.283197 0.224997
O O11 0.470407 0.065880 0.846173
O O12 0.092240 0.841651 0.922543
O O13 0.626647 0.536434 0.664321
O O14 0.281490 0.422563 0.783101
O O15 0.267074 0.614432 0.414598
O O16 0.062136 0.330771 0.357979
O O17 0.000000 0.000000 0.500000
#
# Coordination Sequence:
#
# PCOD8031338 Si02
#       8
#     2   2   2   2   2   2   2   2
#     4  11  25  45  67 104 132 184 228 278 341 405
#     4  11  23  43  68 102 133 177 233 275 342 400
#     4  11  23  43  68 100 131 176 230 278 340 393
#     4  11  22  43  70  96 135 175 226 286 329 401
#     4  11  25  41  71  93 141 178 229 284 335 398
#     4  12  24  45  69  98 137 187 224 275 343 408
#     4  11  25  41  70 103 135 173 227 290 334 397
#     4  12  24  44  74  97 139 183 225 280 339 410
#
# _framework density 22.840062
#
# number of rings (size 3 to 8) (size 9 to 14) (size 15 to 20)
#    0.000    0.750    5.000    2.625    3.500    1.000 
#    2.250    0.625    0.000    0.000    0.000    0.000 
#    0.000    0.000    0.000    0.000    0.000    0.000 
#
# Total GULP energy -198209.231663 kJ/mol
# GULP energy per Si atom -12388.076979 kJ/mol
# Density = 2.278808 g / cm^3
# Si number density = 22.840062 Si / 1000 Ang^3
#
#
#
# Elastic Constant Matrix: (Units=GPa)
#
#
# Indices 1 2 3 4 5 6 
#
# 1 57.8432 26.6287 7.5451 -1.3316 -9.6575 9.1992
# 2 26.6287 104.2069 36.8467 -12.8966 -9.2489 19.9723
# 3 7.5451 36.8467 90.8137 -0.6384 -20.0882 20.4480
# 4 -1.3316 -12.8966 -0.6384 43.3301 10.1106 -8.7740
# 5 -9.6575 -9.2489 -20.0882 10.1106 28.3225 -10.3489
# 6 9.1992 19.9723 20.4480 -8.7740 -10.3489 35.5128
#
#
#
# Elastic Compliance Matrix: (Units=1/GPa)
#
#
# Indices 1 2 3 4 5 6 
#
# 1 0.021096 -0.005612 0.002730 -0.003246 0.007549 -0.002483
# 2 -0.005612 0.013649 -0.005111 0.004004 -0.003746 -0.003382
# 3 0.002730 -0.005111 0.016378 -0.004757 0.010624 -0.005343
# 4 -0.003246 0.004004 -0.004757 0.027723 -0.011283 0.004889
# 5 0.007549 -0.003746 0.010624 -0.011283 0.050389 0.005930
# 6 -0.002483 -0.003382 -0.005343 0.004889 0.005930 0.036716
#
#
# Mechanical properties :
#
#
# Convention : Reuss Voigt Hill
#
# Bulk Modulus (GPa) = 28.45922 43.87830 36.16876
# Shear Modulus (GPa) = 25.81997 33.55596 29.68797
#
# Velocity S-wave (km/s) = 3.36589 3.83714 3.60921
# Velocity P-wave (km/s) = 5.25290 6.23573 5.76529
#
# Compressibility (1/GPa) = 0.03513799
#
# Stress axis : x y z
#
# Youngs Moduli (GPa) = 47.40217 73.26707 61.05779
#
# Poissons Ratio (x) = 0.41119 -0.16671
# Poissons Ratio (y) = 0.26603 0.31204
# Poissons Ratio (z) = -0.12943 0.37444
#
# Static dielectric constant tensor:
#      x y z
#    x 3.914490 0.267410 -0.114650 
#    y 0.267410 4.068680 0.158090 
#    z -0.114650 0.158090 4.004190 
# 
# 
# High freq. dielectric constant tensor:
#      x y z
#    x 1.889350 0.019610 -0.018450 
#    y 0.019610 1.906580 -0.001680 
#    z -0.018450 -0.001680 1.902520 
# 
# From -- ./inp_files/539301.got.cif
#   From: 2010.06.25/outbox.cif.g09.slc.cpg/sg2_270_cif.got.tgz:539301.got - 2010.06.27 13:26:56.
