data_PCOD8031252
_publ_section_title
;
Structure prediction by ZEFSAII (Michael W. Deem and Ramdas Pophale) SiO2 
 PCOD8031252
Probable space group: P -1
;
_chemical_formula_sum "Si O2"
_cell_formula_units_Z 16
_cell_length_a 9.151942
_cell_length_b 18.430307
_cell_length_c 14.010079
_cell_angle_alpha 27.041703
_cell_angle_beta 47.308375
_cell_angle_gamma 44.319678
_cell_volume 744.396235
_symmetry_space_group_name_H-M "P -1"
_symmetry_group_IT_number 2
_symmetry_cell_setting 'triclinic'
loop_
_space_group_symop_operation_xyz
x,y,z
-x,-y,-z
loop_
_atom_site_type_symbol
_atom_site_label
_atom_site_fract_x
_atom_site_fract_y
_atom_site_fract_z
Si Si1 0.816001 0.171248 0.500645
Si Si2 0.723414 0.500805 0.866036
Si Si3 0.039928 0.215169 0.160525
Si Si4 0.697882 0.516822 0.470447
Si Si5 0.038839 0.260938 0.481410
Si Si6 0.562494 0.708042 0.130084
Si Si7 0.679136 0.661364 0.495840
Si Si8 0.203891 0.036653 0.835653
O O1 0.934016 0.214227 0.489264
O O2 0.568167 0.265371 0.505976
O O3 0.908646 0.230006 0.297349
O O4 0.852631 0.972509 0.707701
O O5 0.717690 0.538520 0.712693
O O6 0.801745 0.635403 0.734137
O O7 0.500000 0.500000 0.000000
O O8 0.887126 0.314162 0.027991
O O9 0.212985 0.306704 0.998302
O O10 0.862759 0.371620 0.504701
O O11 0.594411 0.691678 0.250974
O O12 0.512963 0.451558 0.671625
O O13 0.805393 0.559404 0.467435
O O14 0.179500 0.086250 0.675925
O O15 0.404143 0.877434 0.958060
O O16 0.775627 0.807922 0.296385
O O17 0.000000 0.000000 0.000000
#
# Coordination Sequence:
#
# PCOD8031252 Si02
#       8
#     2   2   2   2   2   2   2   2
#     4  11  24  44  70  99 130 175 225 276 326 393
#     4  11  24  46  68  99 136 172 219 276 332 392
#     4  11  24  44  71  97 131 173 229 267 334 396
#     4  11  24  42  65  99 134 171 225 265 327 396
#     4  11  25  45  66  99 138 171 220 279 327 393
#     4  11  22  43  63  98 135 173 216 276 321 402
#     4  11  25  41  71  97 137 176 218 275 330 389
#     4  11  24  43  64  96 139 174 216 267 334 392
#
# _framework density 21.493928
#
# number of rings (size 3 to 8) (size 9 to 14) (size 15 to 20)
#    0.000    1.000    5.000    1.500    0.000    6.000 
#    0.000    1.250    0.000    0.000    0.000    0.000 
#    0.000    0.000    0.000    0.000    0.000    0.000 
#
# Total GULP energy -198290.876261 kJ/mol
# GULP energy per Si atom -12393.179766 kJ/mol
# Density = 2.144501 g / cm^3
# Si number density = 21.493928 Si / 1000 Ang^3
#
#
#
# Elastic Constant Matrix: (Units=GPa)
#
#
# Indices 1 2 3 4 5 6 
#
# 1 145.0149 40.9565 63.7276 2.7207 8.4711 6.9191
# 2 40.9565 66.3750 34.1431 0.2149 12.6367 4.2945
# 3 63.7276 34.1431 141.6771 -8.9185 6.2184 -6.8262
# 4 2.7207 0.2149 -8.9185 19.0818 -17.3355 6.7217
# 5 8.4711 12.6367 6.2184 -17.3355 58.4411 3.5843
# 6 6.9191 4.2945 -6.8262 6.7217 3.5843 40.3311
#
#
#
# Elastic Compliance Matrix: (Units=1/GPa)
#
#
# Indices 1 2 3 4 5 6 
#
# 1 0.009816 -0.003802 -0.003742 -0.003857 -0.001276 -0.001156
# 2 -0.003802 0.020139 -0.003305 -0.005604 -0.005073 -0.000667
# 3 -0.003742 -0.003305 0.009930 0.006608 0.002076 0.001389
# 4 -0.003857 -0.005604 0.006608 0.086195 0.027521 -0.014434
# 5 -0.001276 -0.005073 0.002076 0.027521 0.026695 -0.005849
# 6 -0.001156 -0.000667 0.001389 -0.014434 -0.005849 0.028225
#
#
# Mechanical properties :
#
#
# Convention : Reuss Voigt Hill
#
# Bulk Modulus (GPa) = 54.98460 70.08015 62.53237
# Shear Modulus (GPa) = 23.95102 37.85346 30.90224
#
# Velocity S-wave (km/s) = 3.34176 4.20113 3.79584
# Velocity P-wave (km/s) = 6.36607 7.49720 6.95467
#
# Compressibility (1/GPa) = 0.01818691
#
# Stress axis : x y z
#
# Youngs Moduli (GPa) = 101.87472 49.65379 100.70826
#
# Poissons Ratio (x) = 0.18879 0.37681
# Poissons Ratio (y) = 0.38733 0.33289
# Poissons Ratio (z) = 0.38117 0.16413
#
# Static dielectric constant tensor:
#      x y z
#    x 4.329320 -0.177630 0.108360 
#    y -0.177630 3.425380 -0.183150 
#    z 0.108360 -0.183150 4.539790 
# 
# 
# High freq. dielectric constant tensor:
#      x y z
#    x 1.870380 -0.020100 0.000450 
#    y -0.020100 1.811900 -0.006080 
#    z 0.000450 -0.006080 1.867520 
# 
# From -- ./inp_files/402627.got.cif
#   From: 2010.06.25/outbox.cif.g09.slc.cpg/sg2_202_cif.got.tgz:402627.got - 2010.06.27 13:26:56.
