data_PCOD8031559
_publ_section_title
;
Structure prediction by ZEFSAII (Michael W. Deem and Ramdas Pophale) SiO2 
 PCOD8031559
Probable space group: P -1
;
_chemical_formula_sum "Si O2"
_cell_formula_units_Z 16
_cell_length_a 8.612606
_cell_length_b 16.054727
_cell_length_c 18.752009
_cell_angle_alpha 32.764875
_cell_angle_beta 136.117136
_cell_angle_gamma 148.658280
_cell_volume 729.861613
_symmetry_space_group_name_H-M "P -1"
_symmetry_group_IT_number 2
_symmetry_cell_setting 'triclinic'
loop_
_space_group_symop_operation_xyz
x,y,z
-x,-y,-z
loop_
_atom_site_type_symbol
_atom_site_label
_atom_site_fract_x
_atom_site_fract_y
_atom_site_fract_z
Si Si1 0.134163 0.780136 0.195846
Si Si2 0.132754 0.731110 0.386953
Si Si3 0.505069 0.668471 0.412662
Si Si4 0.580097 0.211651 0.955575
Si Si5 0.537117 0.489748 0.831173
Si Si6 0.804499 0.674563 0.934864
Si Si7 0.666423 0.795383 0.533684
Si Si8 0.152969 0.116206 0.757512
O O1 0.140681 0.834887 0.241777
O O2 0.197960 0.624980 0.331616
O O3 0.802437 0.661033 0.142459
O O4 0.379773 0.982367 0.085864
O O5 0.467976 0.858555 0.435444
O O6 0.000000 0.500000 0.500000
O O7 0.945252 0.748822 0.367052
O O8 0.500000 0.500000 0.500000
O O9 0.602111 0.698835 0.504074
O O10 0.743349 0.869977 0.298885
O O11 0.618960 0.357416 0.924905
O O12 0.416111 0.204705 0.837183
O O13 0.904699 0.300786 0.971472
O O14 0.754138 0.639707 0.858442
O O15 0.579008 0.626060 0.682411
O O16 0.500000 0.500000 0.000000
O O17 0.873639 0.874915 0.845310
O O18 0.000000 0.000000 0.500000
#
# Coordination Sequence:
#
# PCOD8031559 Si02
#       8
#     2   2   2   2   2   2   2   2
#     4  11  23  42  73  99 133 179 240 280 331 417
#     4  11  22  44  72 102 133 183 238 282 330 420
#     4  11  24  42  73 100 136 176 232 286 347 395
#     4  12  25  47  73  98 134 191 236 274 345 421
#     4  12  25  46  71 101 139 184 233 282 344 413
#     4  12  29  45  65 105 147 175 224 288 354 407
#     4  11  25  46  68 100 140 182 230 275 344 417
#     4  12  24  46  70 103 140 178 230 292 345 398
#
# _framework density 21.921963999999999
#
# number of rings (size 3 to 8) (size 9 to 14) (size 15 to 20)
#    0.000    0.500    3.750    4.875    5.250    1.000 
#    2.250    1.250    0.000    0.000    0.000    0.000 
#    0.000    0.000    0.000    0.000    0.000    0.000 
#
# Total GULP energy -198327.953241 kJ/mol
# GULP energy per Si atom -12395.497078 kJ/mol
# Density = 2.187207 g / cm^3
# Si number density = 21.921964 Si / 1000 Ang^3
#
#
#
# Elastic Constant Matrix: (Units=GPa)
#
#
# Indices 1 2 3 4 5 6 
#
# 1 134.0854 56.1309 48.3287 5.2673 12.0590 7.0452
# 2 56.1309 131.0442 46.4376 6.4191 16.1150 14.1354
# 3 48.3287 46.4376 89.6674 8.9943 6.4768 -1.2156
# 4 5.2673 6.4191 8.9943 29.4660 -0.6209 -3.8071
# 5 12.0590 16.1150 6.4768 -0.6209 49.0874 -2.6804
# 6 7.0452 14.1354 -1.2156 -3.8071 -2.6804 48.6502
#
#
#
# Elastic Compliance Matrix: (Units=1/GPa)
#
#
# Indices 1 2 3 4 5 6 
#
# 1 0.010187 -0.002704 -0.004005 -0.000145 -0.001135 -0.000863
# 2 -0.002704 0.010886 -0.003921 -0.001146 -0.002576 -0.003101
# 3 -0.004005 -0.003921 0.015644 -0.002955 0.000273 0.001894
# 4 -0.000145 -0.001146 -0.002955 0.035551 0.001423 0.003141
# 5 -0.001135 -0.002576 0.000273 0.001423 0.021600 0.002221
# 6 -0.000863 -0.003101 0.001894 0.003141 0.002221 0.021996
#
#
# Mechanical properties :
#
#
# Convention : Reuss Voigt Hill
#
# Bulk Modulus (GPa) = 64.70083 72.95461 68.82772
# Shear Modulus (GPa) = 35.14267 39.03404 37.08836
#
# Velocity S-wave (km/s) = 4.00819 4.22428 4.11766
# Velocity P-wave (km/s) = 7.14136 7.55938 7.35334
#
# Compressibility (1/GPa) = 0.01545575
#
# Stress axis : x y z
#
# Youngs Moduli (GPa) = 98.16728 91.85801 63.92173
#
# Poissons Ratio (x) = 0.24840 0.25601
# Poissons Ratio (y) = 0.26547 0.25066
# Poissons Ratio (z) = 0.39317 0.36021
#
# Static dielectric constant tensor:
#      x y z
#    x 4.868740 -0.011490 -0.260610 
#    y -0.011490 4.311870 0.162520 
#    z -0.260610 0.162520 4.188790 
# 
# 
# High freq. dielectric constant tensor:
#      x y z
#    x 1.881630 0.013180 -0.005660 
#    y 0.013180 1.852380 0.003190 
#    z -0.005660 0.003190 1.873220 
# 
# From -- ./inp_files/591220.got.cif
#   From: 2010.06.25/outbox.cif.g09.slc.cpg/sg2_296_cif.got.tgz:591220.got - 2010.06.27 13:26:56.
