data_PCOD8031834
_publ_section_title
;
Structure prediction by ZEFSAII (Michael W. Deem and Ramdas Pophale) SiO2 
 PCOD8031834
Probable space group: P -1
;
_chemical_formula_sum "Si O2"
_cell_formula_units_Z 16
_cell_length_a 14.957499
_cell_length_b 10.925275
_cell_length_c 14.750098
_cell_angle_alpha 139.605468
_cell_angle_beta 138.696956
_cell_angle_gamma 28.573232
_cell_volume 720.220357
_symmetry_space_group_name_H-M "P -1"
_symmetry_group_IT_number 2
_symmetry_cell_setting 'triclinic'
loop_
_space_group_symop_operation_xyz
x,y,z
-x,-y,-z
loop_
_atom_site_type_symbol
_atom_site_label
_atom_site_fract_x
_atom_site_fract_y
_atom_site_fract_z
Si Si1 0.724611 0.539317 0.410847
Si Si2 0.221894 0.614067 0.168225
Si Si3 0.661354 0.203245 0.242109
Si Si4 0.683016 0.988160 0.681541
Si Si5 0.305420 0.153054 0.073467
Si Si6 0.051193 0.284345 0.115975
Si Si7 0.854080 0.911852 0.574172
Si Si8 0.725202 0.883854 0.273556
O O1 0.751823 0.320993 0.366294
O O2 0.687683 0.756170 0.570363
O O3 0.921048 0.376691 0.411489
O O4 0.534889 0.714392 0.300010
O O5 0.431276 0.445660 0.191011
O O6 0.212184 0.428794 0.110823
O O7 0.157654 0.850773 0.316784
O O8 0.072287 0.753637 0.049196
O O9 0.715668 0.079912 0.314506
O O10 0.741285 0.979060 0.100741
O O11 0.748838 0.965060 0.616742
O O12 0.826716 0.938106 0.836064
O O13 0.204707 0.229183 0.135463
O O14 0.535336 0.947235 0.146302
O O15 0.914350 0.579586 0.220296
O O16 0.739253 0.928135 0.413889
#
# Coordination Sequence:
#
# PCOD8031834 Si02
#       8
#     2   2   2   2   2   2   2   2
#     4  11  25  44  69  94 137 180 224 282 332 387
#     4  11  23  45  69 104 142 174 222 282 341 404
#     4  11  22  47  69 103 143 169 224 290 334 405
#     4  11  27  47  67  96 138 183 234 279 322 405
#     4  11  24  42  72 102 142 173 219 287 340 403
#     4  12  24  43  74  99 131 190 226 266 346 406
#     4  12  26  45  70 101 139 180 225 282 336 400
#     4  11  25  41  72 105 135 178 221 277 350 400
#
# _framework density 22.215423000000001
#
# number of rings (size 3 to 8) (size 9 to 14) (size 15 to 20)
#    0.000    0.750    5.000    2.250    5.250    4.000 
#    0.000    1.250    0.000    0.000    0.000    0.000 
#    0.000    0.000    0.000    0.000    0.000    0.000 
#
# Total GULP energy -198442.073248 kJ/mol
# GULP energy per Si atom -12402.629578 kJ/mol
# Density = 2.216486 g / cm^3
# Si number density = 22.215423 Si / 1000 Ang^3
#
#
#
# Elastic Constant Matrix: (Units=GPa)
#
#
# Indices 1 2 3 4 5 6 
#
# 1 80.1160 12.9142 38.8742 -7.4858 -10.8051 4.5853
# 2 12.9142 103.2890 28.9754 -16.8822 -10.8783 -4.7713
# 3 38.8742 28.9754 80.4616 -5.1380 -17.4385 11.4164
# 4 -7.4858 -16.8822 -5.1380 46.9780 9.3039 0.2623
# 5 -10.8051 -10.8783 -17.4385 9.3039 35.3051 1.9862
# 6 4.5853 -4.7713 11.4164 0.2623 1.9862 22.4804
#
#
#
# Elastic Compliance Matrix: (Units=1/GPa)
#
#
# Indices 1 2 3 4 5 6 
#
# 1 0.016503 0.000595 -0.008013 0.001813 0.000757 0.000741
# 2 0.000595 0.011857 -0.004985 0.003762 0.000107 0.004874
# 3 -0.008013 -0.004985 0.021145 -0.002210 0.007647 -0.010812
# 4 0.001813 0.003762 -0.002210 0.023815 -0.005754 0.001781
# 5 0.000757 0.000107 0.007647 -0.005754 0.034275 -0.006976
# 6 0.000741 0.004874 -0.010812 0.001781 -0.006976 0.051452
#
#
# Mechanical properties :
#
#
# Convention : Reuss Voigt Hill
#
# Bulk Modulus (GPa) = 40.48832 47.26602 43.87717
# Shear Modulus (GPa) = 26.02982 33.15954 29.59468
#
# Velocity S-wave (km/s) = 3.42672 3.86766 3.65385
# Velocity P-wave (km/s) = 5.82421 6.42397 6.13143
#
# Compressibility (1/GPa) = 0.02469848
#
# Stress axis : x y z
#
# Youngs Moduli (GPa) = 60.59469 84.33808 47.29233
#
# Poissons Ratio (x) = -0.05016 0.37895
# Poissons Ratio (y) = -0.03604 0.23576
# Poissons Ratio (z) = 0.48554 0.42044
#
# Static dielectric constant tensor:
#      x y z
#    x 3.849540 -0.030090 0.113770 
#    y -0.030090 4.314080 -0.019310 
#    z 0.113770 -0.019310 4.084810 
# 
# 
# High freq. dielectric constant tensor:
#      x y z
#    x 1.866450 -0.009940 0.009280 
#    y -0.009940 1.894100 -0.003740 
#    z 0.009280 -0.003740 1.868160 
# 
# From -- ./inp_files/532067.got.cif
#   From: 2010.06.25/outbox.cif.g09.slc.cpg/sg2_267_cif.got.tgz:532067.got - 2010.06.27 13:26:56.
