data_PCOD8031820
_publ_section_title
;
Structure prediction by ZEFSAII (Michael W. Deem and Ramdas Pophale) SiO2 
 PCOD8031820
Probable space group: P -1
;
_chemical_formula_sum "Si O2"
_cell_formula_units_Z 12
_cell_length_a 8.454061
_cell_length_b 8.435301
_cell_length_c 11.953101
_cell_angle_alpha 140.728413
_cell_angle_beta 111.009594
_cell_angle_gamma 84.468281
_cell_volume 479.446207
_symmetry_space_group_name_H-M "P -1"
_symmetry_group_IT_number 2
_symmetry_cell_setting 'triclinic'
loop_
_space_group_symop_operation_xyz
x,y,z
-x,-y,-z
loop_
_atom_site_type_symbol
_atom_site_label
_atom_site_fract_x
_atom_site_fract_y
_atom_site_fract_z
Si Si1 0.442994 0.080034 0.146392
Si Si2 0.045627 0.178110 0.812978
Si Si3 0.123424 0.268893 0.132560
Si Si4 0.327026 0.513141 0.898234
Si Si5 0.681226 0.941588 0.485573
Si Si6 0.210473 0.773079 0.557670
O O1 0.326172 0.273845 0.203185
O O2 0.617059 0.254138 0.350741
O O3 0.336220 0.814744 0.042074
O O4 0.500000 0.000000 0.000000
O O5 0.150243 0.381515 0.855558
O O6 0.097471 0.906291 0.681921
O O7 0.088198 0.319108 0.021226
O O8 0.833432 0.097747 0.695339
O O9 0.089696 0.495186 0.325855
O O10 0.000000 0.000000 0.000000
O O11 0.328768 0.366517 0.697594
O O12 0.500000 0.500000 0.000000
O O13 0.500000 0.000000 0.500000
O O14 0.729061 0.027493 0.418716
#
# Coordination Sequence:
#
# PCOD8031820 Si02
#       6
#     2   2   2   2   2   2
#     4  12  25  48  75 107 155 194 238 304 375 443
#     4  11  26  52  73 107 153 193 249 312 364 439
#     4  12  30  45  74 112 148 196 247 303 370 447
#     4  11  22  46  79 106 144 199 245 298 375 433
#     4  11  27  44  78 108 143 194 257 314 358 434
#     4  11  25  49  73 105 149 196 247 299 375 440
#
# _framework density 25.028877000000001
#
# number of rings (size 3 to 8) (size 9 to 14) (size 15 to 20)
#    0.000    0.667    5.000    2.500   11.667    2.667 
#    0.000    0.000    0.000    0.000    0.000    0.000 
#    0.000    0.000    0.000    0.000    0.000    0.000 
#
# Total GULP energy -148805.052199 kJ/mol
# GULP energy per Si atom -12400.421017 kJ/mol
# Density = 2.497191 g / cm^3
# Si number density = 25.028877 Si / 1000 Ang^3
#
#
#
# Elastic Constant Matrix: (Units=GPa)
#
#
# Indices 1 2 3 4 5 6 
#
# 1 106.8646 19.2183 44.8511 0.5099 18.9768 -19.4278
# 2 19.2183 54.7993 32.2483 -16.1632 4.3011 3.5109
# 3 44.8511 32.2483 174.4503 -7.9482 0.6006 -3.2109
# 4 0.5099 -16.1632 -7.9482 40.6398 -12.4221 12.9734
# 5 18.9768 4.3011 0.6006 -12.4221 45.6067 -5.3396
# 6 -19.4278 3.5109 -3.2109 12.9734 -5.3396 37.2543
#
#
#
# Elastic Compliance Matrix: (Units=1/GPa)
#
#
# Indices 1 2 3 4 5 6 
#
# 1 0.014641 -0.006047 -0.002820 -0.008320 -0.006590 0.009915
# 2 -0.006047 0.026801 -0.002949 0.014350 0.002701 -0.010543
# 3 -0.002820 -0.002949 0.007027 0.000925 0.001530 -0.000690
# 4 -0.008320 0.014350 0.000925 0.039597 0.010791 -0.017854
# 5 -0.006590 0.002701 0.001530 0.010791 0.026928 -0.003458
# 6 0.009915 -0.010543 -0.000690 -0.017854 -0.003458 0.038669
#
#
# Mechanical properties :
#
#
# Convention : Reuss Voigt Hill
#
# Bulk Modulus (GPa) = 40.26468 58.74995 49.50732
# Shear Modulus (GPa) = 26.94350 40.68659 33.81505
#
# Velocity S-wave (km/s) = 3.28456 4.03623 3.67964
# Velocity P-wave (km/s) = 5.52328 6.72647 6.15435
#
# Compressibility (1/GPa) = 0.02483566
#
# Stress axis : x y z
#
# Youngs Moduli (GPa) = 68.30035 37.31273 142.31382
#
# Poissons Ratio (x) = 0.22563 0.40137
# Poissons Ratio (y) = 0.41301 0.41970
# Poissons Ratio (z) = 0.19263 0.11004
#
# Static dielectric constant tensor:
#      x y z
#    x 4.325510 -0.168610 -0.146560 
#    y -0.168610 5.028070 0.102830 
#    z -0.146560 0.102830 4.979640 
# 
# 
# High freq. dielectric constant tensor:
#      x y z
#    x 2.003060 -0.017890 -0.001730 
#    y -0.017890 1.985490 -0.001840 
#    z -0.001730 -0.001840 2.016910 
# 
# From -- ./inp_files/168620.got.cif
#   From: 2010.06.25/outbox.cif.g09.slc.cpg/sg2_85_cif.got.tgz:168620.got - 2010.06.27 13:26:56.
