data_PCOD8031584
_publ_section_title
;
Structure prediction by ZEFSAII (Michael W. Deem and Ramdas Pophale) SiO2 
 PCOD8031584
Probable space group: P -1
;
_chemical_formula_sum "Si O2"
_cell_formula_units_Z 14
_cell_length_a 8.795434
_cell_length_b 14.540348
_cell_length_c 11.819529
_cell_angle_alpha 150.219907
_cell_angle_beta 130.381843
_cell_angle_gamma 59.795693
_cell_volume 564.835689
_symmetry_space_group_name_H-M "P -1"
_symmetry_group_IT_number 2
_symmetry_cell_setting 'triclinic'
loop_
_space_group_symop_operation_xyz
x,y,z
-x,-y,-z
loop_
_atom_site_type_symbol
_atom_site_label
_atom_site_fract_x
_atom_site_fract_y
_atom_site_fract_z
Si Si1 0.075659 0.594972 0.799925
Si Si2 0.114213 0.060718 0.971795
Si Si3 0.803119 0.106451 0.392092
Si Si4 0.751388 0.785019 0.189721
Si Si5 0.303897 0.526461 0.360377
Si Si6 0.484941 0.779315 0.262896
Si Si7 0.216094 0.248955 0.430787
O O1 0.151111 0.453014 0.592879
O O2 0.028967 0.780739 0.915466
O O3 0.887223 0.490548 0.667703
O O4 0.259301 0.670335 0.054109
O O5 0.278165 0.136163 0.229360
O O6 0.214990 0.045446 0.882387
O O7 0.980921 0.864454 0.725050
O O8 0.672353 0.268693 0.469622
O O9 0.035062 0.194844 0.621029
O O10 0.718861 0.984718 0.331082
O O11 0.578378 0.717901 0.125243
O O12 0.737484 0.627791 0.920512
O O13 0.500000 0.500000 0.500000
O O14 0.597444 0.716693 0.358748
O O15 0.500000 0.000000 0.500000
#
# Coordination Sequence:
#
# PCOD8031584 Si02
#       7
#     2   2   2   2   2   2   2
#     4  12  24  48  75 105 151 190 246 302 368 441
#     4  11  22  44  73 107 147 190 241 303 361 434
#     4  11  23  49  79 105 148 196 249 299 372 433
#     4  11  25  48  76 107 149 196 242 307 362 445
#     4  12  28  48  75 110 150 193 250 303 372 441
#     4  12  25  48  74 114 144 193 249 297 371 439
#     4  11  24  42  72 111 150 190 239 306 370 428
#
# _framework density 24.785969000000001
#
# number of rings (size 3 to 8) (size 9 to 14) (size 15 to 20)
#    0.000    0.571    5.714    1.286    2.000    4.000 
#    5.143    0.000    0.000    0.000    0.000    0.000 
#    0.000    0.000    0.000    0.000    0.000    0.000 
#
# Total GULP energy -173571.984202 kJ/mol
# GULP energy per Si atom -12397.998872 kJ/mol
# Density = 2.472956 g / cm^3
# Si number density = 24.785969 Si / 1000 Ang^3
#
#
#
# Elastic Constant Matrix: (Units=GPa)
#
#
# Indices 1 2 3 4 5 6 
#
# 1 56.1420 18.6091 23.7866 -22.0831 12.5964 2.2612
# 2 18.6091 143.2048 27.1024 11.3599 7.1561 -3.0846
# 3 23.7866 27.1024 101.5688 -1.7471 -4.5602 -1.4576
# 4 -22.0831 11.3599 -1.7471 42.7157 -2.0814 -14.5886
# 5 12.5964 7.1561 -4.5602 -2.0814 35.9375 -4.5317
# 6 2.2612 -3.0846 -1.4576 -14.5886 -4.5317 23.2634
#
#
#
# Elastic Compliance Matrix: (Units=1/GPa)
#
#
# Indices 1 2 3 4 5 6 
#
# 1 0.030509 -0.003650 -0.006183 0.017998 -0.008990 0.005699
# 2 -0.003650 0.008128 -0.001470 -0.004798 -0.001040 -0.001871
# 3 -0.006183 -0.001470 0.011841 -0.001876 0.003947 0.000740
# 4 0.017998 -0.004798 -0.001876 0.042048 -0.000150 0.023836
# 5 -0.008990 -0.001040 0.003947 -0.000150 0.032589 0.007237
# 6 0.005699 -0.001871 0.000740 0.023836 0.007237 0.058588
#
#
# Mechanical properties :
#
#
# Convention : Reuss Voigt Hill
#
# Bulk Modulus (GPa) = 35.87915 48.87909 42.37912
# Shear Modulus (GPa) = 23.19110 35.81117 29.50114
#
# Velocity S-wave (km/s) = 3.06217 3.80520 3.45372
# Velocity P-wave (km/s) = 5.19707 6.25055 5.74799
#
# Compressibility (1/GPa) = 0.02787134
#
# Stress axis : x y z
#
# Youngs Moduli (GPa) = 32.77757 123.03437 84.44922
#
# Poissons Ratio (x) = 0.44908 0.52217
# Poissons Ratio (y) = 0.11964 0.12414
# Poissons Ratio (z) = 0.20267 0.18087
#
# Static dielectric constant tensor:
#      x y z
#    x 4.340120 0.016930 -0.069430 
#    y 0.016930 4.769430 -0.050900 
#    z -0.069430 -0.050900 4.721860 
# 
# 
# High freq. dielectric constant tensor:
#      x y z
#    x 1.964820 0.002700 -0.008580 
#    y 0.002700 1.999360 0.001590 
#    z -0.008580 0.001590 2.010360 
# 
# From -- ./inp_files/187740.got.cif
#   From: 2010.06.25/outbox.cif.g09.slc.cpg/sg2_94_cif.got.tgz:187740.got - 2010.06.27 13:26:56.
