data_PCOD8031950
_publ_section_title
;
Structure prediction by ZEFSAII (Michael W. Deem and Ramdas Pophale) SiO2 
 PCOD8031950
Probable space group: P -1
;
_chemical_formula_sum "Si O2"
_cell_formula_units_Z 14
_cell_length_a 9.076481
_cell_length_b 15.621368
_cell_length_c 9.175180
_cell_angle_alpha 85.329978
_cell_angle_beta 32.098292
_cell_angle_gamma 84.428740
_cell_volume 688.008824
_symmetry_space_group_name_H-M "P -1"
_symmetry_group_IT_number 2
_symmetry_cell_setting 'triclinic'
loop_
_space_group_symop_operation_xyz
x,y,z
-x,-y,-z
loop_
_atom_site_type_symbol
_atom_site_label
_atom_site_fract_x
_atom_site_fract_y
_atom_site_fract_z
Si Si1 0.893597 0.281244 0.791581
Si Si2 0.403938 0.585654 0.486040
Si Si3 0.904922 0.136080 0.130113
Si Si4 0.766467 0.970015 0.371471
Si Si5 0.059140 0.315759 0.967329
Si Si6 0.550751 0.822935 0.702996
Si Si7 0.731102 0.446838 0.726165
O O1 0.907389 0.320559 0.936922
O O2 0.198369 0.248160 0.491761
O O3 0.784679 0.352819 0.761065
O O4 0.674071 0.204611 0.985035
O O5 0.500000 0.500000 0.500000
O O6 0.627433 0.657056 0.310984
O O7 0.372215 0.563378 0.348458
O O8 0.108949 0.620942 0.790720
O O9 0.593693 0.172187 0.338251
O O10 0.034594 0.096440 0.877231
O O11 0.070415 0.217523 0.033713
O O12 0.912734 0.061555 0.260098
O O13 0.674907 0.919234 0.602484
O O14 0.500000 0.000000 0.500000
O O15 0.000000 0.500000 0.500000
O O16 0.500000 0.500000 0.000000
#
# Coordination Sequence:
#
# PCOD8031950 Si02
#       7
#     2   2   2   2   2   2   2
#     4  11  21  35  59  85 116 157 195 244 290 352
#     4  12  25  41  61  87 117 155 192 247 304 354
#     4   9  18  30  51  86 126 160 187 244 296 343
#     4   9  16  28  50  83 132 152 194 235 299 337
#     4  11  21  37  60  87 121 150 197 238 301 350
#     4  10  17  31  50  83 119 153 194 236 288 335
#     4  12  25  44  63  85 115 153 202 248 301 356
#
# _framework density 20.348576999999999
#
# number of rings (size 3 to 8) (size 9 to 14) (size 15 to 20)
#    0.000    1.429    2.857    5.571    2.000    0.000 
#    0.000    0.000    0.000    0.000    0.000    6.000 
#    0.000    0.000    0.000    0.000    0.000    0.000 
#
# Total GULP energy -173470.159346 kJ/mol
# GULP energy per Si atom -12390.725668 kJ/mol
# Density = 2.030226 g / cm^3
# Si number density = 20.348577 Si / 1000 Ang^3
#
#
#
# Elastic Constant Matrix: (Units=GPa)
#
#
# Indices 1 2 3 4 5 6 
#
# 1 73.7361 38.5013 21.9504 -8.2525 7.1659 -11.4025
# 2 38.5013 140.6135 34.9192 -29.5459 -9.6624 -15.9368
# 3 21.9504 34.9192 95.4878 -10.1397 -16.8604 -9.0100
# 4 -8.2525 -29.5459 -10.1397 55.3063 1.1206 -4.5897
# 5 7.1659 -9.6624 -16.8604 1.1206 25.5620 -0.2013
# 6 -11.4025 -15.9368 -9.0100 -4.5897 -0.2013 26.6011
#
#
#
# Elastic Compliance Matrix: (Units=1/GPa)
#
#
# Indices 1 2 3 4 5 6 
#
# 1 0.018507 -0.004202 -0.003955 0.000318 -0.009367 0.004060
# 2 -0.004202 0.010463 -0.001102 0.005090 0.004222 0.005004
# 3 -0.003955 -0.001102 0.013922 0.001396 0.009835 0.002675
# 4 0.000318 0.005090 0.001396 0.021681 0.001864 0.007414
# 5 -0.009367 0.004222 0.009835 0.001864 0.049767 0.002544
# 6 0.004060 0.005004 0.002675 0.007414 0.002544 0.044535
#
#
# Mechanical properties :
#
#
# Convention : Reuss Voigt Hill
#
# Bulk Modulus (GPa) = 41.02679 55.61992 48.32336
# Shear Modulus (GPa) = 26.95160 35.79165 31.37162
#
# Velocity S-wave (km/s) = 3.64331 4.19851 3.93072
# Velocity P-wave (km/s) = 6.15663 7.13416 6.66334
#
# Compressibility (1/GPa) = 0.02437431
#
# Stress axis : x y z
#
# Youngs Moduli (GPa) = 54.03370 95.57782 71.82943
#
# Poissons Ratio (x) = 0.40160 0.28407
# Poissons Ratio (y) = 0.22704 0.07916
# Poissons Ratio (z) = 0.21369 0.10533
#
# Static dielectric constant tensor:
#      x y z
#    x 3.248990 -0.130660 -0.348120 
#    y -0.130660 4.322710 -0.442840 
#    z -0.348120 -0.442840 4.210140 
# 
# 
# High freq. dielectric constant tensor:
#      x y z
#    x 1.723640 -0.021890 -0.029590 
#    y -0.021890 1.822760 -0.017310 
#    z -0.029590 -0.017310 1.817080 
# 
# From -- ./inp_files/110848.got.cif
#   From: 2010.06.25/outbox.cif.g09.slc.cpg/sg2_56_cif.got.tgz:110848.got - 2010.06.27 13:26:56.
