data_PCOD8031033
_publ_section_title
;
Structure prediction by ZEFSAII (Michael W. Deem and Ramdas Pophale) SiO2 
 PCOD8031033
Probable space group: P -1
;
_chemical_formula_sum "Si O2"
_cell_formula_units_Z 16
_cell_length_a 12.517608
_cell_length_b 9.305053
_cell_length_c 17.891565
_cell_angle_alpha 148.774454
_cell_angle_beta 45.015153
_cell_angle_gamma 131.779270
_cell_volume 753.203327
_symmetry_space_group_name_H-M "P -1"
_symmetry_group_IT_number 2
_symmetry_cell_setting 'triclinic'
loop_
_space_group_symop_operation_xyz
x,y,z
-x,-y,-z
loop_
_atom_site_type_symbol
_atom_site_label
_atom_site_fract_x
_atom_site_fract_y
_atom_site_fract_z
Si Si1 0.487962 0.830947 0.565923
Si Si2 0.185198 0.807179 0.630339
Si Si3 0.120272 0.906541 0.308203
Si Si4 0.292270 0.638676 0.350833
Si Si5 0.389848 0.088834 0.032676
Si Si6 0.967599 0.396456 0.645124
Si Si7 0.062711 0.819162 0.127064
Si Si8 0.463495 0.183484 0.292323
O O1 0.349342 0.949866 0.645514
O O2 0.497533 0.510367 0.394828
O O3 0.474633 0.850508 0.670198
O O4 0.637721 0.035736 0.552925
O O5 0.212252 0.606856 0.457864
O O6 0.116071 0.624117 0.654440
O O7 0.078105 0.020921 0.750154
O O8 0.074381 0.621196 0.253649
O O9 0.119764 0.833265 0.189881
O O10 0.282826 0.075190 0.329707
O O11 0.988963 0.090164 0.469745
O O12 0.411739 0.424802 0.186042
O O13 0.169589 0.517432 0.295494
O O14 0.212498 0.941189 0.059739
O O15 0.500000 0.000000 0.000000
O O16 0.447220 0.010423 0.888465
O O17 0.000000 0.500000 0.000000
#
# Coordination Sequence:
#
# PCOD8031033 Si02
#       8
#     2   2   2   2   2   2   2   2
#     4  11  26  43  71 104 137 185 229 282 339 404
#     4  12  24  45  68 100 140 174 237 285 333 406
#     4  11  22  45  72  99 137 180 226 282 350 405
#     4  12  24  43  70 103 134 185 236 279 336 412
#     4  12  26  43  70  98 140 184 228 282 350 407
#     4  11  22  41  74 100 127 180 231 284 335 409
#     4  12  28  45  68 104 138 181 228 290 349 403
#     4  11  24  45  69 103 145 177 230 282 345 410
#
# _framework density 21.242604
#
# number of rings (size 3 to 8) (size 9 to 14) (size 15 to 20)
#    0.000    0.500    6.250    2.250    3.500    1.500 
#    2.250    1.250    0.000    0.000    0.000    0.000 
#    0.000    0.000    0.000    0.000    0.000    0.000 
#
# Total GULP energy -198385.699561 kJ/mol
# GULP energy per Si atom -12399.106223 kJ/mol
# Density = 2.119425 g / cm^3
# Si number density = 21.242604 Si / 1000 Ang^3
#
#
#
# Elastic Constant Matrix: (Units=GPa)
#
#
# Indices 1 2 3 4 5 6 
#
# 1 107.7215 5.7881 32.3485 -7.5470 -9.1557 -7.4491
# 2 5.7881 109.5491 36.4976 3.5401 0.8517 -4.7565
# 3 32.3485 36.4976 117.4598 -0.8463 -9.7573 -6.7272
# 4 -7.5470 3.5401 -0.8463 30.5263 4.3313 2.5273
# 5 -9.1557 0.8517 -9.7573 4.3313 25.5194 -3.0369
# 6 -7.4491 -4.7565 -6.7272 2.5273 -3.0369 32.5602
#
#
#
# Elastic Compliance Matrix: (Units=1/GPa)
#
#
# Indices 1 2 3 4 5 6 
#
# 1 0.010568 0.000332 -0.002662 0.001955 0.002670 0.002014
# 2 0.000332 0.010311 -0.003355 -0.001105 -0.001218 0.000861
# 3 -0.002662 -0.003355 0.010661 -0.000594 0.003510 0.001477
# 4 0.001955 -0.001105 -0.000594 0.034413 -0.005691 -0.003039
# 5 0.002670 -0.001218 0.003510 -0.005691 0.043162 0.005626
# 6 0.002014 0.000861 0.001477 -0.003039 0.005626 0.032365
#
#
# Mechanical properties :
#
#
# Convention : Reuss Voigt Hill
#
# Bulk Modulus (GPa) = 49.58001 53.77765 51.67883
# Shear Modulus (GPa) = 31.33353 35.06093 33.19723
#
# Velocity S-wave (km/s) = 3.84478 4.06704 3.95747
# Velocity P-wave (km/s) = 6.56509 6.88661 6.72777
#
# Compressibility (1/GPa) = 0.02016942
#
# Stress axis : x y z
#
# Youngs Moduli (GPa) = 94.62507 96.98218 93.79842
#
# Poissons Ratio (x) = -0.03221 0.24973
# Poissons Ratio (y) = -0.03143 0.31471
# Poissons Ratio (z) = 0.25193 0.32539
#
# Static dielectric constant tensor:
#      x y z
#    x 4.252450 -0.165450 -0.042290 
#    y -0.165450 4.036140 -0.049290 
#    z -0.042290 -0.049290 3.782160 
# 
# 
# High freq. dielectric constant tensor:
#      x y z
#    x 1.851120 -0.004300 -0.008530 
#    y -0.004300 1.843080 -0.003050 
#    z -0.008530 -0.003050 1.814150 
# 
# From -- ./inp_files/333006.got.cif
#   From: 2010.06.25/outbox.cif.g09.slc.cpg/sg2_167_cif.got.tgz:333006.got - 2010.06.27 13:26:56.
