data_PCOD8031788
_publ_section_title
;
Structure prediction by ZEFSAII (Michael W. Deem and Ramdas Pophale) SiO2 
 PCOD8031788
Probable space group: P -1
;
_chemical_formula_sum "Si O2"
_cell_formula_units_Z 14
_cell_length_a 11.873720
_cell_length_b 9.326070
_cell_length_c 8.715261
_cell_angle_alpha 99.465599
_cell_angle_beta 128.307169
_cell_angle_gamma 57.523270
_cell_volume 617.851528
_symmetry_space_group_name_H-M "P -1"
_symmetry_group_IT_number 2
_symmetry_cell_setting 'triclinic'
loop_
_space_group_symop_operation_xyz
x,y,z
-x,-y,-z
loop_
_atom_site_type_symbol
_atom_site_label
_atom_site_fract_x
_atom_site_fract_y
_atom_site_fract_z
Si Si1 0.158895 0.424180 0.239089
Si Si2 0.685509 0.481746 0.389590
Si Si3 0.369017 0.875627 0.181990
Si Si4 0.595893 0.575184 0.784240
Si Si5 0.187433 0.730806 0.857658
Si Si6 0.497369 0.932928 0.823704
Si Si7 0.797617 0.911086 0.632502
O O1 0.139461 0.555724 0.383903
O O2 0.332799 0.395312 0.307279
O O3 0.196476 0.247509 0.309756
O O4 0.000000 0.500000 0.000000
O O5 0.558310 0.693290 0.302322
O O6 0.581689 0.416089 0.386542
O O7 0.740257 0.383153 0.255796
O O8 0.378129 0.041010 0.175158
O O9 0.281909 0.924446 0.287124
O O10 0.250489 0.860755 0.953498
O O11 0.563755 0.735199 0.886908
O O12 0.741276 0.396428 0.957528
O O13 0.982683 0.852984 0.715390
O O14 0.311379 0.030652 0.604256
O O15 0.500000 0.000000 0.000000
#
# Coordination Sequence:
#
# PCOD8031788 Si02
#       7
#     2   2   2   2   2   2   2
#     4  12  24  43  68 104 140 180 230 284 339 409
#     4  11  24  45  71  99 138 183 231 282 338 409
#     4  11  22  46  72  97 138 182 233 276 339 415
#     4  11  23  43  70 100 132 185 237 270 337 420
#     4  11  25  46  70 102 140 180 227 289 347 396
#     4  12  24  42  70 103 137 181 230 283 340 410
#     4  12  25  45  69 104 141 180 224 289 350 393
#
# _framework density 22.659165000000002
#
# number of rings (size 3 to 8) (size 9 to 14) (size 15 to 20)
#    0.000    0.571    4.286    5.571    0.000    2.857 
#    2.571    1.429    0.000    0.000    0.000    0.000 
#    0.000    0.000    0.000    0.000    0.000    0.000 
#
# Total GULP energy -173477.454385 kJ/mol
# GULP energy per Si atom -12391.246742 kJ/mol
# Density = 2.260759 g / cm^3
# Si number density = 22.659165 Si / 1000 Ang^3
#
#
#
# Elastic Constant Matrix: (Units=GPa)
#
#
# Indices 1 2 3 4 5 6 
#
# 1 82.5495 16.5125 39.7686 2.3976 25.9204 -5.2698
# 2 16.5125 88.8775 42.8913 20.5447 20.1134 -0.9509
# 3 39.7686 42.8913 147.3843 38.2242 13.7392 -18.9106
# 4 2.3976 20.5447 38.2242 34.0533 6.1248 1.6832
# 5 25.9204 20.1134 13.7392 6.1248 30.3768 4.2366
# 6 -5.2698 -0.9509 -18.9106 1.6832 4.2366 41.3760
#
#
#
# Elastic Compliance Matrix: (Units=1/GPa)
#
#
# Indices 1 2 3 4 5 6 
#
# 1 0.019847 0.001259 -0.005930 0.007452 -0.016766 0.001260
# 2 0.001259 0.015518 -0.002703 -0.004779 -0.009222 0.000421
# 3 -0.005930 -0.002703 0.013076 -0.013416 0.002886 0.005409
# 4 0.007452 -0.004779 -0.013416 0.048176 -0.005913 -0.006647
# 5 -0.016766 -0.009222 0.002886 -0.005913 0.054102 -0.006327
# 6 0.001260 0.000421 0.005409 -0.006647 -0.006327 0.027729
#
#
# Mechanical properties :
#
#
# Convention : Reuss Voigt Hill
#
# Bulk Modulus (GPa) = 29.67844 57.46178 43.57011
# Shear Modulus (GPa) = 24.45871 35.80381 30.13126
#
# Velocity S-wave (km/s) = 3.28901 3.97936 3.65054
# Velocity P-wave (km/s) = 5.24878 6.82114 6.08595
#
# Compressibility (1/GPa) = 0.03369450
#
# Stress axis : x y z
#
# Youngs Moduli (GPa) = 50.38486 64.44124 76.47560
#
# Poissons Ratio (x) = -0.08115 0.45351
# Poissons Ratio (y) = -0.06345 0.20669
# Poissons Ratio (z) = 0.29879 0.17416
#
# Static dielectric constant tensor:
#      x y z
#    x 3.928250 -0.385990 0.130380 
#    y -0.385990 3.473050 0.398480 
#    z 0.130380 0.398480 4.281060 
# 
# 
# High freq. dielectric constant tensor:
#      x y z
#    x 1.892110 0.012670 0.000430 
#    y 0.012670 1.900390 0.026200 
#    z 0.000430 0.026200 1.900240 
# 
# From -- ./inp_files/153243.got.cif
#   From: 2010.06.25/outbox.cif.g09.slc.cpg/sg2_77_cif.got.tgz:153243.got - 2010.06.27 13:26:56.
