data_PCOD8031137
_publ_section_title
;
Structure prediction by ZEFSAII (Michael W. Deem and Ramdas Pophale) SiO2 
 PCOD8031137
Probable space group: P -1
;
_chemical_formula_sum "Si O2"
_cell_formula_units_Z 16
_cell_length_a 11.561506
_cell_length_b 9.140585
_cell_length_c 13.825153
_cell_angle_alpha 75.133326
_cell_angle_beta 31.861404
_cell_angle_gamma 83.620814
_cell_volume 728.894516
_symmetry_space_group_name_H-M "P -1"
_symmetry_group_IT_number 2
_symmetry_cell_setting 'triclinic'
loop_
_space_group_symop_operation_xyz
x,y,z
-x,-y,-z
loop_
_atom_site_type_symbol
_atom_site_label
_atom_site_fract_x
_atom_site_fract_y
_atom_site_fract_z
Si Si1 0.984400 0.369070 0.823345
Si Si2 0.523747 0.141417 0.197996
Si Si3 0.550348 0.834569 0.965844
Si Si4 0.083966 0.301516 0.159406
Si Si5 0.767194 0.395819 0.652216
Si Si6 0.644370 0.206755 0.585841
Si Si7 0.613053 0.636015 0.603128
Si Si8 0.271207 0.389939 0.806381
O O1 0.157590 0.343849 0.622266
O O2 0.100757 0.385567 0.841770
O O3 0.893022 0.525331 0.841698
O O4 0.784961 0.219875 0.991522
O O5 0.398519 0.171628 0.183193
O O6 0.401786 0.202825 0.364695
O O7 0.503902 0.960669 0.258478
O O8 0.756498 0.796621 0.885333
O O9 0.330970 0.702936 0.167857
O O10 0.500000 0.000000 0.000000
O O11 0.830516 0.205477 0.371644
O O12 0.135034 0.307105 0.008615
O O13 0.777685 0.278986 0.575452
O O14 0.603222 0.507870 0.716830
O O15 0.000000 0.500000 0.500000
O O16 0.474583 0.307691 0.648653
O O17 0.388500 0.570723 0.711350
#
# Coordination Sequence:
#
# PCOD8031137 Si02
#       8
#     2   2   2   2   2   2   2   2
#     4  12  25  44  77 102 136 187 237 290 346 408
#     4  12  27  44  67 106 143 182 234 285 353 416
#     4  12  25  46  70  99 148 182 224 289 351 414
#     4  12  24  44  74 101 131 192 234 279 350 414
#     4  11  22  42  69  95 138 181 229 280 335 409
#     4  11  26  46  65 105 144 179 230 287 351 407
#     4  11  24  42  69 107 139 176 241 289 335 416
#     4  11  23  47  74 102 141 180 239 295 338 409
#
# _framework density 21.951049999999999
#
# number of rings (size 3 to 8) (size 9 to 14) (size 15 to 20)
#    0.000    0.500    7.500    1.500    1.750    5.000 
#    0.000    1.250    0.000    0.000    0.000    0.000 
#    0.000    0.000    0.000    0.000    0.000    0.000 
#
# Total GULP energy -198434.853871 kJ/mol
# GULP energy per Si atom -12402.178367 kJ/mol
# Density = 2.190109 g / cm^3
# Si number density = 21.951050 Si / 1000 Ang^3
#
#
#
# Elastic Constant Matrix: (Units=GPa)
#
#
# Indices 1 2 3 4 5 6 
#
# 1 85.7223 54.9628 26.7337 7.1084 -4.9122 2.6001
# 2 54.9628 113.7201 47.4763 -5.3524 -9.2022 6.0580
# 3 26.7337 47.4763 131.9792 0.4788 -3.1469 -0.5281
# 4 7.1084 -5.3524 0.4788 44.1131 8.9005 -2.5637
# 5 -4.9122 -9.2022 -3.1469 8.9005 25.2093 2.0224
# 6 2.6001 6.0580 -0.5281 -2.5637 2.0224 23.9255
#
#
#
# Elastic Compliance Matrix: (Units=1/GPa)
#
#
# Indices 1 2 3 4 5 6 
#
# 1 0.017646 -0.008339 -0.000516 -0.004251 0.001865 -0.000431
# 2 -0.008339 0.014813 -0.003596 0.002469 0.002693 -0.002887
# 3 -0.000516 -0.003596 0.008974 -0.000329 -0.000269 0.001152
# 4 -0.004251 0.002469 -0.000329 0.025735 -0.009325 0.003375
# 5 0.001865 0.002693 -0.000269 -0.009325 0.044728 -0.005671
# 6 -0.000431 -0.002887 0.001152 0.003375 -0.005671 0.043441
#
#
# Mechanical properties :
#
#
# Convention : Reuss Voigt Hill
#
# Bulk Modulus (GPa) = 60.49301 65.52970 63.01135
# Shear Modulus (GPa) = 26.91790 32.13284 29.52537
#
# Velocity S-wave (km/s) = 3.50561 3.83017 3.67148
# Velocity P-wave (km/s) = 6.63353 7.03404 6.83672
#
# Compressibility (1/GPa) = 0.01653084
#
# Stress axis : x y z
#
# Youngs Moduli (GPa) = 56.67027 67.50773 111.42780
#
# Poissons Ratio (x) = 0.56296 0.05754
# Poissons Ratio (y) = 0.47258 0.40067
# Poissons Ratio (z) = 0.02926 0.24274
#
# Static dielectric constant tensor:
#      x y z
#    x 4.140870 0.032620 0.081560 
#    y 0.032620 3.920260 -0.009190 
#    z 0.081560 -0.009190 4.149430 
# 
# 
# High freq. dielectric constant tensor:
#      x y z
#    x 1.859050 -0.001270 0.005660 
#    y -0.001270 1.854850 0.001180 
#    z 0.005660 0.001180 1.879990 
# 
# From -- ./inp_files/515295.got.cif
#   From: 2010.06.25/outbox.cif.g09.slc.cpg/sg2_258_cif.got.tgz:515295.got - 2010.06.27 13:26:56.
