data_PCOD8031428
_publ_section_title
;
Structure prediction by ZEFSAII (Michael W. Deem and Ramdas Pophale) SiO2 
 PCOD8031428
Probable space group: P -1
;
_chemical_formula_sum "Si O2"
_cell_formula_units_Z 14
_cell_length_a 9.144332
_cell_length_b 8.819116
_cell_length_c 12.364911
_cell_angle_alpha 131.282502
_cell_angle_beta 55.058289
_cell_angle_gamma 114.821979
_cell_volume 612.833860
_symmetry_space_group_name_H-M "P -1"
_symmetry_group_IT_number 2
_symmetry_cell_setting 'triclinic'
loop_
_space_group_symop_operation_xyz
x,y,z
-x,-y,-z
loop_
_atom_site_type_symbol
_atom_site_label
_atom_site_fract_x
_atom_site_fract_y
_atom_site_fract_z
Si Si1 0.220959 0.052895 0.525590
Si Si2 0.066401 0.672429 0.289708
Si Si3 0.522374 0.551518 0.702791
Si Si4 0.185875 0.456602 0.951884
Si Si5 0.562604 0.214064 0.350606
Si Si6 0.152376 0.005893 0.771232
Si Si7 0.101264 0.367497 0.311445
O O1 0.396932 0.064751 0.385221
O O2 0.261253 0.013802 0.615407
O O3 0.118829 0.262363 0.656463
O O4 0.111792 0.853959 0.437003
O O5 0.049039 0.462209 0.263291
O O6 0.213772 0.629662 0.114939
O O7 0.357277 0.462465 0.803626
O O8 0.583398 0.395631 0.513656
O O9 0.458844 0.734208 0.742432
O O10 0.687133 0.617608 0.743143
O O11 0.140052 0.236325 0.921321
O O12 0.000000 0.500000 0.000000
O O13 0.740509 0.096382 0.227445
O O14 0.964870 0.871313 0.770843
O O15 0.000000 0.500000 0.500000
#
# Coordination Sequence:
#
# PCOD8031428 Si02
#       7
#     2   2   2   2   2   2   2
#     4  11  22  43  75 104 130 187 239 287 339 421
#     4  11  25  43  72  98 145 181 232 284 359 404
#     4  11  25  44  72 102 145 182 231 292 347 408
#     4  12  27  48  68 100 146 187 228 290 356 413
#     4  11  23  41  73 106 135 178 242 289 341 408
#     4  12  25  42  74 103 140 178 235 287 346 413
#     4  12  24  44  71 107 138 179 236 289 339 412
#
# _framework density 22.84469
#
# number of rings (size 3 to 8) (size 9 to 14) (size 15 to 20)
#    0.000    0.571    5.714    1.286    8.000    1.143 
#    0.000    1.429    0.000    0.000    0.000    0.000 
#    0.000    0.000    0.000    0.000    0.000    0.000 
#
# Total GULP energy -173484.220770 kJ/mol
# GULP energy per Si atom -12391.730055 kJ/mol
# Density = 2.279269 g / cm^3
# Si number density = 22.844690 Si / 1000 Ang^3
#
#
#
# Elastic Constant Matrix: (Units=GPa)
#
#
# Indices 1 2 3 4 5 6 
#
# 1 113.1537 55.4069 18.3342 8.5574 -23.9277 -8.4482
# 2 55.4069 121.2970 21.5767 0.0338 -5.9540 -6.4534
# 3 18.3342 21.5767 80.7630 8.3655 -1.1649 -4.2078
# 4 8.5574 0.0338 8.3655 26.3033 -4.0218 -3.5403
# 5 -23.9277 -5.9540 -1.1649 -4.0218 18.9025 -6.0725
# 6 -8.4482 -6.4534 -4.2078 -3.5403 -6.0725 45.2580
#
#
#
# Elastic Compliance Matrix: (Units=1/GPa)
#
#
# Indices 1 2 3 4 5 6 
#
# 1 0.016946 -0.006198 -0.001516 -0.001210 0.020697 0.004821
# 2 -0.006198 0.011199 -0.001852 0.001954 -0.004057 -0.000124
# 3 -0.001516 -0.001852 0.013624 -0.004220 -0.002545 0.000048
# 4 -0.001210 0.001954 -0.004220 0.041687 0.009021 0.004132
# 5 0.020697 -0.004057 -0.002545 0.009021 0.084433 0.015083
# 6 0.004821 -0.000124 0.000048 0.004132 0.015083 0.025329
#
#
# Mechanical properties :
#
#
# Convention : Reuss Voigt Hill
#
# Bulk Modulus (GPa) = 44.17808 56.20550 50.19179
# Shear Modulus (GPa) = 22.73802 32.75247 27.74525
#
# Velocity S-wave (km/s) = 3.15831 3.79053 3.48877
# Velocity P-wave (km/s) = 5.71667 6.61923 6.18444
#
# Compressibility (1/GPa) = 0.02263566
#
# Stress axis : x y z
#
# Youngs Moduli (GPa) = 59.00959 89.29539 73.40105
#
# Poissons Ratio (x) = 0.55349 0.11128
# Poissons Ratio (y) = 0.36577 0.13595
# Poissons Ratio (z) = 0.08946 0.16539
#
# Static dielectric constant tensor:
#      x y z
#    x 4.301110 -0.217410 0.274950 
#    y -0.217410 4.448100 0.049790 
#    z 0.274950 0.049790 4.819650 
# 
# 
# High freq. dielectric constant tensor:
#      x y z
#    x 1.902920 -0.011060 0.007330 
#    y -0.011060 1.911280 0.002930 
#    z 0.007330 0.002930 1.885820 
# 
# From -- ./inp_files/383457.got.cif
#   From: 2010.06.25/outbox.cif.g09.slc.cpg/sg2_192_cif.got.tgz:383457.got - 2010.06.27 13:26:56.
