data_PCOD8031038
_publ_section_title
;
Structure prediction by ZEFSAII (Michael W. Deem and Ramdas Pophale) SiO2 
 PCOD8031038
Probable space group: P -1
;
_chemical_formula_sum "Si O2"
_cell_formula_units_Z 14
_cell_length_a 11.689466
_cell_length_b 20.298998
_cell_length_c 8.132456
_cell_angle_alpha 132.513706
_cell_angle_beta 38.253893
_cell_angle_gamma 151.069300
_cell_volume 577.545609
_symmetry_space_group_name_H-M "P -1"
_symmetry_group_IT_number 2
_symmetry_cell_setting 'triclinic'
loop_
_space_group_symop_operation_xyz
x,y,z
-x,-y,-z
loop_
_atom_site_type_symbol
_atom_site_label
_atom_site_fract_x
_atom_site_fract_y
_atom_site_fract_z
Si Si1 0.225483 0.404343 0.989124
Si Si2 0.981245 0.046853 0.767396
Si Si3 0.101647 0.661907 0.051413
Si Si4 0.298370 0.301098 0.990711
Si Si5 0.577656 0.399903 0.388965
Si Si6 0.442196 0.940884 0.284348
Si Si7 0.072429 0.146039 0.320865
O O1 0.140481 0.330827 0.138149
O O2 0.483261 0.431841 0.693192
O O3 0.959094 0.312241 0.012548
O O4 0.376090 0.557208 0.094411
O O5 0.274064 0.208207 0.733373
O O6 0.910694 0.954708 0.844326
O O7 0.000000 0.000000 0.500000
O O8 0.735420 0.031975 0.012316
O O9 0.269873 0.783597 0.198920
O O10 0.792483 0.529970 0.247882
O O11 0.276225 0.636536 0.771617
O O12 0.119129 0.198478 0.172674
O O13 0.294422 0.276259 0.402945
O O14 0.244824 0.941148 0.414790
O O15 0.500000 0.000000 0.500000
#
# Coordination Sequence:
#
# PCOD8031038 Si02
#       7
#     2   2   2   2   2   2   2
#     4  11  23  46  70 103 144 185 241 302 354 425
#     4  12  28  49  71 105 149 191 239 301 364 432
#     4  11  23  41  72 105 144 187 244 293 363 432
#     4  11  25  44  73 104 141 194 239 294 363 422
#     4  11  22  41  75 103 139 191 240 293 370 419
#     4  12  26  43  74 110 141 191 244 291 362 437
#     4  12  23  48  75 101 147 188 244 297 358 430
#
# _framework density 24.240508999999999
#
# number of rings (size 3 to 8) (size 9 to 14) (size 15 to 20)
#    0.000    0.571    5.714    2.571    0.000    0.571 
#    0.000    4.286    0.000    0.000    0.000    0.000 
#    0.000    0.000    0.000    0.000    0.000    0.000 
#
# Total GULP energy -173485.683046 kJ/mol
# GULP energy per Si atom -12391.834503 kJ/mol
# Density = 2.418534 g / cm^3
# Si number density = 24.240509 Si / 1000 Ang^3
#
#
#
# Elastic Constant Matrix: (Units=GPa)
#
#
# Indices 1 2 3 4 5 6 
#
# 1 125.9103 44.9087 27.3941 -3.2213 5.8646 -0.2594
# 2 44.9087 156.9729 27.6162 28.3685 8.3540 15.9762
# 3 27.3941 27.6162 87.1111 2.6181 -4.2665 15.0927
# 4 -3.2213 28.3685 2.6181 34.3135 7.7322 3.9372
# 5 5.8646 8.3540 -4.2665 7.7322 27.4316 -2.1941
# 6 -0.2594 15.9762 15.0927 3.9372 -2.1941 43.3868
#
#
#
# Elastic Compliance Matrix: (Units=1/GPa)
#
#
# Indices 1 2 3 4 5 6 
#
# 1 0.009862 -0.003127 -0.002642 0.004111 -0.002596 0.001625
# 2 -0.003127 0.009073 -0.001301 -0.007344 -0.000408 -0.002261
# 3 -0.002642 -0.001301 0.013581 -0.000384 0.002855 -0.004082
# 4 0.004111 -0.007344 -0.000384 0.037883 -0.009465 -0.001054
# 5 -0.002596 -0.000408 0.002855 -0.009465 0.040409 0.002044
# 6 0.001625 -0.002261 -0.004082 -0.001054 0.002044 0.025510
#
#
# Mechanical properties :
#
#
# Convention : Reuss Voigt Hill
#
# Bulk Modulus (GPa) = 54.41541 63.31469 58.86505
# Shear Modulus (GPa) = 31.93200 39.03141 35.48171
#
# Velocity S-wave (km/s) = 3.63340 4.01705 3.83003
# Velocity P-wave (km/s) = 6.33238 6.90591 6.62535
#
# Compressibility (1/GPa) = 0.01837715
#
# Stress axis : x y z
#
# Youngs Moduli (GPa) = 101.40286 110.21830 73.62982
#
# Poissons Ratio (x) = 0.34461 0.19455
# Poissons Ratio (y) = 0.31705 0.09576
# Poissons Ratio (z) = 0.26793 0.14334
#
# Static dielectric constant tensor:
#      x y z
#    x 4.530940 0.036190 -0.091610 
#    y 0.036190 4.732900 0.224810 
#    z -0.091610 0.224810 4.232150 
# 
# 
# High freq. dielectric constant tensor:
#      x y z
#    x 1.963940 0.011990 0.002250 
#    y 0.011990 1.984070 0.019710 
#    z 0.002250 0.019710 1.939110 
# 
# From -- ./inp_files/283195.got.cif
#   From: 2010.06.25/outbox.cif.g09.slc.cpg/sg2_142_cif.got.tgz:283195.got - 2010.06.27 13:26:56.
