data_PCOD8031372
_publ_section_title
;
Structure prediction by ZEFSAII (Michael W. Deem and Ramdas Pophale) SiO2 
 PCOD8031372
Probable space group: P -1
;
_chemical_formula_sum "Si O2"
_cell_formula_units_Z 16
_cell_length_a 11.953593
_cell_length_b 9.163319
_cell_length_c 17.518832
_cell_angle_alpha 148.544460
_cell_angle_beta 129.158917
_cell_angle_gamma 52.600979
_cell_volume 765.184802
_symmetry_space_group_name_H-M "P -1"
_symmetry_group_IT_number 2
_symmetry_cell_setting 'triclinic'
loop_
_space_group_symop_operation_xyz
x,y,z
-x,-y,-z
loop_
_atom_site_type_symbol
_atom_site_label
_atom_site_fract_x
_atom_site_fract_y
_atom_site_fract_z
Si Si1 0.848872 0.837237 0.662316
Si Si2 0.123521 0.198324 0.627952
Si Si3 0.696683 0.690568 0.682460
Si Si4 0.863000 0.456670 0.967428
Si Si5 0.645826 0.044284 0.123379
Si Si6 0.979717 0.692434 0.874755
Si Si7 0.616555 0.134952 0.327112
Si Si8 0.175096 0.505942 0.642744
O O1 0.781245 0.809222 0.703331
O O2 0.776650 0.659159 0.489090
O O3 0.020059 0.712997 0.671427
O O4 0.812552 0.176493 0.785023
O O5 0.181823 0.239850 0.585840
O O6 0.042844 0.512174 0.749039
O O7 0.262477 0.128713 0.712811
O O8 0.000000 0.000000 0.500000
O O9 0.806125 0.666183 0.792709
O O10 0.661225 0.388792 0.508878
O O11 0.547306 0.901873 0.734919
O O12 0.000000 0.500000 0.000000
O O13 0.922054 0.416968 0.060557
O O14 0.740442 0.732121 0.030686
O O15 0.620565 0.175119 0.255917
O O16 0.712910 0.270435 0.200469
O O17 0.500000 0.000000 0.000000
O O18 0.000000 0.000000 0.000000
#
# Coordination Sequence:
#
# PCOD8031372 Si02
#       8
#     2   2   2   2   2   2   2   2
#     4  11  22  43  72 102 134 179 233 290 345 407
#     4  12  24  44  72 106 133 181 241 286 344 414
#     4  11  23  44  71 101 138 177 229 289 346 405
#     4  12  26  42  70 105 138 178 234 286 344 416
#     4  12  28  49  67 101 148 189 225 286 361 416
#     4  12  24  42  71 102 137 176 233 287 341 413
#     4  11  25  45  70 100 140 182 229 284 347 418
#     4  11  24  44  73 100 141 180 234 290 349 412
#
# _framework density 20.909981999999999
#
# number of rings (size 3 to 8) (size 9 to 14) (size 15 to 20)
#    0.000    0.500    7.500    0.000    5.250    1.000 
#    2.250    3.125    0.000    0.000    0.000    0.000 
#    0.000    0.000    0.000    0.000    0.000    0.000 
#
# Total GULP energy -198219.385482 kJ/mol
# GULP energy per Si atom -12388.711593 kJ/mol
# Density = 2.086239 g / cm^3
# Si number density = 20.909982 Si / 1000 Ang^3
#
#
#
# Elastic Constant Matrix: (Units=GPa)
#
#
# Indices 1 2 3 4 5 6 
#
# 1 109.4318 50.1932 45.9854 7.6620 8.4589 -9.1197
# 2 50.1932 126.8098 54.3580 -6.1360 15.1670 -9.4493
# 3 45.9854 54.3580 122.8405 6.8159 15.8827 -7.7865
# 4 7.6620 -6.1360 6.8159 33.8885 -0.7084 6.1616
# 5 8.4589 15.1670 15.8827 -0.7084 29.0683 -0.6539
# 6 -9.1197 -9.4493 -7.7865 6.1616 -0.6539 39.5495
#
#
#
# Elastic Compliance Matrix: (Units=1/GPa)
#
#
# Indices 1 2 3 4 5 6 
#
# 1 0.012381 -0.003758 -0.002634 -0.003310 -0.000240 0.001950
# 2 -0.003758 0.011393 -0.003413 0.003429 -0.002889 0.000601
# 3 -0.002634 -0.003413 0.011329 -0.002587 -0.003680 0.001150
# 4 -0.003310 0.003429 -0.002587 0.032421 0.001254 -0.005484
# 5 -0.000240 -0.002889 -0.003680 0.001254 0.037997 -0.001037
# 6 0.001950 0.000601 0.001150 -0.005484 -0.001037 0.026942
#
#
# Mechanical properties :
#
#
# Convention : Reuss Voigt Hill
#
# Bulk Modulus (GPa) = 64.54348 73.35059 68.94704
# Shear Modulus (GPa) = 31.79909 34.40428 33.10169
#
# Velocity S-wave (km/s) = 3.90392 4.06069 3.98308
# Velocity P-wave (km/s) = 7.15927 7.55917 7.36194
#
# Compressibility (1/GPa) = 0.01549343
#
# Stress axis : x y z
#
# Youngs Moduli (GPa) = 80.76697 87.77637 88.26718
#
# Poissons Ratio (x) = 0.32985 0.23248
# Poissons Ratio (y) = 0.30351 0.30128
# Poissons Ratio (z) = 0.21272 0.29960
#
# Static dielectric constant tensor:
#      x y z
#    x 3.932910 -0.172550 -0.007240 
#    y -0.172550 4.025390 0.165670 
#    z -0.007240 0.165670 4.046640 
# 
# 
# High freq. dielectric constant tensor:
#      x y z
#    x 1.823330 0.000190 -0.003430 
#    y 0.000190 1.814340 0.001880 
#    z -0.003430 0.001880 1.830290 
# 
# From -- ./inp_files/244253.got.cif
#   From: 2010.06.25/outbox.cif.g09.slc.cpg/sg2_123_cif.got.tgz:244253.got - 2010.06.27 13:26:56.
