data_PCOD8031582
_publ_section_title
;
Structure prediction by ZEFSAII (Michael W. Deem and Ramdas Pophale) SiO2 
 PCOD8031582
Probable space group: P -1
;
_chemical_formula_sum "Si O2"
_cell_formula_units_Z 16
_cell_length_a 12.559856
_cell_length_b 19.532742
_cell_length_c 8.996941
_cell_angle_alpha 77.037339
_cell_angle_beta 131.022072
_cell_angle_gamma 143.433563
_cell_volume 733.080780
_symmetry_space_group_name_H-M "P -1"
_symmetry_group_IT_number 2
_symmetry_cell_setting 'triclinic'
loop_
_space_group_symop_operation_xyz
x,y,z
-x,-y,-z
loop_
_atom_site_type_symbol
_atom_site_label
_atom_site_fract_x
_atom_site_fract_y
_atom_site_fract_z
Si Si1 0.343787 0.363871 0.489002
Si Si2 0.782117 0.651367 0.290915
Si Si3 0.858592 0.134184 0.915221
Si Si4 0.647800 0.183638 0.288493
Si Si5 0.261622 0.765718 0.334239
Si Si6 0.230242 0.558093 0.085717
Si Si7 0.713706 0.859657 0.190704
Si Si8 0.945433 0.092615 0.731788
O O1 0.500000 0.500000 0.500000
O O2 0.345460 0.373746 0.661902
O O3 0.529152 0.374534 0.617805
O O4 0.018048 0.210271 0.184231
O O5 0.011061 0.687359 0.523872
O O6 0.983915 0.803771 0.335518
O O7 0.500000 0.500000 0.000000
O O8 0.857385 0.206235 0.787592
O O9 0.998735 0.134240 0.936455
O O10 0.513527 0.960233 0.734920
O O11 0.692360 0.245774 0.452781
O O12 0.437076 0.133427 0.003156
O O13 0.585487 0.906939 0.468502
O O14 0.981713 0.596178 0.101158
O O15 0.425513 0.689960 0.081821
O O16 0.000000 0.500000 0.000000
O O17 0.835383 0.871626 0.150850
O O18 0.000000 0.000000 0.500000
#
# Coordination Sequence:
#
# PCOD8031582 Si02
#       8
#     2   2   2   2   2   2   2   2
#     4  12  25  41  69 103 139 186 237 293 353 414
#     4  12  24  44  72 108 141 186 243 298 348 419
#     4  11  22  44  73 106 139 178 244 295 355 415
#     4  11  25  43  73 103 137 189 232 293 362 423
#     4  11  22  46  71 103 142 180 241 294 355 418
#     4  12  27  46  66 100 147 188 228 297 359 423
#     4  12  28  48  68 106 147 188 240 291 354 434
#     4  11  23  45  75  98 141 189 229 303 349 418
#
# _framework density 21.825699
#
# number of rings (size 3 to 8) (size 9 to 14) (size 15 to 20)
#    0.000    0.500    5.000    3.750    1.750    5.000 
#    0.000    0.000    0.000    0.000    0.000    0.000 
#    0.000    0.000    0.000    0.000    0.000    0.000 
#
# Total GULP energy -198225.310671 kJ/mol
# GULP energy per Si atom -12389.081917 kJ/mol
# Density = 2.177602 g / cm^3
# Si number density = 21.825699 Si / 1000 Ang^3
#
#
#
# Elastic Constant Matrix: (Units=GPa)
#
#
# Indices 1 2 3 4 5 6 
#
# 1 124.1481 30.8368 51.6295 3.5773 16.1818 4.9239
# 2 30.8368 108.5018 31.9718 8.8553 3.4312 0.6349
# 3 51.6295 31.9718 131.1192 -9.5166 2.7195 -2.6137
# 4 3.5773 8.8553 -9.5166 38.2877 -3.5741 5.5204
# 5 16.1818 3.4312 2.7195 -3.5741 39.8110 -0.0395
# 6 4.9239 0.6349 -2.6137 5.5204 -0.0395 30.1771
#
#
#
# Elastic Compliance Matrix: (Units=1/GPa)
#
#
# Indices 1 2 3 4 5 6 
#
# 1 0.010738 -0.001618 -0.003909 -0.001733 -0.004115 -0.001745
# 2 -0.001618 0.010551 -0.002131 -0.002909 -0.000367 0.000389
# 3 -0.003909 -0.002131 0.009916 0.003318 0.001394 0.000936
# 4 -0.001733 -0.002909 0.003318 0.028753 0.003305 -0.004624
# 5 -0.004115 -0.000367 0.001394 0.003305 0.027025 0.000231
# 6 -0.001745 0.000389 0.000936 -0.004624 0.000231 0.034342
#
#
# Mechanical properties :
#
#
# Convention : Reuss Voigt Hill
#
# Bulk Modulus (GPa) = 62.93899 65.84948 64.39423
# Shear Modulus (GPa) = 35.22683 38.27722 36.75203
#
# Velocity S-wave (km/s) = 4.02183 4.19235 4.10797
# Velocity P-wave (km/s) = 7.10398 7.32601 7.21585
#
# Compressibility (1/GPa) = 0.01588840
#
# Stress axis : x y z
#
# Youngs Moduli (GPa) = 93.12751 94.77657 100.84639
#
# Poissons Ratio (x) = 0.15337 0.39419
# Poissons Ratio (y) = 0.15070 0.21494
# Poissons Ratio (z) = 0.36402 0.20200
#
# Static dielectric constant tensor:
#      x y z
#    x 3.725660 -0.001220 0.399440 
#    y -0.001220 4.028870 0.191510 
#    z 0.399440 0.191510 3.650870 
# 
# 
# High freq. dielectric constant tensor:
#      x y z
#    x 1.859330 0.004020 0.002370 
#    y 0.004020 1.864260 0.013600 
#    z 0.002370 0.013600 1.864290 
# 
# From -- ./inp_files/279434.got.cif
#   From: 2010.06.25/outbox.cif.g09.slc.cpg/sg2_140_cif.got.tgz:279434.got - 2010.06.27 13:26:56.
