data_PCOD8031248
_publ_section_title
;
Structure prediction by ZEFSAII (Michael W. Deem and Ramdas Pophale) SiO2 
 PCOD8031248
Probable space group: P -1
;
_chemical_formula_sum "Si O2"
_cell_formula_units_Z 14
_cell_length_a 12.925083
_cell_length_b 5.595737
_cell_length_c 11.688425
_cell_angle_alpha 79.882378
_cell_angle_beta 48.263326
_cell_angle_gamma 92.771716
_cell_volume 605.088865
_symmetry_space_group_name_H-M "P -1"
_symmetry_group_IT_number 2
_symmetry_cell_setting 'triclinic'
loop_
_space_group_symop_operation_xyz
x,y,z
-x,-y,-z
loop_
_atom_site_type_symbol
_atom_site_label
_atom_site_fract_x
_atom_site_fract_y
_atom_site_fract_z
Si Si1 0.660421 0.230091 0.624981
Si Si2 0.540433 0.589896 0.087765
Si Si3 0.800561 0.967825 0.917286
Si Si4 0.381082 0.829378 0.801800
Si Si5 0.921071 0.208494 0.584376
Si Si6 0.920713 0.731682 0.032411
Si Si7 0.652954 0.434407 0.374938
O O1 0.603927 0.411076 0.738386
O O2 0.787008 0.148700 0.603704
O O3 0.715458 0.369512 0.455140
O O4 0.532031 0.001361 0.708608
O O5 0.628244 0.432758 0.109075
O O6 0.500000 0.500000 0.000000
O O7 0.651805 0.853690 0.971766
O O8 0.887846 0.162461 0.746968
O O9 0.758024 0.089560 0.055554
O O10 0.892076 0.775277 0.914191
O O11 0.367777 0.799806 0.677120
O O12 0.000000 0.500000 0.500000
O O13 0.000000 0.000000 0.500000
O O14 0.769705 0.661251 0.216895
O O15 0.000000 0.500000 0.000000
O O16 0.000000 0.000000 0.000000
O O17 0.500000 0.500000 0.500000
#
# Coordination Sequence:
#
# PCOD8031248 Si02
#       7
#     2   2   2   2   2   2   2
#     4  11  26  45  73 115 148 197 255 322 391 456
#     4  11  22  42  78 106 146 192 253 319 386 455
#     4  11  26  50  75 108 153 198 263 314 387 470
#     4  11  22  45  78 111 145 195 250 329 396 461
#     4  12  32  50  75 109 156 214 261 316 381 462
#     4  12  29  49  78 114 154 212 257 316 396 475
#     4  12  24  48  80 117 154 197 264 331 400 461
#
# _framework density 23.137096
#
# number of rings (size 3 to 8) (size 9 to 14) (size 15 to 20)
#    0.000    0.571    2.857    3.857   10.000    3.429 
#    0.000    0.000    0.000    0.000    0.000    0.000 
#    0.000    0.000    0.000    0.000    0.000    0.000 
#
# Total GULP energy -173502.285026 kJ/mol
# GULP energy per Si atom -12393.020359 kJ/mol
# Density = 2.308443 g / cm^3
# Si number density = 23.137096 Si / 1000 Ang^3
#
#
#
# Elastic Constant Matrix: (Units=GPa)
#
#
# Indices 1 2 3 4 5 6 
#
# 1 147.2633 53.3622 74.9318 7.4374 20.6656 -9.5446
# 2 53.3622 133.1348 70.9350 9.3318 1.8760 1.4605
# 3 74.9318 70.9350 165.5529 -7.8397 21.4086 1.3880
# 4 7.4374 9.3318 -7.8397 46.0061 5.0486 4.9921
# 5 20.6656 1.8760 21.4086 5.0486 46.4067 0.7678
# 6 -9.5446 1.4605 1.3880 4.9921 0.7678 46.9196
#
#
#
# Elastic Compliance Matrix: (Units=1/GPa)
#
#
# Indices 1 2 3 4 5 6 
#
# 1 0.009836 -0.002027 -0.003348 -0.001723 -0.002606 0.002389
# 2 -0.002027 0.010693 -0.004142 -0.002802 0.002692 -0.000369
# 3 -0.003348 -0.004142 0.009935 0.003563 -0.003293 -0.001171
# 4 -0.001723 -0.002802 0.003563 0.023863 -0.003312 -0.002853
# 5 -0.002606 0.002692 -0.003293 -0.003312 0.024489 -0.000565
# 6 0.002389 -0.000369 -0.001171 -0.002853 -0.000565 0.022158
#
#
# Mechanical properties :
#
#
# Convention : Reuss Voigt Hill
#
# Bulk Modulus (GPa) = 87.49166 93.82324 90.65745
# Shear Modulus (GPa) = 40.38151 44.31462 42.34806
#
# Velocity S-wave (km/s) = 4.18223 4.38117 4.28285
# Velocity P-wave (km/s) = 7.82419 8.13830 7.98279
#
# Compressibility (1/GPa) = 0.01142966
#
# Stress axis : x y z
#
# Youngs Moduli (GPa) = 101.66430 93.51778 100.65670
#
# Poissons Ratio (x) = 0.18960 0.33700
# Poissons Ratio (y) = 0.20612 0.41691
# Poissons Ratio (z) = 0.34037 0.38734
#
# Static dielectric constant tensor:
#      x y z
#    x 4.303690 -0.129200 0.060060 
#    y -0.129200 4.338810 -0.078410 
#    z 0.060060 -0.078410 4.356130 
# 
# 
# High freq. dielectric constant tensor:
#      x y z
#    x 1.930740 -0.000670 0.005510 
#    y -0.000670 1.917960 -0.002780 
#    z 0.005510 -0.002780 1.921410 
# 
# From -- ./inp_files/106814.got.cif
#   From: 2010.06.25/outbox.cif.g09.slc.cpg/sg2_54_cif.got.tgz:106814.got - 2010.06.27 13:26:56.
