data_PCOD8031996
_publ_section_title
;
Structure prediction by ZEFSAII (Michael W. Deem and Ramdas Pophale) SiO2 
 PCOD8031996
Probable space group: P -1
;
_chemical_formula_sum "Si O2"
_cell_formula_units_Z 12
_cell_length_a 23.745814
_cell_length_b 8.499318
_cell_length_c 23.267763
_cell_angle_alpha 34.534196
_cell_angle_beta 168.282973
_cell_angle_gamma 145.070425
_cell_volume 537.038665
_symmetry_space_group_name_H-M "P -1"
_symmetry_group_IT_number 2
_symmetry_cell_setting 'triclinic'
loop_
_space_group_symop_operation_xyz
x,y,z
-x,-y,-z
loop_
_atom_site_type_symbol
_atom_site_label
_atom_site_fract_x
_atom_site_fract_y
_atom_site_fract_z
Si Si1 0.165981 0.872151 0.152219
Si Si2 0.023819 0.208372 0.641129
Si Si3 0.661582 0.509189 0.762456
Si Si4 0.487444 0.635036 0.718572
Si Si5 0.920628 0.346528 0.190281
Si Si6 0.493113 0.897120 0.764741
O O1 0.397582 0.674633 0.463189
O O2 0.322119 0.103587 0.197768
O O3 0.906459 0.687769 0.915695
O O4 0.000000 0.000000 0.000000
O O5 0.000000 0.500000 0.500000
O O6 0.754944 0.091240 0.442733
O O7 0.053690 0.982790 0.688473
O O8 0.272967 0.244241 0.924753
O O9 0.579954 0.218058 0.735267
O O10 0.803496 0.448302 0.982870
O O11 0.402516 0.710966 0.674982
O O12 0.209067 0.536600 0.434771
O O13 0.689017 0.387842 0.995289
#
# Coordination Sequence:
#
# PCOD8031996 Si02
#       6
#     2   2   2   2   2   2
#     4  12  24  35  63  95 131 170 233 253 294 372
#     4  11  24  47  73  94 120 168 216 260 321 412
#     4  11  23  40  62  91 126 181 221 257 297 378
#     4  12  25  40  62 100 134 170 208 274 318 359
#     4  11  23  41  67  92 127 171 219 256 324 380
#     4  11  25  44  66  95 136 162 209 270 335 367
#
# _framework density 22.344760000000001
#
# number of rings (size 3 to 8) (size 9 to 14) (size 15 to 20)
#    0.000    0.667    1.667    8.000    0.000    1.333 
#    0.000    5.000    0.000    0.000    0.000    0.000 
#    0.000    0.000    0.000    0.000    0.000    0.000 
#
# Total GULP energy -148742.727379 kJ/mol
# GULP energy per Si atom -12395.227282 kJ/mol
# Density = 2.229390 g / cm^3
# Si number density = 22.344760 Si / 1000 Ang^3
#
#
#
# Elastic Constant Matrix: (Units=GPa)
#
#
# Indices 1 2 3 4 5 6 
#
# 1 62.8912 46.7151 28.4570 -9.8949 2.3847 -26.0019
# 2 46.7151 120.8758 47.0712 -19.6041 1.0653 -27.8489
# 3 28.4570 47.0712 159.5592 -7.5579 8.5225 -16.1155
# 4 -9.8949 -19.6041 -7.5579 43.5390 -2.2020 1.4748
# 5 2.3847 1.0653 8.5225 -2.2020 25.4602 -2.0564
# 6 -26.0019 -27.8489 -16.1155 1.4748 -2.0564 27.4815
#
#
#
# Elastic Compliance Matrix: (Units=1/GPa)
#
#
# Indices 1 2 3 4 5 6 
#
# 1 0.030293 -0.005538 -0.001377 0.003402 -0.000069 0.022056
# 2 -0.005538 0.013598 -0.002184 0.004325 0.001632 0.007149
# 3 -0.001377 -0.002184 0.007330 -0.000156 -0.002196 0.000627
# 4 0.003402 0.004325 -0.000156 0.025563 0.002273 0.006308
# 5 -0.000069 0.001632 -0.002196 0.002273 0.040406 0.003202
# 6 0.022056 0.007149 0.000627 0.006308 0.003202 0.064770
#
#
# Mechanical properties :
#
#
# Convention : Reuss Voigt Hill
#
# Bulk Modulus (GPa) = 30.28026 65.31253 47.79639
# Shear Modulus (GPa) = 23.67816 34.03498 28.85657
#
# Velocity S-wave (km/s) = 3.25879 3.90702 3.59754
# Velocity P-wave (km/s) = 5.26692 7.04599 6.22039
#
# Compressibility (1/GPa) = 0.03302482
#
# Stress axis : x y z
#
# Youngs Moduli (GPa) = 33.01065 73.54048 136.41945
#
# Poissons Ratio (x) = 0.40724 0.18780
# Poissons Ratio (y) = 0.18280 0.29795
# Poissons Ratio (z) = 0.04544 0.16062
#
# Static dielectric constant tensor:
#      x y z
#    x 3.680620 -0.325450 0.293260 
#    y -0.325450 4.712980 0.064800 
#    z 0.293260 0.064800 4.569890 
# 
# 
# High freq. dielectric constant tensor:
#      x y z
#    x 1.838010 -0.021490 0.016830 
#    y -0.021490 1.888830 0.003160 
#    z 0.016830 0.003160 1.912390 
# 
# From -- ./inp_files/201240.got.cif
#   From: 2010.06.25/outbox.cif.g09.slc.cpg/sg2_101_cif.got.tgz:201240.got - 2010.06.27 13:26:56.
