data_PCOD8031636
_publ_section_title
;
Structure prediction by ZEFSAII (Michael W. Deem and Ramdas Pophale) SiO2 
 PCOD8031636
Probable space group: P -1
;
_chemical_formula_sum "Si O2"
_cell_formula_units_Z 16
_cell_length_a 9.035370
_cell_length_b 25.368923
_cell_length_c 9.737415
_cell_angle_alpha 134.604136
_cell_angle_beta 79.140101
_cell_angle_gamma 137.671196
_cell_volume 774.714936
_symmetry_space_group_name_H-M "P -1"
_symmetry_group_IT_number 2
_symmetry_cell_setting 'triclinic'
loop_
_space_group_symop_operation_xyz
x,y,z
-x,-y,-z
loop_
_atom_site_type_symbol
_atom_site_label
_atom_site_fract_x
_atom_site_fract_y
_atom_site_fract_z
Si Si1 0.066258 0.872536 0.333155
Si Si2 0.093859 0.894751 0.843623
Si Si3 0.716913 0.177752 0.416876
Si Si4 0.842856 0.847576 0.051745
Si Si5 0.167860 0.599005 0.784400
Si Si6 0.274816 0.806203 0.232315
Si Si7 0.838927 0.871808 0.601112
Si Si8 0.150687 0.608822 0.292401
O O1 0.051001 0.777061 0.173278
O O2 0.990769 0.863268 0.175222
O O3 0.833054 0.807451 0.364874
O O4 0.403443 0.045781 0.630362
O O5 0.078559 0.807457 0.618345
O O6 0.058671 0.941068 0.814630
O O7 0.824728 0.788630 0.809931
O O8 0.405709 0.040252 0.135888
O O9 0.656697 0.162524 0.560461
O O10 0.902915 0.327074 0.603502
O O11 0.523615 0.739820 0.962642
O O12 0.053902 0.006979 0.266604
O O13 0.000000 0.500000 0.500000
O O14 0.031461 0.487429 0.716712
O O15 0.113689 0.661758 0.948057
O O16 0.504792 0.739185 0.478706
O O17 0.000000 0.500000 0.000000
#
# Coordination Sequence:
#
# PCOD8031636 Si02
#       8
#     2   2   2   2   2   2   2   2
#     4  11  23  39  73 103 131 175 227 283 333 390
#     4  11  24  41  71 103 134 173 230 284 327 389
#     4  11  23  43  68 101 138 177 222 278 340 394
#     4  12  24  44  68 103 135 174 230 279 326 399
#     4  12  28  45  68 100 141 178 217 279 346 401
#     4  11  22  45  67 102 139 175 221 278 345 394
#     4  12  23  42  69 104 133 175 236 276 321 399
#     4  12  25  44  69  97 139 183 221 271 341 404
#
# _framework density 20.652757000000001
#
# number of rings (size 3 to 8) (size 9 to 14) (size 15 to 20)
#    0.000    0.500    6.250    2.250    1.750    1.000 
#    0.000    7.500    0.000    0.000    0.000    0.000 
#    0.000    0.000    0.000    0.000    0.000    0.000 
#
# Total GULP energy -198419.518757 kJ/mol
# GULP energy per Si atom -12401.219922 kJ/mol
# Density = 2.060575 g / cm^3
# Si number density = 20.652757 Si / 1000 Ang^3
#
#
#
# Elastic Constant Matrix: (Units=GPa)
#
#
# Indices 1 2 3 4 5 6 
#
# 1 119.6828 31.7620 42.3958 -5.7838 -16.6039 -14.4786
# 2 31.7620 109.3642 28.1292 -11.9570 -6.1713 -5.0063
# 3 42.3958 28.1292 94.4473 -14.2232 -13.9392 -10.7987
# 4 -5.7838 -11.9570 -14.2232 38.0843 -3.4868 3.7305
# 5 -16.6039 -6.1713 -13.9392 -3.4868 34.5274 -7.5238
# 6 -14.4786 -5.0063 -10.7987 3.7305 -7.5238 43.4056
#
#
#
# Elastic Compliance Matrix: (Units=1/GPa)
#
#
# Indices 1 2 3 4 5 6 
#
# 1 0.011080 -0.001963 -0.003381 -0.000131 0.004338 0.003392
# 2 -0.001963 0.010462 -0.001823 0.002347 0.000421 -0.000030
# 3 -0.003381 -0.001823 0.014347 0.004455 0.004878 0.002694
# 4 -0.000131 0.002347 0.004455 0.029128 0.005032 -0.000296
# 5 0.004338 0.000421 0.004878 0.005032 0.035436 0.008419
# 6 0.003392 -0.000030 0.002694 -0.000296 0.008419 0.026321
#
#
# Mechanical properties :
#
#
# Convention : Reuss Voigt Hill
#
# Bulk Modulus (GPa) = 46.38974 58.67427 52.53201
# Shear Modulus (GPa) = 33.71755 37.95061 35.83408
#
# Velocity S-wave (km/s) = 4.04492 4.29132 4.16994
# Velocity P-wave (km/s) = 6.65775 7.28186 6.97679
#
# Compressibility (1/GPa) = 0.02155649
#
# Stress axis : x y z
#
# Youngs Moduli (GPa) = 90.25576 95.58844 69.70051
#
# Poissons Ratio (x) = 0.18760 0.23563
# Poissons Ratio (y) = 0.17713 0.12704
# Poissons Ratio (z) = 0.30512 0.17423
#
# Static dielectric constant tensor:
#      x y z
#    x 4.308660 0.062530 0.032340 
#    y 0.062530 4.051310 -0.299780 
#    z 0.032340 -0.299780 3.827150 
# 
# 
# High freq. dielectric constant tensor:
#      x y z
#    x 1.825980 -0.001320 -0.006620 
#    y -0.001320 1.820250 -0.020240 
#    z -0.006620 -0.020240 1.789430 
# 
# From -- ./inp_files/208279.got.cif
#   From: 2010.06.25/outbox.cif.g09.slc.cpg/sg2_105_cif.got.tgz:208279.got - 2010.06.27 13:26:56.
