data_PCOD8031985
_publ_section_title
;
Structure prediction by ZEFSAII (Michael W. Deem and Ramdas Pophale) SiO2 
 PCOD8031985
Probable space group: P -1
;
_chemical_formula_sum "Si O2"
_cell_formula_units_Z 14
_cell_length_a 11.275677
_cell_length_b 9.328758
_cell_length_c 12.295139
_cell_angle_alpha 133.800262
_cell_angle_beta 132.795858
_cell_angle_gamma 83.322366
_cell_volume 509.508548
_symmetry_space_group_name_H-M "P -1"
_symmetry_group_IT_number 2
_symmetry_cell_setting 'triclinic'
loop_
_space_group_symop_operation_xyz
x,y,z
-x,-y,-z
loop_
_atom_site_type_symbol
_atom_site_label
_atom_site_fract_x
_atom_site_fract_y
_atom_site_fract_z
Si Si1 0.931772 0.119848 0.942734
Si Si2 0.750784 0.373247 0.005775
Si Si3 0.013268 0.179665 0.460285
Si Si4 0.620211 0.303966 0.515432
Si Si5 0.557957 0.662503 0.357597
Si Si6 0.159778 0.904459 0.467931
Si Si7 0.417342 0.138579 0.069682
O O1 0.750879 0.131537 0.886057
O O2 0.816816 0.926383 0.664412
O O3 0.136021 0.418712 0.199024
O O4 0.000000 0.000000 0.000000
O O5 0.531545 0.292694 0.779563
O O6 0.815518 0.504312 0.236936
O O7 0.933893 0.597341 0.150291
O O8 0.837407 0.012344 0.362118
O O9 0.158123 0.099159 0.492622
O O10 0.848871 0.082895 0.206940
O O11 0.533622 0.339959 0.585609
O O12 0.634896 0.073511 0.415805
O O13 0.510908 0.755004 0.706879
O O14 0.515149 0.391577 0.184740
O O15 0.500000 0.000000 0.000000
#
# Coordination Sequence:
#
# PCOD8031985 Si02
#       7
#     2   2   2   2   2   2   2
#     4  11  23  40  60  91 131 166 200 254 315 374
#     4   9  19  38  61  90 120 163 206 253 304 364
#     4   9  16  34  59  94 117 159 215 250 302 376
#     4  11  24  40  63  98 123 162 211 255 314 365
#     4  12  24  40  66  93 128 162 208 261 306 371
#     4   8  15  32  55  88 113 150 204 248 296 358
#     4  12  20  36  62  96 122 167 210 249 313 376
#
# _framework density 27.477457000000001
#
# number of rings (size 3 to 8) (size 9 to 14) (size 15 to 20)
#    0.857    0.857    4.286    0.857    0.000    2.286 
#    0.000    0.000    0.000    8.571    0.000    1.000 
#    0.000    0.000    0.000    0.000    0.000    0.000 
#
# Total GULP energy -173455.591043 kJ/mol
# GULP energy per Si atom -12389.685074 kJ/mol
# Density = 2.741492 g / cm^3
# Si number density = 27.477457 Si / 1000 Ang^3
#
#
#
# Elastic Constant Matrix: (Units=GPa)
#
#
# Indices 1 2 3 4 5 6 
#
# 1 79.1908 32.1904 0.5830 -11.2504 -7.7924 -19.9532
# 2 32.1904 195.8309 90.6136 3.2121 -6.9006 -32.1967
# 3 0.5830 90.6136 166.7421 -34.6258 -40.8912 0.9701
# 4 -11.2504 3.2121 -34.6258 59.6934 -8.1213 -3.7135
# 5 -7.7924 -6.9006 -40.8912 -8.1213 9.1939 -5.6050
# 6 -19.9532 -32.1967 0.9701 -3.7135 -5.6050 37.8714
#
#
#
# Elastic Compliance Matrix: (Units=1/GPa)
#
#
# Indices 1 2 3 4 5 6 
#
# 1 0.010634 0.001072 -0.006196 -0.004051 -0.019229 0.003430
# 2 0.001072 0.006727 0.000098 0.002276 0.013596 0.008517
# 3 -0.006196 0.000098 -0.003028 -0.007591 -0.030444 -0.008354
# 4 -0.004051 0.002276 -0.007591 0.006873 -0.031884 -0.004049
# 5 -0.019229 0.013596 -0.030444 -0.031884 -0.067547 -0.010917
# 6 0.003430 0.008517 -0.008354 -0.004049 -0.010917 0.033654
#
#
# Mechanical properties :
#
#
# Convention : Reuss Voigt Hill
#
# Bulk Modulus (GPa) = 233.65908 76.50421 155.08165
# Shear Modulus (GPa) = -4142.44722 42.57686 -2049.93518
#
# Velocity S-wave (km/s) = -38.86969 3.94066 -27.34341
# Velocity P-wave (km/s) = 43.92322 6.97195 30.66465
#
# Compressibility (1/GPa) = 0.00427974
#
# Stress axis : x y z
#
# Youngs Moduli (GPa) = 94.03652 148.65703 -330.26225
#
# Poissons Ratio (x) = -0.15934 -2.04647
# Poissons Ratio (y) = -0.10080 0.03233
# Poissons Ratio (z) = 0.58270 -0.01455
#
# Static dielectric constant tensor:
#      x y z
#    x 4.672930 -0.351260 0.200300 
#    y -0.351260 5.099170 -0.010890 
#    z 0.200300 -0.010890 6.138610 
# 
# 
# High freq. dielectric constant tensor:
#      x y z
#    x 2.103840 -0.017660 0.000270 
#    y -0.017660 2.112190 -0.002190 
#    z 0.000270 -0.002190 2.132860 
# 
# From -- ./inp_files/569039.got.cif
#   From: 2010.06.25/outbox.cif.g09.slc.cpg/sg2_285_cif.got.tgz:569039.got - 2010.06.27 13:26:56.
