data_PCOD8031660
_publ_section_title
;
Structure prediction by ZEFSAII (Michael W. Deem and Ramdas Pophale) SiO2 
 PCOD8031660
Probable space group: P -1
;
_chemical_formula_sum "Si O2"
_cell_formula_units_Z 16
_cell_length_a 9.426545
_cell_length_b 13.847101
_cell_length_c 9.908797
_cell_angle_alpha 107.882386
_cell_angle_beta 137.347686
_cell_angle_gamma 94.877898
_cell_volume 730.678277
_symmetry_space_group_name_H-M "P -1"
_symmetry_group_IT_number 2
_symmetry_cell_setting 'triclinic'
loop_
_space_group_symop_operation_xyz
x,y,z
-x,-y,-z
loop_
_atom_site_type_symbol
_atom_site_label
_atom_site_fract_x
_atom_site_fract_y
_atom_site_fract_z
Si Si1 0.376244 0.067039 0.374307
Si Si2 0.037664 0.757422 0.637668
Si Si3 0.856830 0.291021 0.803977
Si Si4 0.261344 0.238821 0.003485
Si Si5 0.776452 0.357635 0.495446
Si Si6 0.574916 0.634011 0.106718
Si Si7 0.911393 0.383388 0.167322
Si Si8 0.127357 0.994377 0.886086
O O1 0.577507 0.200221 0.573997
O O2 0.149770 0.054826 0.292375
O O3 0.500000 0.000000 0.500000
O O4 0.297130 0.025103 0.148392
O O5 0.183388 0.721244 0.619987
O O6 0.037866 0.713151 0.770396
O O7 0.154486 0.896616 0.779135
O O8 0.761153 0.699075 0.382283
O O9 0.902706 0.359804 0.725570
O O10 0.028063 0.232490 0.908236
O O11 0.926463 0.379621 0.014811
O O12 0.301506 0.303671 0.918579
O O13 0.213160 0.107068 0.899336
O O14 0.493261 0.310588 0.291149
O O15 0.900824 0.490388 0.590389
O O16 0.500000 0.500000 0.000000
O O17 0.350407 0.650938 0.981463
#
# Coordination Sequence:
#
# PCOD8031660 Si02
#       8
#     2   2   2   2   2   2   2   2
#     4  11  22  45  69  97 146 187 227 291 347 415
#     4  12  25  44  71 104 140 188 230 288 355 417
#     4  12  25  45  72 105 138 185 233 290 358 413
#     4  12  25  45  70 104 144 184 234 288 349 416
#     4  12  25  47  69 102 145 181 232 299 349 414
#     4  12  24  46  74 103 139 187 234 289 352 419
#     4  12  26  45  74 103 139 185 239 289 355 418
#     4  11  26  42  71 105 140 184 238 283 352 422
#
# _framework density 21.897462000000001
#
# number of rings (size 3 to 8) (size 9 to 14) (size 15 to 20)
#    0.000    0.250    6.250    3.000    1.750    2.500 
#    0.000    0.000    0.000    0.000    0.000    0.000 
#    0.000    0.000    0.000    0.000    0.000    0.000 
#
# Total GULP energy -198454.758191 kJ/mol
# GULP energy per Si atom -12403.422387 kJ/mol
# Density = 2.184762 g / cm^3
# Si number density = 21.897462 Si / 1000 Ang^3
#
#
#
# Elastic Constant Matrix: (Units=GPa)
#
#
# Indices 1 2 3 4 5 6 
#
# 1 82.2006 36.9175 49.8770 7.7043 -2.3251 1.8226
# 2 36.9175 137.0701 50.0273 9.8751 -2.7734 3.4275
# 3 49.8770 50.0273 130.8551 1.8672 11.2424 -8.6755
# 4 7.7043 9.8751 1.8672 38.5068 -0.4400 -3.2654
# 5 -2.3251 -2.7734 11.2424 -0.4400 44.6177 -2.0883
# 6 1.8226 3.4275 -8.6755 -3.2654 -2.0883 28.9235
#
#
#
# Elastic Compliance Matrix: (Units=1/GPa)
#
#
# Indices 1 2 3 4 5 6 
#
# 1 0.017181 -0.002091 -0.006080 -0.002821 0.002137 -0.002823
# 2 -0.002091 0.009122 -0.002884 -0.001934 0.001074 -0.001955
# 3 -0.006080 -0.002884 0.011589 0.001711 -0.003205 0.004163
# 4 -0.002821 -0.001934 0.001711 0.027282 -0.000243 0.003983
# 5 0.002137 0.001074 -0.003205 -0.000243 0.023416 0.000440
# 6 -0.002823 -0.001955 0.004163 0.003983 0.000440 0.036714
#
#
# Mechanical properties :
#
#
# Convention : Reuss Voigt Hill
#
# Bulk Modulus (GPa) = 63.36889 69.30772 66.33831
# Shear Modulus (GPa) = 32.74930 36.62986 34.68958
#
# Velocity S-wave (km/s) = 3.87146 4.09441 3.98450
# Velocity P-wave (km/s) = 6.99900 7.35337 7.17837
#
# Compressibility (1/GPa) = 0.01578061
#
# Stress axis : x y z
#
# Youngs Moduli (GPa) = 58.20343 109.63053 86.28849
#
# Poissons Ratio (x) = 0.22928 0.52461
# Poissons Ratio (y) = 0.12173 0.24889
# Poissons Ratio (z) = 0.35386 0.31622
#
# Static dielectric constant tensor:
#      x y z
#    x 4.182950 -0.058200 0.248160 
#    y -0.058200 4.171020 -0.171100 
#    z 0.248160 -0.171100 4.214450 
# 
# 
# High freq. dielectric constant tensor:
#      x y z
#    x 1.851130 0.000790 0.015040 
#    y 0.000790 1.874480 -0.006740 
#    z 0.015040 -0.006740 1.875670 
# 
# From -- ./inp_files/187053.got.cif
#   From: 2010.06.25/outbox.cif.g09.slc.cpg/sg2_94_cif.got.tgz:187053.got - 2010.06.27 13:26:56.
