data_PCOD8031110
_publ_section_title
;
Structure prediction by ZEFSAII (Michael W. Deem and Ramdas Pophale) SiO2 
 PCOD8031110
Probable space group: P -1
;
_chemical_formula_sum "Si O2"
_cell_formula_units_Z 16
_cell_length_a 16.027730
_cell_length_b 11.693070
_cell_length_c 5.578529
_cell_angle_alpha 95.353069
_cell_angle_beta 115.199816
_cell_angle_gamma 128.090450
_cell_volume 644.848661
_symmetry_space_group_name_H-M "P -1"
_symmetry_group_IT_number 2
_symmetry_cell_setting 'triclinic'
loop_
_space_group_symop_operation_xyz
x,y,z
-x,-y,-z
loop_
_atom_site_type_symbol
_atom_site_label
_atom_site_fract_x
_atom_site_fract_y
_atom_site_fract_z
Si Si1 0.255009 0.682799 0.800265
Si Si2 0.378610 0.241127 0.881970
Si Si3 0.826793 0.807712 0.596243
Si Si4 0.957025 0.154849 0.008978
Si Si5 0.507573 0.216937 0.663681
Si Si6 0.397757 0.500939 0.469938
Si Si7 0.278621 0.951360 0.020794
Si Si8 0.892682 0.501773 0.908868
O O1 0.200566 0.581073 0.464137
O O2 0.408724 0.778589 0.037112
O O3 0.253181 0.818984 0.793664
O O4 0.179470 0.583380 0.939434
O O5 0.288590 0.276678 0.763314
O O6 0.392070 0.193859 0.630787
O O7 0.533014 0.403532 0.174029
O O8 0.299705 0.087103 0.932168
O O9 0.750371 0.686968 0.714025
O O10 0.941277 0.818127 0.672237
O O11 0.887188 0.989186 0.745274
O O12 0.039211 0.310857 0.957109
O O13 0.855611 0.149699 0.010831
O O14 0.611932 0.391901 0.677782
O O15 0.415332 0.048231 0.357488
O O16 0.500000 0.500000 0.500000
O O17 0.000000 0.500000 0.000000
#
# Coordination Sequence:
#
# PCOD8031110 Si02
#       8
#     2   2   2   2   2   2   2   2
#     4  12  29  47  82 108 147 197 253 303 375 432
#     4  11  24  40  73  99 145 187 239 305 371 431
#     4  11  23  43  71 103 139 195 236 308 358 455
#     4  11  25  45  71 102 149 185 254 293 376 433
#     4  11  25  45  71 107 145 186 241 310 367 447
#     4  11  22  42  68 103 144 184 240 301 378 431
#     4  11  25  46  70 107 145 192 239 313 365 445
#     4  12  28  52  78 109 148 202 245 312 362 444
#
# _framework density 24.812021999999999
#
# number of rings (size 3 to 8) (size 9 to 14) (size 15 to 20)
#    0.000    0.750    3.750    2.625    8.750    1.000 
#    0.000    1.250    0.000    0.000    0.000    0.000 
#    0.000    0.000    0.000    0.000    0.000    0.000 
#
# Total GULP energy -198253.495994 kJ/mol
# GULP energy per Si atom -12390.843500 kJ/mol
# Density = 2.475555 g / cm^3
# Si number density = 24.812022 Si / 1000 Ang^3
#
#
#
# Elastic Constant Matrix: (Units=GPa)
#
#
# Indices 1 2 3 4 5 6 
#
# 1 60.5171 20.3049 17.8943 0.4521 18.6269 -8.1191
# 2 20.3049 80.2783 34.4428 18.9736 1.7733 -2.8736
# 3 17.8943 34.4428 70.9745 -15.6777 13.2932 7.6446
# 4 0.4521 18.9736 -15.6777 35.7990 -7.8318 -1.5055
# 5 18.6269 1.7733 13.2932 -7.8318 48.2016 -7.8373
# 6 -8.1191 -2.8736 7.6446 -1.5055 -7.8373 35.0252
#
#
#
# Elastic Compliance Matrix: (Units=1/GPa)
#
#
# Indices 1 2 3 4 5 6 
#
# 1 0.021196 -0.003575 -0.002954 -0.001000 -0.006806 0.003699
# 2 -0.003575 0.025452 -0.016871 -0.020070 0.002595 0.004660
# 3 -0.002954 -0.016871 0.029290 0.020488 -0.004378 -0.008561
# 4 -0.001000 -0.020070 0.020488 0.047985 0.002671 -0.003690
# 5 -0.006806 0.002595 -0.004378 0.002671 0.025813 0.005482
# 6 0.003699 0.004660 -0.008561 -0.003690 0.005482 0.032727
#
#
# Mechanical properties :
#
#
# Convention : Reuss Voigt Hill
#
# Bulk Modulus (GPa) = 34.31985 39.67263 36.99624
# Shear Modulus (GPa) = 20.92268 33.08034 27.00151
#
# Velocity S-wave (km/s) = 2.90702 3.65532 3.30243
# Velocity P-wave (km/s) = 5.01295 5.81714 5.42995
#
# Compressibility (1/GPa) = 0.02913765
#
# Stress axis : x y z
#
# Youngs Moduli (GPa) = 47.17979 39.28927 34.14191
#
# Poissons Ratio (x) = 0.14044 0.10085
# Poissons Ratio (y) = 0.16865 0.57602
# Poissons Ratio (z) = 0.13936 0.66286
#
# Static dielectric constant tensor:
#      x y z
#    x 4.004860 0.785140 1.821050 
#    y 0.785140 2.655570 -3.583770 
#    z 1.821050 -3.583770 -2.327990 
# 
# 
# High freq. dielectric constant tensor:
#      x y z
#    x 1.985550 -0.009580 0.022900 
#    y -0.009580 2.001690 0.006430 
#    z 0.022900 0.006430 1.981660 
# 
# From -- ./inp_files/109749.got.cif
#   From: 2010.06.25/outbox.cif.g09.slc.cpg/sg2_55_cif.got.tgz:109749.got - 2010.06.27 13:26:56.
