data_PCOD8031472
_publ_section_title
;
Structure prediction by ZEFSAII (Michael W. Deem and Ramdas Pophale) SiO2 
 PCOD8031472
Probable space group: P -1
;
_chemical_formula_sum "Si O2"
_cell_formula_units_Z 16
_cell_length_a 13.078871
_cell_length_b 14.586311
_cell_length_c 9.775340
_cell_angle_alpha 139.218922
_cell_angle_beta 87.916624
_cell_angle_gamma 60.264287
_cell_volume 727.027371
_symmetry_space_group_name_H-M "P -1"
_symmetry_group_IT_number 2
_symmetry_cell_setting 'triclinic'
loop_
_space_group_symop_operation_xyz
x,y,z
-x,-y,-z
loop_
_atom_site_type_symbol
_atom_site_label
_atom_site_fract_x
_atom_site_fract_y
_atom_site_fract_z
Si Si1 0.042770 0.954346 0.289712
Si Si2 0.865803 0.723136 0.104132
Si Si3 0.838224 0.155442 0.276731
Si Si4 0.318128 0.942273 0.962299
Si Si5 0.907541 0.777856 0.457538
Si Si6 0.790972 0.502056 0.278608
Si Si7 0.658356 0.612431 0.697928
Si Si8 0.422812 0.001883 0.778767
O O1 0.078560 0.070517 0.367242
O O2 0.202748 0.673661 0.943874
O O3 0.000000 0.000000 0.500000
O O4 0.886359 0.067886 0.332650
O O5 0.913167 0.504525 0.856959
O O6 0.033784 0.620894 0.924613
O O7 0.818405 0.828166 0.377322
O O8 0.691399 0.939216 0.271283
O O9 0.742255 0.409660 0.567238
O O10 0.737981 0.134950 0.199193
O O11 0.000000 0.000000 0.000000
O O12 0.200172 0.139427 0.308589
O O13 0.501276 0.700630 0.740445
O O14 0.337153 0.049134 0.977590
O O15 0.779248 0.536305 0.482014
O O16 0.624468 0.738502 0.468472
O O17 0.592020 0.814284 0.020387
#
# Coordination Sequence:
#
# PCOD8031472 Si02
#       8
#     2   2   2   2   2   2   2   2
#     4  12  24  42  65  94 134 174 221 276 332 393
#     4  11  24  42  68  94 138 177 223 268 331 401
#     4  12  23  40  69  98 125 177 226 268 337 397
#     4  11  23  42  67 100 136 167 221 280 332 390
#     4  11  23  42  64  98 132 177 217 280 331 386
#     4  11  22  44  68  97 137 174 217 283 323 393
#     4  11  23  43  68 101 136 169 221 282 328 394
#     4  11  25  42  70 103 132 179 224 266 339 397
#
# _framework density 22.007425000000001
#
# number of rings (size 3 to 8) (size 9 to 14) (size 15 to 20)
#    0.000    0.750    3.750    4.875    0.000    2.000 
#    2.250    3.750    0.000    0.000    0.000    0.000 
#    0.000    0.000    0.000    0.000    0.000    0.000 
#
# Total GULP energy -198324.750903 kJ/mol
# GULP energy per Si atom -12395.296931 kJ/mol
# Density = 2.195734 g / cm^3
# Si number density = 22.007425 Si / 1000 Ang^3
#
#
#
# Elastic Constant Matrix: (Units=GPa)
#
#
# Indices 1 2 3 4 5 6 
#
# 1 93.4432 29.9204 40.5939 4.7527 12.7615 -18.8086
# 2 29.9204 138.8665 56.9775 -3.3753 -6.9261 -30.6262
# 3 40.5939 56.9775 110.2773 21.9560 29.8011 -2.5809
# 4 4.7527 -3.3753 21.9560 29.6116 4.5329 -6.2995
# 5 12.7615 -6.9261 29.8011 4.5329 26.4838 2.0416
# 6 -18.8086 -30.6262 -2.5809 -6.2995 2.0416 21.9282
#
#
#
# Elastic Compliance Matrix: (Units=1/GPa)
#
#
# Indices 1 2 3 4 5 6 
#
# 1 0.020741 0.013602 -0.020518 0.020226 0.010164 0.039236
# 2 0.013602 0.044268 -0.047593 0.047840 0.044414 0.077501
# 3 -0.020518 -0.047593 0.068225 -0.061976 -0.061933 -0.088078
# 4 0.020226 0.047840 -0.061976 0.095766 0.048413 0.099875
# 5 0.010164 0.044414 -0.061933 0.048413 0.100639 0.067999
# 6 0.039236 0.077501 -0.088078 0.099875 0.067999 0.199495
#
#
# Mechanical properties :
#
#
# Convention : Reuss Voigt Hill
#
# Bulk Modulus (GPa) = 41.29410 66.39673 53.84541
# Shear Modulus (GPa) = 7.73724 29.94439 18.84081
#
# Velocity S-wave (km/s) = 1.87706 3.69270 2.92911
# Velocity P-wave (km/s) = 4.84791 6.95823 5.99664
#
# Compressibility (1/GPa) = 0.02421654
#
# Stress axis : x y z
#
# Youngs Moduli (GPa) = 48.21441 22.58943 14.65728
#
# Poissons Ratio (x) = -0.30725 0.30074
# Poissons Ratio (y) = -0.65579 0.69758
# Poissons Ratio (z) = 0.98926 1.07509
#
# Static dielectric constant tensor:
#      x y z
#    x 2.139550 2.275980 0.922890 
#    y 2.275980 1.940240 -0.593260 
#    z 0.922890 -0.593260 3.918490 
# 
# 
# High freq. dielectric constant tensor:
#      x y z
#    x 1.859680 0.003820 0.020640 
#    y 0.003820 1.876960 0.005820 
#    z 0.020640 0.005820 1.866630 
# 
# From -- ./inp_files/316096.got.cif
#   From: 2010.06.25/outbox.cif.g09.slc.cpg/sg2_159_cif.got.tgz:316096.got - 2010.06.27 13:26:56.
