data_PCOD8031879
_publ_section_title
;
Structure prediction by ZEFSAII (Michael W. Deem and Ramdas Pophale) SiO2 
 PCOD8031879
Probable space group: P -1
;
_chemical_formula_sum "Si O2"
_cell_formula_units_Z 16
_cell_length_a 23.038865
_cell_length_b 19.940505
_cell_length_c 14.236621
_cell_angle_alpha 161.202404
_cell_angle_beta 31.918503
_cell_angle_gamma 157.174631
_cell_volume 802.676574
_symmetry_space_group_name_H-M "P -1"
_symmetry_group_IT_number 2
_symmetry_cell_setting 'triclinic'
loop_
_space_group_symop_operation_xyz
x,y,z
-x,-y,-z
loop_
_atom_site_type_symbol
_atom_site_label
_atom_site_fract_x
_atom_site_fract_y
_atom_site_fract_z
Si Si1 0.872875 0.588147 0.610118
Si Si2 0.916171 0.175414 0.706754
Si Si3 0.872873 0.588143 0.110116
Si Si4 0.143676 0.905759 0.019963
Si Si5 0.677952 0.717648 0.057707
Si Si6 0.143677 0.905761 0.519963
Si Si7 0.083830 0.824586 0.793246
Si Si8 0.322048 0.282352 0.442293
O O1 0.810450 0.275223 0.300976
O O2 0.980761 0.714262 0.538840
O O3 0.967696 0.802286 0.855371
O O4 0.733444 0.559222 0.742071
O O5 0.872703 0.007094 0.444940
O O6 0.032309 0.197721 0.644630
O O7 0.762582 0.997997 0.745708
O O8 0.000000 0.500000 0.000000
O O9 0.733443 0.559220 0.242070
O O10 0.810448 0.275219 0.800974
O O11 0.980761 0.714261 0.038841
O O12 0.127296 0.992904 0.055059
O O13 0.280820 0.187520 0.264276
O O14 0.719181 0.812480 0.235722
O O15 0.762580 0.997995 0.245707
O O16 0.500000 0.500000 0.000000
O O17 0.000000 0.500000 0.500000
O O18 0.500000 0.500000 0.500000
#
# Coordination Sequence:
#
# PCOD8031879 Si02
#       8
#     2   2   2   2   2   2   2   2
#     4   9  19  35  57  80 103 138 181 219 258 310
#     4   9  18  36  59  79 100 137 185 220 255 309
#     4   9  19  35  57  80 103 138 181 219 258 310
#     4   9  18  36  57  77 104 138 179 223 258 301
#     4  11  23  35  51  82 115 139 170 214 268 321
#     4   9  18  36  57  77 104 138 179 223 258 301
#     4   9  18  36  59  79 100 137 185 220 255 309
#     4  11  23  35  51  82 115 139 170 214 268 321
#
# _framework density 19.933309000000001
#
# number of rings (size 3 to 8) (size 9 to 14) (size 15 to 20)
#    0.000    2.500    0.000    4.500    0.000    6.000 
#    0.000    5.000    0.000    0.000    0.000    0.000 
#    0.000    0.000    0.000    0.000    0.000    0.000 
#
# Total GULP energy -198275.378388 kJ/mol
# GULP energy per Si atom -12392.211149 kJ/mol
# Density = 1.988794 g / cm^3
# Si number density = 19.933309 Si / 1000 Ang^3
#
#
#
# Elastic Constant Matrix: (Units=GPa)
#
#
# Indices 1 2 3 4 5 6 
#
# 1 137.5274 68.9449 34.1879 -9.2460 24.5836 -8.0106
# 2 68.9449 124.0045 40.4404 3.6906 -4.1870 25.5203
# 3 34.1879 40.4404 73.4894 -10.0751 5.5390 11.9610
# 4 -9.2460 3.6906 -10.0751 23.9150 -1.4329 -3.0127
# 5 24.5836 -4.1870 5.5390 -1.4329 36.0179 -3.2490
# 6 -8.0106 25.5203 11.9610 -3.0127 -3.2490 38.3978
#
#
#
# Elastic Compliance Matrix: (Units=1/GPa)
#
#
# Indices 1 2 3 4 5 6 
#
# 1 0.016877 -0.012074 -0.001041 0.008729 -0.011370 0.011592
# 2 -0.012074 0.020148 -0.005421 -0.011281 0.009679 -0.014287
# 3 -0.001041 -0.005421 0.018690 0.007891 -0.002664 -0.002042
# 4 0.008729 -0.011281 0.007891 0.051237 -0.005505 0.010415
# 5 -0.011370 0.009679 -0.002664 -0.005505 0.036359 -0.005330
# 6 0.011592 -0.014287 -0.002042 0.010415 -0.005330 0.038959
#
#
# Mechanical properties :
#
#
# Convention : Reuss Voigt Hill
#
# Bulk Modulus (GPa) = 53.63598 69.12975 61.38287
# Shear Modulus (GPa) = 22.16752 32.42935 27.29844
#
# Velocity S-wave (km/s) = 3.33841 4.03785 3.70467
# Velocity P-wave (km/s) = 6.46731 7.51630 7.01145
#
# Compressibility (1/GPa) = 0.01864420
#
# Stress axis : x y z
#
# Youngs Moduli (GPa) = 59.25194 49.63346 53.50547
#
# Poissons Ratio (x) = 0.59925 0.05567
# Poissons Ratio (y) = 0.71538 0.29006
# Poissons Ratio (z) = 0.06165 0.26907
#
# Static dielectric constant tensor:
#      x y z
#    x 4.176740 -0.295140 0.155890 
#    y -0.295140 3.233850 -0.059810 
#    z 0.155890 -0.059810 3.686400 
# 
# 
# High freq. dielectric constant tensor:
#      x y z
#    x 1.793690 -0.015040 0.005510 
#    y -0.015040 1.733250 -0.005970 
#    z 0.005510 -0.005970 1.775030 
# 
# From -- ./inp_files/199785.got.cif
#   From: 2010.06.25/outbox.cif.g09.slc.cpg/sg2_100_cif.got.tgz:199785.got - 2010.06.27 13:26:56.
