data_PCOD8031554
_publ_section_title
;
Structure prediction by ZEFSAII (Michael W. Deem and Ramdas Pophale) SiO2 
 PCOD8031554
Probable space group: P -1
;
_chemical_formula_sum "Si O2"
_cell_formula_units_Z 16
_cell_length_a 9.572205
_cell_length_b 8.282385
_cell_length_c 24.840658
_cell_angle_alpha 139.434941
_cell_angle_beta 43.946410
_cell_angle_gamma 103.467936
_cell_volume 638.302212
_symmetry_space_group_name_H-M "P -1"
_symmetry_group_IT_number 2
_symmetry_cell_setting 'triclinic'
loop_
_space_group_symop_operation_xyz
x,y,z
-x,-y,-z
loop_
_atom_site_type_symbol
_atom_site_label
_atom_site_fract_x
_atom_site_fract_y
_atom_site_fract_z
Si Si1 0.786729 0.320195 0.831774
Si Si2 0.912861 0.471442 0.946091
Si Si3 0.780176 0.359533 0.059067
Si Si4 0.703354 0.334321 0.646247
Si Si5 0.291251 0.990537 0.081416
Si Si6 0.480504 0.683664 0.604283
Si Si7 0.929140 0.662415 0.664220
Si Si8 0.354270 0.863621 0.498596
O O1 0.805628 0.477123 0.919486
O O2 0.796143 0.020618 0.765516
O O3 0.481333 0.629668 0.970285
O O4 0.032408 0.177299 0.685930
O O5 0.986015 0.705343 0.984771
O O6 0.200909 0.081528 0.782044
O O7 0.711072 0.592704 0.084450
O O8 0.508732 0.524643 0.210442
O O9 0.883602 0.007137 0.915414
O O10 0.733375 0.597191 0.685539
O O11 0.618363 0.230822 0.595046
O O12 0.000000 0.000000 0.500000
O O13 0.073037 0.308893 0.262608
O O14 0.500000 0.000000 0.000000
O O15 0.500000 0.500000 0.500000
O O16 0.491711 0.488435 0.601786
O O17 0.747501 0.644219 0.521275
O O18 0.500000 0.000000 0.500000
#
# Coordination Sequence:
#
# PCOD8031554 Si02
#       8
#     2   2   2   2   2   2   2   2
#     4  11  24  44  72 100 138 181 231 285 345 414
#     4  11  23  44  71 101 137 182 232 287 342 412
#     4  11  24  43  67 101 136 183 227 283 347 401
#     4  12  26  44  68 105 146 180 232 292 345 411
#     4  12  24  45  69 101 138 183 227 285 352 415
#     4  11  22  44  72 100 136 183 234 282 340 418
#     4  11  24  42  72 101 138 182 234 280 349 410
#     4  11  26  43  69 100 139 185 229 280 348 411
#
# _framework density 25.066497999999999
#
# number of rings (size 3 to 8) (size 9 to 14) (size 15 to 20)
#    0.000    0.750    5.000    2.625    1.750    4.000 
#    2.250    1.250    0.000    0.000    0.000    0.000 
#    0.000    0.000    0.000    0.000    0.000    0.000 
#
# Total GULP energy -198318.992622 kJ/mol
# GULP energy per Si atom -12394.937039 kJ/mol
# Density = 2.500945 g / cm^3
# Si number density = 25.066498 Si / 1000 Ang^3
#
#
#
# Elastic Constant Matrix: (Units=GPa)
#
#
# Indices 1 2 3 4 5 6 
#
# 1 137.3602 48.7522 31.0239 3.2206 32.4643 24.5882
# 2 48.7522 109.4096 30.7088 -27.6913 4.3948 31.8426
# 3 31.0239 30.7088 85.1470 -28.1275 9.1599 -1.5145
# 4 3.2206 -27.6913 -28.1275 39.8865 2.2792 -2.9000
# 5 32.4643 4.3948 9.1599 2.2792 40.1761 1.6908
# 6 24.5882 31.8426 -1.5145 -2.9000 1.6908 55.6493
#
#
#
# Elastic Compliance Matrix: (Units=1/GPa)
#
#
# Indices 1 2 3 4 5 6 
#
# 1 0.012738 -0.005135 -0.004428 -0.007463 -0.008174 -0.002951
# 2 -0.005135 0.016096 -0.000866 0.010377 0.002271 -0.006493
# 3 -0.004428 -0.000866 0.018138 0.012890 -0.001348 0.003658
# 4 -0.007463 0.010377 0.012890 0.041986 -0.000421 -0.000088
# 5 -0.008174 0.002271 -0.001348 -0.000421 0.031524 0.001296
# 6 -0.002951 -0.006493 0.003658 -0.000088 0.001296 0.023045
#
#
# Mechanical properties :
#
#
# Convention : Reuss Voigt Hill
#
# Bulk Modulus (GPa) = 38.29271 61.43183 49.86227
# Shear Modulus (GPa) = 28.88701 41.90450 35.39575
#
# Velocity S-wave (km/s) = 3.39841 4.09312 3.76183
# Velocity P-wave (km/s) = 5.54153 6.84828 6.22926
#
# Compressibility (1/GPa) = 0.02611463
#
# Stress axis : x y z
#
# Youngs Moduli (GPa) = 78.50678 62.12718 55.13199
#
# Poissons Ratio (x) = 0.31901 0.24411
# Poissons Ratio (y) = 0.40312 0.04775
# Poissons Ratio (z) = 0.34761 0.05381
#
# Static dielectric constant tensor:
#      x y z
#    x 6.859430 0.775690 1.379260 
#    y 0.775690 3.273570 -0.924840 
#    z 1.379260 -0.924840 5.120260 
# 
# 
# High freq. dielectric constant tensor:
#      x y z
#    x 2.006100 0.022840 0.013190 
#    y 0.022840 2.006160 -0.026430 
#    z 0.013190 -0.026430 2.000320 
# 
# From -- ./inp_files/606866.got.cif
#   From: 2010.06.25/outbox.cif.g09.slc.cpg/sg2_304_cif.got.tgz:606866.got - 2010.06.27 13:26:56.
