data_PCOD8031663
_publ_section_title
;
Structure prediction by ZEFSAII (Michael W. Deem and Ramdas Pophale) SiO2 
 PCOD8031663
Probable space group: P -1
;
_chemical_formula_sum "Si O2"
_cell_formula_units_Z 16
_cell_length_a 17.242632
_cell_length_b 8.804411
_cell_length_c 11.377913
_cell_angle_alpha 80.349517
_cell_angle_beta 135.137278
_cell_angle_gamma 132.236363
_cell_volume 727.522506
_symmetry_space_group_name_H-M "P -1"
_symmetry_group_IT_number 2
_symmetry_cell_setting 'triclinic'
loop_
_space_group_symop_operation_xyz
x,y,z
-x,-y,-z
loop_
_atom_site_type_symbol
_atom_site_label
_atom_site_fract_x
_atom_site_fract_y
_atom_site_fract_z
Si Si1 0.623799 0.469174 0.750898
Si Si2 0.555034 0.855618 0.179954
Si Si3 0.283080 0.092561 0.278955
Si Si4 0.887124 0.713888 0.540904
Si Si5 0.935191 0.125437 0.534137
Si Si6 0.047954 0.355382 0.865846
Si Si7 0.525182 0.173185 0.160598
Si Si8 0.161516 0.820159 0.950938
O O1 0.537501 0.368897 0.801881
O O2 0.477648 0.268122 0.519608
O O3 0.712762 0.734799 0.796476
O O4 0.779707 0.516195 0.894716
O O5 0.764299 0.048312 0.360724
O O6 0.538480 0.004130 0.202799
O O7 0.453680 0.739918 0.960861
O O8 0.230105 0.910737 0.146303
O O9 0.137209 0.923633 0.248335
O O10 0.684715 0.422263 0.379570
O O11 0.956508 0.730259 0.488037
O O12 0.872200 0.879926 0.512854
O O13 0.024644 0.807069 0.776075
O O14 0.068191 0.324850 0.756281
O O15 0.045232 0.535686 0.849373
O O16 0.332735 0.014398 0.023344
#
# Coordination Sequence:
#
# PCOD8031663 Si02
#       8
#     2   2   2   2   2   2   2   2
#     4  11  24  45  70  98 131 179 229 279 331 398
#     4  11  22  45  70 101 136 174 225 270 341 411
#     4  11  27  44  67  98 135 181 233 276 329 389
#     4  11  26  43  67 104 140 172 220 285 337 407
#     4  11  24  44  70 101 136 180 224 273 345 403
#     4  12  24  45  72  93 135 183 223 281 333 397
#     4  11  25  42  71 104 136 178 215 278 345 404
#     4  12  26  44  66 105 138 176 228 279 333 401
#
# _framework density 21.992446999999999
#
# number of rings (size 3 to 8) (size 9 to 14) (size 15 to 20)
#    0.000    0.750    3.750    3.000    3.500    4.000 
#    0.000    0.000    0.000    0.000    0.000    0.000 
#    0.000    0.000    0.000    0.000    0.000    0.000 
#
# Total GULP energy -198537.092512 kJ/mol
# GULP energy per Si atom -12408.568282 kJ/mol
# Density = 2.194239 g / cm^3
# Si number density = 21.992447 Si / 1000 Ang^3
#
#
#
# Elastic Constant Matrix: (Units=GPa)
#
#
# Indices 1 2 3 4 5 6 
#
# 1 49.3852 7.5767 19.1484 -0.5800 -18.2986 1.1993
# 2 7.5767 78.1839 21.7301 4.3633 -4.2639 15.8002
# 3 19.1484 21.7301 115.0556 4.1693 0.8908 -6.8170
# 4 -0.5800 4.3633 4.1693 33.6326 -2.7033 2.1041
# 5 -18.2986 -4.2639 0.8908 -2.7033 40.6356 0.4739
# 6 1.1993 15.8002 -6.8170 2.1041 0.4739 19.9847
#
#
#
# Elastic Compliance Matrix: (Units=1/GPa)
#
#
# Indices 1 2 3 4 5 6 
#
# 1 0.026852 0.000094 -0.004897 0.002299 0.012407 -0.003892
# 2 0.000094 0.017084 -0.004119 -0.000606 0.002059 -0.014902
# 3 -0.004897 -0.004119 0.010809 -0.001605 -0.003068 0.007479
# 4 0.002299 -0.000606 -0.001605 0.030516 0.003077 -0.003492
# 5 0.012407 0.002059 -0.003068 0.003077 0.030736 -0.004472
# 6 -0.003892 -0.014902 0.007479 -0.003492 -0.004472 0.065079
#
#
# Mechanical properties :
#
#
# Convention : Reuss Voigt Hill
#
# Bulk Modulus (GPa) = 27.09944 37.72615 32.41280
# Shear Modulus (GPa) = 23.67193 31.79521 27.73357
#
# Velocity S-wave (km/s) = 3.28436 3.80640 3.55498
# Velocity P-wave (km/s) = 5.17026 6.04232 5.62322
#
# Compressibility (1/GPa) = 0.03690113
#
# Stress axis : x y z
#
# Youngs Moduli (GPa) = 37.24135 58.53476 92.51231
#
# Poissons Ratio (x) = -0.00548 0.45299
# Poissons Ratio (y) = -0.00349 0.38107
# Poissons Ratio (z) = 0.18235 0.24111
#
# Static dielectric constant tensor:
#      x y z
#    x 3.834900 0.084910 0.024910 
#    y 0.084910 3.938400 -0.087420 
#    z 0.024910 -0.087420 4.035550 
# 
# 
# High freq. dielectric constant tensor:
#      x y z
#    x 1.858720 0.003710 0.004770 
#    y 0.003710 1.869310 -0.001170 
#    z 0.004770 -0.001170 1.881770 
# 
# From -- ./inp_files/397244.got.cif
#   From: 2010.06.25/outbox.cif.g09.slc.cpg/sg2_199_cif.got.tgz:397244.got - 2010.06.27 13:26:56.
