data_PCOD8031804
_publ_section_title
;
Structure prediction by ZEFSAII (Michael W. Deem and Ramdas Pophale) SiO2 
 PCOD8031804
Probable space group: P -1
;
_chemical_formula_sum "Si O2"
_cell_formula_units_Z 16
_cell_length_a 14.177807
_cell_length_b 15.626558
_cell_length_c 15.040284
_cell_angle_alpha 152.075594
_cell_angle_beta 151.304078
_cell_angle_gamma 39.839707
_cell_volume 748.897028
_symmetry_space_group_name_H-M "P -1"
_symmetry_group_IT_number 2
_symmetry_cell_setting 'triclinic'
loop_
_space_group_symop_operation_xyz
x,y,z
-x,-y,-z
loop_
_atom_site_type_symbol
_atom_site_label
_atom_site_fract_x
_atom_site_fract_y
_atom_site_fract_z
Si Si1 0.722010 0.935637 0.627643
Si Si2 0.888033 0.427706 0.927048
Si Si3 0.026369 0.492941 0.289846
Si Si4 0.226762 0.872763 0.813855
Si Si5 0.611287 0.711897 0.024976
Si Si6 0.362513 0.399155 0.865511
Si Si7 0.122600 0.135651 0.119138
Si Si8 0.055013 0.986476 0.430902
O O1 0.741648 0.778785 0.427296
O O2 0.770042 0.858361 0.692846
O O3 0.500000 0.000000 0.500000
O O4 0.886879 0.093127 0.887611
O O5 0.850044 0.208793 0.690177
O O6 0.683509 0.533368 0.867006
O O7 0.000000 0.500000 0.000000
O O8 0.029915 0.477637 0.172407
O O9 0.104497 0.689148 0.565320
O O10 0.160934 0.337788 0.298056
O O11 0.805792 0.463742 0.118640
O O12 0.450127 0.812635 0.924901
O O13 0.141962 0.987062 0.766160
O O14 0.230156 0.992374 0.015200
O O15 0.526076 0.655636 0.000958
O O16 0.794247 0.851222 0.321992
O O17 0.500000 0.500000 0.000000
O O18 0.000000 0.000000 0.500000
#
# Coordination Sequence:
#
# PCOD8031804 Si02
#       8
#     2   2   2   2   2   2   2   2
#     4  11  23  42  63  95 131 176 243 285 336 404
#     4  11  22  46  74 101 137 177 225 283 353 412
#     4  11  23  42  69  96 138 182 224 285 344 397
#     4  12  24  45  68 102 144 175 233 282 340 418
#     4  11  26  44  71 106 136 186 231 280 346 411
#     4  11  23  43  65  98 139 184 230 282 333 402
#     4  11  24  41  66  94 133 184 224 291 341 393
#     4  12  23  47  76  98 141 181 218 292 352 405
#
# _framework density 21.364751999999999
#
# number of rings (size 3 to 8) (size 9 to 14) (size 15 to 20)
#    0.000    0.750    6.250    1.500    1.750    3.000 
#    2.250    1.250    0.000    0.000    0.000    0.000 
#    0.000    0.000    0.000    0.000    0.000    0.000 
#
# Total GULP energy -198391.331379 kJ/mol
# GULP energy per Si atom -12399.458211 kJ/mol
# Density = 2.131612 g / cm^3
# Si number density = 21.364752 Si / 1000 Ang^3
#
#
#
# Elastic Constant Matrix: (Units=GPa)
#
#
# Indices 1 2 3 4 5 6 
#
# 1 127.0347 54.8984 29.0626 -3.4577 -17.4676 6.9706
# 2 54.8984 154.5260 45.5835 1.0781 -11.6028 -14.5993
# 3 29.0626 45.5835 58.9208 1.9606 -11.7807 -8.9956
# 4 -3.4577 1.0781 1.9606 44.8671 -5.6056 0.0513
# 5 -17.4676 -11.6028 -11.7807 -5.6056 31.3186 5.1812
# 6 6.9706 -14.5993 -8.9956 0.0513 5.1812 34.1448
#
#
#
# Elastic Compliance Matrix: (Units=1/GPa)
#
#
# Indices 1 2 3 4 5 6 
#
# 1 0.010879 -0.003171 -0.002742 0.001665 0.004997 -0.005060
# 2 -0.003171 0.009444 -0.005396 -0.000355 -0.000926 0.003405
# 3 -0.002742 -0.005396 0.024065 -0.000540 0.004787 0.003867
# 4 0.001665 -0.000355 -0.000540 0.023069 0.004958 -0.001421
# 5 0.004997 -0.000926 0.004787 0.004958 0.038044 -0.005935
# 6 -0.005060 0.003405 0.003867 -0.001421 -0.005935 0.033697
#
#
# Mechanical properties :
#
#
# Convention : Reuss Voigt Hill
#
# Bulk Modulus (GPa) = 45.93361 66.61894 56.27628
# Shear Modulus (GPa) = 29.57296 36.12856 32.85076
#
# Velocity S-wave (km/s) = 3.72451 4.11668 3.92550
# Velocity P-wave (km/s) = 6.32790 7.33795 6.85156
#
# Compressibility (1/GPa) = 0.02177055
#
# Stress axis : x y z
#
# Youngs Moduli (GPa) = 91.91647 105.88450 41.55486
#
# Poissons Ratio (x) = 0.33573 0.11395
# Poissons Ratio (y) = 0.29144 0.22423
# Poissons Ratio (z) = 0.25204 0.57136
#
# Static dielectric constant tensor:
#      x y z
#    x 3.816610 -0.074290 -0.217770 
#    y -0.074290 4.046960 0.009010 
#    z -0.217770 0.009010 3.759680 
# 
# 
# High freq. dielectric constant tensor:
#      x y z
#    x 1.837790 0.000800 -0.017430 
#    y 0.000800 1.853510 0.009820 
#    z -0.017430 0.009820 1.831760 
# 
# From -- ./inp_files/533948.got.cif
#   From: 2010.06.25/outbox.cif.g09.slc.cpg/sg2_267_cif.got.tgz:533948.got - 2010.06.27 13:26:56.
