data_PCOD8031142
_publ_section_title
;
Structure prediction by ZEFSAII (Michael W. Deem and Ramdas Pophale) SiO2 
 PCOD8031142
Probable space group: P -1
;
_chemical_formula_sum "Si O2"
_cell_formula_units_Z 16
_cell_length_a 9.012970
_cell_length_b 14.377099
_cell_length_c 9.202431
_cell_angle_alpha 95.658918
_cell_angle_beta 58.654643
_cell_angle_gamma 57.178245
_cell_volume 725.610086
_symmetry_space_group_name_H-M "P -1"
_symmetry_group_IT_number 2
_symmetry_cell_setting 'triclinic'
loop_
_space_group_symop_operation_xyz
x,y,z
-x,-y,-z
loop_
_atom_site_type_symbol
_atom_site_label
_atom_site_fract_x
_atom_site_fract_y
_atom_site_fract_z
Si Si1 0.705985 0.483076 0.811439
Si Si2 0.983563 0.107278 0.959439
Si Si3 0.253093 0.317991 0.531934
Si Si4 0.389142 0.942619 0.511332
Si Si5 0.862682 0.824961 0.851111
Si Si6 0.493385 0.744031 0.890601
Si Si7 0.715634 0.471477 0.467501
Si Si8 0.338784 0.953869 0.199102
O O1 0.653827 0.612634 0.882369
O O2 0.678356 0.468709 0.655563
O O3 0.988487 0.368333 0.701039
O O4 0.500000 0.500000 0.000000
O O5 0.122871 0.047624 0.728049
O O6 0.102487 0.138537 0.007362
O O7 0.702009 0.242049 0.103277
O O8 0.000000 0.000000 0.000000
O O9 0.441399 0.202329 0.531211
O O10 0.337261 0.263456 0.313726
O O11 0.256521 0.429115 0.570953
O O12 0.344475 0.938026 0.364836
O O13 0.500000 0.000000 0.500000
O O14 0.037425 0.671848 0.724799
O O15 0.874610 0.894569 0.720491
O O16 0.596085 0.886034 0.994463
O O17 0.313570 0.867421 0.109125
O O18 0.500000 0.500000 0.500000
#
# Coordination Sequence:
#
# PCOD8031142 Si02
#       8
#     2   2   2   2   2   2   2   2
#     4  11  26  44  69 100 137 178 226 286 340 406
#     4  12  23  44  69  98 136 177 219 282 341 407
#     4  11  24  48  70  95 140 185 227 276 345 414
#     4  12  27  43  70 101 138 179 228 284 346 393
#     4  11  22  42  69  97 132 173 228 268 340 406
#     4  11  23  45  70  96 133 181 226 272 349 403
#     4  11  25  43  73  99 133 184 228 273 338 418
#     4  11  24  40  68 100 129 174 223 284 327 403
#
# _framework density 22.050411
#
# number of rings (size 3 to 8) (size 9 to 14) (size 15 to 20)
#    0.000    0.750    3.750    4.500    5.250    2.500 
#    0.000    1.875    0.000    0.000    0.000    0.000 
#    0.000    0.000    0.000    0.000    0.000    0.000 
#
# Total GULP energy -198271.638840 kJ/mol
# GULP energy per Si atom -12391.977427 kJ/mol
# Density = 2.200022 g / cm^3
# Si number density = 22.050411 Si / 1000 Ang^3
#
#
#
# Elastic Constant Matrix: (Units=GPa)
#
#
# Indices 1 2 3 4 5 6 
#
# 1 84.7110 21.0083 32.6915 2.3215 -2.5075 -5.5802
# 2 21.0083 118.8037 52.9759 5.8376 16.9228 -5.5861
# 3 32.6915 52.9759 124.3885 -5.7727 0.2650 -0.6270
# 4 2.3215 5.8376 -5.7727 35.0420 -1.6579 2.1196
# 5 -2.5075 16.9228 0.2650 -1.6579 45.6183 4.0109
# 6 -5.5802 -5.5861 -0.6270 2.1196 4.0109 33.3735
#
#
#
# Elastic Compliance Matrix: (Units=1/GPa)
#
#
# Indices 1 2 3 4 5 6 
#
# 1 0.013464 -0.000916 -0.003203 -0.001348 0.000872 0.002019
# 2 -0.000916 0.011675 -0.004851 -0.003054 -0.004681 0.002467
# 3 -0.003203 -0.004851 0.011076 0.003024 0.001805 -0.001548
# 4 -0.001348 -0.003054 0.003024 0.029919 0.002381 -0.002866
# 5 0.000872 -0.004681 0.001805 0.002381 0.024103 -0.003652
# 6 0.002019 0.002467 -0.001548 -0.002866 -0.003652 0.031306
#
#
# Mechanical properties :
#
#
# Convention : Reuss Voigt Hill
#
# Bulk Modulus (GPa) = 54.71770 60.13941 57.42855
# Shear Modulus (GPa) = 34.34696 37.55524 35.95110
#
# Velocity S-wave (km/s) = 3.95100 4.13141 4.04221
# Velocity P-wave (km/s) = 6.75889 7.07749 6.92002
#
# Compressibility (1/GPa) = 0.01827562
#
# Stress axis : x y z
#
# Youngs Moduli (GPa) = 74.27407 85.65232 90.28744
#
# Poissons Ratio (x) = 0.07843 0.28917
# Poissons Ratio (y) = 0.06802 0.43798
# Poissons Ratio (z) = 0.23788 0.41550
#
# Static dielectric constant tensor:
#      x y z
#    x 9.400140 -0.285230 -1.047760 
#    y -0.285230 4.306480 0.380450 
#    z -1.047760 0.380450 4.077220 
# 
# 
# High freq. dielectric constant tensor:
#      x y z
#    x 1.881750 -0.005190 -0.004110 
#    y -0.005190 1.871030 0.016000 
#    z -0.004110 0.016000 1.867230 
# 
# From -- ./inp_files/207587.got.cif
#   From: 2010.06.25/outbox.cif.g09.slc.cpg/sg2_104_cif.got.tgz:207587.got - 2010.06.27 13:26:56.
