data_PCOD8031430
_publ_section_title
;
Structure prediction by ZEFSAII (Michael W. Deem and Ramdas Pophale) SiO2 
 PCOD8031430
Probable space group: P -1
;
_chemical_formula_sum "Si O2"
_cell_formula_units_Z 16
_cell_length_a 12.156572
_cell_length_b 8.540992
_cell_length_c 9.756123
_cell_angle_alpha 117.409913
_cell_angle_beta 106.881857
_cell_angle_gamma 106.391792
_cell_volume 750.316578
_symmetry_space_group_name_H-M "P -1"
_symmetry_group_IT_number 2
_symmetry_cell_setting 'triclinic'
loop_
_space_group_symop_operation_xyz
x,y,z
-x,-y,-z
loop_
_atom_site_type_symbol
_atom_site_label
_atom_site_fract_x
_atom_site_fract_y
_atom_site_fract_z
Si Si1 0.314804 0.988262 0.291099
Si Si2 0.955727 0.466045 0.316808
Si Si3 0.465846 0.889298 0.090170
Si Si4 0.269966 0.366234 0.066013
Si Si5 0.877013 0.424042 0.822462
Si Si6 0.436341 0.261126 0.696433
Si Si7 0.128621 0.978779 0.013062
Si Si8 0.262278 0.435850 0.791691
O O1 0.415358 0.150029 0.499097
O O2 0.394307 0.990199 0.186490
O O3 0.252027 0.772247 0.252675
O O4 0.195348 0.019122 0.204438
O O5 0.899861 0.238102 0.146209
O O6 0.854615 0.551435 0.319759
O O7 0.000000 0.500000 0.500000
O O8 0.079083 0.612061 0.324889
O O9 0.572101 0.881630 0.233796
O O10 0.381121 0.658293 0.932208
O O11 0.500000 0.000000 0.000000
O O12 0.177814 0.419234 0.149911
O O13 0.425401 0.529476 0.182959
O O14 0.210703 0.339665 0.882622
O O15 0.238523 0.146525 0.019539
O O16 0.000000 0.500000 0.000000
O O17 0.313695 0.302689 0.677510
O O18 0.000000 0.000000 0.000000
#
# Coordination Sequence:
#
# PCOD8031430 Si02
#       8
#     2   2   2   2   2   2   2   2
#     4  12  25  45  72 104 142 183 239 292 351 429
#     4  12  27  46  70 107 138 180 244 297 354 414
#     4  11  23  44  71  98 140 186 234 286 350 423
#     4  11  22  43  75  98 140 185 231 290 349 430
#     4  12  20  46  72  94 135 190 229 285 355 417
#     4  11  27  44  69 111 140 186 239 281 365 419
#     4  12  25  44  71 103 136 183 239 289 357 412
#     4  11  24  45  67  96 147 184 229 287 362 420
#
# _framework density 21.324331000000001
#
# number of rings (size 3 to 8) (size 9 to 14) (size 15 to 20)
#    0.000    0.500    7.500    1.875    5.250    2.500 
#    0.000    1.250    0.000    0.000    0.000    0.000 
#    0.000    0.000    0.000    0.000    0.000    0.000 
#
# Total GULP energy -198231.741008 kJ/mol
# GULP energy per Si atom -12389.483813 kJ/mol
# Density = 2.127580 g / cm^3
# Si number density = 21.324331 Si / 1000 Ang^3
#
#
#
# Elastic Constant Matrix: (Units=GPa)
#
#
# Indices 1 2 3 4 5 6 
#
# 1 151.9106 26.6953 34.0319 -22.3821 -14.1749 -10.4159
# 2 26.6953 129.4594 51.2563 -10.0217 4.9672 2.6394
# 3 34.0319 51.2563 121.3269 -24.0121 3.6603 4.4797
# 4 -22.3821 -10.0217 -24.0121 37.8229 10.1083 -3.4569
# 5 -14.1749 4.9672 3.6603 10.1083 40.5256 -12.5675
# 6 -10.4159 2.6394 4.4797 -3.4569 -12.5675 35.0506
#
#
#
# Elastic Compliance Matrix: (Units=1/GPa)
#
#
# Indices 1 2 3 4 5 6 
#
# 1 0.008204 -0.001090 -0.001521 0.002998 0.003743 0.004352
# 2 -0.001090 0.009457 -0.003629 -0.000138 -0.001530 -0.001134
# 3 -0.001521 -0.003629 0.011617 0.006212 -0.003389 -0.002266
# 4 0.002998 -0.000138 0.006212 0.034276 -0.007835 0.000679
# 5 0.003743 -0.001530 -0.003389 -0.007835 0.032299 0.012469
# 6 0.004352 -0.001134 -0.002266 0.000679 0.012469 0.034736
#
#
# Mechanical properties :
#
#
# Convention : Reuss Voigt Hill
#
# Bulk Modulus (GPa) = 59.52614 69.62932 64.57773
# Shear Modulus (GPa) = 33.63155 42.06072 37.84613
#
# Velocity S-wave (km/s) = 3.97564 4.44602 4.21739
# Velocity P-wave (km/s) = 7.00354 7.68632 7.35286
#
# Compressibility (1/GPa) = 0.01679934
#
# Stress axis : x y z
#
# Youngs Moduli (GPa) = 121.88461 105.74113 86.07863
#
# Poissons Ratio (x) = 0.11523 0.13094
# Poissons Ratio (y) = 0.13283 0.31236
# Poissons Ratio (z) = 0.18541 0.38371
#
# Static dielectric constant tensor:
#      x y z
#    x 4.459140 -0.869740 0.423020 
#    y -0.869740 5.368760 -0.942290 
#    z 0.423020 -0.942290 4.252460 
# 
# 
# High freq. dielectric constant tensor:
#      x y z
#    x 1.851980 -0.007840 0.000950 
#    y -0.007840 1.844820 -0.014050 
#    z 0.000950 -0.014050 1.821430 
# 
# From -- ./inp_files/186083.got.cif
#   From: 2010.06.25/outbox.cif.g09.slc.cpg/sg2_94_cif.got.tgz:186083.got - 2010.06.27 13:26:56.
