data_PCOD8031090
_publ_section_title
;
Structure prediction by ZEFSAII (Michael W. Deem and Ramdas Pophale) SiO2 
 PCOD8031090
Probable space group: P -1
;
_chemical_formula_sum "Si O2"
_cell_formula_units_Z 16
_cell_length_a 5.351933
_cell_length_b 17.690621
_cell_length_c 12.281247
_cell_angle_alpha 53.569419
_cell_angle_beta 122.312507
_cell_angle_gamma 91.170754
_cell_volume 711.262483
_symmetry_space_group_name_H-M "P -1"
_symmetry_group_IT_number 2
_symmetry_cell_setting 'triclinic'
loop_
_space_group_symop_operation_xyz
x,y,z
-x,-y,-z
loop_
_atom_site_type_symbol
_atom_site_label
_atom_site_fract_x
_atom_site_fract_y
_atom_site_fract_z
Si Si1 0.612705 0.181297 0.513610
Si Si2 0.263925 0.806740 0.128755
Si Si3 0.430641 0.212138 0.207093
Si Si4 0.424849 0.023358 0.259019
Si Si5 0.836324 0.474767 0.380471
Si Si6 0.473075 0.346334 0.501743
Si Si7 0.657183 0.297946 0.980243
Si Si8 0.326036 0.084898 0.798204
O O1 0.593501 0.219733 0.352097
O O2 0.375039 0.275732 0.454337
O O3 0.951987 0.159325 0.672949
O O4 0.568771 0.075297 0.590412
O O5 0.271113 0.714095 0.287454
O O6 0.433445 0.758534 0.093449
O O7 0.482135 0.844408 0.222904
O O8 0.915090 0.903048 0.943496
O O9 0.532263 0.090622 0.307529
O O10 0.588083 0.254719 0.114067
O O11 0.037352 0.274936 0.072346
O O12 0.684717 0.973462 0.265708
O O13 0.651678 0.404749 0.428501
O O14 0.560423 0.579426 0.174708
O O15 0.000000 0.500000 0.500000
O O16 0.119288 0.422903 0.401401
O O17 0.500000 0.000000 0.000000
#
# Coordination Sequence:
#
# PCOD8031090 Si02
#       8
#     2   2   2   2   2   2   2   2
#     4  12  27  45  67 101 146 194 234 284 337 419
#     4  11  22  42  67 110 142 181 225 292 362 419
#     4  11  28  47  71 101 142 194 242 278 338 418
#     4  11  24  41  67  99 144 189 237 279 340 414
#     4  12  26  46  75 109 138 173 229 297 368 420
#     4  12  26  43  72 108 143 177 231 288 362 419
#     4  11  26  48  73 101 141 180 235 298 354 417
#     4  12  22  39  66  99 146 184 232 286 349 404
#
# _framework density 22.49521
#
# number of rings (size 3 to 8) (size 9 to 14) (size 15 to 20)
#    0.000    0.500    3.750    4.125    7.000    0.500 
#    0.000    3.750    0.000    0.000    0.000    0.000 
#    0.000    0.000    0.000    0.000    0.000    0.000 
#
# Total GULP energy -198338.660441 kJ/mol
# GULP energy per Si atom -12396.166278 kJ/mol
# Density = 2.244401 g / cm^3
# Si number density = 22.495210 Si / 1000 Ang^3
#
#
#
# Elastic Constant Matrix: (Units=GPa)
#
#
# Indices 1 2 3 4 5 6 
#
# 1 99.2137 24.5751 22.7106 -5.2839 -10.0675 -12.3487
# 2 24.5751 99.8154 49.4072 -0.9882 -2.0328 -19.3813
# 3 22.7106 49.4072 91.2348 -6.3729 -19.3819 -10.7439
# 4 -5.2839 -0.9882 -6.3729 38.2732 -2.4505 -5.4500
# 5 -10.0675 -2.0328 -19.3819 -2.4505 37.2283 -0.8920
# 6 -12.3487 -19.3813 -10.7439 -5.4500 -0.8920 37.3405
#
#
#
# Elastic Compliance Matrix: (Units=1/GPa)
#
#
# Indices 1 2 3 4 5 6 
#
# 1 0.011465 -0.001759 -0.000816 0.002007 0.002784 0.003003
# 2 -0.001759 0.015349 -0.008172 -0.000764 -0.003826 0.004831
# 3 -0.000816 -0.008172 0.017876 0.003414 0.008896 0.001343
# 4 0.002007 -0.000764 0.003414 0.028000 0.004252 0.005438
# 5 0.002784 -0.003826 0.008896 0.004252 0.032386 0.002888
# 6 0.003003 0.004831 0.001343 0.005438 0.002888 0.031530
#
#
# Mechanical properties :
#
#
# Convention : Reuss Voigt Hill
#
# Bulk Modulus (GPa) = 43.11080 53.73886 48.42483
# Shear Modulus (GPa) = 30.15114 35.47313 32.81214
#
# Velocity S-wave (km/s) = 3.66503 3.97535 3.82334
# Velocity P-wave (km/s) = 6.09229 6.70911 6.40812
#
# Compressibility (1/GPa) = 0.02319604
#
# Stress axis : x y z
#
# Youngs Moduli (GPa) = 87.22243 65.15116 55.94213
#
# Poissons Ratio (x) = 0.11461 0.04565
# Poissons Ratio (y) = 0.15343 0.45713
# Poissons Ratio (z) = 0.07118 0.53239
#
# Static dielectric constant tensor:
#      x y z
#    x 4.038280 -0.296230 -0.077380 
#    y -0.296230 2.617150 -0.691100 
#    z -0.077380 -0.691100 3.975120 
# 
# 
# High freq. dielectric constant tensor:
#      x y z
#    x 1.888820 -0.018780 -0.008330 
#    y -0.018780 1.891650 -0.008860 
#    z -0.008330 -0.008860 1.890110 
# 
# From -- ./inp_files/369385.got.cif
#   From: 2010.06.25/outbox.cif.g09.slc.cpg/sg2_185_cif.got.tgz:369385.got - 2010.06.27 13:26:56.
