data_PCOD8031597
_publ_section_title
;
Structure prediction by ZEFSAII (Michael W. Deem and Ramdas Pophale) SiO2 
 PCOD8031597
Probable space group: P -1
;
_chemical_formula_sum "Si O2"
_cell_formula_units_Z 14
_cell_length_a 8.727988
_cell_length_b 20.565037
_cell_length_c 9.463499
_cell_angle_alpha 44.624880
_cell_angle_beta 54.708696
_cell_angle_gamma 29.903463
_cell_volume 591.120269
_symmetry_space_group_name_H-M "P -1"
_symmetry_group_IT_number 2
_symmetry_cell_setting 'triclinic'
loop_
_space_group_symop_operation_xyz
x,y,z
-x,-y,-z
loop_
_atom_site_type_symbol
_atom_site_label
_atom_site_fract_x
_atom_site_fract_y
_atom_site_fract_z
Si Si1 0.185109 0.522155 0.357304
Si Si2 0.184314 0.264436 0.032897
Si Si3 0.680946 0.001209 0.991159
Si Si4 0.212198 0.675120 0.309757
Si Si5 0.918571 0.024928 0.339200
Si Si6 0.877893 0.249984 0.431065
Si Si7 0.352635 0.355663 0.983914
O O1 0.154667 0.594033 0.407660
O O2 0.537994 0.360452 0.380806
O O3 0.000000 0.500000 0.500000
O O4 0.048008 0.638717 0.124959
O O5 0.324666 0.308705 0.927816
O O6 0.018400 0.282275 0.225132
O O7 0.488609 0.088858 0.100125
O O8 0.767101 0.060709 0.770298
O O9 0.009583 0.832633 0.108070
O O10 0.500000 0.000000 0.000000
O O11 0.162206 0.700248 0.464226
O O12 0.544821 0.581142 0.218673
O O13 0.597070 0.206495 0.192035
O O14 0.000000 0.000000 0.500000
O O15 0.899690 0.925909 0.445979
O O16 0.000000 0.500000 0.000000
#
# Coordination Sequence:
#
# PCOD8031597 Si02
#       7
#     2   2   2   2   2   2   2
#     4  12  26  46  75 104 145 198 249 304 377 444
#     4  12  26  46  71 109 147 199 242 307 372 439
#     4  11  22  44  74 102 145 192 244 302 367 439
#     4  11  25  48  75 106 145 197 245 306 376 439
#     4  11  26  45  74 114 148 196 252 308 367 441
#     4  12  27  46  71 109 152 188 254 307 367 445
#     4  11  26  48  76 108 153 194 246 308 372 442
#
# _framework density 23.683844000000001
#
# number of rings (size 3 to 8) (size 9 to 14) (size 15 to 20)
#    0.000    0.571    1.429    6.000    4.000    6.857 
#    2.571    0.000    0.000    0.000    0.000    0.000 
#    0.000    0.000    0.000    0.000    0.000    0.000 
#
# Total GULP energy -173453.727135 kJ/mol
# GULP energy per Si atom -12389.551938 kJ/mol
# Density = 2.362994 g / cm^3
# Si number density = 23.683844 Si / 1000 Ang^3
#
#
#
# Elastic Constant Matrix: (Units=GPa)
#
#
# Indices 1 2 3 4 5 6 
#
# 1 155.5819 55.2650 54.5832 14.2833 -9.2497 13.0339
# 2 55.2650 133.3247 52.9637 12.5969 4.1022 1.2073
# 3 54.5832 52.9637 103.9529 19.0849 -0.7734 9.7287
# 4 14.2833 12.5969 19.0849 45.6114 -5.3641 -5.9879
# 5 -9.2497 4.1022 -0.7734 -5.3641 41.5991 3.2011
# 6 13.0339 1.2073 9.7287 -5.9879 3.2011 37.5657
#
#
#
# Elastic Compliance Matrix: (Units=1/GPa)
#
#
# Indices 1 2 3 4 5 6 
#
# 1 0.008743 -0.002415 -0.002940 -0.000914 0.002204 -0.002528
# 2 -0.002415 0.010171 -0.004014 -0.000368 -0.001789 0.001644
# 3 -0.002940 -0.004014 0.014321 -0.004425 -0.000313 -0.003239
# 4 -0.000914 -0.000368 -0.004425 0.025159 0.002590 0.005265
# 5 0.002204 -0.001789 -0.000313 0.002590 0.025215 -0.002362
# 6 -0.002528 0.001644 -0.003239 0.005265 -0.002362 0.029324
#
#
# Mechanical properties :
#
#
# Convention : Reuss Voigt Hill
#
# Bulk Modulus (GPa) = 68.97056 79.83147 74.40102
# Shear Modulus (GPa) = 36.62897 40.29176 38.46036
#
# Velocity S-wave (km/s) = 3.93692 4.12908 4.03414
# Velocity P-wave (km/s) = 7.06048 7.51749 7.29257
#
# Compressibility (1/GPa) = 0.01449894
#
# Stress axis : x y z
#
# Youngs Moduli (GPa) = 114.37146 98.31998 69.82512
#
# Poissons Ratio (x) = 0.23745 0.20527
# Poissons Ratio (y) = 0.27621 0.28025
# Poissons Ratio (z) = 0.33623 0.39462
#
# Static dielectric constant tensor:
#      x y z
#    x 4.446590 -0.088640 0.041720 
#    y -0.088640 4.407210 -0.279970 
#    z 0.041720 -0.279970 4.376890 
# 
# 
# High freq. dielectric constant tensor:
#      x y z
#    x 1.953550 -0.001890 -0.002700 
#    y -0.001890 1.953720 -0.008680 
#    z -0.002700 -0.008680 1.945250 
# 
# From -- ./inp_files/223151.got.cif
#   From: 2010.06.25/outbox.cif.g09.slc.cpg/sg2_112_cif.got.tgz:223151.got - 2010.06.27 13:26:56.
