data_PCOD8031211
_publ_section_title
;
Structure prediction by ZEFSAII (Michael W. Deem and Ramdas Pophale) SiO2 
 PCOD8031211
Probable space group: P -1
;
_chemical_formula_sum "Si O2"
_cell_formula_units_Z 14
_cell_length_a 23.465216
_cell_length_b 9.488806
_cell_length_c 9.310899
_cell_angle_alpha 44.796423
_cell_angle_beta 144.853075
_cell_angle_gamma 150.507436
_cell_volume 587.533135
_symmetry_space_group_name_H-M "P -1"
_symmetry_group_IT_number 2
_symmetry_cell_setting 'triclinic'
loop_
_space_group_symop_operation_xyz
x,y,z
-x,-y,-z
loop_
_atom_site_type_symbol
_atom_site_label
_atom_site_fract_x
_atom_site_fract_y
_atom_site_fract_z
Si Si1 0.637089 0.416003 0.530600
Si Si2 0.934189 0.936606 0.757298
Si Si3 0.654720 0.846997 0.949063
Si Si4 0.933615 0.488440 0.011349
Si Si5 0.633161 0.064797 0.007986
Si Si6 0.868835 0.475008 0.428794
Si Si7 0.668913 0.407401 0.280023
O O1 0.769041 0.764678 0.556876
O O2 0.487805 0.312981 0.320958
O O3 0.665086 0.295650 0.800524
O O4 0.639695 0.306600 0.459683
O O5 0.926904 0.715750 0.818958
O O6 0.025117 0.215143 0.647600
O O7 0.000000 0.000000 0.000000
O O8 0.623658 0.842578 0.057667
O O9 0.706518 0.696732 0.137094
O O10 0.777321 0.175179 0.922066
O O11 0.033069 0.570208 0.292192
O O12 0.000000 0.500000 0.000000
O O13 0.478568 0.859366 0.913068
O O14 0.754506 0.230043 0.257554
O O15 0.794378 0.464188 0.423185
#
# Coordination Sequence:
#
# PCOD8031211 Si02
#       7
#     2   2   2   2   2   2   2
#     4  11  22  42  72  94 137 176 232 279 333 410
#     4  12  25  46  70 104 138 181 230 281 347 406
#     4  11  23  43  70 101 129 182 238 273 338 408
#     4  12  27  44  70 103 141 183 226 281 352 406
#     4  11  23  44  69 100 136 182 225 283 346 397
#     4  12  27  47  68 103 148 177 225 292 344 408
#     4  11  24  42  70 102 136 180 230 282 341 407
#
# _framework density 23.828443
#
# number of rings (size 3 to 8) (size 9 to 14) (size 15 to 20)
#    0.000    0.571    2.857    6.429    2.000    6.286 
#    0.000    0.714    0.000    0.000    0.000    0.000 
#    0.000    0.000    0.000    0.000    0.000    0.000 
#
# Total GULP energy -173567.365126 kJ/mol
# GULP energy per Si atom -12397.668938 kJ/mol
# Density = 2.377421 g / cm^3
# Si number density = 23.828443 Si / 1000 Ang^3
#
#
#
# Elastic Constant Matrix: (Units=GPa)
#
#
# Indices 1 2 3 4 5 6 
#
# 1 47.0612 -12.6976 3.9931 10.6839 9.0914 2.0866
# 2 -12.6976 83.3044 20.5087 27.3485 11.0857 5.7896
# 3 3.9931 20.5087 111.4644 21.5434 9.3267 4.4702
# 4 10.6839 27.3485 21.5434 49.4399 3.8148 10.2443
# 5 9.0914 11.0857 9.3267 3.8148 36.3865 3.2310
# 6 2.0866 5.7896 4.4702 10.2443 3.2310 33.2639
#
#
#
# Elastic Compliance Matrix: (Units=1/GPa)
#
#
# Indices 1 2 3 4 5 6 
#
# 1 0.027503 0.008614 0.000092 -0.010246 -0.008512 0.000745
# 2 0.008614 0.017967 -0.000986 -0.010982 -0.006263 0.000455
# 3 0.000092 -0.000986 0.010024 -0.003726 -0.001915 0.000152
# 4 -0.010246 -0.010982 -0.003726 0.031261 0.004203 -0.006981
# 5 -0.008512 -0.006263 -0.001915 0.004203 0.031790 -0.002501
# 6 0.000745 0.000455 0.000152 -0.006981 -0.002501 0.032309
#
#
# Mechanical properties :
#
#
# Convention : Reuss Voigt Hill
#
# Bulk Modulus (GPa) = 14.09757 29.49316 21.79537
# Shear Modulus (GPa) = 31.43518 39.15312 35.29415
#
# Velocity S-wave (km/s) = 3.63606 4.05795 3.85278
# Velocity P-wave (km/s) = 4.85356 5.86175 5.38131
#
# Compressibility (1/GPa) = 0.07093421
#
# Stress axis : x y z
#
# Youngs Moduli (GPa) = 36.36010 55.65791 99.76152
#
# Poissons Ratio (x) = -0.47944 -0.00923
# Poissons Ratio (y) = -0.31321 0.09838
# Poissons Ratio (z) = -0.00336 0.05489
#
# Static dielectric constant tensor:
#      x y z
#    x 4.103590 0.194910 -0.149240 
#    y 0.194910 4.452990 0.610020 
#    z -0.149240 0.610020 1.789710 
# 
# 
# High freq. dielectric constant tensor:
#      x y z
#    x 1.925220 0.018530 0.015500 
#    y 0.018530 1.960330 0.013530 
#    z 0.015500 0.013530 1.964160 
# 
# From -- ./inp_files/352061.got.cif
#   From: 2010.06.25/outbox.cif.g09.slc.cpg/sg2_177_cif.got.tgz:352061.got - 2010.06.27 13:26:56.
