data_PCOD8031593
_publ_section_title
;
Structure prediction by ZEFSAII (Michael W. Deem and Ramdas Pophale) SiO2 
 PCOD8031593
Probable space group: P -1
;
_chemical_formula_sum "Si O2"
_cell_formula_units_Z 16
_cell_length_a 14.273297
_cell_length_b 13.268228
_cell_length_c 8.996993
_cell_angle_alpha 125.658139
_cell_angle_beta 89.395844
_cell_angle_gamma 134.483486
_cell_volume 718.232792
_symmetry_space_group_name_H-M "P -1"
_symmetry_group_IT_number 2
_symmetry_cell_setting 'triclinic'
loop_
_space_group_symop_operation_xyz
x,y,z
-x,-y,-z
loop_
_atom_site_type_symbol
_atom_site_label
_atom_site_fract_x
_atom_site_fract_y
_atom_site_fract_z
Si Si1 0.820500 0.108803 0.034500
Si Si2 0.851073 0.139164 0.395789
Si Si3 0.442173 0.796515 0.777755
Si Si4 0.510694 0.367224 0.918434
Si Si5 0.687164 0.419956 0.727215
Si Si6 0.815984 0.633876 0.362790
Si Si7 0.078232 0.536708 0.181688
Si Si8 0.976386 0.039569 0.880849
O O1 0.912383 0.211054 0.284017
O O2 0.916424 0.317316 0.107053
O O3 0.836725 0.994017 0.858836
O O4 0.611767 0.899317 0.876769
O O5 0.812954 0.232379 0.538224
O O6 0.008772 0.250203 0.584408
O O7 0.662932 0.854391 0.168787
O O8 0.369950 0.710190 0.536925
O O9 0.291060 0.569313 0.691061
O O10 0.500000 0.000000 0.000000
O O11 0.694321 0.531480 0.136790
O O12 0.500000 0.500000 0.000000
O O13 0.514573 0.285769 0.698731
O O14 0.784701 0.420619 0.819144
O O15 0.826841 0.690783 0.938763
O O16 0.889644 0.848106 0.601980
O O17 0.000000 0.500000 0.000000
O O18 0.000000 0.000000 0.000000
#
# Coordination Sequence:
#
# PCOD8031593 Si02
#       8
#     2   2   2   2   2   2   2   2
#     4  11  24  43  72 107 135 186 241 291 360 420
#     4  12  24  47  74  99 146 189 238 294 353 428
#     4  12  25  44  74 108 141 184 243 304 349 425
#     4  12  30  46  69 109 149 192 236 294 361 430
#     4  11  26  46  70 106 145 185 241 294 363 425
#     4  12  25  47  74 104 143 189 245 292 359 424
#     4  11  25  45  72 102 141 187 236 295 365 424
#     4  11  22  44  74 101 136 185 239 302 350 415
#
# _framework density 22.276900999999999
#
# number of rings (size 3 to 8) (size 9 to 14) (size 15 to 20)
#    0.000    0.500    3.750    4.125    3.500    4.000 
#    0.000    0.000    0.000    0.000    0.000    0.000 
#    0.000    0.000    0.000    0.000    0.000    0.000 
#
# Total GULP energy -198430.793166 kJ/mol
# GULP energy per Si atom -12401.924573 kJ/mol
# Density = 2.222620 g / cm^3
# Si number density = 22.276901 Si / 1000 Ang^3
#
#
#
# Elastic Constant Matrix: (Units=GPa)
#
#
# Indices 1 2 3 4 5 6 
#
# 1 132.6595 50.9154 39.8169 4.9518 1.8228 -2.1785
# 2 50.9154 105.3489 39.7331 -1.6518 -5.8141 -7.8672
# 3 39.8169 39.7331 105.3612 6.5749 -12.5863 -11.8606
# 4 4.9518 -1.6518 6.5749 34.1983 0.8655 3.4841
# 5 1.8228 -5.8141 -12.5863 0.8655 48.9346 1.0321
# 6 -2.1785 -7.8672 -11.8606 3.4841 1.0321 41.7307
#
#
#
# Elastic Compliance Matrix: (Units=1/GPa)
#
#
# Indices 1 2 3 4 5 6 
#
# 1 0.009842 -0.004005 -0.002405 -0.001038 -0.001426 -0.000803
# 2 -0.004005 0.012786 -0.003190 0.001675 0.000794 0.001135
# 3 -0.002405 -0.003190 0.012442 -0.002572 0.002894 0.002952
# 4 -0.001038 0.001675 -0.002572 0.030293 -0.000897 -0.002976
# 5 -0.001426 0.000794 0.002894 -0.000897 0.021334 0.000445
# 6 -0.000803 0.001135 0.002952 -0.002976 0.000445 0.025212
#
#
# Mechanical properties :
#
#
# Convention : Reuss Voigt Hill
#
# Bulk Modulus (GPa) = 63.01281 67.14451 65.07866
# Shear Modulus (GPa) = 36.65756 39.16635 37.91196
#
# Velocity S-wave (km/s) = 4.06093 4.19759 4.12982
# Velocity P-wave (km/s) = 7.09477 7.32798 7.21232
#
# Compressibility (1/GPa) = 0.01586979
#
# Stress axis : x y z
#
# Youngs Moduli (GPa) = 101.60434 78.21225 80.37495
#
# Poissons Ratio (x) = 0.31320 0.19331
# Poissons Ratio (y) = 0.40687 0.25641
# Poissons Ratio (z) = 0.24437 0.24951
#
# Static dielectric constant tensor:
#      x y z
#    x 4.117310 -0.004580 0.065550 
#    y -0.004580 4.082110 -0.040010 
#    z 0.065550 -0.040010 3.975020 
# 
# 
# High freq. dielectric constant tensor:
#      x y z
#    x 1.898110 -0.001620 -0.004310 
#    y -0.001620 1.881680 -0.000230 
#    z -0.004310 -0.000230 1.879960 
# 
# From -- ./inp_files/315878.got.cif
#   From: 2010.06.25/outbox.cif.g09.slc.cpg/sg2_158_cif.got.tgz:315878.got - 2010.06.27 13:26:56.
