data_PCOD8031958
_publ_section_title
;
Structure prediction by ZEFSAII (Michael W. Deem and Ramdas Pophale) SiO2 
 PCOD8031958
Probable space group: P -1
;
_chemical_formula_sum "Si O2"
_cell_formula_units_Z 16
_cell_length_a 11.619549
_cell_length_b 8.698547
_cell_length_c 15.144203
_cell_angle_alpha 48.777340
_cell_angle_beta 106.640840
_cell_angle_gamma 68.863523
_cell_volume 714.029299
_symmetry_space_group_name_H-M "P -1"
_symmetry_group_IT_number 2
_symmetry_cell_setting 'triclinic'
loop_
_space_group_symop_operation_xyz
x,y,z
-x,-y,-z
loop_
_atom_site_type_symbol
_atom_site_label
_atom_site_fract_x
_atom_site_fract_y
_atom_site_fract_z
Si Si1 0.359035 0.801594 0.731557
Si Si2 0.879952 0.091824 0.700240
Si Si3 0.705176 0.443989 0.048147
Si Si4 0.096419 0.493034 0.448742
Si Si5 0.237579 0.658707 0.227116
Si Si6 0.073720 0.214529 0.872256
Si Si7 0.396779 0.631277 0.610014
Si Si8 0.594136 0.955922 0.946022
O O1 0.261628 0.783697 0.789624
O O2 0.321358 0.751128 0.647209
O O3 0.265371 0.145092 0.577707
O O4 0.577709 0.537145 0.902646
O O5 0.831794 0.384015 0.547430
O O6 0.819860 0.147570 0.768099
O O7 0.760119 0.120346 0.592105
O O8 0.094523 0.745756 0.871008
O O9 0.592044 0.773180 0.946095
O O10 0.000000 0.500000 0.500000
O O11 0.928822 0.756482 0.244159
O O12 0.459327 0.370820 0.378942
O O13 0.145846 0.548772 0.240382
O O14 0.174465 0.873736 0.047857
O O15 0.186292 0.264792 0.913466
O O16 0.487125 0.287648 0.754935
O O17 0.500000 0.000000 0.000000
#
# Coordination Sequence:
#
# PCOD8031958 Si02
#       8
#     2   2   2   2   2   2   2   2
#     4  11  25  40  63  99 138 174 216 269 337 399
#     4  11  24  42  69  96 130 174 223 280 325 388
#     4  11  25  40  63  99 138 174 216 269 337 399
#     4  11  23  39  66  98 135 173 214 271 337 395
#     4   9  21  44  70  90 128 180 228 262 330 388
#     4   9  22  38  69  93 127 170 227 260 323 389
#     4  11  24  42  69  96 130 174 223 280 325 388
#     4  11  23  39  66  98 135 173 214 271 337 395
#
# _framework density 22.408044
#
# number of rings (size 3 to 8) (size 9 to 14) (size 15 to 20)
#    0.000    1.500    2.500    1.125   14.000    0.500 
#    0.000    5.000    5.500    0.000    0.000    0.000 
#    0.000    0.000    0.000    0.000    0.000    0.000 
#
# Total GULP energy -198226.391630 kJ/mol
# GULP energy per Si atom -12389.149477 kJ/mol
# Density = 2.235704 g / cm^3
# Si number density = 22.408044 Si / 1000 Ang^3
#
#
#
# Elastic Constant Matrix: (Units=GPa)
#
#
# Indices 1 2 3 4 5 6 
#
# 1 89.7047 0.7652 33.6788 5.1656 3.5920 -2.1201
# 2 0.7652 70.3655 30.9539 0.2921 -2.5176 -3.5263
# 3 33.6788 30.9539 101.4430 20.9068 12.3528 -11.2239
# 4 5.1656 0.2921 20.9068 39.5861 2.4483 -1.6162
# 5 3.5920 -2.5176 12.3528 2.4483 35.8602 5.4223
# 6 -2.1201 -3.5263 -11.2239 -1.6162 5.4223 32.7383
#
#
#
# Elastic Compliance Matrix: (Units=1/GPa)
#
#
# Indices 1 2 3 4 5 6 
#
# 1 0.013050 0.002221 -0.005416 0.001059 0.000770 -0.000848
# 2 0.002221 0.017425 -0.007212 0.003145 0.003400 -0.000860
# 3 -0.005416 -0.007212 0.016706 -0.007479 -0.005998 0.005224
# 4 0.001059 0.003145 -0.007479 0.028962 0.000845 -0.000867
# 5 0.000770 0.003400 -0.005998 0.000845 0.031076 -0.006745
# 6 -0.000848 -0.000860 0.005224 -0.000867 -0.006745 0.033263
#
#
# Mechanical properties :
#
#
# Convention : Reuss Voigt Hill
#
# Bulk Modulus (GPa) = 37.92435 43.58989 40.75712
# Shear Modulus (GPa) = 29.39669 34.71128 32.05398
#
# Velocity S-wave (km/s) = 3.62592 3.94007 3.78626
# Velocity P-wave (km/s) = 5.87290 6.33987 6.11084
#
# Compressibility (1/GPa) = 0.02636828
#
# Stress axis : x y z
#
# Youngs Moduli (GPa) = 76.62588 57.38736 59.85726
#
# Poissons Ratio (x) = -0.12748 0.32421
# Poissons Ratio (y) = -0.17022 0.43169
# Poissons Ratio (z) = 0.41504 0.41388
#
# Static dielectric constant tensor:
#      x y z
#    x 4.356180 0.141800 -0.033610 
#    y 0.141800 3.974320 -0.114520 
#    z -0.033610 -0.114520 4.492490 
# 
# 
# High freq. dielectric constant tensor:
#      x y z
#    x 1.888770 -0.005150 0.006480 
#    y -0.005150 1.861910 0.019140 
#    z 0.006480 0.019140 1.885320 
# 
# From -- ./inp_files/515074.got.cif
#   From: 2010.06.25/outbox.cif.g09.slc.cpg/sg2_258_cif.got.tgz:515074.got - 2010.06.27 13:26:56.
