data_PCOD8031502
_publ_section_title
;
Structure prediction by ZEFSAII (Michael W. Deem and Ramdas Pophale) SiO2 
 PCOD8031502
Probable space group: P -1
;
_chemical_formula_sum "Si O2"
_cell_formula_units_Z 16
_cell_length_a 9.600462
_cell_length_b 6.722192
_cell_length_c 18.463620
_cell_angle_alpha 61.763869
_cell_angle_beta 56.233947
_cell_angle_gamma 50.960488
_cell_volume 755.291323
_symmetry_space_group_name_H-M "P -1"
_symmetry_group_IT_number 2
_symmetry_cell_setting 'triclinic'
loop_
_space_group_symop_operation_xyz
x,y,z
-x,-y,-z
loop_
_atom_site_type_symbol
_atom_site_label
_atom_site_fract_x
_atom_site_fract_y
_atom_site_fract_z
Si Si1 0.252395 0.406465 0.773454
Si Si2 0.529005 0.177265 0.861538
Si Si3 0.876253 0.868963 0.533857
Si Si4 0.120030 0.282889 0.603300
Si Si5 0.038543 0.002893 0.207414
Si Si6 0.008420 0.824735 0.093671
Si Si7 0.608482 0.634236 0.978332
Si Si8 0.547506 0.706955 0.416050
O O1 0.429811 0.321481 0.791344
O O2 0.320931 0.416181 0.671205
O O3 0.082859 0.692583 0.793326
O O4 0.185351 0.190484 0.835356
O O5 0.748043 0.113044 0.802332
O O6 0.514763 0.919921 0.922321
O O7 0.413017 0.368090 0.928461
O O8 0.880885 0.847052 0.449756
O O9 0.965749 0.590230 0.594483
O O10 0.652347 0.037066 0.593547
O O11 0.000000 0.000000 0.500000
O O12 0.334720 0.228189 0.569459
O O13 0.059550 0.151952 0.705174
O O14 0.056942 0.951408 0.125475
O O15 0.169210 0.527470 0.081523
O O16 0.000000 0.000000 0.000000
O O17 0.500000 0.500000 0.000000
O O18 0.500000 0.500000 0.500000
#
# Coordination Sequence:
#
# PCOD8031502 Si02
#       8
#     2   2   2   2   2   2   2   2
#     4  12  28  45  68 108 139 182 236 286 346 416
#     4  11  26  42  70 101 137 183 234 286 347 411
#     4  11  25  46  75 104 139 183 231 289 349 417
#     4  11  26  46  72 107 140 186 234 279 357 419
#     4  12  26  46  69 102 145 184 229 291 345 413
#     4  12  25  45  71  99 143 185 233 289 348 413
#     4  11  22  44  69  97 136 183 231 287 349 408
#     4  12  25  47  75 100 145 187 228 290 353 415
#
# _framework density 21.183879999999998
#
# number of rings (size 3 to 8) (size 9 to 14) (size 15 to 20)
#    0.000    0.500    5.000    2.625    3.500    3.000 
#    2.250    0.000    0.000    0.000    0.000    0.000 
#    0.000    0.000    0.000    0.000    0.000    0.000 
#
# Total GULP energy -198492.617461 kJ/mol
# GULP energy per Si atom -12405.788591 kJ/mol
# Density = 2.113566 g / cm^3
# Si number density = 21.183880 Si / 1000 Ang^3
#
#
#
# Elastic Constant Matrix: (Units=GPa)
#
#
# Indices 1 2 3 4 5 6 
#
# 1 158.5061 45.0069 47.6402 3.8820 -6.9822 7.5239
# 2 45.0069 102.3896 36.6070 15.3195 -0.7550 5.2690
# 3 47.6402 36.6070 116.7427 -7.5856 -0.6840 10.0210
# 4 3.8820 15.3195 -7.5856 37.1071 4.7787 -7.1365
# 5 -6.9822 -0.7550 -0.6840 4.7787 40.1225 1.7569
# 6 7.5239 5.2690 10.0210 -7.1365 1.7569 38.9419
#
#
#
# Elastic Compliance Matrix: (Units=1/GPa)
#
#
# Indices 1 2 3 4 5 6 
#
# 1 0.007836 -0.002445 -0.002400 -0.000622 0.001383 -0.000742
# 2 -0.002445 0.013056 -0.003359 -0.006201 0.000571 -0.001592
# 3 -0.002400 -0.003359 0.010938 0.003735 -0.000687 -0.001181
# 4 -0.000622 -0.006201 0.003735 0.032050 -0.004244 0.006063
# 5 0.001383 0.000571 -0.000687 -0.004244 0.025761 -0.002108
# 6 -0.000742 -0.001592 -0.001181 0.006063 -0.002108 0.027548
#
#
# Mechanical properties :
#
#
# Convention : Reuss Voigt Hill
#
# Bulk Modulus (GPa) = 64.83843 70.68296 67.76069
# Shear Modulus (GPa) = 36.03904 39.79325 37.91614
#
# Velocity S-wave (km/s) = 4.12909 4.33883 4.23526
# Velocity P-wave (km/s) = 7.30797 7.65111 7.48151
#
# Compressibility (1/GPa) = 0.01542295
#
# Stress axis : x y z
#
# Youngs Moduli (GPa) = 127.62060 76.59159 91.42059
#
# Poissons Ratio (x) = 0.18727 0.21936
# Poissons Ratio (y) = 0.31204 0.30710
# Poissons Ratio (z) = 0.30623 0.25729
#
# Static dielectric constant tensor:
#      x y z
#    x 3.941130 0.110340 0.084380 
#    y 0.110340 3.765900 -0.028040 
#    z 0.084380 -0.028040 3.679350 
# 
# 
# High freq. dielectric constant tensor:
#      x y z
#    x 1.847960 0.004390 -0.001810 
#    y 0.004390 1.841900 0.002690 
#    z -0.001810 0.002690 1.833850 
# 
# From -- ./inp_files/47361.got.cif
#   From: 2010.06.25/outbox.cif.g09.slc.cpg/sg2_24_cif.got.tgz:47361.got - 2010.06.27 13:26:56.
