data_PCOD8031640
_publ_section_title
;
Structure prediction by ZEFSAII (Michael W. Deem and Ramdas Pophale) SiO2 
 PCOD8031640
Probable space group: P -1
;
_chemical_formula_sum "Si O2"
_cell_formula_units_Z 16
_cell_length_a 11.544192
_cell_length_b 20.898345
_cell_length_c 9.106855
_cell_angle_alpha 31.345768
_cell_angle_beta 51.787620
_cell_angle_gamma 38.514279
_cell_volume 703.290146
_symmetry_space_group_name_H-M "P -1"
_symmetry_group_IT_number 2
_symmetry_cell_setting 'triclinic'
loop_
_space_group_symop_operation_xyz
x,y,z
-x,-y,-z
loop_
_atom_site_type_symbol
_atom_site_label
_atom_site_fract_x
_atom_site_fract_y
_atom_site_fract_z
Si Si1 0.253516 0.957588 0.666094
Si Si2 0.500091 0.490209 0.691942
Si Si3 0.245538 0.247442 0.143004
Si Si4 0.398369 0.810256 0.141572
Si Si5 0.126425 0.964039 0.301055
Si Si6 0.092915 0.517885 0.254710
Si Si7 0.833965 0.267347 0.075032
Si Si8 0.365112 0.307530 0.227182
O O1 0.418383 0.851535 0.623244
O O2 0.302925 0.847624 0.983574
O O3 0.051920 0.023988 0.635748
O O4 0.255085 0.096664 0.444471
O O5 0.500000 0.500000 0.500000
O O6 0.438099 0.654284 0.481970
O O7 0.704743 0.349374 0.871976
O O8 0.352679 0.461130 0.907755
O O9 0.413054 0.207746 0.983857
O O10 0.053148 0.391089 0.941041
O O11 0.257968 0.294126 0.205651
O O12 0.256112 0.946349 0.102430
O O13 0.239532 0.812320 0.617096
O O14 0.047442 0.125657 0.130608
O O15 0.259743 0.345950 0.391694
O O16 0.000000 0.500000 0.500000
O O17 0.171607 0.608521 0.065636
#
# Coordination Sequence:
#
# PCOD8031640 Si02
#       8
#     2   2   2   2   2   2   2   2
#     4  11  22  45  68 101 138 179 233 280 343 403
#     4  12  22  42  71 102 135 173 233 287 342 409
#     4  11  24  46  67 100 141 182 228 283 342 412
#     4  11  23  40  70 102 132 180 233 283 333 410
#     4  11  23  45  67 100 139 182 230 284 340 407
#     4  12  27  45  66 101 140 185 231 281 347 414
#     4  11  25  45  66  98 141 179 225 288 343 403
#     4  11  24  44  70  99 137 183 227 288 340 405
#
# _framework density 22.750214
#
# number of rings (size 3 to 8) (size 9 to 14) (size 15 to 20)
#    0.000    0.750    5.000    3.750    0.000    5.000 
#    0.000    1.250    0.000    0.000    0.000    0.000 
#    0.000    0.000    0.000    0.000    0.000    0.000 
#
# Total GULP energy -198390.246074 kJ/mol
# GULP energy per Si atom -12399.390380 kJ/mol
# Density = 2.269843 g / cm^3
# Si number density = 22.750214 Si / 1000 Ang^3
#
#
#
# Elastic Constant Matrix: (Units=GPa)
#
#
# Indices 1 2 3 4 5 6 
#
# 1 86.1678 20.4249 14.0086 -3.2877 1.6271 4.9272
# 2 20.4249 163.2965 26.7166 15.6680 1.0374 18.3753
# 3 14.0086 26.7166 85.1648 -11.5710 3.1923 2.1149
# 4 -3.2877 15.6680 -11.5710 33.3080 2.4712 -0.7730
# 5 1.6271 1.0374 3.1923 2.4712 36.9185 -7.3650
# 6 4.9272 18.3753 2.1149 -0.7730 -7.3650 24.7116
#
#
#
# Elastic Compliance Matrix: (Units=1/GPa)
#
#
# Indices 1 2 3 4 5 6 
#
# 1 0.012284 -0.001257 -0.001374 0.001349 -0.000795 -0.001592
# 2 -0.001257 0.007843 -0.002742 -0.004843 -0.000745 -0.005720
# 3 -0.001374 -0.002742 0.013669 0.006018 -0.001256 0.000957
# 4 0.001349 -0.004843 0.006018 0.034758 -0.002117 0.003274
# 5 -0.000795 -0.000745 -0.001256 -0.002117 0.029285 0.009482
# 6 -0.001592 -0.005720 0.000957 0.003274 0.009482 0.047884
#
#
# Mechanical properties :
#
#
# Convention : Reuss Voigt Hill
#
# Bulk Modulus (GPa) = 43.38180 50.76994 47.07587
# Shear Modulus (GPa) = 30.45996 37.21956 33.83976
#
# Velocity S-wave (km/s) = 3.66305 4.04915 3.86093
# Velocity P-wave (km/s) = 6.08282 6.65023 6.37284
#
# Compressibility (1/GPa) = 0.02305114
#
# Stress axis : x y z
#
# Youngs Moduli (GPa) = 81.40654 127.50778 73.15872
#
# Poissons Ratio (x) = 0.16027 0.10050
# Poissons Ratio (y) = 0.10232 0.20057
# Poissons Ratio (z) = 0.11183 0.34957
#
# Static dielectric constant tensor:
#      x y z
#    x 4.143560 0.096410 -0.012590 
#    y 0.096410 4.170530 -0.187280 
#    z -0.012590 -0.187280 4.295900 
# 
# 
# High freq. dielectric constant tensor:
#      x y z
#    x 1.902600 0.010820 0.005080 
#    y 0.010820 1.900050 -0.010050 
#    z 0.005080 -0.010050 1.893140 
# 
# From -- ./inp_files/282605.got.cif
#   From: 2010.06.25/outbox.cif.g09.slc.cpg/sg2_142_cif.got.tgz:282605.got - 2010.06.27 13:26:56.
