data_PCOD8031973
_publ_section_title
;
Structure prediction by ZEFSAII (Michael W. Deem and Ramdas Pophale) SiO2 
 PCOD8031973
Probable space group: P -1
;
_chemical_formula_sum "Si O2"
_cell_formula_units_Z 14
_cell_length_a 8.476124
_cell_length_b 20.214502
_cell_length_c 8.678687
_cell_angle_alpha 145.414968
_cell_angle_beta 129.368035
_cell_angle_gamma 51.561189
_cell_volume 635.555563
_symmetry_space_group_name_H-M "P -1"
_symmetry_group_IT_number 2
_symmetry_cell_setting 'triclinic'
loop_
_space_group_symop_operation_xyz
x,y,z
-x,-y,-z
loop_
_atom_site_type_symbol
_atom_site_label
_atom_site_fract_x
_atom_site_fract_y
_atom_site_fract_z
Si Si1 0.297810 0.024065 0.645453
Si Si2 0.627954 0.568012 0.101438
Si Si3 0.991226 0.135813 0.931595
Si Si4 0.060593 0.465053 0.292753
Si Si5 0.663901 0.360937 0.214964
Si Si6 0.320966 0.185407 0.450222
Si Si7 0.351050 0.242811 0.926361
O O1 0.405145 0.108964 0.770338
O O2 0.164116 0.104816 0.847724
O O3 0.143986 0.965140 0.331819
O O4 0.478476 0.924384 0.645096
O O5 0.628836 0.705700 0.413937
O O6 0.863797 0.490555 0.106079
O O7 0.500000 0.500000 0.000000
O O8 0.527811 0.569136 0.873622
O O9 0.830697 0.261231 0.031279
O O10 0.113199 0.146837 0.187169
O O11 0.218433 0.540338 0.462099
O O12 0.000000 0.500000 0.500000
O O13 0.171265 0.325559 0.077673
O O14 0.563757 0.293799 0.159448
O O15 0.273398 0.235337 0.688941
#
# Coordination Sequence:
#
# PCOD8031973 Si02
#       7
#     2   2   2   2   2   2   2
#     4  11  24  45  69  98 138 176 228 276 328 405
#     4  11  23  39  69  98 133 173 221 279 329 399
#     4  11  23  43  73  95 134 181 224 274 334 393
#     4  12  24  45  70  97 136 178 227 274 340 400
#     4  11  23  45  66 100 138 174 225 276 337 399
#     4  11  24  44  65 100 137 173 226 275 333 401
#     4  11  26  44  68 100 140 178 220 282 339 396
#
# _framework density 22.027972999999999
#
# number of rings (size 3 to 8) (size 9 to 14) (size 15 to 20)
#    0.000    0.857    5.714    2.143    0.000    2.857 
#    2.571    0.000    0.000    0.000    0.000    0.000 
#    0.000    0.000    0.000    0.000    0.000    0.000 
#
# Total GULP energy -173558.828576 kJ/mol
# GULP energy per Si atom -12397.059184 kJ/mol
# Density = 2.197784 g / cm^3
# Si number density = 22.027973 Si / 1000 Ang^3
#
#
#
# Elastic Constant Matrix: (Units=GPa)
#
#
# Indices 1 2 3 4 5 6 
#
# 1 82.5503 50.1776 41.5939 5.4116 16.9939 -2.4644
# 2 50.1776 102.5995 34.9749 16.4351 11.0463 -16.6921
# 3 41.5939 34.9749 91.1666 7.7647 10.6871 -6.1492
# 4 5.4116 16.4351 7.7647 42.5650 -6.2271 8.8783
# 5 16.9939 11.0463 10.6871 -6.2271 54.5736 11.0636
# 6 -2.4644 -16.6921 -6.1492 8.8783 11.0636 39.7370
#
#
#
# Elastic Compliance Matrix: (Units=1/GPa)
#
#
# Indices 1 2 3 4 5 6 
#
# 1 0.020805 -0.008561 -0.006268 0.002034 -0.002681 -0.002984
# 2 -0.008561 0.017469 -0.001083 -0.007921 -0.003462 0.009373
# 3 -0.006268 -0.001083 0.014755 -0.002171 -0.001437 0.002325
# 4 0.002034 -0.007921 -0.002171 0.030347 0.007365 -0.012368
# 5 -0.002681 -0.003462 -0.001437 0.007365 0.022986 -0.009888
# 6 -0.002984 0.009373 0.002325 -0.012368 -0.009888 0.034794
#
#
# Mechanical properties :
#
#
# Convention : Reuss Voigt Hill
#
# Bulk Modulus (GPa) = 47.16003 58.86769 53.01386
# Shear Modulus (GPa) = 27.77027 37.34647 32.55837
#
# Velocity S-wave (km/s) = 3.55446 4.12200 3.84871
# Velocity P-wave (km/s) = 6.18880 7.03112 6.62336
#
# Compressibility (1/GPa) = 0.02120440
#
# Stress axis : x y z
#
# Youngs Moduli (GPa) = 48.06457 57.24344 67.77573
#
# Poissons Ratio (x) = 0.49006 0.42482
# Poissons Ratio (y) = 0.41148 0.07343
# Poissons Ratio (z) = 0.30127 0.06201
#
# Static dielectric constant tensor:
#      x y z
#    x 4.056430 -0.085960 0.285690 
#    y -0.085960 4.191560 0.151870 
#    z 0.285690 0.151870 4.170170 
# 
# 
# High freq. dielectric constant tensor:
#      x y z
#    x 1.861900 -0.015820 0.018650 
#    y -0.015820 1.863350 0.016110 
#    z 0.018650 0.016110 1.875530 
# 
# From -- ./inp_files/224414.got.cif
#   From: 2010.06.25/outbox.cif.g09.slc.cpg/sg2_113_cif.got.tgz:224414.got - 2010.06.27 13:26:56.
