data_PCOD8031297
_publ_section_title
;
Structure prediction by ZEFSAII (Michael W. Deem and Ramdas Pophale) SiO2 
 PCOD8031297
Probable space group: P -1
;
_chemical_formula_sum "Si O2"
_cell_formula_units_Z 16
_cell_length_a 18.628324
_cell_length_b 9.778673
_cell_length_c 12.511998
_cell_angle_alpha 76.594390
_cell_angle_beta 133.683901
_cell_angle_gamma 141.309410
_cell_volume 755.754514
_symmetry_space_group_name_H-M "P -1"
_symmetry_group_IT_number 2
_symmetry_cell_setting 'triclinic'
loop_
_space_group_symop_operation_xyz
x,y,z
-x,-y,-z
loop_
_atom_site_type_symbol
_atom_site_label
_atom_site_fract_x
_atom_site_fract_y
_atom_site_fract_z
Si Si1 0.459891 0.618816 0.695930
Si Si2 0.911609 0.269110 0.025492
Si Si3 0.001264 0.345629 0.569050
Si Si4 0.542314 0.690421 0.181661
Si Si5 0.128309 0.238837 0.238393
Si Si6 0.823046 0.366070 0.091191
Si Si7 0.413975 0.710419 0.849521
Si Si8 0.240751 0.419962 0.088418
O O1 0.527504 0.556014 0.828475
O O2 0.279308 0.383001 0.464112
O O3 0.383631 0.620745 0.713653
O O4 0.672134 0.942308 0.800353
O O5 0.906765 0.327582 0.129824
O O6 0.048250 0.298230 0.161069
O O7 0.000000 0.500000 0.000000
O O8 0.009613 0.363211 0.702443
O O9 0.197929 0.512293 0.692407
O O10 0.000000 0.500000 0.500000
O O11 0.793708 0.006298 0.380448
O O12 0.455835 0.671545 0.197221
O O13 0.453690 0.634399 0.987964
O O14 0.257174 0.385079 0.233051
O O15 0.937903 0.889796 0.103768
O O16 0.800496 0.464349 0.964991
O O17 0.605818 0.061764 0.986515
#
# Coordination Sequence:
#
# PCOD8031297 Si02
#       8
#     2   2   2   2   2   2   2   2
#     4  11  27  43  69 101 131 181 223 269 340 400
#     4  11  24  46  69  97 138 174 217 277 337 394
#     4  12  24  39  66  98 129 178 224 268 329 394
#     4  12  24  44  68  98 136 176 226 276 332 397
#     4  11  25  47  69  99 135 172 228 275 332 404
#     4  11  22  43  68  99 137 177 218 277 335 392
#     4  11  25  44  64  97 144 170 224 278 328 399
#     4  11  23  45  72  96 135 177 218 284 332 388
#
# _framework density 21.170893
#
# number of rings (size 3 to 8) (size 9 to 14) (size 15 to 20)
#    0.000    0.750    5.000    2.250    1.750    2.500 
#    0.000    0.000    0.000    0.000    0.000    0.000 
#    0.000    0.000    0.000    0.000    0.000    0.000 
#
# Total GULP energy -198422.594448 kJ/mol
# GULP energy per Si atom -12401.412153 kJ/mol
# Density = 2.112271 g / cm^3
# Si number density = 21.170893 Si / 1000 Ang^3
#
#
#
# Elastic Constant Matrix: (Units=GPa)
#
#
# Indices 1 2 3 4 5 6 
#
# 1 74.3222 34.6066 43.4379 4.6240 6.4258 0.9572
# 2 34.6066 130.3416 44.6678 -2.0951 8.4549 -3.8126
# 3 43.4379 44.6678 114.0683 -7.0361 2.6378 9.4612
# 4 4.6240 -2.0951 -7.0361 29.5580 -0.1443 1.2034
# 5 6.4258 8.4549 2.6378 -0.1443 26.6489 -1.7736
# 6 0.9572 -3.8126 9.4612 1.2034 -1.7736 39.5116
#
#
#
# Elastic Compliance Matrix: (Units=1/GPa)
#
#
# Indices 1 2 3 4 5 6 
#
# 1 0.019054 -0.002685 -0.006497 -0.004767 -0.003069 0.000842
# 2 -0.002685 0.009512 -0.002762 0.000364 -0.001992 0.001544
# 3 -0.006497 -0.002762 0.012817 0.004009 0.000979 -0.003256
# 4 -0.004767 0.000364 0.004009 0.035637 0.000706 -0.001863
# 5 -0.003069 -0.001992 0.000979 0.000706 0.038895 0.001372
# 6 0.000842 0.001544 -0.003256 -0.001863 0.001372 0.026336
#
#
# Mechanical properties :
#
#
# Convention : Reuss Voigt Hill
#
# Bulk Modulus (GPa) = 57.16142 62.68407 59.92275
# Shear Modulus (GPa) = 29.07490 32.21171 30.64330
#
# Velocity S-wave (km/s) = 3.70988 3.90488 3.80863
# Velocity P-wave (km/s) = 6.73867 7.07133 6.90700
#
# Compressibility (1/GPa) = 0.01749432
#
# Stress axis : x y z
#
# Youngs Moduli (GPa) = 52.48351 105.13340 78.02134
#
# Poissons Ratio (x) = 0.28230 0.50692
# Poissons Ratio (y) = 0.14093 0.21547
# Poissons Ratio (z) = 0.34100 0.29034
#
# Static dielectric constant tensor:
#      x y z
#    x 3.925420 -0.056510 -0.132690 
#    y -0.056510 3.960120 -0.127800 
#    z -0.132690 -0.127800 3.435070 
# 
# 
# High freq. dielectric constant tensor:
#      x y z
#    x 1.841880 0.000210 -0.001660 
#    y 0.000210 1.848930 0.001610 
#    z -0.001660 0.001610 1.815940 
# 
# From -- ./inp_files/77110.got.cif
#   From: 2010.06.25/outbox.cif.g09.slc.cpg/sg2_39_cif.got.tgz:77110.got - 2010.06.27 13:26:56.
