data_PCOD8031674
_publ_section_title
;
Structure prediction by ZEFSAII (Michael W. Deem and Ramdas Pophale) SiO2 
 PCOD8031674
Probable space group: P -1
;
_chemical_formula_sum "Si O2"
_cell_formula_units_Z 16
_cell_length_a 11.721472
_cell_length_b 12.217626
_cell_length_c 8.887300
_cell_angle_alpha 122.004437
_cell_angle_beta 51.631282
_cell_angle_gamma 89.525112
_cell_volume 729.247427
_symmetry_space_group_name_H-M "P -1"
_symmetry_group_IT_number 2
_symmetry_cell_setting 'triclinic'
loop_
_space_group_symop_operation_xyz
x,y,z
-x,-y,-z
loop_
_atom_site_type_symbol
_atom_site_label
_atom_site_fract_x
_atom_site_fract_y
_atom_site_fract_z
Si Si1 0.057393 0.597203 0.614891
Si Si2 0.657779 0.347013 0.706691
Si Si3 0.557352 0.154356 0.471809
Si Si4 0.507246 0.856227 0.810232
Si Si5 0.773869 0.839675 0.196722
Si Si6 0.121662 0.400009 0.694200
Si Si7 0.739886 0.166349 0.809974
Si Si8 0.959833 0.821079 0.331859
O O1 0.194535 0.622736 0.438764
O O2 0.133495 0.506397 0.640133
O O3 0.000000 0.500000 0.500000
O O4 0.891268 0.757462 0.897495
O O5 0.600985 0.283848 0.565975
O O6 0.720229 0.226509 0.701649
O O7 0.500000 0.500000 0.000000
O O8 0.601554 0.095925 0.220402
O O9 0.360983 0.215410 0.714743
O O10 0.675568 0.017083 0.384286
O O11 0.688156 0.726087 0.508567
O O12 0.440099 0.778287 0.924782
O O13 0.500000 0.000000 0.000000
O O14 0.898747 0.793938 0.202531
O O15 0.043976 0.296079 0.629638
O O16 0.000000 0.500000 0.000000
O O17 0.847212 0.217529 0.861094
O O18 0.835206 0.987640 0.609874
#
# Coordination Sequence:
#
# PCOD8031674 Si02
#       8
#     2   2   2   2   2   2   2   2
#     4  12  27  44  70 103 139 192 236 284 356 430
#     4  12  27  49  69 103 147 188 236 296 358 420
#     4  11  25  43  75 104 142 184 235 299 356 422
#     4  12  25  43  71 110 138 186 242 289 356 427
#     4  11  23  45  72 102 142 180 236 290 358 426
#     4  12  24  45  71  99 143 184 232 289 353 427
#     4  11  25  44  73 102 142 179 237 295 351 418
#     4  11  22  45  71 101 138 185 228 293 356 412
#
# _framework density 21.940427
#
# number of rings (size 3 to 8) (size 9 to 14) (size 15 to 20)
#    0.000    0.500    5.000    2.250    5.250    3.500 
#    0.000    1.875    0.000    0.000    0.000    0.000 
#    0.000    0.000    0.000    0.000    0.000    0.000 
#
# Total GULP energy -198320.286369 kJ/mol
# GULP energy per Si atom -12395.017898 kJ/mol
# Density = 2.189049 g / cm^3
# Si number density = 21.940427 Si / 1000 Ang^3
#
#
#
# Elastic Constant Matrix: (Units=GPa)
#
#
# Indices 1 2 3 4 5 6 
#
# 1 135.6317 46.9354 56.9341 -6.2877 6.0437 26.5325
# 2 46.9354 133.9904 49.1594 -19.8675 -5.6073 21.2220
# 3 56.9341 49.1594 133.5139 -12.8188 -11.1025 19.5080
# 4 -6.2877 -19.8675 -12.8188 42.0118 3.2096 -4.7277
# 5 6.0437 -5.6073 -11.1025 3.2096 30.3813 -3.3184
# 6 26.5325 21.2220 19.5080 -4.7277 -3.3184 42.2076
#
#
#
# Elastic Compliance Matrix: (Units=1/GPa)
#
#
# Indices 1 2 3 4 5 6 
#
# 1 0.010560 -0.001967 -0.003540 -0.000607 -0.004175 -0.004409
# 2 -0.001967 0.009804 -0.002038 0.003396 0.000845 -0.002304
# 3 -0.003540 -0.002038 0.010350 0.001247 0.003860 -0.001090
# 4 -0.000607 0.003396 0.001247 0.025908 -0.001437 0.000887
# 5 -0.004175 0.000845 0.003860 -0.001437 0.035799 0.003069
# 6 -0.004409 -0.002304 -0.001090 0.000887 0.003069 0.028467
#
#
# Mechanical properties :
#
#
# Convention : Reuss Voigt Hill
#
# Bulk Modulus (GPa) = 64.00411 78.79931 71.40171
# Shear Modulus (GPa) = 35.41442 39.59394 37.50418
#
# Velocity S-wave (km/s) = 4.02197 4.25268 4.13893
# Velocity P-wave (km/s) = 7.12765 7.75286 7.44682
#
# Compressibility (1/GPa) = 0.01562400
#
# Stress axis : x y z
#
# Youngs Moduli (GPa) = 94.69749 102.00209 96.61972
#
# Poissons Ratio (x) = 0.20059 0.34205
# Poissons Ratio (y) = 0.18622 0.19692
# Poissons Ratio (z) = 0.33524 0.20789
#
# Static dielectric constant tensor:
#      x y z
#    x 2.842730 6.299210 -1.565370 
#    y 6.299210 -25.448180 7.143420 
#    z -1.565370 7.143420 2.239550 
# 
# 
# High freq. dielectric constant tensor:
#      x y z
#    x 1.865170 0.007640 -0.004470 
#    y 0.007640 1.874890 0.002160 
#    z -0.004470 0.002160 1.863760 
# 
# From -- ./inp_files/262919.got.cif
#   From: 2010.06.25/outbox.cif.g09.slc.cpg/sg2_132_cif.got.tgz:262919.got - 2010.06.27 13:26:56.
