data_PCOD8031988
_publ_section_title
;
Structure prediction by ZEFSAII (Michael W. Deem and Ramdas Pophale) SiO2 
 PCOD8031988
Probable space group: P -1
;
_chemical_formula_sum "Si O2"
_cell_formula_units_Z 16
_cell_length_a 11.578099
_cell_length_b 11.163823
_cell_length_c 19.821330
_cell_angle_alpha 42.096753
_cell_angle_beta 150.145259
_cell_angle_gamma 120.082851
_cell_volume 773.384081
_symmetry_space_group_name_H-M "P -1"
_symmetry_group_IT_number 2
_symmetry_cell_setting 'triclinic'
loop_
_space_group_symop_operation_xyz
x,y,z
-x,-y,-z
loop_
_atom_site_type_symbol
_atom_site_label
_atom_site_fract_x
_atom_site_fract_y
_atom_site_fract_z
Si Si1 0.762121 0.929932 0.258706
Si Si2 0.252416 0.030538 0.616174
Si Si3 0.207577 0.394482 0.370151
Si Si4 0.516599 0.342452 0.913607
Si Si5 0.610598 0.592863 0.961119
Si Si6 0.453940 0.471494 0.595112
Si Si7 0.974945 0.741779 0.315826
Si Si8 0.695289 0.151653 0.952817
O O1 0.993258 0.791147 0.384415
O O2 0.522878 0.916108 0.107210
O O3 0.769997 0.858440 0.369659
O O4 0.707405 0.160090 0.133812
O O5 0.500383 0.827054 0.817609
O O6 0.260135 0.167560 0.501657
O O7 0.000000 0.000000 0.500000
O O8 0.288713 0.469023 0.448076
O O9 0.376817 0.411005 0.386891
O O10 0.912357 0.522546 0.150144
O O11 0.519865 0.539193 0.865948
O O12 0.229835 0.350856 0.763698
O O13 0.664322 0.310321 0.929765
O O14 0.500000 0.500000 0.000000
O O15 0.654468 0.254265 0.815534
O O16 0.256718 0.575763 0.511886
O O17 0.940046 0.937689 0.171762
#
# Coordination Sequence:
#
# PCOD8031988 Si02
#       8
#     2   2   2   2   2   2   2   2
#     4   9  17  34  57  92 122 144 196 255 298 343
#     4  12  23  37  62  91 123 155 192 250 303 351
#     4  11  26  41  56  91 123 159 205 240 293 361
#     4   9  18  35  60  93 118 150 200 249 302 348
#     4  12  22  38  62  87 122 158 191 246 301 353
#     4  11  23  40  61  84 124 163 202 241 287 367
#     4   9  20  35  62  90 119 151 192 255 304 343
#     4   9  19  36  60  86 119 153 197 256 293 339
#
# _framework density 20.688298
#
# number of rings (size 3 to 8) (size 9 to 14) (size 15 to 20)
#    0.000    1.750    3.750    2.250    1.750    4.000 
#    0.000    3.125    0.000    9.000    0.000    0.000 
#    0.000    0.000    0.000    0.000    0.000    0.000 
#
# Total GULP energy -198234.466111 kJ/mol
# GULP energy per Si atom -12389.654132 kJ/mol
# Density = 2.064121 g / cm^3
# Si number density = 20.688298 Si / 1000 Ang^3
#
#
#
# Elastic Constant Matrix: (Units=GPa)
#
#
# Indices 1 2 3 4 5 6 
#
# 1 66.0169 37.7918 28.4779 -0.4044 -3.1522 7.4712
# 2 37.7918 84.0056 36.1936 -1.7408 2.1509 -0.4646
# 3 28.4779 36.1936 92.0892 -7.8483 -0.7697 9.9786
# 4 -0.4044 -1.7408 -7.8483 29.1369 0.7544 -1.7246
# 5 -3.1522 2.1509 -0.7697 0.7544 30.5508 -1.1799
# 6 7.4712 -0.4646 9.9786 -1.7246 -1.1799 38.6258
#
#
#
# Elastic Compliance Matrix: (Units=1/GPa)
#
#
# Indices 1 2 3 4 5 6 
#
# 1 0.021961 -0.008662 -0.003095 -0.001325 0.002694 -0.003529
# 2 -0.008662 0.017901 -0.004711 -0.000084 -0.002153 0.003038
# 3 -0.003095 -0.004711 0.014278 0.003340 0.000174 -0.002992
# 4 -0.001325 -0.000084 0.003340 0.035275 -0.000881 0.000941
# 5 0.002694 -0.002153 0.000174 -0.000881 0.033203 0.000383
# 6 -0.003529 0.003038 -0.002992 0.000941 0.000383 0.027435
#
#
# Mechanical properties :
#
#
# Convention : Reuss Voigt Hill
#
# Bulk Modulus (GPa) = 47.16177 49.67093 48.41635
# Shear Modulus (GPa) = 26.30764 28.97258 27.64011
#
# Velocity S-wave (km/s) = 3.56985 3.74630 3.65913
# Velocity P-wave (km/s) = 6.31170 6.54021 6.42697
#
# Compressibility (1/GPa) = 0.02120362
#
# Stress axis : x y z
#
# Youngs Moduli (GPa) = 45.53431 55.86296 70.03764
#
# Poissons Ratio (x) = 0.48391 0.21675
# Poissons Ratio (y) = 0.39444 0.32996
# Poissons Ratio (z) = 0.14092 0.26318
#
# Static dielectric constant tensor:
#      x y z
#    x 3.587110 -0.070830 -0.027510 
#    y -0.070830 3.714810 -0.227940 
#    z -0.027510 -0.227940 3.685960 
# 
# 
# High freq. dielectric constant tensor:
#      x y z
#    x 1.791350 -0.016160 -0.014200 
#    y -0.016160 1.795130 -0.012390 
#    z -0.014200 -0.012390 1.806890 
# 
# From -- ./inp_files/450520.got.cif
#   From: 2010.06.25/outbox.cif.g09.slc.cpg/sg2_226_cif.got.tgz:450520.got - 2010.06.27 13:26:56.
