data_PCOD8031475
_publ_section_title
;
Structure prediction by ZEFSAII (Michael W. Deem and Ramdas Pophale) SiO2 
 PCOD8031475
Probable space group: P -1
;
_chemical_formula_sum "Si O2"
_cell_formula_units_Z 14
_cell_length_a 9.056361
_cell_length_b 15.639608
_cell_length_c 12.736074
_cell_angle_alpha 25.685856
_cell_angle_beta 110.213197
_cell_angle_gamma 119.206904
_cell_volume 660.967106
_symmetry_space_group_name_H-M "P -1"
_symmetry_group_IT_number 2
_symmetry_cell_setting 'triclinic'
loop_
_space_group_symop_operation_xyz
x,y,z
-x,-y,-z
loop_
_atom_site_type_symbol
_atom_site_label
_atom_site_fract_x
_atom_site_fract_y
_atom_site_fract_z
Si Si1 0.268775 0.016245 0.794889
Si Si2 0.809295 0.307828 0.676768
Si Si3 0.668152 0.099990 0.504239
Si Si4 0.462625 0.529480 0.625098
Si Si5 0.420513 0.066600 0.116715
Si Si6 0.632655 0.510812 0.111427
Si Si7 0.059517 0.028302 0.364967
O O1 0.409375 0.980884 0.794727
O O2 0.111130 0.027999 0.681975
O O3 0.364122 0.256851 0.604195
O O4 0.201282 0.819030 0.078288
O O5 0.694940 0.442060 0.500078
O O6 0.000000 0.500000 0.500000
O O7 0.742847 0.120016 0.778471
O O8 0.699411 0.328153 0.309613
O O9 0.500000 0.000000 0.500000
O O10 0.633132 0.931181 0.778126
O O11 0.846737 0.131773 0.454988
O O12 0.452456 0.521760 0.758470
O O13 0.465661 0.311981 0.816656
O O14 0.500000 0.500000 0.000000
O O15 0.803651 0.732658 0.897556
O O16 0.000000 0.000000 0.500000
#
# Coordination Sequence:
#
# PCOD8031475 Si02
#       7
#     2   2   2   2   2   2   2
#     4  11  25  43  67 102 138 173 228 285 333 400
#     4  11  25  44  68 100 142 177 225 282 337 402
#     4  12  23  42  71  98 129 180 226 269 342 404
#     4  11  22  44  68  98 134 182 227 278 338 398
#     4  11  23  44  73  97 134 183 229 273 340 401
#     4  12  22  41  70  95 134 179 223 281 334 402
#     4  12  26  42  67 102 139 171 225 283 340 402
#
# _framework density 21.181086000000001
#
# number of rings (size 3 to 8) (size 9 to 14) (size 15 to 20)
#    0.000    0.571    5.714    4.286    0.000    4.571 
#    0.000    0.000    0.000    0.000    0.000    0.000 
#    0.000    0.000    0.000    0.000    0.000    0.000 
#
# Total GULP energy -173550.676970 kJ/mol
# GULP energy per Si atom -12396.476926 kJ/mol
# Density = 2.113288 g / cm^3
# Si number density = 21.181086 Si / 1000 Ang^3
#
#
#
# Elastic Constant Matrix: (Units=GPa)
#
#
# Indices 1 2 3 4 5 6 
#
# 1 120.6879 59.8144 39.9677 -3.2395 6.2833 19.1632
# 2 59.8144 99.6447 29.0123 -0.5026 7.7695 27.4397
# 3 39.9677 29.0123 110.6841 -16.5561 8.7337 9.3161
# 4 -3.2395 -0.5026 -16.5561 54.8677 -4.8934 -0.4904
# 5 6.2833 7.7695 8.7337 -4.8934 48.1704 0.2257
# 6 19.1632 27.4397 9.3161 -0.4904 0.2257 46.8591
#
#
#
# Elastic Compliance Matrix: (Units=1/GPa)
#
#
# Indices 1 2 3 4 5 6 
#
# 1 0.012555 -0.006507 -0.002781 -0.000173 -0.000098 -0.000772
# 2 -0.006507 0.016275 -0.001362 -0.000846 -0.001584 -0.006600
# 3 -0.002781 -0.001362 0.010953 0.003029 -0.001095 -0.000205
# 4 -0.000173 -0.000846 0.003029 0.019263 0.001566 0.000158
# 5 -0.000098 -0.001584 -0.001095 0.001566 0.021380 0.001099
# 6 -0.000772 -0.006600 -0.000205 0.000158 0.001099 0.025558
#
#
# Mechanical properties :
#
#
# Convention : Reuss Voigt Hill
#
# Bulk Modulus (GPa) = 54.10843 65.40061 59.75452
# Shear Modulus (GPa) = 37.46829 43.46091 40.46460
#
# Velocity S-wave (km/s) = 4.21045 4.53468 4.37557
# Velocity P-wave (km/s) = 7.01700 7.63948 7.33485
#
# Compressibility (1/GPa) = 0.01848141
#
# Stress axis : x y z
#
# Youngs Moduli (GPa) = 79.64942 61.44345 91.30108
#
# Poissons Ratio (x) = 0.39983 0.25391
# Poissons Ratio (y) = 0.51830 0.12439
# Poissons Ratio (z) = 0.22151 0.08371
#
# Static dielectric constant tensor:
#      x y z
#    x 3.214690 -0.410790 -0.087470 
#    y -0.410790 3.608090 -0.111690 
#    z -0.087470 -0.111690 4.246700 
# 
# 
# High freq. dielectric constant tensor:
#      x y z
#    x 1.824570 0.000820 0.006190 
#    y 0.000820 1.835580 0.001360 
#    z 0.006190 0.001360 1.857110 
# 
# From -- ./inp_files/226438.got.cif
#   From: 2010.06.25/outbox.cif.g09.slc.cpg/sg2_114_cif.got.tgz:226438.got - 2010.06.27 13:26:56.
