data_PCOD8031604
_publ_section_title
;
Structure prediction by ZEFSAII (Michael W. Deem and Ramdas Pophale) SiO2 
 PCOD8031604
Probable space group: P -1
;
_chemical_formula_sum "Si O2"
_cell_formula_units_Z 16
_cell_length_a 12.208057
_cell_length_b 11.039964
_cell_length_c 10.456357
_cell_angle_alpha 64.922739
_cell_angle_beta 75.334104
_cell_angle_gamma 34.069573
_cell_volume 701.615643
_symmetry_space_group_name_H-M "P -1"
_symmetry_group_IT_number 2
_symmetry_cell_setting 'triclinic'
loop_
_space_group_symop_operation_xyz
x,y,z
-x,-y,-z
loop_
_atom_site_type_symbol
_atom_site_label
_atom_site_fract_x
_atom_site_fract_y
_atom_site_fract_z
Si Si1 0.693163 0.367085 0.077220
Si Si2 0.610239 0.679353 0.160295
Si Si3 0.628942 0.502855 0.492462
Si Si4 0.957956 0.889802 0.339708
Si Si5 0.733030 0.843134 0.061485
Si Si6 0.093559 0.650923 0.142739
Si Si7 0.352731 0.966738 0.502185
Si Si8 0.463253 0.106453 0.273074
O O1 0.628642 0.554114 0.098894
O O2 0.792203 0.159838 0.230996
O O3 0.500000 0.500000 0.000000
O O4 0.866747 0.243552 0.982151
O O5 0.660008 0.564770 0.332046
O O6 0.759995 0.659961 0.098177
O O7 0.384772 0.958754 0.101521
O O8 0.500000 0.500000 0.500000
O O9 0.522401 0.690727 0.551117
O O10 0.840334 0.244979 0.600275
O O11 0.006921 0.751756 0.264389
O O12 0.862862 0.892149 0.479715
O O13 0.944852 0.704946 0.080103
O O14 0.592822 0.983961 0.163622
O O15 0.307561 0.376356 0.200641
O O16 0.387827 0.015336 0.599201
O O17 0.350827 0.073050 0.337399
#
# Coordination Sequence:
#
# PCOD8031604 Si02
#       8
#     2   2   2   2   2   2   2   2
#     4  12  27  48  79 105 142 190 245 298 351 426
#     4  11  26  48  71 102 149 186 234 298 359 419
#     4  12  28  46  69 100 150 195 236 290 356 426
#     4  12  27  46  73 107 142 190 242 288 354 431
#     4  11  24  48  74 105 143 184 236 305 360 415
#     4  12  25  44  79 107 136 182 246 298 357 415
#     4  11  24  44  73 101 147 181 233 288 359 428
#     4  11  22  44  74 107 136 182 230 301 352 417
#
# _framework density 22.804510000000001
#
# number of rings (size 3 to 8) (size 9 to 14) (size 15 to 20)
#    0.000    0.500    5.000    2.625    5.250    3.000 
#    0.000    0.000    0.000    0.000    0.000    0.000 
#    0.000    0.000    0.000    0.000    0.000    0.000 
#
# Total GULP energy -198406.233757 kJ/mol
# GULP energy per Si atom -12400.389610 kJ/mol
# Density = 2.275261 g / cm^3
# Si number density = 22.804510 Si / 1000 Ang^3
#
#
#
# Elastic Constant Matrix: (Units=GPa)
#
#
# Indices 1 2 3 4 5 6 
#
# 1 155.1276 41.2731 34.1473 -6.4162 5.3056 -12.3732
# 2 41.2731 72.7162 22.5211 6.9132 -2.4632 2.1001
# 3 34.1473 22.5211 90.5085 -8.8009 -0.6047 -7.0854
# 4 -6.4162 6.9132 -8.8009 31.0681 -7.0815 -0.6607
# 5 5.3056 -2.4632 -0.6047 -7.0815 36.3354 -0.3929
# 6 -12.3732 2.1001 -7.0854 -0.6607 -0.3929 46.1959
#
#
#
# Elastic Compliance Matrix: (Units=1/GPa)
#
#
# Indices 1 2 3 4 5 6 
#
# 1 0.008304 -0.004497 -0.001651 0.002038 -0.001124 0.002195
# 2 -0.004497 0.018068 -0.003573 -0.005870 0.000649 -0.002652
# 3 -0.001651 -0.003573 0.013144 0.004469 0.001108 0.001810
# 4 0.002038 -0.005870 0.004469 0.036719 0.006558 0.002079
# 5 -0.001124 0.000649 0.001108 0.006558 0.029028 0.000180
# 6 0.002195 -0.002652 0.001810 0.002079 0.000180 0.022664
#
#
# Mechanical properties :
#
#
# Convention : Reuss Voigt Hill
#
# Bulk Modulus (GPa) = 49.81835 57.13728 53.47782
# Shear Modulus (GPa) = 32.45436 37.41392 34.93414
#
# Velocity S-wave (km/s) = 3.77657 4.05487 3.91819
# Velocity P-wave (km/s) = 6.39608 6.85801 6.63107
#
# Compressibility (1/GPa) = 0.02007292
#
# Stress axis : x y z
#
# Youngs Moduli (GPa) = 120.42159 55.34668 76.07770
#
# Poissons Ratio (x) = 0.24890 0.12564
# Poissons Ratio (y) = 0.54155 0.27184
# Poissons Ratio (z) = 0.19887 0.19776
#
# Static dielectric constant tensor:
#      x y z
#    x 4.319770 0.042760 -0.125570 
#    y 0.042760 4.151370 0.059890 
#    z -0.125570 0.059890 4.339970 
# 
# 
# High freq. dielectric constant tensor:
#      x y z
#    x 1.911840 0.004770 -0.003950 
#    y 0.004770 1.894800 0.006490 
#    z -0.003950 0.006490 1.907570 
# 
# From -- ./inp_files/410731.got.cif
#   From: 2010.06.25/outbox.cif.g09.slc.cpg/sg2_206_cif.got.tgz:410731.got - 2010.06.27 13:26:56.
