data_PCOD8031634
_publ_section_title
;
Structure prediction by ZEFSAII (Michael W. Deem and Ramdas Pophale) SiO2 
 PCOD8031634
Probable space group: P -1
;
_chemical_formula_sum "Si O2"
_cell_formula_units_Z 14
_cell_length_a 9.587275
_cell_length_b 9.502724
_cell_length_c 15.617053
_cell_angle_alpha 62.846843
_cell_angle_beta 93.631312
_cell_angle_gamma 41.551867
_cell_volume 611.001370
_symmetry_space_group_name_H-M "P -1"
_symmetry_group_IT_number 2
_symmetry_cell_setting 'triclinic'
loop_
_space_group_symop_operation_xyz
x,y,z
-x,-y,-z
loop_
_atom_site_type_symbol
_atom_site_label
_atom_site_fract_x
_atom_site_fract_y
_atom_site_fract_z
Si Si1 0.333585 0.462324 0.205597
Si Si2 0.558377 0.292253 0.823702
Si Si3 0.927265 0.722102 0.493740
Si Si4 0.012851 0.308137 0.302938
Si Si5 0.304436 0.271684 0.103411
Si Si6 0.531146 0.204062 0.671537
Si Si7 0.221714 0.136390 0.902345
O O1 0.352559 0.631934 0.151203
O O2 0.254419 0.472086 0.106607
O O3 0.057812 0.686590 0.192377
O O4 0.632276 0.097761 0.352105
O O5 0.663736 0.181813 0.758962
O O6 0.212776 0.611351 0.718750
O O7 0.689207 0.017191 0.958393
O O8 0.894470 0.711867 0.596075
O O9 0.000000 0.500000 0.500000
O O10 0.197376 0.576360 0.533056
O O11 0.882429 0.579995 0.165207
O O12 0.285365 0.962866 0.360939
O O13 0.485702 0.959142 0.247663
O O14 0.502117 0.144514 0.070211
O O15 0.000000 0.500000 0.000000
#
# Coordination Sequence:
#
# PCOD8031634 Si02
#       7
#     2   2   2   2   2   2   2
#     4  12  27  43  67 103 142 176 221 292 340 400
#     4  11  26  43  65 104 143 173 224 286 348 398
#     4  11  22  45  67 101 140 175 235 278 331 406
#     4  11  23  41  74 101 129 189 229 273 338 407
#     4  12  24  42  71 101 133 175 229 282 337 408
#     4  11  23  42  68 101 133 182 226 280 336 401
#     4  12  23  43  71  99 132 181 230 276 340 408
#
# _framework density 22.913205999999999
#
# number of rings (size 3 to 8) (size 9 to 14) (size 15 to 20)
#    0.000    0.571    5.714    2.571    0.000    7.429 
#    0.000    1.429    0.000    0.000    0.000    0.000 
#    0.000    0.000    0.000    0.000    0.000    0.000 
#
# Total GULP energy -173541.931437 kJ/mol
# GULP energy per Si atom -12395.852245 kJ/mol
# Density = 2.286105 g / cm^3
# Si number density = 22.913206 Si / 1000 Ang^3
#
#
#
# Elastic Constant Matrix: (Units=GPa)
#
#
# Indices 1 2 3 4 5 6 
#
# 1 125.5819 62.7902 41.1235 0.3537 28.0844 0.0067
# 2 62.7902 153.2895 66.9948 8.2591 28.0979 -14.9896
# 3 41.1235 66.9948 96.0600 0.2185 28.7809 -16.2935
# 4 0.3537 8.2591 0.2185 27.1115 0.9554 11.8892
# 5 28.0844 28.0979 28.7809 0.9554 27.8877 -2.8686
# 6 0.0067 -14.9896 -16.2935 11.8892 -2.8686 44.6907
#
#
#
# Elastic Compliance Matrix: (Units=1/GPa)
#
#
# Indices 1 2 3 4 5 6 
#
# 1 0.011649 -0.003385 -0.000667 0.002259 -0.007966 -0.002493
# 2 -0.003385 0.011052 -0.005181 -0.004478 -0.001929 0.002886
# 3 -0.000667 -0.005181 0.019032 -0.000005 -0.013302 0.004349
# 4 0.002259 -0.004478 -0.000005 0.044059 -0.000631 -0.013266
# 5 -0.007966 -0.001929 -0.013302 -0.000631 0.059417 -0.001514
# 6 -0.002493 0.002886 0.004349 -0.013266 -0.001514 0.028362
#
#
# Mechanical properties :
#
#
# Convention : Reuss Voigt Hill
#
# Bulk Modulus (GPa) = 42.98123 79.63870 61.30997
# Shear Modulus (GPa) = 25.02571 33.53951 29.28261
#
# Velocity S-wave (km/s) = 3.30842 3.83007 3.57876
# Velocity P-wave (km/s) = 5.77869 7.37505 6.62513
#
# Compressibility (1/GPa) = 0.02326597
#
# Stress axis : x y z
#
# Youngs Moduli (GPa) = 85.84197 90.48427 52.54215
#
# Poissons Ratio (x) = 0.30633 0.03506
# Poissons Ratio (y) = 0.29062 0.27221
# Poissons Ratio (z) = 0.05729 0.46879
#
# Static dielectric constant tensor:
#      x y z
#    x 4.165450 -0.144980 0.395930 
#    y -0.144980 4.361910 -0.084810 
#    z 0.395930 -0.084810 4.270840 
# 
# 
# High freq. dielectric constant tensor:
#      x y z
#    x 1.886340 -0.012060 0.033560 
#    y -0.012060 1.913630 -0.003780 
#    z 0.033560 -0.003780 1.908170 
# 
# From -- ./inp_files/557010.got.cif
#   From: 2010.06.25/outbox.cif.g09.slc.cpg/sg2_279_cif.got.tgz:557010.got - 2010.06.27 13:26:56.
