data_PCOD8031802
_publ_section_title
;
Structure prediction by ZEFSAII (Michael W. Deem and Ramdas Pophale) SiO2 
 PCOD8031802
Probable space group: P -1
;
_chemical_formula_sum "Si O2"
_cell_formula_units_Z 16
_cell_length_a 14.432739
_cell_length_b 11.421345
_cell_length_c 9.523507
_cell_angle_alpha 106.168903
_cell_angle_beta 82.579375
_cell_angle_gamma 149.941466
_cell_volume 734.516703
_symmetry_space_group_name_H-M "P -1"
_symmetry_group_IT_number 2
_symmetry_cell_setting 'triclinic'
loop_
_space_group_symop_operation_xyz
x,y,z
-x,-y,-z
loop_
_atom_site_type_symbol
_atom_site_label
_atom_site_fract_x
_atom_site_fract_y
_atom_site_fract_z
Si Si1 0.129171 0.785810 0.872502
Si Si2 0.614170 0.409220 0.652836
Si Si3 0.216315 0.647998 0.397012
Si Si4 0.745195 0.319690 0.269239
Si Si5 0.595819 0.923558 0.663656
Si Si6 0.951488 0.214843 0.825766
Si Si7 0.991108 0.984874 0.829121
Si Si8 0.351632 0.250458 0.862664
O O1 0.260141 0.814368 0.857596
O O2 0.990625 0.617955 0.710780
O O3 0.259383 0.053192 0.926159
O O4 0.006488 0.661540 0.998020
O O5 0.640179 0.297668 0.658547
O O6 0.536530 0.320224 0.479254
O O7 0.455569 0.292709 0.737502
O O8 0.814954 0.704884 0.717864
O O9 0.200977 0.638160 0.564331
O O10 0.288550 0.857340 0.391190
O O11 0.539759 0.149265 0.234073
O O12 0.905517 0.586304 0.258071
O O13 0.735452 0.001706 0.755769
O O14 0.972336 0.095517 0.803446
O O15 0.187297 0.147078 0.790675
O O16 0.000000 0.000000 0.000000
O O17 0.500000 0.500000 0.000000
#
# Coordination Sequence:
#
# PCOD8031802 Si02
#       8
#     2   2   2   2   2   2   2   2
#     4  12  23  43  73 101 138 185 226 286 353 400
#     4  11  23  43  73 100 133 184 233 281 340 405
#     4  11  22  46  74 100 142 178 234 280 339 424
#     4  11  25  44  71 104 137 183 227 285 350 409
#     4  11  26  45  68 104 143 179 231 283 340 421
#     4  12  27  44  67 102 147 178 230 295 339 405
#     4  12  24  49  66  99 140 180 235 287 337 412
#     4  12  24  41  75 103 128 179 235 282 337 408
#
# _framework density 21.783031000000001
#
# number of rings (size 3 to 8) (size 9 to 14) (size 15 to 20)
#    0.000    0.500    5.000    3.750    1.750    3.000 
#    0.000    4.375    0.000    0.000    0.000    0.000 
#    0.000    0.000    0.000    0.000    0.000    0.000 
#
# Total GULP energy -198450.969170 kJ/mol
# GULP energy per Si atom -12403.185573 kJ/mol
# Density = 2.173345 g / cm^3
# Si number density = 21.783031 Si / 1000 Ang^3
#
#
#
# Elastic Constant Matrix: (Units=GPa)
#
#
# Indices 1 2 3 4 5 6 
#
# 1 160.6841 45.8035 49.2285 -8.9371 2.9880 3.3355
# 2 45.8035 101.7819 45.5692 8.3592 6.0075 6.5607
# 3 49.2285 45.5692 72.0200 2.3891 -7.1039 -7.7075
# 4 -8.9371 8.3592 2.3891 34.6503 7.9191 -10.7451
# 5 2.9880 6.0075 -7.1039 7.9191 34.2746 1.3530
# 6 3.3355 6.5607 -7.7075 -10.7451 1.3530 34.4395
#
#
#
# Elastic Compliance Matrix: (Units=1/GPa)
#
#
# Indices 1 2 3 4 5 6 
#
# 1 0.008509 -0.001601 -0.005197 0.003283 -0.002274 -0.000569
# 2 -0.001601 0.015979 -0.009878 -0.004833 -0.003336 -0.006476
# 3 -0.005197 -0.009878 0.025216 0.000099 0.007081 0.007781
# 4 0.003283 -0.004833 0.000099 0.036616 -0.008367 0.012378
# 5 -0.002274 -0.003336 0.007081 -0.008367 0.033419 -0.001483
# 6 -0.000569 -0.006476 0.007781 0.012378 -0.001483 0.035987
#
#
# Mechanical properties :
#
#
# Convention : Reuss Voigt Hill
#
# Bulk Modulus (GPa) = 61.15812 68.40982 64.78397
# Shear Modulus (GPa) = 25.70332 33.59854 29.65093
#
# Velocity S-wave (km/s) = 3.43880 3.93162 3.69344
# Velocity P-wave (km/s) = 6.62601 7.21689 6.92775
#
# Compressibility (1/GPa) = 0.01635106
#
# Stress axis : x y z
#
# Youngs Moduli (GPa) = 117.52761 62.58131 39.65803
#
# Poissons Ratio (x) = 0.10018 0.20611
# Poissons Ratio (y) = 0.18815 0.39175
# Poissons Ratio (z) = 0.61081 0.61819
#
# Static dielectric constant tensor:
#      x y z
#    x 4.621390 0.193490 -0.276270 
#    y 0.193490 3.927100 0.086040 
#    z -0.276270 0.086040 4.039070 
# 
# 
# High freq. dielectric constant tensor:
#      x y z
#    x 1.876120 0.011220 -0.012420 
#    y 0.011220 1.855460 0.007490 
#    z -0.012420 0.007490 1.852890 
# 
# From -- ./inp_files/308012.got.cif
#   From: 2010.06.25/outbox.cif.g09.slc.cpg/sg2_155_cif.got.tgz:308012.got - 2010.06.27 13:26:56.
