data_PCOD8031306
_publ_section_title
;
Structure prediction by ZEFSAII (Michael W. Deem and Ramdas Pophale) SiO2 
 PCOD8031306
Probable space group: P -1
;
_chemical_formula_sum "Si O2"
_cell_formula_units_Z 14
_cell_length_a 23.745623
_cell_length_b 5.271923
_cell_length_c 15.459186
_cell_angle_alpha 83.622052
_cell_angle_beta 161.705184
_cell_angle_gamma 104.466152
_cell_volume 535.225482
_symmetry_space_group_name_H-M "P -1"
_symmetry_group_IT_number 2
_symmetry_cell_setting 'triclinic'
loop_
_space_group_symop_operation_xyz
x,y,z
-x,-y,-z
loop_
_atom_site_type_symbol
_atom_site_label
_atom_site_fract_x
_atom_site_fract_y
_atom_site_fract_z
Si Si1 0.827115 0.869803 0.325481
Si Si2 0.233432 0.679935 0.435311
Si Si3 0.286324 0.569896 0.088837
Si Si4 0.611285 0.251446 0.962588
Si Si5 0.847249 0.692835 0.823886
Si Si6 0.040678 0.337141 0.316070
Si Si7 0.328054 0.136666 0.281547
O O1 0.665891 0.532721 0.089506
O O2 0.921477 0.878814 0.557356
O O3 0.713641 0.063378 0.156411
O O4 0.000000 0.000000 0.500000
O O5 0.290398 0.526098 0.445230
O O6 0.243262 0.549947 0.549865
O O7 0.994822 0.582130 0.085908
O O8 0.371334 0.027498 0.619795
O O9 0.336393 0.314736 0.200441
O O10 0.452081 0.854242 0.374958
O O11 0.306553 0.624916 0.015510
O O12 0.054309 0.493166 0.773228
O O13 0.694108 0.699724 0.671065
O O14 0.000000 0.000000 0.000000
O O15 0.868478 0.164996 0.999600
#
# Coordination Sequence:
#
# PCOD8031306 Si02
#       7
#     2   2   2   2   2   2   2
#     4  12  28  51  81 106 146 202 254 310 371 436
#     4  11  27  43  70 110 148 196 239 311 373 445
#     4  11  25  43  72 108 148 187 248 309 372 435
#     4  12  29  49  78 111 149 197 255 308 369 447
#     4  11  22  43  69 103 154 193 241 290 383 450
#     4  12  25  46  73 104 151 190 251 307 374 440
#     4  11  24  41  75 110 143 196 244 311 368 450
#
# _framework density 26.157198999999999
#
# number of rings (size 3 to 8) (size 9 to 14) (size 15 to 20)
#    0.000    0.571    4.286    2.571    8.000    2.286 
#    0.000    0.000    0.000    0.000    0.000    0.000 
#    0.000    0.000    0.000    0.000    0.000    0.000 
#
# Total GULP energy -173520.705246 kJ/mol
# GULP energy per Si atom -12394.336089 kJ/mol
# Density = 2.609766 g / cm^3
# Si number density = 26.157199 Si / 1000 Ang^3
#
#
#
# Elastic Constant Matrix: (Units=GPa)
#
#
# Indices 1 2 3 4 5 6 
#
# 1 94.6371 24.6875 22.2687 8.0137 -1.5066 40.7146
# 2 24.6875 114.6588 21.4503 7.2530 -7.3949 22.8835
# 3 22.2687 21.4503 89.5482 11.2889 -7.0880 -1.2619
# 4 8.0137 7.2530 11.2889 55.0274 3.8715 -4.4931
# 5 -1.5066 -7.3949 -7.0880 3.8715 28.3528 8.5538
# 6 40.7146 22.8835 -1.2619 -4.4931 8.5538 31.6777
#
#
#
# Elastic Compliance Matrix: (Units=1/GPa)
#
#
# Indices 1 2 3 4 5 6 
#
# 1 0.041595 0.009005 -0.009947 -0.012545 0.024531 -0.068766
# 2 0.009005 0.013731 -0.004345 -0.005107 0.011350 -0.025455
# 3 -0.009947 -0.004345 0.014571 0.000702 -0.003401 0.017521
# 4 -0.012545 -0.005107 0.000702 0.023634 -0.013116 0.026734
# 5 0.024531 0.011350 -0.003401 -0.013116 0.057768 -0.057323
# 6 -0.068766 -0.025455 0.017521 0.026734 -0.057323 0.158307
#
#
# Mechanical properties :
#
#
# Convention : Reuss Voigt Hill
#
# Bulk Modulus (GPa) = 16.85688 48.40634 32.63161
# Shear Modulus (GPa) = 14.70788 38.37410 26.54099
#
# Velocity S-wave (km/s) = 2.37383 3.83437 3.18885
# Velocity P-wave (km/s) = 3.73790 6.17651 5.10496
#
# Compressibility (1/GPa) = 0.05932295
#
# Stress axis : x y z
#
# Youngs Moduli (GPa) = 24.04126 72.82891 68.63111
#
# Poissons Ratio (x) = -0.65580 0.68265
# Poissons Ratio (y) = -0.21648 0.29819
# Poissons Ratio (z) = 0.23913 0.31643
#
# Static dielectric constant tensor:
#      x y z
#    x 4.722810 -0.001520 -0.071730 
#    y -0.001520 4.923900 0.022860 
#    z -0.071730 0.022860 5.149510 
# 
# 
# High freq. dielectric constant tensor:
#      x y z
#    x 2.046620 0.016040 -0.000140 
#    y 0.016040 2.059160 0.002020 
#    z -0.000140 0.002020 2.046990 
# 
# From -- ./inp_files/68219.got.cif
#   From: 2010.06.25/outbox.cif.g09.slc.cpg/sg2_35_cif.got.tgz:68219.got - 2010.06.27 13:26:56.
