data_PCOD8031351
_publ_section_title
;
Structure prediction by ZEFSAII (Michael W. Deem and Ramdas Pophale) SiO2 
 PCOD8031351
Probable space group: P -1
;
_chemical_formula_sum "Si O2"
_cell_formula_units_Z 16
_cell_length_a 17.758835
_cell_length_b 11.595121
_cell_length_c 9.052176
_cell_angle_alpha 124.997685
_cell_angle_beta 94.595400
_cell_angle_gamma 40.743485
_cell_volume 746.156810
_symmetry_space_group_name_H-M "P -1"
_symmetry_group_IT_number 2
_symmetry_cell_setting 'triclinic'
loop_
_space_group_symop_operation_xyz
x,y,z
-x,-y,-z
loop_
_atom_site_type_symbol
_atom_site_label
_atom_site_fract_x
_atom_site_fract_y
_atom_site_fract_z
Si Si1 0.421453 0.980460 0.257326
Si Si2 0.202858 0.252368 0.192182
Si Si3 0.768543 0.327602 0.487250
Si Si4 0.995391 0.822092 0.675533
Si Si5 0.254305 0.613512 0.124510
Si Si6 0.744053 0.690296 0.237461
Si Si7 0.070229 0.179929 0.017987
Si Si8 0.548897 0.053129 0.211958
O O1 0.289468 0.098921 0.250844
O O2 0.352208 0.175098 0.528958
O O3 0.490461 0.986803 0.161533
O O4 0.565999 0.644675 0.071121
O O5 0.044252 0.593196 0.444730
O O6 0.172721 0.149167 0.045308
O O7 0.314917 0.162664 0.043198
O O8 0.865052 0.294217 0.399567
O O9 0.782856 0.320680 0.659771
O O10 0.592540 0.616307 0.612187
O O11 0.836303 0.065693 0.263951
O O12 0.958424 0.866134 0.874497
O O13 0.844776 0.111523 0.775744
O O14 0.213388 0.527010 0.990244
O O15 0.908317 0.495992 0.154305
O O16 0.632694 0.962536 0.312630
#
# Coordination Sequence:
#
# PCOD8031351 Si02
#       8
#     2   2   2   2   2   2   2   2
#     4  11  22  43  71 101 131 168 226 277 321 390
#     4  12  25  46  67  94 137 181 218 266 331 399
#     4  12  24  44  70 100 135 167 227 276 322 391
#     4  12  24  42  72  95 132 176 222 269 330 382
#     4  11  24  41  69 105 128 168 225 282 320 382
#     4  11  24  41  70 104 132 165 225 277 327 387
#     4  12  28  43  64 101 141 172 216 272 334 395
#     4  11  23  42  72  96 127 178 222 268 330 379
#
# _framework density 21.443211000000002
#
# number of rings (size 3 to 8) (size 9 to 14) (size 15 to 20)
#    0.000    0.500    5.000    4.500    5.250    1.000 
#    0.000    0.625    0.000    0.000    0.000    0.000 
#    0.000    0.000    0.000    0.000    0.000    0.000 
#
# Total GULP energy -198402.213203 kJ/mol
# GULP energy per Si atom -12400.138325 kJ/mol
# Density = 2.139441 g / cm^3
# Si number density = 21.443211 Si / 1000 Ang^3
#
#
#
# Elastic Constant Matrix: (Units=GPa)
#
#
# Indices 1 2 3 4 5 6 
#
# 1 58.7868 44.7581 45.7744 -4.8120 8.5237 -22.2406
# 2 44.7581 157.7781 46.9442 12.1408 -4.2395 -26.3702
# 3 45.7744 46.9442 134.7825 -4.0306 2.9119 -13.5919
# 4 -4.8120 12.1408 -4.0306 44.3988 -6.0025 -2.6789
# 5 8.5237 -4.2395 2.9119 -6.0025 23.9327 -2.3046
# 6 -22.2406 -26.3702 -13.5919 -2.6789 -2.3046 21.8865
#
#
#
# Elastic Compliance Matrix: (Units=1/GPa)
#
#
# Indices 1 2 3 4 5 6 
#
# 1 0.040453 -0.004566 -0.008774 0.005285 -0.009958 0.029755
# 2 -0.004566 0.009237 -0.001224 -0.002324 0.003387 0.005801
# 3 -0.008774 -0.001224 0.010428 0.000288 0.001352 -0.003738
# 4 0.005285 -0.002324 0.000288 0.024740 0.004478 0.006249
# 5 -0.009958 0.003387 0.001352 0.004478 0.046917 0.000290
# 6 0.029755 0.005801 -0.003738 0.006249 0.000290 0.081391
#
#
# Mechanical properties :
#
#
# Convention : Reuss Voigt Hill
#
# Bulk Modulus (GPa) = 32.26959 69.58897 50.92928
# Shear Modulus (GPa) = 19.79222 32.30166 26.04694
#
# Velocity S-wave (km/s) = 3.04140 3.88542 3.48903
# Velocity P-wave (km/s) = 5.23593 7.25616 6.32720
#
# Compressibility (1/GPa) = 0.03098893
#
# Stress axis : x y z
#
# Youngs Moduli (GPa) = 24.72012 108.26066 95.89458
#
# Poissons Ratio (x) = 0.49432 0.84141
# Poissons Ratio (y) = 0.11287 0.11739
# Poissons Ratio (z) = 0.21690 0.13253
#
# Static dielectric constant tensor:
#      x y z
#    x 3.438560 -0.248640 -0.158220 
#    y -0.248640 4.369680 0.077800 
#    z -0.158220 0.077800 4.064720 
# 
# 
# High freq. dielectric constant tensor:
#      x y z
#    x 1.799210 -0.020610 -0.014300 
#    y -0.020610 1.862210 -0.001280 
#    z -0.014300 -0.001280 1.859600 
# 
# From -- ./inp_files/261697.got.cif
#   From: 2010.06.25/outbox.cif.g09.slc.cpg/sg2_131_cif.got.tgz:261697.got - 2010.06.27 13:26:56.
