data_PCOD8031888
_publ_section_title
;
Structure prediction by ZEFSAII (Michael W. Deem and Ramdas Pophale) SiO2 
 PCOD8031888
Probable space group: P -1
;
_chemical_formula_sum "Si O2"
_cell_formula_units_Z 14
_cell_length_a 9.827478
_cell_length_b 13.588326
_cell_length_c 19.005020
_cell_angle_alpha 33.475904
_cell_angle_beta 43.442319
_cell_angle_gamma 28.147959
_cell_volume 659.960783
_symmetry_space_group_name_H-M "P -1"
_symmetry_group_IT_number 2
_symmetry_cell_setting 'triclinic'
loop_
_space_group_symop_operation_xyz
x,y,z
-x,-y,-z
loop_
_atom_site_type_symbol
_atom_site_label
_atom_site_fract_x
_atom_site_fract_y
_atom_site_fract_z
Si Si1 0.092198 0.620656 0.929997
Si Si2 0.198327 0.173971 0.707858
Si Si3 0.469230 0.845329 0.153795
Si Si4 0.652756 0.584042 0.899681
Si Si5 0.560126 0.463331 0.753243
Si Si6 0.426553 0.948049 0.486353
Si Si7 0.943657 0.512689 0.294550
O O1 0.400535 0.492113 0.865205
O O2 0.108437 0.571730 0.036193
O O3 0.844810 0.931302 0.825046
O O4 0.000000 0.500000 0.000000
O O5 0.310399 0.180418 0.588645
O O6 0.173638 0.350629 0.667359
O O7 0.897559 0.268529 0.755626
O O8 0.423462 0.885509 0.826028
O O9 0.490344 0.647821 0.221894
O O10 0.694921 0.674913 0.233590
O O11 0.500000 0.000000 0.000000
O O12 0.807865 0.514346 0.808425
O O13 0.500000 0.500000 0.000000
O O14 0.409297 0.747711 0.620334
O O15 0.500000 0.000000 0.500000
O O16 0.109960 0.214174 0.418152
#
# Coordination Sequence:
#
# PCOD8031888 Si02
#       7
#     2   2   2   2   2   2   2
#     4  12  24  42  66  98 143 180 222 277 335 413
#     4  11  25  42  73 101 133 182 231 288 346 397
#     4  12  25  45  68 100 144 181 226 275 345 414
#     4  11  23  37  63 101 137 172 228 279 341 409
#     4  12  26  43  72 100 136 189 225 281 350 401
#     4  11  26  48  72 101 138 174 241 290 336 403
#     4  11  24  45  68 100 139 179 226 291 333 406
#
# _framework density 21.213380999999998
#
# number of rings (size 3 to 8) (size 9 to 14) (size 15 to 20)
#    0.000    0.571    4.286    3.000    4.000    2.857 
#    0.000    1.429    0.000    0.000    0.000    0.000 
#    0.000    0.000    0.000    0.000    0.000    0.000 
#
# Total GULP energy -173603.708204 kJ/mol
# GULP energy per Si atom -12400.264872 kJ/mol
# Density = 2.116510 g / cm^3
# Si number density = 21.213381 Si / 1000 Ang^3
#
#
#
# Elastic Constant Matrix: (Units=GPa)
#
#
# Indices 1 2 3 4 5 6 
#
# 1 125.9387 44.8799 52.5962 -8.9983 5.8819 13.3026
# 2 44.8799 140.9597 50.0916 -4.6886 8.0568 8.4811
# 3 52.5962 50.0916 110.9112 -13.3601 -2.3183 6.0809
# 4 -8.9983 -4.6886 -13.3601 41.4818 1.4252 3.7144
# 5 5.8819 8.0568 -2.3183 1.4252 38.8920 -10.1347
# 6 13.3026 8.4811 6.0809 3.7144 -10.1347 41.4406
#
#
#
# Elastic Compliance Matrix: (Units=1/GPa)
#
#
# Indices 1 2 3 4 5 6 
#
# 1 0.010767 -0.001592 -0.004116 0.001203 -0.002429 -0.003228
# 2 -0.001592 0.008969 -0.003290 -0.000196 -0.002158 -0.001352
# 3 -0.004116 -0.003290 0.012809 0.002756 0.002064 0.000373
# 4 0.001203 -0.000196 0.002756 0.025609 -0.001825 -0.003492
# 5 -0.002429 -0.002158 0.002064 -0.001825 0.028836 0.008134
# 6 -0.003228 -0.001352 0.000373 -0.003492 0.008134 0.027692
#
#
# Mechanical properties :
#
#
# Convention : Reuss Voigt Hill
#
# Bulk Modulus (GPa) = 68.73815 74.77168 71.75491
# Shear Modulus (GPa) = 36.35666 39.71234 38.03450
#
# Velocity S-wave (km/s) = 4.14436 4.33140 4.23892
# Velocity P-wave (km/s) = 7.44141 7.76780 7.60635
#
# Compressibility (1/GPa) = 0.01454796
#
# Stress axis : x y z
#
# Youngs Moduli (GPa) = 92.87563 111.50077 78.07293
#
# Poissons Ratio (x) = 0.17756 0.32132
# Poissons Ratio (y) = 0.14790 0.25686
# Poissons Ratio (z) = 0.38224 0.36683
#
# Static dielectric constant tensor:
#      x y z
#    x 3.943570 0.041900 0.026650 
#    y 0.041900 4.327380 -0.094590 
#    z 0.026650 -0.094590 3.902360 
# 
# 
# High freq. dielectric constant tensor:
#      x y z
#    x 1.829030 0.002390 0.007170 
#    y 0.002390 1.859560 -0.007860 
#    z 0.007170 -0.007860 1.831630 
# 
# From -- ./inp_files/46181.got.cif
#   From: 2010.06.25/outbox.cif.g09.slc.cpg/sg2_24_cif.got.tgz:46181.got - 2010.06.27 13:26:56.
