data_PCOD8031400
_publ_section_title
;
Structure prediction by ZEFSAII (Michael W. Deem and Ramdas Pophale) SiO2 
 PCOD8031400
Probable space group: P -1
;
_chemical_formula_sum "Si O2"
_cell_formula_units_Z 14
_cell_length_a 11.688733
_cell_length_b 8.561120
_cell_length_c 9.673169
_cell_angle_alpha 134.596331
_cell_angle_beta 63.358561
_cell_angle_gamma 117.757052
_cell_volume 598.526651
_symmetry_space_group_name_H-M "P -1"
_symmetry_group_IT_number 2
_symmetry_cell_setting 'triclinic'
loop_
_space_group_symop_operation_xyz
x,y,z
-x,-y,-z
loop_
_atom_site_type_symbol
_atom_site_label
_atom_site_fract_x
_atom_site_fract_y
_atom_site_fract_z
Si Si1 0.358724 0.482889 0.129265
Si Si2 0.763634 0.858655 0.772293
Si Si3 0.090444 0.501131 0.582920
Si Si4 0.350054 0.832167 0.571049
Si Si5 0.975118 0.292677 0.986424
Si Si6 0.752661 0.751778 0.204297
Si Si7 0.583840 0.733020 0.542796
O O1 0.311070 0.281230 0.142997
O O2 0.360865 0.721516 0.346812
O O3 0.500000 0.500000 0.000000
O O4 0.265235 0.450287 0.024384
O O5 0.875333 0.742720 0.575614
O O6 0.658877 0.876289 0.719669
O O7 0.834761 0.113868 0.936050
O O8 0.230708 0.676723 0.619918
O O9 0.000000 0.500000 0.500000
O O10 0.009237 0.578631 0.796710
O O11 0.485661 0.865143 0.604230
O O12 0.321037 0.072971 0.714011
O O13 0.089468 0.156568 0.814435
O O14 0.000000 0.500000 0.000000
O O15 0.689408 0.677356 0.341524
O O16 0.500000 0.500000 0.500000
#
# Coordination Sequence:
#
# PCOD8031400 Si02
#       7
#     2   2   2   2   2   2   2
#     4  11  22  43  73 107 141 181 240 295 356 433
#     4  11  25  46  72 105 148 193 234 301 371 421
#     4  11  23  44  74 101 142 188 240 295 360 427
#     4  11  24  44  73 104 143 185 236 296 362 432
#     4  12  28  48  70 107 145 190 252 298 353 430
#     4  12  26  45  72 102 143 188 244 297 354 428
#     4  12  23  46  73 104 146 191 235 295 370 435
#
# _framework density 23.390771999999998
#
# number of rings (size 3 to 8) (size 9 to 14) (size 15 to 20)
#    0.000    0.571    4.286    4.714    0.000    6.286 
#    0.000    1.429    0.000    0.000    0.000    0.000 
#    0.000    0.000    0.000    0.000    0.000    0.000 
#
# Total GULP energy -173526.267442 kJ/mol
# GULP energy per Si atom -12394.733389 kJ/mol
# Density = 2.333753 g / cm^3
# Si number density = 23.390772 Si / 1000 Ang^3
#
#
#
# Elastic Constant Matrix: (Units=GPa)
#
#
# Indices 1 2 3 4 5 6 
#
# 1 134.2384 40.4410 59.6255 -3.1702 13.0862 12.6936
# 2 40.4410 83.3558 52.6608 -4.2793 0.7822 7.4672
# 3 59.6255 52.6608 135.2080 -24.9964 7.8839 -0.0255
# 4 -3.1702 -4.2793 -24.9964 40.2634 0.6930 -5.0314
# 5 13.0862 0.7822 7.8839 0.6930 50.2938 -2.2837
# 6 12.6936 7.4672 -0.0255 -5.0314 -2.2837 30.2029
#
#
#
# Elastic Compliance Matrix: (Units=1/GPa)
#
#
# Indices 1 2 3 4 5 6 
#
# 1 0.010521 -0.002218 -0.004104 -0.002474 -0.002228 -0.004457
# 2 -0.002218 0.017241 -0.006313 -0.002745 0.001168 -0.003704
# 3 -0.004104 -0.006313 0.013144 0.007745 -0.000796 0.004527
# 4 -0.002474 -0.002745 0.007745 0.030003 -0.000638 0.006675
# 5 -0.002228 0.001168 -0.000796 -0.000638 0.020674 0.002104
# 6 -0.004457 -0.003704 0.004527 0.006675 0.002104 0.037173
#
#
# Mechanical properties :
#
#
# Convention : Reuss Voigt Hill
#
# Bulk Modulus (GPa) = 63.95812 73.13964 68.54888
# Shear Modulus (GPa) = 31.39937 37.49035 34.44486
#
# Velocity S-wave (km/s) = 3.66783 4.00782 3.84159
# Velocity P-wave (km/s) = 6.73350 7.26315 7.00333
#
# Compressibility (1/GPa) = 0.01563523
#
# Stress axis : x y z
#
# Youngs Moduli (GPa) = 95.04951 57.99984 76.08225
#
# Poissons Ratio (x) = 0.12867 0.31223
# Poissons Ratio (y) = 0.21087 0.48031
# Poissons Ratio (z) = 0.39006 0.36616
#
# Static dielectric constant tensor:
#      x y z
#    x -7.209750 -5.671280 -9.770110 
#    y -5.671280 1.277810 -5.033970 
#    z -9.770110 -5.033970 -4.338270 
# 
# 
# High freq. dielectric constant tensor:
#      x y z
#    x 1.936220 0.016250 0.004290 
#    y 0.016250 1.920070 -0.013670 
#    z 0.004290 -0.013670 1.938550 
# 
# From -- ./inp_files/236900.got.cif
#   From: 2010.06.25/outbox.cif.g09.slc.cpg/sg2_119_cif.got.tgz:236900.got - 2010.06.27 13:26:56.
