data_PCOD8031138
_publ_section_title
;
Structure prediction by ZEFSAII (Michael W. Deem and Ramdas Pophale) SiO2 
 PCOD8031138
Probable space group: P -1
;
_chemical_formula_sum "Si O2"
_cell_formula_units_Z 16
_cell_length_a 7.361456
_cell_length_b 18.067797
_cell_length_c 10.087801
_cell_angle_alpha 136.109244
_cell_angle_beta 90.367263
_cell_angle_gamma 65.825909
_cell_volume 755.059937
_symmetry_space_group_name_H-M "P -1"
_symmetry_group_IT_number 2
_symmetry_cell_setting 'triclinic'
loop_
_space_group_symop_operation_xyz
x,y,z
-x,-y,-z
loop_
_atom_site_type_symbol
_atom_site_label
_atom_site_fract_x
_atom_site_fract_y
_atom_site_fract_z
Si Si1 0.153415 0.234067 0.673941
Si Si2 0.764738 0.709605 0.982425
Si Si3 0.002828 0.056650 0.929816
Si Si4 0.364302 0.851504 0.481180
Si Si5 0.318727 0.621046 0.243752
Si Si6 0.141397 0.665752 0.755673
Si Si7 0.710512 0.054353 0.693981
Si Si8 0.415878 0.458714 0.275742
O O1 0.374114 0.212082 0.585173
O O2 0.934232 0.335265 0.718534
O O3 0.187648 0.096904 0.511805
O O4 0.098198 0.304310 0.905719
O O5 0.679789 0.618097 0.882492
O O6 0.931182 0.669877 0.810737
O O7 0.551949 0.861303 0.162923
O O8 0.826201 0.074147 0.843192
O O9 0.952120 0.197952 0.144800
O O10 0.241827 0.964503 0.738652
O O11 0.000000 0.000000 0.000000
O O12 0.325453 0.743187 0.377083
O O13 0.264360 0.902262 0.397495
O O14 0.378729 0.573950 0.333051
O O15 0.500000 0.500000 0.000000
O O16 0.281605 0.531380 0.501181
O O17 0.317158 0.648546 0.844051
#
# Coordination Sequence:
#
# PCOD8031138 Si02
#       8
#     2   2   2   2   2   2   2   2
#     4  11  24  40  66 100 130 164 220 273 320 389
#     4  11  22  42  69  96 125 172 221 264 325 394
#     4  12  24  43  71 100 131 172 218 273 332 387
#     4  11  24  43  69  97 134 174 214 271 332 388
#     4  12  25  40  65  97 133 170 215 271 323 377
#     4  11  24  43  69  89 131 180 214 263 325 392
#     4  11  22  43  70  98 132 169 220 268 331 396
#     4  11  25  44  62  95 132 173 223 262 318 394
#
# _framework density 21.190370000000001
#
# number of rings (size 3 to 8) (size 9 to 14) (size 15 to 20)
#    0.000    0.750    2.500    6.750    1.750    3.000 
#    2.250    1.250    0.000    0.000    0.000    0.000 
#    0.000    0.000    0.000    0.000    0.000    0.000 
#
# Total GULP energy -198350.249940 kJ/mol
# GULP energy per Si atom -12396.890621 kJ/mol
# Density = 2.114214 g / cm^3
# Si number density = 21.190370 Si / 1000 Ang^3
#
#
#
# Elastic Constant Matrix: (Units=GPa)
#
#
# Indices 1 2 3 4 5 6 
#
# 1 85.3494 42.7604 20.0303 3.4201 -16.2267 0.7614
# 2 42.7604 111.4754 25.0324 -5.5736 -14.2521 -7.7868
# 3 20.0303 25.0324 80.0282 5.1066 -9.4183 -5.2036
# 4 3.4201 -5.5736 5.1066 32.5788 4.0766 -8.3578
# 5 -16.2267 -14.2521 -9.4183 4.0766 41.6367 4.1474
# 6 0.7614 -7.7868 -5.2036 -8.3578 4.1474 17.9379
#
#
#
# Elastic Compliance Matrix: (Units=1/GPa)
#
#
# Indices 1 2 3 4 5 6 
#
# 1 0.016377 -0.005985 -0.001779 -0.004987 0.005149 -0.007324
# 2 -0.005985 0.012561 -0.002244 0.004976 0.000243 0.007318
# 3 -0.001779 -0.002244 0.014104 -0.002174 0.001766 0.001771
# 4 -0.004987 0.004976 -0.002174 0.038710 -0.006645 0.021314
# 5 0.005149 0.000243 0.001766 -0.006645 0.028073 -0.009188
# 6 -0.007324 0.007318 0.001771 0.021314 -0.009188 0.071804
#
#
# Mechanical properties :
#
#
# Convention : Reuss Voigt Hill
#
# Bulk Modulus (GPa) = 43.42813 50.27770 46.85292
# Shear Modulus (GPa) = 23.88679 31.03266 27.45972
#
# Velocity S-wave (km/s) = 3.36109 3.83099 3.60371
# Velocity P-wave (km/s) = 5.96669 6.58383 6.28284
#
# Compressibility (1/GPa) = 0.02302655
#
# Stress axis : x y z
#
# Youngs Moduli (GPa) = 61.06243 79.60884 70.89939
#
# Poissons Ratio (x) = 0.47646 0.12611
# Poissons Ratio (y) = 0.36546 0.15911
# Poissons Ratio (z) = 0.10862 0.17866
#
# Static dielectric constant tensor:
#      x y z
#    x 4.025340 -0.045100 -0.111010 
#    y -0.045100 3.750180 0.053430 
#    z -0.111010 0.053430 4.015220 
# 
# 
# High freq. dielectric constant tensor:
#      x y z
#    x 1.838440 -0.002760 -0.007710 
#    y -0.002760 1.826630 0.014960 
#    z -0.007710 0.014960 1.844410 
# 
# From -- ./inp_files/218626.got.cif
#   From: 2010.06.25/outbox.cif.g09.slc.cpg/sg2_110_cif.got.tgz:218626.got - 2010.06.27 13:26:56.
