data_PCOD8031823
_publ_section_title
;
Structure prediction by ZEFSAII (Michael W. Deem and Ramdas Pophale) SiO2 
 PCOD8031823
Probable space group: P -1
;
_chemical_formula_sum "Si O2"
_cell_formula_units_Z 16
_cell_length_a 9.039040
_cell_length_b 8.831373
_cell_length_c 23.092890
_cell_angle_alpha 123.697932
_cell_angle_beta 152.108853
_cell_angle_gamma 51.958834
_cell_volume 678.899441
_symmetry_space_group_name_H-M "P -1"
_symmetry_group_IT_number 2
_symmetry_cell_setting 'triclinic'
loop_
_space_group_symop_operation_xyz
x,y,z
-x,-y,-z
loop_
_atom_site_type_symbol
_atom_site_label
_atom_site_fract_x
_atom_site_fract_y
_atom_site_fract_z
Si Si1 0.155605 0.578597 0.123729
Si Si2 0.741066 0.429153 0.633932
Si Si3 0.081204 0.654939 0.520548
Si Si4 0.319009 0.231760 0.392197
Si Si5 0.286349 0.068638 0.140869
Si Si6 0.762408 0.221346 0.285310
Si Si7 0.470997 0.887591 0.284208
Si Si8 0.871115 0.494268 0.118611
O O1 0.526711 0.438894 0.237649
O O2 0.180568 0.789986 0.167242
O O3 0.896628 0.601324 0.091057
O O4 0.000000 0.500000 0.000000
O O5 0.422676 0.564717 0.586525
O O6 0.658802 0.236295 0.544027
O O7 0.830729 0.548873 0.637109
O O8 0.046991 0.380284 0.774195
O O9 0.104754 0.810832 0.609078
O O10 0.000000 0.500000 0.500000
O O11 0.814682 0.747390 0.398399
O O12 0.068415 0.172996 0.336269
O O13 0.382220 0.085592 0.330460
O O14 0.530691 0.082509 0.174710
O O15 0.120647 0.276385 0.157504
O O16 0.499465 0.925815 0.233895
O O17 0.000000 0.000000 0.000000
O O18 0.500000 0.500000 0.000000
#
# Coordination Sequence:
#
# PCOD8031823 Si02
#       8
#     2   2   2   2   2   2   2   2
#     4  11  24  43  72  99 131 193 241 281 346 431
#     4  11  22  47  66 102 145 183 232 276 368 422
#     4  12  21  45  73  97 139 188 225 285 350 423
#     4  11  25  40  71 105 141 178 223 300 348 418
#     4  11  25  49  68 104 138 183 238 295 337 420
#     4  11  23  45  69  97 144 183 230 279 366 415
#     4  12  24  44  74 108 137 177 241 292 352 410
#     4  11  24  47  70  94 140 189 227 288 357 412
#
# _framework density 23.567554999999999
#
# number of rings (size 3 to 8) (size 9 to 14) (size 15 to 20)
#    0.000    0.750    6.250    1.500    1.750    3.500 
#    6.750    1.875    0.000    0.000    0.000    0.000 
#    0.000    0.000    0.000    0.000    0.000    0.000 
#
# Total GULP energy -198301.807121 kJ/mol
# GULP energy per Si atom -12393.862945 kJ/mol
# Density = 2.351391 g / cm^3
# Si number density = 23.567555 Si / 1000 Ang^3
#
#
#
# Elastic Constant Matrix: (Units=GPa)
#
#
# Indices 1 2 3 4 5 6 
#
# 1 107.2255 20.0051 55.5989 9.2800 1.7994 30.8685
# 2 20.0051 66.1102 37.1135 19.5005 1.6786 23.9242
# 3 55.5989 37.1135 173.8775 27.3867 -10.7620 16.2997
# 4 9.2800 19.5005 27.3867 48.1756 2.9512 -1.9545
# 5 1.7994 1.6786 -10.7620 2.9512 48.1965 8.7473
# 6 30.8685 23.9242 16.2997 -1.9545 8.7473 34.9025
#
#
#
# Elastic Compliance Matrix: (Units=1/GPa)
#
#
# Indices 1 2 3 4 5 6 
#
# 1 0.014943 0.003590 -0.003647 -0.002925 0.001307 -0.014465
# 2 0.003590 0.026496 -0.002937 -0.010782 0.002808 -0.021273
# 3 -0.003647 -0.002937 0.008030 -0.002766 0.002052 0.000819
# 4 -0.002925 -0.010782 -0.002766 0.028092 -0.004383 0.013941
# 5 0.001307 0.002808 0.002052 -0.004383 0.023160 -0.010089
# 6 -0.014465 -0.021273 0.000819 0.013941 -0.010089 0.058953
#
#
# Mechanical properties :
#
#
# Convention : Reuss Voigt Hill
#
# Bulk Modulus (GPa) = 22.99869 63.62759 43.31314
# Shear Modulus (GPa) = 27.75395 41.88797 34.82096
#
# Velocity S-wave (km/s) = 3.43539 4.22045 3.84799
# Velocity P-wave (km/s) = 5.05130 7.12784 6.17745
#
# Compressibility (1/GPa) = 0.04348074
#
# Stress axis : x y z
#
# Youngs Moduli (GPa) = 66.92249 37.74119 124.53233
#
# Poissons Ratio (x) = -0.13548 0.45413
# Poissons Ratio (y) = -0.24023 0.36577
# Poissons Ratio (z) = 0.24404 0.11085
#
# Static dielectric constant tensor:
#      x y z
#    x 4.412670 0.249950 -0.015950 
#    y 0.249950 4.146790 0.147270 
#    z -0.015950 0.147270 4.920330 
# 
# 
# High freq. dielectric constant tensor:
#      x y z
#    x 1.940660 0.021840 -0.003100 
#    y 0.021840 1.910060 0.021550 
#    z -0.003100 0.021550 1.953070 
# 
# From -- ./inp_files/606454.got.cif
#   From: 2010.06.25/outbox.cif.g09.slc.cpg/sg2_304_cif.got.tgz:606454.got - 2010.06.27 13:26:56.
