data_PCOD8031952
_publ_section_title
;
Structure prediction by ZEFSAII (Michael W. Deem and Ramdas Pophale) SiO2 
 PCOD8031952
Probable space group: P -1
;
_chemical_formula_sum "Si O2"
_cell_formula_units_Z 16
_cell_length_a 17.245718
_cell_length_b 11.381132
_cell_length_c 9.499265
_cell_angle_alpha 44.818430
_cell_angle_beta 55.930763
_cell_angle_gamma 32.870433
_cell_volume 710.177491
_symmetry_space_group_name_H-M "P -1"
_symmetry_group_IT_number 2
_symmetry_cell_setting 'triclinic'
loop_
_space_group_symop_operation_xyz
x,y,z
-x,-y,-z
loop_
_atom_site_type_symbol
_atom_site_label
_atom_site_fract_x
_atom_site_fract_y
_atom_site_fract_z
Si Si1 0.050309 0.051286 0.107067
Si Si2 0.942296 0.397278 0.180575
Si Si3 0.355896 0.721491 0.381570
Si Si4 0.883098 0.780928 0.325473
Si Si5 0.592401 0.118891 0.186651
Si Si6 0.892057 0.956764 0.433471
Si Si7 0.622655 0.926834 0.030604
Si Si8 0.366832 0.566305 0.214961
O O1 0.034132 0.152331 0.193545
O O2 0.205310 0.763714 0.158109
O O3 0.024808 0.221975 0.867234
O O4 0.938867 0.052466 0.212684
O O5 0.976833 0.302861 0.388966
O O6 0.770523 0.620344 0.137634
O O7 0.000000 0.500000 0.000000
O O8 0.500000 0.500000 0.500000
O O9 0.360271 0.574948 0.381783
O O10 0.229425 0.829131 0.517143
O O11 0.337078 0.941413 0.174032
O O12 0.821437 0.940156 0.397595
O O13 0.000000 0.500000 0.500000
O O14 0.750547 0.875464 0.297543
O O15 0.465704 0.281493 0.295379
O O16 0.574120 0.330104 0.969296
O O17 0.567742 0.019575 0.169865
O O18 0.500000 0.000000 0.000000
#
# Coordination Sequence:
#
# PCOD8031952 Si02
#       8
#     2   2   2   2   2   2   2   2
#     4  11  24  41  66 100 136 180 234 292 338 410
#     4  12  22  45  71  96 141 185 230 286 352 415
#     4  11  23  39  65  99 134 181 233 281 349 416
#     4  11  23  42  67 102 139 183 232 279 359 426
#     4   9  19  41  67  93 134 181 219 285 350 410
#     4  12  24  41  69 102 136 184 238 291 344 415
#     4  11  25  43  68 104 136 179 236 291 347 415
#     4   9  18  39  64  92 131 175 229 276 344 404
#
# _framework density 22.529579999999999
#
# number of rings (size 3 to 8) (size 9 to 14) (size 15 to 20)
#    0.000    1.250    2.500    4.500    1.750    1.000 
#    2.250    0.000    0.000    3.000    0.000    0.000 
#    0.000    0.000    0.000    0.000    0.000    0.000 
#
# Total GULP energy -198267.434257 kJ/mol
# GULP energy per Si atom -12391.714641 kJ/mol
# Density = 2.247830 g / cm^3
# Si number density = 22.529580 Si / 1000 Ang^3
#
#
#
# Elastic Constant Matrix: (Units=GPa)
#
#
# Indices 1 2 3 4 5 6 
#
# 1 114.0768 56.4921 31.5422 7.1579 27.6243 2.1601
# 2 56.4921 153.9663 40.9055 10.5117 7.8803 1.1056
# 3 31.5422 40.9055 104.5819 2.9214 18.4753 -9.4100
# 4 7.1579 10.5117 2.9214 36.9050 -0.3248 10.3016
# 5 27.6243 7.8803 18.4753 -0.3248 34.5801 8.6325
# 6 2.1601 1.1056 -9.4100 10.3016 8.6325 35.1884
#
#
#
# Elastic Compliance Matrix: (Units=1/GPa)
#
#
# Indices 1 2 3 4 5 6 
#
# 1 0.013526 -0.004216 -0.000344 -0.002143 -0.010269 0.002357
# 2 -0.004216 0.008698 -0.002767 -0.001074 0.003158 -0.001215
# 3 -0.000344 -0.002767 0.012611 -0.001828 -0.007299 0.005806
# 4 -0.002143 -0.001074 -0.001828 0.031050 0.005939 -0.010871
# 5 -0.010269 0.003158 -0.007299 0.005939 0.043830 -0.013912
# 6 0.002357 -0.001215 0.005806 -0.010871 -0.013912 0.036460
#
#
# Mechanical properties :
#
#
# Convention : Reuss Voigt Hill
#
# Bulk Modulus (GPa) = 49.55838 70.05608 59.80723
# Shear Modulus (GPa) = 29.84077 37.58038 33.71057
#
# Velocity S-wave (km/s) = 3.64334 4.08860 3.87238
# Velocity P-wave (km/s) = 6.30423 7.31106 6.82623
#
# Compressibility (1/GPa) = 0.02017822
#
# Stress axis : x y z
#
# Youngs Moduli (GPa) = 73.93361 114.97450 79.29555
#
# Poissons Ratio (x) = 0.48476 0.02730
# Poissons Ratio (y) = 0.31172 0.21945
# Poissons Ratio (z) = 0.02545 0.31819
#
# Static dielectric constant tensor:
#      x y z
#    x 2.664290 -0.688380 -0.068110 
#    y -0.688380 3.918200 -0.028290 
#    z -0.068110 -0.028290 4.089760 
# 
# 
# High freq. dielectric constant tensor:
#      x y z
#    x 1.874810 0.006010 0.019650 
#    y 0.006010 1.900420 0.006660 
#    z 0.019650 0.006660 1.884000 
# 
# From -- ./inp_files/298844.got.cif
#   From: 2010.06.25/outbox.cif.g09.slc.cpg/sg2_150_cif.got.tgz:298844.got - 2010.06.27 13:26:56.
