data_PCOD8031465
_publ_section_title
;
Structure prediction by ZEFSAII (Michael W. Deem and Ramdas Pophale) SiO2 
 PCOD8031465
Probable space group: P -1
;
_chemical_formula_sum "Si O2"
_cell_formula_units_Z 14
_cell_length_a 11.946087
_cell_length_b 7.635662
_cell_length_c 8.004435
_cell_angle_alpha 61.698046
_cell_angle_beta 105.487276
_cell_angle_gamma 116.901034
_cell_volume 572.008182
_symmetry_space_group_name_H-M "P -1"
_symmetry_group_IT_number 2
_symmetry_cell_setting 'triclinic'
loop_
_space_group_symop_operation_xyz
x,y,z
-x,-y,-z
loop_
_atom_site_type_symbol
_atom_site_label
_atom_site_fract_x
_atom_site_fract_y
_atom_site_fract_z
Si Si1 0.657759 0.148010 0.136372
Si Si2 0.378299 0.286381 0.833236
Si Si3 0.545325 0.739816 0.784489
Si Si4 0.174182 0.422630 0.546894
Si Si5 0.950858 0.142809 0.803587
Si Si6 0.126161 0.573855 0.127544
Si Si7 0.255750 0.899581 0.476191
O O1 0.586493 0.915200 0.122199
O O2 0.564295 0.227911 0.164989
O O3 0.755063 0.113637 0.322688
O O4 0.744104 0.341955 0.963364
O O5 0.495054 0.517693 0.758005
O O6 0.260256 0.287541 0.679380
O O7 0.350977 0.260689 0.034640
O O8 0.606020 0.929271 0.592031
O O9 0.128983 0.394159 0.346345
O O10 0.249005 0.673414 0.500296
O O11 0.059282 0.340558 0.668225
O O12 0.870178 0.221203 0.861332
O O13 0.852087 0.021091 0.672531
O O14 0.000000 0.000000 0.000000
O O15 0.000000 0.500000 0.000000
#
# Coordination Sequence:
#
# PCOD8031465 Si02
#       7
#     2   2   2   2   2   2   2
#     4  12  24  45  68 100 137 178 228 281 332 399
#     4  11  25  43  71  98 134 177 234 269 341 398
#     4  11  25  48  66  97 141 181 224 280 337 400
#     4  11  22  44  68 100 136 179 223 278 343 401
#     4  11  23  42  71  96 137 178 221 280 343 403
#     4  11  24  42  67 102 137 174 229 278 338 403
#     4  11  23  44  68  96 138 179 226 278 342 398
#
# _framework density 24.475175
#
# number of rings (size 3 to 8) (size 9 to 14) (size 15 to 20)
#    0.000    0.857    1.429    7.714    0.000    1.714 
#    5.143    2.857    0.000    0.000    0.000    0.000 
#    0.000    0.000    0.000    0.000    0.000    0.000 
#
# Total GULP energy -173488.702362 kJ/mol
# GULP energy per Si atom -12392.050169 kJ/mol
# Density = 2.441947 g / cm^3
# Si number density = 24.475175 Si / 1000 Ang^3
#
#
#
# Elastic Constant Matrix: (Units=GPa)
#
#
# Indices 1 2 3 4 5 6 
#
# 1 70.2036 12.5180 36.0198 -12.5716 2.8172 3.9869
# 2 12.5180 103.4967 19.9134 -4.6322 -9.8108 0.6346
# 3 36.0198 19.9134 160.8205 7.1392 5.0011 11.1166
# 4 -12.5716 -4.6322 7.1392 43.9630 15.5962 -2.0533
# 5 2.8172 -9.8108 5.0011 15.5962 45.5600 -6.0306
# 6 3.9869 0.6346 11.1166 -2.0533 -6.0306 24.6127
#
#
#
# Elastic Compliance Matrix: (Units=1/GPa)
#
#
# Indices 1 2 3 4 5 6 
#
# 1 0.017959 -0.001432 -0.003943 0.006801 -0.003497 -0.001381
# 2 -0.001432 0.010285 -0.001108 -0.000007 0.002573 0.001097
# 3 -0.003943 -0.001108 0.007571 -0.002481 -0.000381 -0.003053
# 4 0.006801 -0.000007 -0.002481 0.028622 -0.009952 -0.000031
# 5 -0.003497 0.002573 -0.000381 -0.009952 0.027023 0.006463
# 6 -0.001381 0.001097 -0.003053 -0.000031 0.006463 0.043785
#
#
# Mechanical properties :
#
#
# Convention : Reuss Voigt Hill
#
# Bulk Modulus (GPa) = 43.76461 52.38034 48.07248
# Shear Modulus (GPa) = 32.08629 40.56512 36.32570
#
# Velocity S-wave (km/s) = 3.62466 4.07553 3.85669
# Velocity P-wave (km/s) = 5.95295 6.60261 6.28618
#
# Compressibility (1/GPa) = 0.02284951
#
# Stress axis : x y z
#
# Youngs Moduli (GPa) = 55.68156 97.22472 132.07522
#
# Poissons Ratio (x) = 0.13925 0.52075
# Poissons Ratio (y) = 0.07975 0.14638
# Poissons Ratio (z) = 0.21954 0.10776
#
# Static dielectric constant tensor:
#      x y z
#    x 4.207820 0.249460 0.618540 
#    y 0.249460 4.464060 0.570350 
#    z 0.618540 0.570350 6.085680 
# 
# 
# High freq. dielectric constant tensor:
#      x y z
#    x 1.950020 0.011670 0.015810 
#    y 0.011670 1.967830 0.006350 
#    z 0.015810 0.006350 2.004660 
# 
# From -- ./inp_files/242663.got.cif
#   From: 2010.06.25/outbox.cif.g09.slc.cpg/sg2_122_cif.got.tgz:242663.got - 2010.06.27 13:26:56.
