data_PCOD8031496
_publ_section_title
;
Structure prediction by ZEFSAII (Michael W. Deem and Ramdas Pophale) SiO2 
 PCOD8031496
Probable space group: P -1
;
_chemical_formula_sum "Si O2"
_cell_formula_units_Z 12
_cell_length_a 9.017237
_cell_length_b 9.148534
_cell_length_c 10.044225
_cell_angle_alpha 118.533528
_cell_angle_beta 134.733049
_cell_angle_gamma 66.018879
_cell_volume 513.845209
_symmetry_space_group_name_H-M "P -1"
_symmetry_group_IT_number 2
_symmetry_cell_setting 'triclinic'
loop_
_space_group_symop_operation_xyz
x,y,z
-x,-y,-z
loop_
_atom_site_type_symbol
_atom_site_label
_atom_site_fract_x
_atom_site_fract_y
_atom_site_fract_z
Si Si1 0.657239 0.742971 0.956202
Si Si2 0.634619 0.196828 0.965674
Si Si3 0.978930 0.938578 0.160431
Si Si4 0.345619 0.144459 0.524416
Si Si5 0.871189 0.398983 0.036615
Si Si6 0.337748 0.369423 0.365898
O O1 0.448784 0.794176 0.931467
O O2 0.742019 0.547278 0.938562
O O3 0.839602 0.862596 0.156140
O O4 0.611071 0.769831 0.779544
O O5 0.429406 0.193743 0.742099
O O6 0.742636 0.365609 0.075204
O O7 0.813549 0.037895 0.994573
O O8 0.119281 0.075540 0.368073
O O9 0.118497 0.780162 0.112233
O O10 0.348036 0.297921 0.490249
O O11 0.500000 0.000000 0.500000
O O12 0.098622 0.454801 0.234730
O O13 0.500000 0.500000 0.500000
#
# Coordination Sequence:
#
# PCOD8031496 Si02
#       6
#     2   2   2   2   2   2
#     4  11  26  43  68  99 141 172 217 289 339 378
#     4  12  24  46  69 101 137 173 221 283 340 384
#     4  11  23  45  69  98 135 179 226 268 330 406
#     4  12  24  40  74  99 128 180 231 266 325 411
#     4  11  22  44  69  95 135 183 220 271 333 404
#     4  11  24  43  67 100 131 179 231 269 324 412
#
# _framework density 23.353335000000001
#
# number of rings (size 3 to 8) (size 9 to 14) (size 15 to 20)
#    0.000    0.667    3.333    6.500    2.333    0.667 
#    3.000    1.667    0.000    0.000    0.000    0.000 
#    0.000    0.000    0.000    0.000    0.000    0.000 
#
# Total GULP energy -148701.905005 kJ/mol
# GULP energy per Si atom -12391.825417 kJ/mol
# Density = 2.330018 g / cm^3
# Si number density = 23.353335 Si / 1000 Ang^3
#
#
#
# Elastic Constant Matrix: (Units=GPa)
#
#
# Indices 1 2 3 4 5 6 
#
# 1 132.8405 22.2515 36.8119 19.2200 19.0498 31.2199
# 2 22.2515 102.2075 24.8550 0.6155 13.2226 18.3715
# 3 36.8119 24.8550 87.6432 11.0015 17.1525 4.2169
# 4 19.2200 0.6155 11.0015 23.4767 17.3738 14.6417
# 5 19.0498 13.2226 17.1525 17.3738 40.0399 10.6055
# 6 31.2199 18.3715 4.2169 14.6417 10.6055 43.5678
#
#
#
# Elastic Compliance Matrix: (Units=1/GPa)
#
#
# Indices 1 2 3 4 5 6 
#
# 1 0.010440 -0.000232 -0.003575 -0.002679 -0.000610 -0.005988
# 2 -0.000232 0.012388 -0.003306 0.009053 -0.004737 -0.006627
# 3 -0.003575 -0.003306 0.014759 -0.004949 -0.002664 0.004839
# 4 -0.002679 0.009053 -0.004949 0.082408 -0.029546 -0.021921
# 5 -0.000610 -0.004737 -0.002664 -0.029546 0.040029 0.002878
# 6 -0.005988 -0.006627 0.004839 -0.021921 0.002878 0.036236
#
#
# Mechanical properties :
#
#
# Convention : Reuss Voigt Hill
#
# Bulk Modulus (GPa) = 42.80825 54.50310 48.65568
# Shear Modulus (GPa) = 22.90704 37.33508 30.12106
#
# Velocity S-wave (km/s) = 3.13531 4.00272 3.59527
# Velocity P-wave (km/s) = 5.61047 6.68965 6.17369
#
# Compressibility (1/GPa) = 0.02335998
#
# Stress axis : x y z
#
# Youngs Moduli (GPa) = 95.78583 80.72334 67.75531
#
# Poissons Ratio (x) = 0.01873 0.24225
# Poissons Ratio (y) = 0.02222 0.22401
# Poissons Ratio (z) = 0.34247 0.26688
#
# Static dielectric constant tensor:
#      x y z
#    x 4.448920 0.333470 0.874780 
#    y 0.333470 4.000510 0.414240 
#    z 0.874780 0.414240 4.743580 
# 
# 
# High freq. dielectric constant tensor:
#      x y z
#    x 1.937640 0.032260 0.025200 
#    y 0.032260 1.929480 -0.010430 
#    z 0.025200 -0.010430 1.894630 
# 
# From -- ./inp_files/160017.got.cif
#   From: 2010.06.25/outbox.cif.g09.slc.cpg/sg2_81_cif.got.tgz:160017.got - 2010.06.27 13:26:56.
