data_PCOD8031959
_publ_section_title
;
Structure prediction by ZEFSAII (Michael W. Deem and Ramdas Pophale) SiO2 
 PCOD8031959
Probable space group: P -1
;
_chemical_formula_sum "Si O2"
_cell_formula_units_Z 14
_cell_length_a 8.897225
_cell_length_b 15.805121
_cell_length_c 11.909796
_cell_angle_alpha 132.226692
_cell_angle_beta 120.802858
_cell_angle_gamma 31.099150
_cell_volume 631.708967
_symmetry_space_group_name_H-M "P -1"
_symmetry_group_IT_number 2
_symmetry_cell_setting 'triclinic'
loop_
_space_group_symop_operation_xyz
x,y,z
-x,-y,-z
loop_
_atom_site_type_symbol
_atom_site_label
_atom_site_fract_x
_atom_site_fract_y
_atom_site_fract_z
Si Si1 0.093437 0.916597 0.621900
Si Si2 0.987202 0.231253 0.806916
Si Si3 0.686167 0.796400 0.924957
Si Si4 0.128161 0.318370 0.347435
Si Si5 0.531080 0.514820 0.305385
Si Si6 0.615141 0.004420 0.437497
Si Si7 0.253953 0.837362 0.863226
O O1 0.364540 0.696527 0.481712
O O2 0.087187 0.914256 0.750551
O O3 0.132447 0.029148 0.703616
O O4 0.773880 0.039746 0.566504
O O5 0.637631 0.403625 0.806353
O O6 0.135049 0.198351 0.716310
O O7 0.039405 0.297857 0.982469
O O8 0.765195 0.698880 0.750080
O O9 0.491581 0.814102 0.940709
O O10 0.500000 0.000000 0.000000
O O11 0.358781 0.153846 0.381004
O O12 0.000000 0.500000 0.500000
O O13 0.871561 0.360975 0.274358
O O14 0.545436 0.380610 0.241482
O O15 0.500000 0.000000 0.500000
O O16 0.000000 0.000000 0.000000
#
# Coordination Sequence:
#
# PCOD8031959 Si02
#       7
#     2   2   2   2   2   2   2
#     4  11  23  46  72  96 139 184 229 284 340 411
#     4  11  24  46  71 101 138 184 230 283 346 407
#     4  12  24  45  73  95 140 185 230 280 346 419
#     4  12  24  44  70 103 132 182 234 274 336 414
#     4  11  25  44  69 105 138 175 237 283 344 407
#     4  11  23  39  67 100 134 176 224 283 335 399
#     4  12  26  44  69 101 142 182 224 289 353 405
#
# _framework density 22.162103999999999
#
# number of rings (size 3 to 8) (size 9 to 14) (size 15 to 20)
#    0.000    0.571    2.857    6.429    2.000    4.571 
#    2.571    0.000    0.000    0.000    0.000    0.000 
#    0.000    0.000    0.000    0.000    0.000    0.000 
#
# Total GULP energy -173457.727946 kJ/mol
# GULP energy per Si atom -12389.837710 kJ/mol
# Density = 2.211166 g / cm^3
# Si number density = 22.162104 Si / 1000 Ang^3
#
#
#
# Elastic Constant Matrix: (Units=GPa)
#
#
# Indices 1 2 3 4 5 6 
#
# 1 122.8649 41.5858 44.9987 -0.6191 -0.2814 -2.2715
# 2 41.5858 129.2234 51.4609 -26.5676 2.5791 -12.6445
# 3 44.9987 51.4609 120.3805 -22.3894 -8.0666 -0.0491
# 4 -0.6191 -26.5676 -22.3894 47.1649 2.8162 7.0394
# 5 -0.2814 2.5791 -8.0666 2.8162 41.2894 -5.7190
# 6 -2.2715 -12.6445 -0.0491 7.0394 -5.7190 37.3895
#
#
#
# Elastic Compliance Matrix: (Units=1/GPa)
#
#
# Indices 1 2 3 4 5 6 
#
# 1 0.010185 -0.002537 -0.003270 -0.002878 -0.000177 0.000271
# 2 -0.002537 0.010918 -0.002982 0.004399 -0.001233 0.002517
# 3 -0.003270 -0.002982 0.011667 0.003944 0.001948 -0.001636
# 4 -0.002878 0.004399 0.003944 0.026207 -0.001851 -0.003899
# 5 -0.000177 -0.001233 0.001948 -0.001851 0.025328 0.003797
# 6 0.000271 0.002517 -0.001636 -0.003899 0.003797 0.028926
#
#
# Mechanical properties :
#
#
# Convention : Reuss Voigt Hill
#
# Bulk Modulus (GPa) = 65.82229 72.06219 68.94224
# Shear Modulus (GPa) = 36.79865 40.79696 38.79780
#
# Velocity S-wave (km/s) = 4.07926 4.29516 4.18860
# Velocity P-wave (km/s) = 7.20777 7.56204 7.38703
#
# Compressibility (1/GPa) = 0.01519242
#
# Stress axis : x y z
#
# Youngs Moduli (GPa) = 98.17974 91.59130 85.70864
#
# Poissons Ratio (x) = 0.23239 0.28024
# Poissons Ratio (y) = 0.24911 0.25561
# Poissons Ratio (z) = 0.32101 0.27316
#
# Static dielectric constant tensor:
#      x y z
#    x 4.078570 -0.243190 0.790750 
#    y -0.243190 3.619850 0.382470 
#    z 0.790750 0.382470 3.735500 
# 
# 
# High freq. dielectric constant tensor:
#      x y z
#    x 1.877530 -0.009730 0.005270 
#    y -0.009730 1.877600 -0.020220 
#    z 0.005270 -0.020220 1.879470 
# 
# From -- ./inp_files/184543.got.cif
#   From: 2010.06.25/outbox.cif.g09.slc.cpg/sg2_93_cif.got.tgz:184543.got - 2010.06.27 13:26:56.
