data_PCOD8031571
_publ_section_title
;
Structure prediction by ZEFSAII (Michael W. Deem and Ramdas Pophale) SiO2 
 PCOD8031571
Probable space group: P -1
;
_chemical_formula_sum "Si O2"
_cell_formula_units_Z 16
_cell_length_a 8.990938
_cell_length_b 7.995358
_cell_length_c 15.274175
_cell_angle_alpha 73.267917
_cell_angle_beta 102.749883
_cell_angle_gamma 50.117372
_cell_volume 673.069670
_symmetry_space_group_name_H-M "P -1"
_symmetry_group_IT_number 2
_symmetry_cell_setting 'triclinic'
loop_
_space_group_symop_operation_xyz
x,y,z
-x,-y,-z
loop_
_atom_site_type_symbol
_atom_site_label
_atom_site_fract_x
_atom_site_fract_y
_atom_site_fract_z
Si Si1 0.726397 0.712620 0.944125
Si Si2 0.629261 0.501547 0.087583
Si Si3 0.471192 0.840470 0.727509
Si Si4 0.012092 0.103337 0.573135
Si Si5 0.143733 0.987332 0.286566
Si Si6 0.852678 0.555772 0.380283
Si Si7 0.537487 0.252117 0.796895
Si Si8 0.717340 0.787342 0.623287
O O1 0.611579 0.687947 0.857969
O O2 0.616169 0.996215 0.879634
O O3 0.662115 0.674105 0.032775
O O4 0.000000 0.500000 0.000000
O O5 0.468503 0.625623 0.134947
O O6 0.885613 0.209776 0.182066
O O7 0.500000 0.500000 0.000000
O O8 0.657960 0.679814 0.697205
O O9 0.344097 0.139051 0.662962
O O10 0.275562 0.862935 0.681665
O O11 0.951978 0.360167 0.506184
O O12 0.835966 0.183150 0.611815
O O13 0.000000 0.000000 0.500000
O O14 0.224287 0.094720 0.327644
O O15 0.304401 0.805130 0.251073
O O16 0.728394 0.523349 0.305333
O O17 0.062046 0.462122 0.367550
O O18 0.500000 0.000000 0.500000
#
# Coordination Sequence:
#
# PCOD8031571 Si02
#       8
#     2   2   2   2   2   2   2   2
#     4  11  22  44  72  98 127 180 229 284 336 402
#     4  12  25  46  72  97 138 178 224 291 350 398
#     4  11  24  43  66 101 135 170 232 278 330 406
#     4  12  23  41  68  99 141 181 219 271 344 403
#     4  12  24  45  65  99 143 176 231 280 334 409
#     4  11  23  41  69  98 133 180 222 275 335 402
#     4  11  24  45  73  99 135 183 230 280 345 408
#     4  12  21  40  71  96 134 176 221 273 334 393
#
# _framework density 23.771684
#
# number of rings (size 3 to 8) (size 9 to 14) (size 15 to 20)
#    0.000    0.500    7.500    1.500    0.000    1.000 
#    0.000    3.750    0.000    0.000    0.000    0.000 
#    0.000    0.000    0.000    0.000    0.000    0.000 
#
# Total GULP energy -198367.828651 kJ/mol
# GULP energy per Si atom -12397.989291 kJ/mol
# Density = 2.371758 g / cm^3
# Si number density = 23.771684 Si / 1000 Ang^3
#
#
#
# Elastic Constant Matrix: (Units=GPa)
#
#
# Indices 1 2 3 4 5 6 
#
# 1 106.7171 40.5214 31.7180 13.4226 -2.4590 -33.2129
# 2 40.5214 79.0268 40.6142 24.6341 1.9567 -37.4786
# 3 31.7180 40.6142 121.3724 14.8140 20.6364 -21.2421
# 4 13.4226 24.6341 14.8140 41.1251 -1.9728 -3.2482
# 5 -2.4590 1.9567 20.6364 -1.9728 71.0000 13.1640
# 6 -33.2129 -37.4786 -21.2421 -3.2482 13.1640 39.6454
#
#
#
# Elastic Compliance Matrix: (Units=1/GPa)
#
#
# Indices 1 2 3 4 5 6 
#
# 1 0.013441 -0.000463 -0.000935 -0.003004 -0.001280 0.010499
# 2 -0.000463 0.035332 -0.002741 -0.017794 -0.006677 0.032303
# 3 -0.000935 -0.002741 0.010915 -0.001885 -0.003848 0.003596
# 4 -0.003004 -0.017794 -0.001885 0.035376 0.005491 -0.019273
# 5 -0.001280 -0.006677 -0.003848 0.005491 0.018289 -0.015069
# 6 0.010499 0.032303 0.003596 -0.019273 -0.015069 0.069909
#
#
# Mechanical properties :
#
#
# Convention : Reuss Voigt Hill
#
# Bulk Modulus (GPa) = 19.45244 59.20259 39.32752
# Shear Modulus (GPa) = 23.96042 43.30496 33.63269
#
# Velocity S-wave (km/s) = 3.17825 4.27277 3.76549
# Velocity P-wave (km/s) = 4.65501 7.02146 5.95693
#
# Compressibility (1/GPa) = 0.05140743
#
# Stress axis : x y z
#
# Youngs Moduli (GPa) = 74.40140 28.30256 91.61978
#
# Poissons Ratio (x) = 0.01312 0.08570
# Poissons Ratio (y) = 0.03448 0.25116
# Poissons Ratio (z) = 0.06960 0.07759
#
# Static dielectric constant tensor:
#      x y z
#    x 4.567190 -0.179880 0.040330 
#    y -0.179880 4.034340 0.066400 
#    z 0.040330 0.066400 5.097690 
# 
# 
# High freq. dielectric constant tensor:
#      x y z
#    x 1.955230 -0.011040 0.004620 
#    y -0.011040 1.922330 0.013870 
#    z 0.004620 0.013870 1.964970 
# 
# From -- ./inp_files/307575.got.cif
#   From: 2010.06.25/outbox.cif.g09.slc.cpg/sg2_154_cif.got.tgz:307575.got - 2010.06.27 13:26:56.
