data_PCOD8031978
_publ_section_title
;
Structure prediction by ZEFSAII (Michael W. Deem and Ramdas Pophale) SiO2 
 PCOD8031978
Probable space group: P -1
;
_chemical_formula_sum "Si O2"
_cell_formula_units_Z 12
_cell_length_a 8.705180
_cell_length_b 5.285357
_cell_length_c 15.842164
_cell_angle_alpha 64.594134
_cell_angle_beta 117.009188
_cell_angle_gamma 76.519119
_cell_volume 496.781234
_symmetry_space_group_name_H-M "P -1"
_symmetry_group_IT_number 2
_symmetry_cell_setting 'triclinic'
loop_
_space_group_symop_operation_xyz
x,y,z
-x,-y,-z
loop_
_atom_site_type_symbol
_atom_site_label
_atom_site_fract_x
_atom_site_fract_y
_atom_site_fract_z
Si Si1 0.022176 0.584972 0.731815
Si Si2 0.625155 0.671895 0.022691
Si Si3 0.372994 0.766005 0.500765
Si Si4 0.811317 0.553866 0.392640
Si Si5 0.625935 0.895113 0.808975
Si Si6 0.268871 0.544367 0.257211
O O1 0.170508 0.583890 0.839357
O O2 0.124619 0.537183 0.674691
O O3 0.953070 0.323524 0.773607
O O4 0.800493 0.916944 0.636736
O O5 0.500000 0.500000 0.000000
O O6 0.687100 0.759515 0.937938
O O7 0.500000 0.000000 0.000000
O O8 0.500000 0.500000 0.500000
O O9 0.251015 0.684889 0.549311
O O10 0.545038 0.775542 0.598937
O O11 0.000000 0.500000 0.500000
O O12 0.617394 0.928824 0.291920
O O13 0.737132 0.580190 0.820315
O O14 0.695319 0.154896 0.775018
#
# Coordination Sequence:
#
# PCOD8031978 Si02
#       6
#     2   2   2   2   2   2
#     4  12  25  44  74 108 146 199 245 300 371 436
#     4  12  28  48  75 108 149 194 250 307 354 435
#     4  11  24  44  72 109 151 188 241 306 374 438
#     4  11  23  39  71 108 145 190 246 300 368 438
#     4  11  25  48  71 104 151 192 240 305 360 428
#     4  11  25  46  73 106 147 189 243 303 369 436
#
# _framework density 24.1555
#
# number of rings (size 3 to 8) (size 9 to 14) (size 15 to 20)
#    0.000    0.667    1.667    6.000    4.667    4.000 
#    0.000    0.000    0.000    0.000    0.000    0.000 
#    0.000    0.000    0.000    0.000    0.000    0.000 
#
# Total GULP energy -148766.166344 kJ/mol
# GULP energy per Si atom -12397.180529 kJ/mol
# Density = 2.410052 g / cm^3
# Si number density = 24.155500 Si / 1000 Ang^3
#
#
#
# Elastic Constant Matrix: (Units=GPa)
#
#
# Indices 1 2 3 4 5 6 
#
# 1 170.1970 50.1044 72.9020 21.2797 17.2728 -4.1948
# 2 50.1044 111.4904 26.7498 21.3353 1.7016 0.7886
# 3 72.9020 26.7498 153.3684 35.9636 2.7336 11.0782
# 4 21.2797 21.3353 35.9636 36.8211 -1.2818 -0.6747
# 5 17.2728 1.7016 2.7336 -1.2818 39.1436 15.0874
# 6 -4.1948 0.7886 11.0782 -0.6747 15.0874 33.5598
#
#
#
# Elastic Compliance Matrix: (Units=1/GPa)
#
#
# Indices 1 2 3 4 5 6 
#
# 1 0.009269 -0.003202 -0.004250 0.000548 -0.005633 0.005180
# 2 -0.003202 0.011237 0.000973 -0.005596 0.001326 -0.001694
# 3 -0.004250 0.000973 0.010738 -0.008595 0.002961 -0.005603
# 4 0.000548 -0.005596 -0.008595 0.038562 0.000478 0.003598
# 5 -0.005633 0.001326 0.002961 0.000478 0.034401 -0.017169
# 6 0.005180 -0.001694 -0.005603 0.003598 -0.017169 0.040125
#
#
# Mechanical properties :
#
#
# Convention : Reuss Voigt Hill
#
# Bulk Modulus (GPa) = 54.68197 81.61868 68.15032
# Shear Modulus (GPa) = 30.60237 40.92490 35.76364
#
# Velocity S-wave (km/s) = 3.56320 4.12056 3.85198
# Velocity P-wave (km/s) = 6.29406 7.51671 6.93239
#
# Compressibility (1/GPa) = 0.01828756
#
# Stress axis : x y z
#
# Youngs Moduli (GPa) = 107.88328 88.98864 93.12587
#
# Poissons Ratio (x) = 0.28490 0.39578
# Poissons Ratio (y) = 0.34539 -0.09059
# Poissons Ratio (z) = 0.45849 -0.08657
#
# Static dielectric constant tensor:
#      x y z
#    x 4.347450 0.052950 0.042940 
#    y 0.052950 4.039950 0.080900 
#    z 0.042940 0.080900 5.016370 
# 
# 
# High freq. dielectric constant tensor:
#      x y z
#    x 1.993010 -0.002580 -0.002970 
#    y -0.002580 1.940800 0.014630 
#    z -0.002970 0.014630 1.972440 
# 
# From -- ./inp_files/23715.got.cif
#   From: 2010.06.25/outbox.cif.g09.slc.cpg/sg2_12_cif.got.tgz:23715.got - 2010.06.27 13:26:56.
