data_PCOD8031601
_publ_section_title
;
Structure prediction by ZEFSAII (Michael W. Deem and Ramdas Pophale) SiO2 
 PCOD8031601
Probable space group: P -1
;
_chemical_formula_sum "Si O2"
_cell_formula_units_Z 16
_cell_length_a 17.879564
_cell_length_b 11.896883
_cell_length_c 8.631554
_cell_angle_alpha 95.878391
_cell_angle_beta 41.116391
_cell_angle_gamma 128.111573
_cell_volume 677.717467
_symmetry_space_group_name_H-M "P -1"
_symmetry_group_IT_number 2
_symmetry_cell_setting 'triclinic'
loop_
_space_group_symop_operation_xyz
x,y,z
-x,-y,-z
loop_
_atom_site_type_symbol
_atom_site_label
_atom_site_fract_x
_atom_site_fract_y
_atom_site_fract_z
Si Si1 0.818371 0.275313 0.172604
Si Si2 0.357813 0.876966 0.907357
Si Si3 0.242746 0.017512 0.188288
Si Si4 0.046909 0.242585 0.864813
Si Si5 0.602324 0.342654 0.132088
Si Si6 0.433876 0.574500 0.118100
Si Si7 0.740679 0.864024 0.140252
Si Si8 0.132103 0.271247 0.079749
O O1 0.791096 0.263907 0.027973
O O2 0.588076 0.110629 0.560738
O O3 0.000000 0.500000 0.000000
O O4 0.871895 0.192899 0.127279
O O5 0.361705 0.760108 0.971987
O O6 0.262864 0.898635 0.162959
O O7 0.092451 0.942933 0.542968
O O8 0.447673 0.256024 0.916561
O O9 0.182140 0.996719 0.104114
O O10 0.203186 0.395171 0.504853
O O11 0.153610 0.324145 0.875340
O O12 0.926872 0.027035 0.994019
O O13 0.461750 0.250388 0.487545
O O14 0.516263 0.327992 0.110126
O O15 0.810219 0.575341 0.881456
O O16 0.500000 0.500000 0.000000
O O17 0.719797 0.713628 0.114389
#
# Coordination Sequence:
#
# PCOD8031601 Si02
#       8
#     2   2   2   2   2   2   2   2
#     4  11  22  44  74 104 140 190 240 290 360 431
#     4  11  24  46  70 104 149 184 237 301 359 430
#     4  12  25  45  69 101 144 185 231 294 362 426
#     4  12  23  44  69 100 136 181 239 288 362 422
#     4  12  25  45  70 102 140 183 238 296 357 425
#     4  12  26  46  70 104 141 187 240 297 361 427
#     4  12  22  45  71  99 139 180 236 298 352 428
#     4  12  26  42  69 105 136 186 236 291 359 427
#
# _framework density 23.608658999999999
#
# number of rings (size 3 to 8) (size 9 to 14) (size 15 to 20)
#    0.000    0.250    2.500    7.875    0.000    1.000 
#    2.250    0.000    0.000    0.000    0.000    0.000 
#    0.000    0.000    0.000    0.000    0.000    0.000 
#
# Total GULP energy -198326.762798 kJ/mol
# GULP energy per Si atom -12395.422675 kJ/mol
# Density = 2.355492 g / cm^3
# Si number density = 23.608659 Si / 1000 Ang^3
#
#
#
# Elastic Constant Matrix: (Units=GPa)
#
#
# Indices 1 2 3 4 5 6 
#
# 1 126.7897 47.6378 23.9612 12.5392 1.2307 -23.6695
# 2 47.6378 131.7241 21.6079 -3.6456 -15.7093 -12.3865
# 3 23.9612 21.6079 85.9358 5.8174 -0.1515 -0.3582
# 4 12.5392 -3.6456 5.8174 42.0805 3.8416 -13.1011
# 5 1.2307 -15.7093 -0.1515 3.8416 34.8420 -0.9898
# 6 -23.6695 -12.3865 -0.3582 -13.1011 -0.9898 43.8065
#
#
#
# Elastic Compliance Matrix: (Units=1/GPa)
#
#
# Indices 1 2 3 4 5 6 
#
# 1 0.010457 -0.003303 -0.001956 -0.001695 -0.001562 0.004158
# 2 -0.003303 0.009802 -0.001678 0.002209 0.004335 0.001732
# 3 -0.001956 -0.001678 0.012724 -0.001903 -0.000480 -0.002007
# 4 -0.001695 0.002209 -0.001903 0.027318 -0.001742 0.007824
# 5 -0.001562 0.004335 -0.000480 -0.001742 0.030916 0.000555
# 6 0.004158 0.001732 -0.002007 0.007824 0.000555 0.027900
#
#
# Mechanical properties :
#
#
# Convention : Reuss Voigt Hill
#
# Bulk Modulus (GPa) = 52.33377 58.98482 55.65930
# Shear Modulus (GPa) = 35.87801 40.89531 38.38666
#
# Velocity S-wave (km/s) = 3.90256 4.16651 4.03669
# Velocity P-wave (km/s) = 6.52088 6.94154 6.73450
#
# Compressibility (1/GPa) = 0.01910812
#
# Stress axis : x y z
#
# Youngs Moduli (GPa) = 95.63264 102.01550 78.59446
#
# Poissons Ratio (x) = 0.33696 0.15371
# Poissons Ratio (y) = 0.31588 0.13192
# Poissons Ratio (z) = 0.18704 0.17123
#
# Static dielectric constant tensor:
#      x y z
#    x 4.096900 0.048600 -0.062180 
#    y 0.048600 4.504360 0.045030 
#    z -0.062180 0.045030 4.200530 
# 
# 
# High freq. dielectric constant tensor:
#      x y z
#    x 1.932440 -0.001360 -0.008510 
#    y -0.001360 1.952700 -0.006660 
#    z -0.008510 -0.006660 1.932460 
# 
# From -- ./inp_files/333328.got.cif
#   From: 2010.06.25/outbox.cif.g09.slc.cpg/sg2_167_cif.got.tgz:333328.got - 2010.06.27 13:26:56.
