data_PCOD8031411
_publ_section_title
;
Structure prediction by ZEFSAII (Michael W. Deem and Ramdas Pophale) SiO2 
 PCOD8031411
Probable space group: P -1
;
_chemical_formula_sum "Si O2"
_cell_formula_units_Z 14
_cell_length_a 12.706130
_cell_length_b 6.763774
_cell_length_c 11.514072
_cell_angle_alpha 80.616308
_cell_angle_beta 55.181474
_cell_angle_gamma 119.720658
_cell_volume 550.328823
_symmetry_space_group_name_H-M "P -1"
_symmetry_group_IT_number 2
_symmetry_cell_setting 'triclinic'
loop_
_space_group_symop_operation_xyz
x,y,z
-x,-y,-z
loop_
_atom_site_type_symbol
_atom_site_label
_atom_site_fract_x
_atom_site_fract_y
_atom_site_fract_z
Si Si1 0.649843 0.337910 0.878761
Si Si2 0.930983 0.739466 0.994897
Si Si3 0.341956 0.359714 0.958742
Si Si4 0.192297 0.721018 0.737512
Si Si5 0.590341 0.690010 0.543973
Si Si6 0.098423 0.722479 0.223357
Si Si7 0.136413 0.247548 0.487626
O O1 0.845180 0.443287 0.769449
O O2 0.672973 0.475982 0.727347
O O3 0.573278 0.422207 0.006846
O O4 0.500000 0.000000 0.000000
O O5 0.853257 0.741301 0.923764
O O6 0.761761 0.414108 0.193216
O O7 0.112538 0.811823 0.855254
O O8 0.000000 0.000000 0.000000
O O9 0.449384 0.505283 0.756440
O O10 0.288709 0.069039 0.048521
O O11 0.030373 0.435354 0.791847
O O12 0.364784 0.019516 0.531046
O O13 0.500000 0.500000 0.500000
O O14 0.786565 0.803910 0.449358
O O15 0.973275 0.681944 0.405657
O O16 0.000000 0.000000 0.500000
#
# Coordination Sequence:
#
# PCOD8031411 Si02
#       7
#     2   2   2   2   2   2   2
#     4  12  28  47  76 112 147 197 255 315 389 444
#     4  11  22  43  74 104 141 196 247 311 363 452
#     4  12  26  47  74 107 159 189 249 319 386 437
#     4  11  25  43  74 107 143 196 262 293 381 456
#     4  12  30  49  74 114 161 200 245 318 390 448
#     4  12  25  48  78 107 143 199 261 311 369 461
#     4  12  27  51  80 107 153 202 257 311 374 451
#
# _framework density 25.439336999999998
#
# number of rings (size 3 to 8) (size 9 to 14) (size 15 to 20)
#    0.000    0.286    4.286    3.857    8.000    2.857 
#    0.000    0.000    0.000    0.000    0.000    0.000 
#    0.000    0.000    0.000    0.000    0.000    0.000 
#
# Total GULP energy -173454.159771 kJ/mol
# GULP energy per Si atom -12389.582841 kJ/mol
# Density = 2.538144 g / cm^3
# Si number density = 25.439337 Si / 1000 Ang^3
#
#
#
# Elastic Constant Matrix: (Units=GPa)
#
#
# Indices 1 2 3 4 5 6 
#
# 1 101.9016 27.3581 -15.4450 4.7645 15.3584 -8.3706
# 2 27.3581 173.5043 48.7931 4.9875 9.2949 3.8080
# 3 -15.4450 48.7931 132.3259 1.8613 13.3190 4.0897
# 4 4.7645 4.9875 1.8613 56.6535 -5.6329 0.5353
# 5 15.3584 9.2949 13.3190 -5.6329 24.9198 -11.0897
# 6 -8.3706 3.8080 4.0897 0.5353 -11.0897 38.3137
#
#
#
# Elastic Compliance Matrix: (Units=1/GPa)
#
#
# Indices 1 2 3 4 5 6 
#
# 1 0.012348 -0.002325 0.003213 -0.001820 -0.008849 0.000050
# 2 -0.002325 0.006953 -0.002784 -0.000333 -0.000168 -0.000946
# 3 0.003213 -0.002784 0.009785 -0.001060 -0.007385 -0.002188
# 4 -0.001820 -0.000333 -0.001060 0.018514 0.006623 0.001407
# 5 -0.008849 -0.000168 -0.007385 0.006623 0.058020 0.015573
# 6 0.000050 -0.000946 -0.002188 0.001407 0.015573 0.030927
#
#
# Mechanical properties :
#
#
# Convention : Reuss Voigt Hill
#
# Bulk Modulus (GPa) = 39.53728 58.79378 49.16553
# Shear Modulus (GPa) = 33.60938 47.11244 40.36091
#
# Velocity S-wave (km/s) = 3.63872 4.30810 3.98748
# Velocity P-wave (km/s) = 5.76448 6.92155 6.36934
#
# Compressibility (1/GPa) = 0.02529258
#
# Stress axis : x y z
#
# Youngs Moduli (GPa) = 80.98691 143.83266 102.20043
#
# Poissons Ratio (x) = 0.33446 -0.32841
# Poissons Ratio (y) = 0.18832 0.28455
# Poissons Ratio (z) = -0.26025 0.40046
#
# Static dielectric constant tensor:
#      x y z
#    x 6.711570 -0.327560 0.217620 
#    y -0.327560 4.884130 -0.021490 
#    z 0.217620 -0.021490 4.447450 
# 
# 
# High freq. dielectric constant tensor:
#      x y z
#    x 2.036190 -0.011030 0.007390 
#    y -0.011030 2.023250 -0.004550 
#    z 0.007390 -0.004550 2.020570 
# 
# From -- ./inp_files/441907.got.cif
#   From: 2010.06.25/outbox.cif.g09.slc.cpg/sg2_221_cif.got.tgz:441907.got - 2010.06.27 13:26:56.
