data_PCOD8031903
_publ_section_title
;
Structure prediction by ZEFSAII (Michael W. Deem and Ramdas Pophale) SiO2 
 PCOD8031903
Probable space group: P -1
;
_chemical_formula_sum "Si O2"
_cell_formula_units_Z 16
_cell_length_a 5.124034
_cell_length_b 21.265861
_cell_length_c 11.064726
_cell_angle_alpha 144.737013
_cell_angle_beta 95.172506
_cell_angle_gamma 84.588787
_cell_volume 692.797705
_symmetry_space_group_name_H-M "P -1"
_symmetry_group_IT_number 2
_symmetry_cell_setting 'triclinic'
loop_
_space_group_symop_operation_xyz
x,y,z
-x,-y,-z
loop_
_atom_site_type_symbol
_atom_site_label
_atom_site_fract_x
_atom_site_fract_y
_atom_site_fract_z
Si Si1 0.852238 0.765666 0.797298
Si Si2 0.642122 0.256307 0.085016
Si Si3 0.960321 0.389117 0.892956
Si Si4 0.748792 0.009437 0.116112
Si Si5 0.235646 0.976788 0.384488
Si Si6 0.488844 0.669187 0.057372
Si Si7 0.935007 0.779473 0.563151
Si Si8 0.540042 0.866751 0.515755
O O1 0.875573 0.714418 0.582565
O O2 0.581308 0.747267 0.827186
O O3 0.091191 0.703972 0.781076
O O4 0.887568 0.893559 0.971984
O O5 0.546161 0.336737 0.098670
O O6 0.743655 0.141444 0.856919
O O7 0.212828 0.359932 0.940126
O O8 0.713460 0.406640 0.000368
O O9 0.898182 0.295259 0.643274
O O10 0.000000 0.500000 0.000000
O O11 0.944292 0.100666 0.215776
O O12 0.673851 0.047700 0.308078
O O13 0.500000 0.000000 0.000000
O O14 0.212193 0.067272 0.419745
O O15 0.500000 0.000000 0.500000
O O16 0.000000 0.000000 0.500000
O O17 0.415855 0.793561 0.290586
O O18 0.645692 0.793735 0.516900
#
# Coordination Sequence:
#
# PCOD8031903 Si02
#       8
#     2   2   2   2   2   2   2   2
#     4  12  25  39  60  91 137 181 217 252 302 387
#     4  12  25  40  59  91 133 180 214 252 314 389
#     4  11  25  47  76 100 123 157 214 290 349 387
#     4  12  22  39  56  94 136 182 219 259 313 378
#     4  12  25  36  54  85 131 179 222 254 298 372
#     4  11  24  43  68  97 130 166 213 272 336 391
#     4  11  25  40  64  94 131 170 225 272 328 377
#     4  11  23  38  60  90 134 174 224 274 315 368
#
# _framework density 23.094763
#
# number of rings (size 3 to 8) (size 9 to 14) (size 15 to 20)
#    0.000    0.500    5.000    3.750    5.250    0.000 
#    0.000    0.000    0.000    4.500    0.000    0.000 
#    0.000    0.000    0.000    0.000    0.000    0.000 
#
# Total GULP energy -198274.564759 kJ/mol
# GULP energy per Si atom -12392.160297 kJ/mol
# Density = 2.304220 g / cm^3
# Si number density = 23.094763 Si / 1000 Ang^3
#
#
#
# Elastic Constant Matrix: (Units=GPa)
#
#
# Indices 1 2 3 4 5 6 
#
# 1 116.5137 22.4777 5.3140 -22.9701 -3.8604 11.0203
# 2 22.4777 102.9557 19.2638 -26.6969 2.7827 7.1019
# 3 5.3140 19.2638 24.9909 -17.8872 1.1855 -6.8648
# 4 -22.9701 -26.6969 -17.8872 42.8321 7.4222 0.1566
# 5 -3.8604 2.7827 1.1855 7.4222 27.3872 -14.1555
# 6 11.0203 7.1019 -6.8648 0.1566 -14.1555 45.4009
#
#
#
# Elastic Compliance Matrix: (Units=1/GPa)
#
#
# Indices 1 2 3 4 5 6 
#
# 1 0.010018 -0.000823 0.002245 0.006068 -0.001516 -0.002457
# 2 -0.000823 0.013104 -0.006772 0.005786 -0.005028 -0.004462
# 3 0.002245 -0.006772 0.065230 0.024859 -0.003858 0.009089
# 4 0.006068 0.005786 0.024859 0.043046 -0.014111 -0.003168
# 5 -0.001516 -0.005028 -0.003858 -0.014111 0.049022 0.015904
# 6 -0.002457 -0.004462 0.009089 -0.003168 0.015904 0.029664
#
#
# Mechanical properties :
#
#
# Convention : Reuss Voigt Hill
#
# Bulk Modulus (GPa) = 12.87817 37.61903 25.24860
# Shear Modulus (GPa) = 20.27028 36.28438 28.27733
#
# Velocity S-wave (km/s) = 2.96581 3.96802 3.50294
# Velocity P-wave (km/s) = 4.16130 6.10884 5.22658
#
# Compressibility (1/GPa) = 0.07765076
#
# Stress axis : x y z
#
# Youngs Moduli (GPa) = 99.82435 76.31515 15.33049
#
# Poissons Ratio (x) = 0.06281 -0.03441
# Poissons Ratio (y) = 0.08216 0.10381
# Poissons Ratio (z) = -0.22408 0.51678
#
# Static dielectric constant tensor:
#      x y z
#    x 4.300750 0.017010 0.019820 
#    y 0.017010 4.406220 -0.551150 
#    z 0.019820 -0.551150 4.331810 
# 
# 
# High freq. dielectric constant tensor:
#      x y z
#    x 1.920000 0.001930 -0.005600 
#    y 0.001930 1.910830 -0.043290 
#    z -0.005600 -0.043290 1.890360 
# 
# From -- ./inp_files/139565.got.cif
#   From: 2010.06.25/outbox.cif.g09.slc.cpg/sg2_70_cif.got.tgz:139565.got - 2010.06.27 13:26:56.
