data_PCOD8031427
_publ_section_title
;
Structure prediction by ZEFSAII (Michael W. Deem and Ramdas Pophale) SiO2 
 PCOD8031427
Probable space group: P -1
;
_chemical_formula_sum "Si O2"
_cell_formula_units_Z 16
_cell_length_a 8.613016
_cell_length_b 13.731942
_cell_length_c 17.907262
_cell_angle_alpha 137.395974
_cell_angle_beta 43.787873
_cell_angle_gamma 149.845271
_cell_volume 697.082786
_symmetry_space_group_name_H-M "P -1"
_symmetry_group_IT_number 2
_symmetry_cell_setting 'triclinic'
loop_
_space_group_symop_operation_xyz
x,y,z
-x,-y,-z
loop_
_atom_site_type_symbol
_atom_site_label
_atom_site_fract_x
_atom_site_fract_y
_atom_site_fract_z
Si Si1 0.124214 0.968321 0.007611
Si Si2 0.200200 0.544182 0.790236
Si Si3 0.360890 0.025028 0.184115
Si Si4 0.873430 0.637769 0.436291
Si Si5 0.560854 0.604248 0.827712
Si Si6 0.129193 0.341794 0.963195
Si Si7 0.197509 0.567688 0.397256
Si Si8 0.916606 0.960123 0.418362
O O1 0.323210 0.179021 0.102275
O O2 0.841929 0.768379 0.044282
O O3 0.336545 0.937341 0.882088
O O4 0.000000 0.000000 0.000000
O O5 0.515234 0.768262 0.776076
O O6 0.057501 0.378336 0.681654
O O7 0.279612 0.468819 0.787193
O O8 0.938249 0.536285 0.906514
O O9 0.164532 0.845523 0.090323
O O10 0.166843 0.969443 0.295318
O O11 0.500000 0.500000 0.500000
O O12 0.033464 0.589402 0.404029
O O13 0.056845 0.865817 0.521606
O O14 0.441245 0.506265 0.897049
O O15 0.835192 0.613251 0.719796
O O16 0.565041 0.759483 0.399397
O O17 0.000000 0.500000 0.500000
O O18 0.000000 0.000000 0.500000
#
# Coordination Sequence:
#
# PCOD8031427 Si02
#       8
#     2   2   2   2   2   2   2   2
#     4  11  26  43  68 109 149 191 234 300 373 436
#     4  11  22  43  75 103 145 191 242 292 372 448
#     4  11  22  46  73 104 144 192 246 297 366 448
#     4  12  26  47  74 107 143 195 243 304 372 441
#     4  12  24  44  72 103 142 189 240 302 369 436
#     4  11  23  45  72 104 144 188 246 295 365 445
#     4  12  29  48  71 106 145 193 254 308 369 443
#     4  12  26  48  76 109 145 193 251 309 373 439
#
# _framework density 22.952797
#
# number of rings (size 3 to 8) (size 9 to 14) (size 15 to 20)
#    0.000    0.500    5.000    3.750    3.500    0.500 
#    4.500    0.000    0.000    0.000    0.000    0.000 
#    0.000    0.000    0.000    0.000    0.000    0.000 
#
# Total GULP energy -198309.044200 kJ/mol
# GULP energy per Si atom -12394.315262 kJ/mol
# Density = 2.290056 g / cm^3
# Si number density = 22.952797 Si / 1000 Ang^3
#
#
#
# Elastic Constant Matrix: (Units=GPa)
#
#
# Indices 1 2 3 4 5 6 
#
# 1 156.6896 8.3489 50.6862 -10.1589 -3.0975 -17.3947
# 2 8.3489 53.5066 40.0239 -9.1382 -14.5597 -20.2155
# 3 50.6862 40.0239 172.8455 -17.7568 -7.0257 -12.1153
# 4 -10.1589 -9.1382 -17.7568 38.5345 -5.0934 5.2263
# 5 -3.0975 -14.5597 -7.0257 -5.0934 40.8490 6.1443
# 6 -17.3947 -20.2155 -12.1153 5.2263 6.1443 35.7128
#
#
#
# Elastic Compliance Matrix: (Units=1/GPa)
#
#
# Indices 1 2 3 4 5 6 
#
# 1 0.007538 0.002428 -0.002367 0.001003 0.000553 0.004001
# 2 0.002428 0.031701 -0.006199 0.004438 0.008733 0.014872
# 3 -0.002367 -0.006199 0.007928 0.001788 -0.000479 -0.002151
# 4 0.001003 0.004438 0.001788 0.029088 0.005841 -0.001654
# 5 0.000553 0.008733 -0.000479 0.005841 0.028385 -0.000688
# 6 0.004001 0.014872 -0.002151 -0.001654 -0.000688 0.037999
#
#
# Mechanical properties :
#
#
# Convention : Reuss Voigt Hill
#
# Bulk Modulus (GPa) = 28.66062 64.57329 46.61696
# Shear Modulus (GPa) = 30.02169 41.95144 35.98657
#
# Velocity S-wave (km/s) = 3.62052 4.27983 3.96391
# Velocity P-wave (km/s) = 5.47644 7.25374 6.42682
#
# Compressibility (1/GPa) = 0.03489108
#
# Stress axis : x y z
#
# Youngs Moduli (GPa) = 132.65347 31.54493 126.12839
#
# Poissons Ratio (x) = -0.07658 0.29852
# Poissons Ratio (y) = -0.32203 0.78188
# Poissons Ratio (z) = 0.31396 0.19555
#
# Static dielectric constant tensor:
#      x y z
#    x 4.258820 0.412960 0.500060 
#    y 0.412960 7.694480 2.843350 
#    z 0.500060 2.843350 6.391040 
# 
# 
# High freq. dielectric constant tensor:
#      x y z
#    x 1.913090 -0.015250 0.003490 
#    y -0.015250 1.898480 0.012480 
#    z 0.003490 0.012480 1.928620 
# 
# From -- ./inp_files/561385.got.cif
#   From: 2010.06.25/outbox.cif.g09.slc.cpg/sg2_281_cif.got.tgz:561385.got - 2010.06.27 13:26:56.
