data_PCOD8031542
_publ_section_title
;
Structure prediction by ZEFSAII (Michael W. Deem and Ramdas Pophale) SiO2 
 PCOD8031542
Probable space group: P -1
;
_chemical_formula_sum "Si O2"
_cell_formula_units_Z 16
_cell_length_a 13.977072
_cell_length_b 11.961271
_cell_length_c 14.906890
_cell_angle_alpha 40.795980
_cell_angle_beta 64.156016
_cell_angle_gamma 33.348370
_cell_volume 749.344741
_symmetry_space_group_name_H-M "P -1"
_symmetry_group_IT_number 2
_symmetry_cell_setting 'triclinic'
loop_
_space_group_symop_operation_xyz
x,y,z
-x,-y,-z
loop_
_atom_site_type_symbol
_atom_site_label
_atom_site_fract_x
_atom_site_fract_y
_atom_site_fract_z
Si Si1 0.055463 0.967520 0.897921
Si Si2 0.475637 0.237182 0.117612
Si Si3 0.190522 0.111105 0.675771
Si Si4 0.726207 0.305858 0.690203
Si Si5 0.507247 0.806705 0.323074
Si Si6 0.083241 0.231707 0.187511
Si Si7 0.409528 0.558429 0.793613
Si Si8 0.313335 0.387362 0.816775
O O1 0.126289 0.065603 0.805874
O O2 0.235424 0.589490 0.025847
O O3 0.860398 0.221602 0.758220
O O4 0.000000 0.000000 0.000000
O O5 0.615199 0.054553 0.261228
O O6 0.489086 0.035040 0.189536
O O7 0.537696 0.299672 0.982370
O O8 0.000000 0.500000 0.500000
O O9 0.255587 0.920214 0.673905
O O10 0.622788 0.590398 0.496666
O O11 0.559197 0.425546 0.738523
O O12 0.866600 0.990557 0.764585
O O13 0.639176 0.582713 0.315258
O O14 0.287592 0.011161 0.290686
O O15 0.903667 0.418130 0.216875
O O16 0.000000 0.500000 0.000000
O O17 0.282852 0.577784 0.788146
O O18 0.500000 0.000000 0.000000
#
# Coordination Sequence:
#
# PCOD8031542 Si02
#       8
#     2   2   2   2   2   2   2   2
#     4  11  23  44  71  96 128 182 233 279 343 416
#     4  11  23  44  69  95 135 180 231 280 342 418
#     4  11  24  44  67 101 135 175 230 290 351 400
#     4  12  25  43  68 104 139 171 232 296 345 405
#     4  12  26  45  66 107 145 176 229 291 347 405
#     4  12  23  43  69 100 139 188 235 272 342 422
#     4  11  22  44  71  95 136 186 229 281 342 414
#     4  12  23  44  72 101 140 186 230 282 338 420
#
# _framework density 21.351987999999999
#
# number of rings (size 3 to 8) (size 9 to 14) (size 15 to 20)
#    0.000    0.500    3.750    6.375    0.000    1.500 
#    9.000    2.500    0.000    0.000    0.000    0.000 
#    0.000    0.000    0.000    0.000    0.000    0.000 
#
# Total GULP energy -198424.905448 kJ/mol
# GULP energy per Si atom -12401.556591 kJ/mol
# Density = 2.130339 g / cm^3
# Si number density = 21.351988 Si / 1000 Ang^3
#
#
#
# Elastic Constant Matrix: (Units=GPa)
#
#
# Indices 1 2 3 4 5 6 
#
# 1 115.5875 43.2782 30.2733 -7.6244 15.3690 -0.5032
# 2 43.2782 129.1754 59.6461 7.3029 1.3112 -11.4585
# 3 30.2733 59.6461 101.8495 -2.9704 20.3894 1.6778
# 4 -7.6244 7.3029 -2.9704 31.9562 8.2349 -4.9569
# 5 15.3690 1.3112 20.3894 8.2349 37.6925 -2.7957
# 6 -0.5032 -11.4585 1.6778 -4.9569 -2.7957 42.1831
#
#
#
# Elastic Compliance Matrix: (Units=1/GPa)
#
#
# Indices 1 2 3 4 5 6 
#
# 1 0.011247 -0.004317 0.000529 0.005108 -0.005901 -0.000850
# 2 -0.004317 0.013738 -0.008521 -0.006322 0.007553 0.003777
# 3 0.000529 -0.008521 0.017002 0.005930 -0.010634 -0.002992
# 4 0.005108 -0.006322 0.005930 0.038198 -0.013289 0.001716
# 5 -0.005901 0.007553 -0.010634 -0.013289 0.037577 0.003333
# 6 -0.000850 0.003777 -0.002992 0.001716 0.003333 0.025264
#
#
# Mechanical properties :
#
#
# Convention : Reuss Voigt Hill
#
# Bulk Modulus (GPa) = 57.56859 68.11194 62.84026
# Shear Modulus (GPa) = 28.82966 36.59401 32.71184
#
# Velocity S-wave (km/s) = 3.67851 4.14435 3.91836
# Velocity P-wave (km/s) = 6.71283 7.40741 7.06866
#
# Compressibility (1/GPa) = 0.01737058
#
# Stress axis : x y z
#
# Youngs Moduli (GPa) = 88.91257 72.79108 58.81590
#
# Poissons Ratio (x) = 0.31423 -0.03114
# Poissons Ratio (y) = 0.38383 0.50116
# Poissons Ratio (z) = -0.04708 0.62024
#
# Static dielectric constant tensor:
#      x y z
#    x 4.085300 -0.081110 0.078970 
#    y -0.081110 3.978110 0.044930 
#    z 0.078970 0.044930 3.860900 
# 
# 
# High freq. dielectric constant tensor:
#      x y z
#    x 1.849050 -0.001170 -0.004060 
#    y -0.001170 1.842770 0.001950 
#    z -0.004060 0.001950 1.837060 
# 
# From -- ./inp_files/206196.got.cif
#   From: 2010.06.25/outbox.cif.g09.slc.cpg/sg2_104_cif.got.tgz:206196.got - 2010.06.27 13:26:56.
