data_PCOD8031628
_publ_section_title
;
Structure prediction by ZEFSAII (Michael W. Deem and Ramdas Pophale) SiO2 
 PCOD8031628
Probable space group: P -1
;
_chemical_formula_sum "Si O2"
_cell_formula_units_Z 16
_cell_length_a 9.269440
_cell_length_b 14.681812
_cell_length_c 12.047475
_cell_angle_alpha 30.871781
_cell_angle_beta 84.955551
_cell_angle_gamma 97.993008
_cell_volume 760.651339
_symmetry_space_group_name_H-M "P -1"
_symmetry_group_IT_number 2
_symmetry_cell_setting 'triclinic'
loop_
_space_group_symop_operation_xyz
x,y,z
-x,-y,-z
loop_
_atom_site_type_symbol
_atom_site_label
_atom_site_fract_x
_atom_site_fract_y
_atom_site_fract_z
Si Si1 0.790804 0.827456 0.053114
Si Si2 0.468087 0.776699 0.230934
Si Si3 0.346984 0.704400 0.548244
Si Si4 0.370617 0.992804 0.428524
Si Si5 0.983308 0.282364 0.244909
Si Si6 0.740328 0.694650 0.948847
Si Si7 0.145343 0.455174 0.503065
Si Si8 0.962673 0.263842 0.516589
O O1 0.609466 0.749690 0.188133
O O2 0.874098 0.736647 0.226987
O O3 0.797693 0.747759 0.014624
O O4 0.880420 0.060582 0.801608
O O5 0.458178 0.712356 0.428008
O O6 0.309425 0.644360 0.312582
O O7 0.500000 0.000000 0.000000
O O8 0.402966 0.909236 0.396528
O O9 0.167136 0.643668 0.578161
O O10 0.351065 0.541234 0.804560
O O11 0.197073 0.857473 0.630183
O O12 0.500000 0.000000 0.500000
O O13 0.378487 0.208411 0.181075
O O14 0.103559 0.229910 0.217745
O O15 0.015827 0.239381 0.414548
O O16 0.000000 0.500000 0.000000
O O17 0.120575 0.402494 0.428434
O O18 0.000000 0.500000 0.500000
#
# Coordination Sequence:
#
# PCOD8031628 Si02
#       8
#     2   2   2   2   2   2   2   2
#     4  12  24  43  72  97 138 182 226 275 353 408
#     4  12  23  43  67  97 137 185 218 275 352 401
#     4  11  22  45  69  94 144 176 222 278 347 399
#     4  11  25  46  68 103 134 174 235 284 328 406
#     4  11  23  46  73  96 138 184 223 277 349 403
#     4  12  22  45  76  93 134 191 222 274 352 403
#     4  12  24  42  68 102 136 176 234 281 330 409
#     4  11  22  45  66 102 138 172 230 288 325 407
#
# _framework density 21.034604000000002
#
# number of rings (size 3 to 8) (size 9 to 14) (size 15 to 20)
#    0.000    0.500    8.750    1.125    0.000    0.500 
#    6.750    1.250    0.000    0.000    0.000    0.000 
#    0.000    0.000    0.000    0.000    0.000    0.000 
#
# Total GULP energy -198407.912315 kJ/mol
# GULP energy per Si atom -12400.494520 kJ/mol
# Density = 2.098673 g / cm^3
# Si number density = 21.034604 Si / 1000 Ang^3
#
#
#
# Elastic Constant Matrix: (Units=GPa)
#
#
# Indices 1 2 3 4 5 6 
#
# 1 118.1056 83.0039 63.4558 8.2391 9.5288 2.0923
# 2 83.0039 133.7595 42.8522 18.3466 -7.7256 0.5154
# 3 63.4558 42.8522 138.6528 -2.8463 13.1653 4.7856
# 4 8.2391 18.3466 -2.8463 36.6865 -7.7198 -0.6063
# 5 9.5288 -7.7256 13.1653 -7.7198 43.0369 7.5250
# 6 2.0923 0.5154 4.7856 -0.6063 7.5250 39.8733
#
#
#
# Elastic Compliance Matrix: (Units=1/GPa)
#
#
# Indices 1 2 3 4 5 6 
#
# 1 0.018747 -0.010240 -0.005004 -0.000445 -0.004646 0.000619
# 2 -0.010240 0.014779 -0.000365 -0.004209 0.004364 -0.000497
# 3 -0.005004 -0.000365 0.009818 0.001733 -0.001546 -0.000593
# 4 -0.000445 -0.004209 0.001733 0.030509 0.004371 -0.000491
# 5 -0.004646 0.004364 -0.001546 0.004371 0.027123 -0.004679
# 6 0.000619 -0.000497 -0.000593 -0.000491 -0.004679 0.026000
#
#
# Mechanical properties :
#
#
# Convention : Reuss Voigt Hill
#
# Bulk Modulus (GPa) = 82.46802 85.46020 83.96411
# Shear Modulus (GPa) = 30.81916 37.33309 34.07613
#
# Velocity S-wave (km/s) = 3.83190 4.21746 4.02929
# Velocity P-wave (km/s) = 7.67261 8.02699 7.85180
#
# Compressibility (1/GPa) = 0.01212591
#
# Stress axis : x y z
#
# Youngs Moduli (GPa) = 53.34087 67.66535 101.85210
#
# Poissons Ratio (x) = 0.69289 0.50971
# Poissons Ratio (y) = 0.54621 0.03714
# Poissons Ratio (z) = 0.26694 0.02467
#
# Static dielectric constant tensor:
#      x y z
#    x 2.548380 -0.644360 -0.166050 
#    y -0.644360 3.873080 -0.074340 
#    z -0.166050 -0.074340 4.230680 
# 
# 
# High freq. dielectric constant tensor:
#      x y z
#    x 1.806400 -0.017360 0.010960 
#    y -0.017360 1.831480 -0.002390 
#    z 0.010960 -0.002390 1.839240 
# 
# From -- ./inp_files/398179.got.cif
#   From: 2010.06.25/outbox.cif.g09.slc.cpg/sg2_200_cif.got.tgz:398179.got - 2010.06.27 13:26:56.
