data_PCOD8031250
_publ_section_title
;
Structure prediction by ZEFSAII (Michael W. Deem and Ramdas Pophale) SiO2 
 PCOD8031250
Probable space group: P -1
;
_chemical_formula_sum "Si O2"
_cell_formula_units_Z 14
_cell_length_a 16.577793
_cell_length_b 23.183635
_cell_length_c 6.724104
_cell_angle_alpha 132.334286
_cell_angle_beta 121.648985
_cell_angle_gamma 22.122635
_cell_volume 672.244972
_symmetry_space_group_name_H-M "P -1"
_symmetry_group_IT_number 2
_symmetry_cell_setting 'triclinic'
loop_
_space_group_symop_operation_xyz
x,y,z
-x,-y,-z
loop_
_atom_site_type_symbol
_atom_site_label
_atom_site_fract_x
_atom_site_fract_y
_atom_site_fract_z
Si Si1 0.638179 0.393761 0.232515
Si Si2 0.089126 0.020011 0.132007
Si Si3 0.113330 0.116726 0.738258
Si Si4 0.429408 0.819334 0.794158
Si Si5 0.408017 0.032260 0.755360
Si Si6 0.395082 0.462707 0.814402
Si Si7 0.741201 0.720307 0.139497
O O1 0.500000 0.500000 0.500000
O O2 0.561716 0.523190 0.300059
O O3 0.904907 0.203173 0.183225
O O4 0.583958 0.351877 0.958139
O O5 0.114576 0.038008 0.424318
O O6 0.322714 0.851722 0.917323
O O7 0.000000 0.000000 0.000000
O O8 0.233056 0.094209 0.714713
O O9 0.239560 0.006650 0.853989
O O10 0.856311 0.335658 0.957004
O O11 0.565762 0.657834 0.452916
O O12 0.607083 0.748062 0.941189
O O13 0.265886 0.202804 0.844654
O O14 0.626394 0.834730 0.461394
O O15 0.500000 0.000000 0.000000
O O16 0.000000 0.500000 0.000000
#
# Coordination Sequence:
#
# PCOD8031250 Si02
#       7
#     2   2   2   2   2   2   2
#     4  11  22  43  63  95 137 182 226 278 334 398
#     4  12  25  43  69  97 144 184 226 285 340 407
#     4  12  25  46  70 100 136 187 228 280 352 414
#     4  12  26  45  67 104 136 177 235 282 346 421
#     4  11  25  48  74 101 140 180 229 292 357 418
#     4  11  26  40  68  98 135 180 230 277 338 407
#     4  11  27  47  73 104 140 178 232 295 354 418
#
# _framework density 20.825742999999999
#
# number of rings (size 3 to 8) (size 9 to 14) (size 15 to 20)
#    0.000    0.571    5.714    1.714    4.000    4.000 
#    2.571    0.000    0.000    0.000    0.000    0.000 
#    0.000    0.000    0.000    0.000    0.000    0.000 
#
# Total GULP energy -173665.736140 kJ/mol
# GULP energy per Si atom -12404.695439 kJ/mol
# Density = 2.077834 g / cm^3
# Si number density = 20.825743 Si / 1000 Ang^3
#
#
#
# Elastic Constant Matrix: (Units=GPa)
#
#
# Indices 1 2 3 4 5 6 
#
# 1 137.4605 27.8493 50.8711 0.3064 -2.5417 -10.4166
# 2 27.8493 107.6797 41.8855 -6.8998 -0.8963 -12.9444
# 3 50.8711 41.8855 123.2199 -6.8883 1.0846 -2.9888
# 4 0.3064 -6.8998 -6.8883 38.4521 -4.7843 2.4157
# 5 -2.5417 -0.8963 1.0846 -4.7843 41.2347 -4.4309
# 6 -10.4166 -12.9444 -2.9888 2.4157 -4.4309 27.9014
#
#
#
# Elastic Compliance Matrix: (Units=1/GPa)
#
#
# Indices 1 2 3 4 5 6 
#
# 1 0.008918 -0.000675 -0.003440 -0.000885 0.000830 0.002856
# 2 -0.000675 0.011457 -0.003439 0.001266 0.000954 0.004737
# 3 -0.003440 -0.003439 0.010740 0.001380 -0.000618 -0.001947
# 4 -0.000885 0.001266 0.001380 0.026941 0.002905 -0.001466
# 5 0.000830 0.000954 -0.000618 0.002905 0.025153 0.004429
# 6 0.002856 0.004737 -0.001947 -0.001466 0.004429 0.039726
#
#
# Mechanical properties :
#
#
# Convention : Reuss Voigt Hill
#
# Bulk Modulus (GPa) = 62.46631 67.73022 65.09826
# Shear Modulus (GPa) = 34.87244 38.03458 36.45351
#
# Velocity S-wave (km/s) = 4.09649 4.27819 4.18832
# Velocity P-wave (km/s) = 7.24119 7.54962 7.39701
#
# Compressibility (1/GPa) = 0.01600863
#
# Stress axis : x y z
#
# Youngs Moduli (GPa) = 112.12799 87.27910 93.10949
#
# Poissons Ratio (x) = 0.05890 0.32030
# Poissons Ratio (y) = 0.07567 0.32018
# Poissons Ratio (z) = 0.38572 0.30013
#
# Static dielectric constant tensor:
#      x y z
#    x 4.135110 -0.665490 -0.108660 
#    y -0.665490 4.514610 -0.152700 
#    z -0.108660 -0.152700 3.857800 
# 
# 
# High freq. dielectric constant tensor:
#      x y z
#    x 1.825100 -0.001690 -0.002980 
#    y -0.001690 1.821170 -0.008920 
#    z -0.002980 -0.008920 1.830180 
# 
# From -- ./inp_files/46903.got.cif
#   From: 2010.06.25/outbox.cif.g09.slc.cpg/sg2_24_cif.got.tgz:46903.got - 2010.06.27 13:26:56.
