data_PCOD8031659
_publ_section_title
;
Structure prediction by ZEFSAII (Michael W. Deem and Ramdas Pophale) SiO2 
 PCOD8031659
Probable space group: P -1
;
_chemical_formula_sum "Si O2"
_cell_formula_units_Z 14
_cell_length_a 12.368436
_cell_length_b 11.257675
_cell_length_c 8.983173
_cell_angle_alpha 50.753455
_cell_angle_beta 62.901036
_cell_angle_gamma 44.403693
_cell_volume 677.773065
_symmetry_space_group_name_H-M "P -1"
_symmetry_group_IT_number 2
_symmetry_cell_setting 'triclinic'
loop_
_space_group_symop_operation_xyz
x,y,z
-x,-y,-z
loop_
_atom_site_type_symbol
_atom_site_label
_atom_site_fract_x
_atom_site_fract_y
_atom_site_fract_z
Si Si1 0.726140 0.096197 0.737366
Si Si2 0.440772 0.310400 0.944652
Si Si3 0.600516 0.061261 0.333580
Si Si4 0.846388 0.681455 0.876974
Si Si5 0.920214 0.697183 0.481648
Si Si6 0.017846 0.950388 0.200274
Si Si7 0.702485 0.252092 0.315144
O O1 0.552101 0.205445 0.816055
O O2 0.824889 0.096037 0.806357
O O3 0.722117 0.215303 0.507639
O O4 0.805307 0.876932 0.814969
O O5 0.395228 0.520722 0.835559
O O6 0.530758 0.184162 0.132060
O O7 0.289512 0.329864 0.991148
O O8 0.608002 0.183064 0.361447
O O9 0.500000 0.000000 0.500000
O O10 0.771897 0.866243 0.345515
O O11 0.868497 0.677144 0.690323
O O12 0.000000 0.500000 0.000000
O O13 0.000000 0.500000 0.500000
O O14 0.032619 0.756373 0.376461
O O15 0.871717 0.136450 0.229459
O O16 0.000000 0.000000 0.000000
#
# Coordination Sequence:
#
# PCOD8031659 Si02
#       7
#     2   2   2   2   2   2   2
#     4  12  24  47  69 102 141 178 231 290 345 402
#     4  12  26  43  70 103 138 183 230 281 349 414
#     4  11  22  45  69  96 142 180 226 286 339 405
#     4  12  27  46  71 101 139 185 227 286 345 413
#     4  11  26  46  69 104 135 180 232 278 345 410
#     4  11  25  44  73  99 137 185 231 284 341 411
#     4  11  24  44  67 102 139 181 231 283 347 405
#
# _framework density 20.655881000000001
#
# number of rings (size 3 to 8) (size 9 to 14) (size 15 to 20)
#    0.000    0.571    4.286    4.286    8.000    1.143 
#    0.000    0.000    0.000    0.000    0.000    0.000 
#    0.000    0.000    0.000    0.000    0.000    0.000 
#
# Total GULP energy -173698.101773 kJ/mol
# GULP energy per Si atom -12407.007269 kJ/mol
# Density = 2.060887 g / cm^3
# Si number density = 20.655881 Si / 1000 Ang^3
#
#
#
# Elastic Constant Matrix: (Units=GPa)
#
#
# Indices 1 2 3 4 5 6 
#
# 1 132.0890 59.6634 49.1085 -1.3441 -4.3232 -12.6554
# 2 59.6634 157.2173 74.9798 -11.5456 -5.7636 6.6845
# 3 49.1085 74.9798 143.4174 2.6665 5.7043 -8.4437
# 4 -1.3441 -11.5456 2.6665 49.6330 -0.4904 -4.5159
# 5 -4.3232 -5.7636 5.7043 -0.4904 40.9921 -4.0547
# 6 -12.6554 6.6845 -8.4437 -4.5159 -4.0547 34.2904
#
#
#
# Elastic Compliance Matrix: (Units=1/GPa)
#
#
# Indices 1 2 3 4 5 6 
#
# 1 0.010025 -0.003179 -0.001580 0.000000 0.001233 0.004076
# 2 -0.003179 0.010085 -0.004502 0.002169 0.001359 -0.003801
# 3 -0.001580 -0.004502 0.010112 -0.001438 -0.001991 0.002360
# 4 0.000000 0.002169 -0.001438 0.020930 0.000963 0.002093
# 5 0.001233 0.001359 -0.001991 0.000963 0.025283 0.002817
# 6 0.004076 -0.003801 0.002360 0.002093 0.002817 0.032598
#
#
# Mechanical properties :
#
#
# Convention : Reuss Voigt Hill
#
# Bulk Modulus (GPa) = 85.46890 88.91414 87.19152
# Shear Modulus (GPa) = 38.03588 41.58123 39.80856
#
# Velocity S-wave (km/s) = 4.29582 4.49157 4.39478
# Velocity P-wave (km/s) = 8.12851 8.36886 8.24956
#
# Compressibility (1/GPa) = 0.01170016
#
# Stress axis : x y z
#
# Youngs Moduli (GPa) = 99.75203 99.15709 98.89089
#
# Poissons Ratio (x) = 0.31524 0.15621
# Poissons Ratio (y) = 0.31713 0.44522
# Poissons Ratio (z) = 0.15757 0.44642
#
# Static dielectric constant tensor:
#      x y z
#    x 3.893990 -0.074180 -0.129860 
#    y -0.074180 3.829640 -0.073100 
#    z -0.129860 -0.073100 4.042020 
# 
# 
# High freq. dielectric constant tensor:
#      x y z
#    x 1.818820 -0.001820 -0.004610 
#    y -0.001820 1.815200 -0.003120 
#    z -0.004610 -0.003120 1.827430 
# 
# From -- ./inp_files/151373.got.cif
#   From: 2010.06.25/outbox.cif.g09.slc.cpg/sg2_76_cif.got.tgz:151373.got - 2010.06.27 13:26:56.
