data_PCOD8031061
_publ_section_title
;
Structure prediction by ZEFSAII (Michael W. Deem and Ramdas Pophale) SiO2 
 PCOD8031061
Probable space group: P -1
;
_chemical_formula_sum "Si O2"
_cell_formula_units_Z 16
_cell_length_a 8.359852
_cell_length_b 8.813587
_cell_length_c 13.068119
_cell_angle_alpha 95.539577
_cell_angle_beta 82.699132
_cell_angle_gamma 52.361404
_cell_volume 737.467774
_symmetry_space_group_name_H-M "P -1"
_symmetry_group_IT_number 2
_symmetry_cell_setting 'triclinic'
loop_
_space_group_symop_operation_xyz
x,y,z
-x,-y,-z
loop_
_atom_site_type_symbol
_atom_site_label
_atom_site_fract_x
_atom_site_fract_y
_atom_site_fract_z
Si Si1 0.798567 0.742916 0.223843
Si Si2 0.290387 0.694444 0.489522
Si Si3 0.552028 0.397888 0.097980
Si Si4 0.084413 0.106131 0.313804
Si Si5 0.832509 0.290234 0.719959
Si Si6 0.325438 0.023772 0.948870
Si Si7 0.437362 0.923593 0.412272
Si Si8 0.947401 0.335746 0.133188
O O1 0.640760 0.761118 0.319061
O O2 0.928637 0.529912 0.146787
O O3 0.946999 0.770940 0.272511
O O4 0.666114 0.916643 0.162851
O O5 0.500000 0.500000 0.500000
O O6 0.205177 0.658002 0.394095
O O7 0.332526 0.842735 0.468783
O O8 0.125631 0.785119 0.598875
O O9 0.345843 0.517439 0.190419
O O10 0.639183 0.176801 0.064610
O O11 0.721619 0.398411 0.141471
O O12 0.500000 0.500000 0.000000
O O13 0.047488 0.223924 0.223473
O O14 0.170754 0.887032 0.263486
O O15 0.258271 0.096216 0.363076
O O16 0.500000 0.000000 0.000000
O O17 0.095414 0.196584 0.020020
O O18 0.500000 0.000000 0.500000
#
# Coordination Sequence:
#
# PCOD8031061 Si02
#       8
#     2   2   2   2   2   2   2   2
#     4  12  24  41  63  94 127 165 207 255 311 371
#     4  11  23  41  64  92 125 165 208 255 308 367
#     4  12  24  42  65  93 123 164 212 258 308 369
#     4  11  22  42  65  91 125 166 207 256 310 366
#     4  11  23  41  63  91 125 164 206 256 310 370
#     4  12  25  43  64  92 128 166 204 258 314 368
#     4  11  23  40  63  92 125 164 208 256 307 367
#     4  12  24  42  65  93 124 164 211 258 308 372
#
# _framework density 21.695864
#
# number of rings (size 3 to 8) (size 9 to 14) (size 15 to 20)
#    0.000    0.500    0.000   11.250    0.000    2.000 
#    0.000    2.500    0.000    0.000    0.000    0.000 
#    0.000    0.000    0.000    0.000    0.000    0.000 
#
# Total GULP energy -198512.677401 kJ/mol
# GULP energy per Si atom -12407.042338 kJ/mol
# Density = 2.164648 g / cm^3
# Si number density = 21.695864 Si / 1000 Ang^3
#
#
#
# Elastic Constant Matrix: (Units=GPa)
#
#
# Indices 1 2 3 4 5 6 
#
# 1 101.7870 15.3659 19.2689 -2.5099 28.1440 -14.2634
# 2 15.3659 118.9627 32.3872 -3.4848 18.4338 1.5718
# 3 19.2689 32.3872 83.1517 5.3691 11.8917 0.3526
# 4 -2.5099 -3.4848 5.3691 44.3565 -16.8549 1.0576
# 5 28.1440 18.4338 11.8917 -16.8549 52.2737 0.7478
# 6 -14.2634 1.5718 0.3526 1.0576 0.7478 39.9474
#
#
#
# Elastic Compliance Matrix: (Units=1/GPa)
#
#
# Indices 1 2 3 4 5 6 
#
# 1 0.012767 -0.000188 -0.001772 -0.001881 -0.007079 0.004764
# 2 -0.000188 0.009756 -0.003415 0.000236 -0.002481 -0.000381
# 3 -0.001772 -0.003415 0.014236 -0.002835 -0.001987 -0.000512
# 4 -0.001881 0.000236 -0.002835 0.026717 0.010212 -0.001555
# 5 -0.007079 -0.002481 -0.001987 0.010212 0.027607 -0.003200
# 6 0.004764 -0.000381 -0.000512 -0.001555 -0.003200 0.026854
#
#
# Mechanical properties :
#
#
# Convention : Reuss Voigt Hill
#
# Bulk Modulus (GPa) = 38.44679 48.66059 43.55369
# Shear Modulus (GPa) = 36.40143 43.10748 39.75446
#
# Velocity S-wave (km/s) = 4.10055 4.46230 4.28524
# Velocity P-wave (km/s) = 6.33866 7.00191 6.67852
#
# Compressibility (1/GPa) = 0.02600997
#
# Stress axis : x y z
#
# Youngs Moduli (GPa) = 78.32895 102.49632 70.24252
#
# Poissons Ratio (x) = 0.01925 0.12444
# Poissons Ratio (y) = 0.01471 0.23990
# Poissons Ratio (z) = 0.13877 0.35006
#
# Static dielectric constant tensor:
#      x y z
#    x 0.012410 -1.901070 -6.572650 
#    y -1.901070 3.229740 -2.895390 
#    z -6.572650 -2.895390 -7.041260 
# 
# 
# High freq. dielectric constant tensor:
#      x y z
#    x 1.866150 -0.013840 0.002980 
#    y -0.013840 1.857990 -0.003110 
#    z 0.002980 -0.003110 1.868850 
# 
# From -- ./inp_files/382641.got.cif
#   From: 2010.06.25/outbox.cif.g09.slc.cpg/sg2_192_cif.got.tgz:382641.got - 2010.06.27 13:26:56.
