data_PCOD8031263
_publ_section_title
;
Structure prediction by ZEFSAII (Michael W. Deem and Ramdas Pophale) SiO2 
 PCOD8031263
Probable space group: P -1
;
_chemical_formula_sum "Si O2"
_cell_formula_units_Z 16
_cell_length_a 11.142780
_cell_length_b 15.444910
_cell_length_c 14.811566
_cell_angle_alpha 153.002637
_cell_angle_beta 140.322621
_cell_angle_gamma 37.899554
_cell_volume 690.268560
_symmetry_space_group_name_H-M "P -1"
_symmetry_group_IT_number 2
_symmetry_cell_setting 'triclinic'
loop_
_space_group_symop_operation_xyz
x,y,z
-x,-y,-z
loop_
_atom_site_type_symbol
_atom_site_label
_atom_site_fract_x
_atom_site_fract_y
_atom_site_fract_z
Si Si1 0.094588 0.876117 0.800683
Si Si2 0.896671 0.652259 0.211187
Si Si3 0.265580 0.043511 0.214508
Si Si4 0.982280 0.008649 0.670360
Si Si5 0.483411 0.389086 0.977841
Si Si6 0.561961 0.291731 0.607136
Si Si7 0.472822 0.569251 0.651442
Si Si8 0.774430 0.759789 0.047836
O O1 0.242629 0.669589 0.645966
O O2 0.213779 0.990762 0.034821
O O3 0.937424 0.821734 0.724368
O O4 0.972675 0.027689 0.790938
O O5 0.050426 0.441681 0.070659
O O6 0.014376 0.778447 0.446168
O O7 0.742763 0.610013 0.151467
O O8 0.767871 0.781070 0.172141
O O9 0.417904 0.162646 0.405102
O O10 0.361607 0.841261 0.142630
O O11 0.781613 0.165019 0.654825
O O12 0.181428 0.047946 0.788419
O O13 0.534423 0.506991 0.201107
O O14 0.500000 0.500000 0.000000
O O15 0.585985 0.369726 0.592988
O O16 0.500000 0.500000 0.500000
O O17 0.564749 0.748482 0.882637
#
# Coordination Sequence:
#
# PCOD8031263 Si02
#       8
#     2   2   2   2   2   2   2   2
#     4  11  27  51  69 111 152 191 252 305 372 447
#     4  11  22  43  66 109 146 181 239 307 362 436
#     4  11  26  50  77 105 155 194 245 308 373 450
#     4  12  25  42  76 110 141 192 247 304 369 433
#     4  12  24  45  78 110 148 189 242 313 371 437
#     4  12  25  48  80 110 146 195 250 305 374 439
#     4  12  27  50  73 107 154 203 248 301 374 445
#     4  11  23  44  69  99 151 188 242 304 362 430
#
# _framework density 23.179383999999999
#
# number of rings (size 3 to 8) (size 9 to 14) (size 15 to 20)
#    0.000    0.500    5.000    2.625    3.500    3.000 
#    0.000    0.000    0.000    0.000    0.000    0.000 
#    0.000    0.000    0.000    0.000    0.000    0.000 
#
# Total GULP energy -198454.270393 kJ/mol
# GULP energy per Si atom -12403.391900 kJ/mol
# Density = 2.312663 g / cm^3
# Si number density = 23.179384 Si / 1000 Ang^3
#
#
#
# Elastic Constant Matrix: (Units=GPa)
#
#
# Indices 1 2 3 4 5 6 
#
# 1 140.0014 47.1648 58.8844 -6.5760 4.1930 20.2963
# 2 47.1648 99.8977 37.8616 -15.7167 -0.5604 14.7973
# 3 58.8844 37.8616 144.6309 -5.0253 24.0903 20.6459
# 4 -6.5760 -15.7167 -5.0253 24.9033 2.7514 -3.6665
# 5 4.1930 -0.5604 24.0903 2.7514 43.2243 0.3024
# 6 20.2963 14.7973 20.6459 -3.6665 0.3024 44.4558
#
#
#
# Elastic Compliance Matrix: (Units=1/GPa)
#
#
# Indices 1 2 3 4 5 6 
#
# 1 0.009730 -0.003239 -0.002956 -0.000448 0.000705 -0.002033
# 2 -0.003239 0.013626 -0.001974 0.006987 0.001157 -0.001572
# 3 -0.002956 -0.001974 0.009873 0.000172 -0.005235 -0.002529
# 4 -0.000448 0.006987 0.000172 0.045020 -0.002838 0.001532
# 5 0.000705 0.001157 -0.005235 -0.002838 0.026171 0.001312
# 6 -0.002033 -0.001572 -0.002529 0.001532 0.001312 0.025237
#
#
# Mechanical properties :
#
#
# Convention : Reuss Voigt Hill
#
# Bulk Modulus (GPa) = 59.20281 74.70572 66.95426
# Shear Modulus (GPa) = 32.97586 38.55796 35.76691
#
# Velocity S-wave (km/s) = 3.77588 4.08298 3.93243
# Velocity P-wave (km/s) = 6.67879 7.38424 7.04036
#
# Compressibility (1/GPa) = 0.01689109
#
# Stress axis : x y z
#
# Youngs Moduli (GPa) = 102.77647 73.38885 101.28214
#
# Poissons Ratio (x) = 0.23769 0.29941
# Poissons Ratio (y) = 0.33287 0.19994
# Poissons Ratio (z) = 0.30383 0.14487
#
# Static dielectric constant tensor:
#      x y z
#    x 4.364660 -0.025690 0.124420 
#    y -0.025690 4.249540 -0.169630 
#    z 0.124420 -0.169630 4.444950 
# 
# 
# High freq. dielectric constant tensor:
#      x y z
#    x 1.929360 -0.000430 -0.000420 
#    y -0.000430 1.910400 -0.008030 
#    z -0.000420 -0.008030 1.920630 
# 
# From -- ./inp_files/521957.got.cif
#   From: 2010.06.25/outbox.cif.g09.slc.cpg/sg2_261_cif.got.tgz:521957.got - 2010.06.27 13:26:56.
