data_PCOD8031807
_publ_section_title
;
Structure prediction by ZEFSAII (Michael W. Deem and Ramdas Pophale) SiO2 
 PCOD8031807
Probable space group: P -1
;
_chemical_formula_sum "Si O2"
_cell_formula_units_Z 16
_cell_length_a 9.027456
_cell_length_b 8.254258
_cell_length_c 10.628253
_cell_angle_alpha 87.049838
_cell_angle_beta 55.296427
_cell_angle_gamma 93.925600
_cell_volume 645.591135
_symmetry_space_group_name_H-M "P -1"
_symmetry_group_IT_number 2
_symmetry_cell_setting 'triclinic'
loop_
_space_group_symop_operation_xyz
x,y,z
-x,-y,-z
loop_
_atom_site_type_symbol
_atom_site_label
_atom_site_fract_x
_atom_site_fract_y
_atom_site_fract_z
Si Si1 0.853376 0.924911 0.477593
Si Si2 0.506515 0.735950 0.729996
Si Si3 0.398932 0.657918 0.055486
Si Si4 0.989661 0.634873 0.292576
Si Si5 0.579411 0.797557 0.197142
Si Si6 0.219892 0.904924 0.755707
Si Si7 0.364493 0.548062 0.459577
Si Si8 0.934766 0.675572 0.042621
O O1 0.662094 0.891109 0.643960
O O2 0.933107 0.757571 0.417715
O O3 0.818843 0.027318 0.365139
O O4 0.000000 0.000000 0.500000
O O5 0.360137 0.766790 0.689223
O O6 0.601693 0.572721 0.668629
O O7 0.400478 0.739172 0.913593
O O8 0.195578 0.595478 0.205975
O O9 0.490965 0.798828 0.100700
O O10 0.500000 0.500000 0.000000
O O11 0.844604 0.471362 0.388695
O O12 0.967035 0.727158 0.168865
O O13 0.420121 0.732273 0.376049
O O14 0.720045 0.661242 0.121389
O O15 0.689386 0.962804 0.190801
O O16 0.029627 0.817991 0.902460
O O17 0.500000 0.500000 0.500000
O O18 0.000000 0.500000 0.000000
#
# Coordination Sequence:
#
# PCOD8031807 Si02
#       8
#     2   2   2   2   2   2   2   2
#     4  11  27  49  72 109 150 195 247 312 381 445
#     4  11  25  48  70 107 153 194 249 306 362 461
#     4  12  26  48  73 111 151 196 258 310 377 438
#     4  11  25  47  75 107 150 193 255 307 370 455
#     4  12  25  43  75 106 149 197 245 311 374 438
#     4  12  26  47  76 109 147 193 255 302 377 450
#     4  11  22  46  74 105 149 196 249 305 368 448
#     4  12  24  46  76 110 144 196 251 312 373 448
#
# _framework density 24.783486
#
# number of rings (size 3 to 8) (size 9 to 14) (size 15 to 20)
#    0.000    0.500    5.000    3.000    3.500    1.000 
#    0.000    0.000    0.000    0.000    0.000    0.000 
#    0.000    0.000    0.000    0.000    0.000    0.000 
#
# Total GULP energy -198328.808425 kJ/mol
# GULP energy per Si atom -12395.550527 kJ/mol
# Density = 2.472708 g / cm^3
# Si number density = 24.783486 Si / 1000 Ang^3
#
#
#
# Elastic Constant Matrix: (Units=GPa)
#
#
# Indices 1 2 3 4 5 6 
#
# 1 137.2695 17.8887 51.7391 -3.7005 -11.5383 10.7839
# 2 17.8887 57.2586 36.2538 -19.3124 -2.1855 4.8575
# 3 51.7391 36.2538 146.3622 -19.6973 -22.4057 5.6286
# 4 -3.7005 -19.3124 -19.6973 37.2756 0.0116 -6.4214
# 5 -11.5383 -2.1855 -22.4057 0.0116 48.9886 6.3816
# 6 10.7839 4.8575 5.6286 -6.4214 6.3816 38.4851
#
#
#
# Elastic Compliance Matrix: (Units=1/GPa)
#
#
# Indices 1 2 3 4 5 6 
#
# 1 0.008710 -0.001318 -0.002726 -0.001660 0.001050 -0.002327
# 2 -0.001318 0.023926 -0.004295 0.009968 -0.001189 -0.000162
# 3 -0.002726 -0.004295 0.009788 0.002624 0.003681 -0.000298
# 4 -0.001660 0.009968 0.002624 0.033968 0.000675 0.004379
# 5 0.001050 -0.001189 0.003681 0.000675 0.022859 -0.004360
# 6 -0.002327 -0.000162 -0.000298 0.004379 -0.004360 0.028154
#
#
# Mechanical properties :
#
#
# Convention : Reuss Voigt Hill
#
# Bulk Modulus (GPa) = 38.83867 61.40595 50.12231
# Shear Modulus (GPa) = 32.75169 40.61709 36.68439
#
# Velocity S-wave (km/s) = 3.63921 4.05270 3.85150
# Velocity P-wave (km/s) = 5.77613 6.83593 6.32825
#
# Compressibility (1/GPa) = 0.02574754
#
# Stress axis : x y z
#
# Youngs Moduli (GPa) = 114.80579 41.79526 102.16628
#
# Poissons Ratio (x) = 0.05507 0.27850
# Poissons Ratio (y) = 0.15127 0.43879
# Poissons Ratio (z) = 0.31295 0.17951
#
# Static dielectric constant tensor:
#      x y z
#    x 4.690870 0.455160 -0.151570 
#    y 0.455160 5.484720 0.060680 
#    z -0.151570 0.060680 5.014360 
# 
# 
# High freq. dielectric constant tensor:
#      x y z
#    x 1.988930 0.005860 -0.008590 
#    y 0.005860 1.976910 0.000900 
#    z -0.008590 0.000900 2.005000 
# 
# From -- ./inp_files/381891.got.cif
#   From: 2010.06.25/outbox.cif.g09.slc.cpg/sg2_191_cif.got.tgz:381891.got - 2010.06.27 13:26:56.
