data_PCOD8031364
_publ_section_title
;
Structure prediction by ZEFSAII (Michael W. Deem and Ramdas Pophale) SiO2 
 PCOD8031364
Probable space group: P -1
;
_chemical_formula_sum "Si O2"
_cell_formula_units_Z 16
_cell_length_a 19.129442
_cell_length_b 9.319690
_cell_length_c 8.013247
_cell_angle_alpha 48.990001
_cell_angle_beta 100.151688
_cell_angle_gamma 137.363741
_cell_volume 584.349927
_symmetry_space_group_name_H-M "P -1"
_symmetry_group_IT_number 2
_symmetry_cell_setting 'triclinic'
loop_
_space_group_symop_operation_xyz
x,y,z
-x,-y,-z
loop_
_atom_site_type_symbol
_atom_site_label
_atom_site_fract_x
_atom_site_fract_y
_atom_site_fract_z
Si Si1 0.314726 0.299768 0.890927
Si Si2 0.214349 0.718941 0.467341
Si Si3 0.414785 0.010877 0.590045
Si Si4 0.919086 0.469802 0.890111
Si Si5 0.628240 0.357474 0.871748
Si Si6 0.941907 0.172227 0.935002
Si Si7 0.875473 0.741429 0.507986
Si Si8 0.655679 0.804286 0.385314
O O1 0.451744 0.710093 0.671843
O O2 0.338270 0.267085 0.741745
O O3 0.287064 0.078487 0.186632
O O4 0.197911 0.198971 0.920422
O O5 0.207888 0.574006 0.412286
O O6 0.064987 0.410797 0.693485
O O7 0.297664 0.807406 0.578535
O O8 0.437826 0.225424 0.586932
O O9 0.381528 0.733708 0.871691
O O10 0.909127 0.326787 0.820962
O O11 0.968143 0.792792 0.611112
O O12 0.000000 0.500000 0.000000
O O13 0.794367 0.216882 0.146379
O O14 0.764814 0.590098 0.684010
O O15 0.633945 0.598091 0.677168
O O16 0.500000 0.000000 0.000000
O O17 0.959328 0.091703 0.179023
#
# Coordination Sequence:
#
# PCOD8031364 Si02
#       8
#     2   2   2   2   2   2   2   2
#     4  11  22  45  71  97 134 186 231 276 341 410
#     4  12  26  45  69  99 142 186 222 283 345 404
#     4  12  25  44  68 107 138 174 232 287 340 409
#     4  11  23  41  69 101 134 176 227 288 337 397
#     4  12  24  43  71 102 132 179 231 281 341 404
#     4  11  24  45  67  99 136 182 231 271 344 411
#     4  12  24  45  71  98 140 183 227 280 344 412
#     4  11  22  43  71  98 131 177 230 281 344 392
#
# _framework density 27.380852000000001
#
# number of rings (size 3 to 8) (size 9 to 14) (size 15 to 20)
#    0.000    0.500    7.500    2.250    1.750    1.500 
#    2.250    1.250    0.000    0.000    0.000    0.000 
#    0.000    0.000    0.000    0.000    0.000    0.000 
#
# Total GULP energy -198231.843782 kJ/mol
# GULP energy per Si atom -12389.490236 kJ/mol
# Density = 2.731853 g / cm^3
# Si number density = 27.380852 Si / 1000 Ang^3
#
#
#
# Elastic Constant Matrix: (Units=GPa)
#
#
# Indices 1 2 3 4 5 6 
#
# 1 76.9530 33.7802 70.7788 -9.9669 3.3725 35.8983
# 2 33.7802 57.1658 41.5780 7.3609 -4.7638 27.7949
# 3 70.7788 41.5780 220.0752 -15.7660 22.5394 27.5402
# 4 -9.9669 7.3609 -15.7660 46.6552 13.3281 -2.4377
# 5 3.3725 -4.7638 22.5394 13.3281 66.1545 -8.0077
# 6 35.8983 27.7949 27.5402 -2.4377 -8.0077 46.4612
#
#
#
# Elastic Compliance Matrix: (Units=1/GPa)
#
#
# Indices 1 2 3 4 5 6 
#
# 1 0.028909 -0.006608 -0.005414 0.005461 -0.003071 -0.015417
# 2 -0.006608 0.030778 -0.003399 -0.009202 0.004228 -0.011046
# 3 -0.005414 -0.003399 0.007202 0.002689 -0.002769 0.001612
# 4 0.005461 -0.009202 0.002689 0.027045 -0.007324 -0.000152
# 5 -0.003071 0.004228 -0.002769 -0.007324 0.018516 0.004292
# 6 -0.015417 -0.011046 0.001612 -0.000152 0.004292 0.039820
#
#
# Mechanical properties :
#
#
# Convention : Reuss Voigt Hill
#
# Bulk Modulus (GPa) = 27.74240 71.82978 49.78609
# Shear Modulus (GPa) = 25.62404 45.72464 35.67434
#
# Velocity S-wave (km/s) = 3.06247 4.09094 3.61348
# Velocity P-wave (km/s) = 4.76014 6.97172 5.96925
#
# Compressibility (1/GPa) = 0.03604591
#
# Stress axis : x y z
#
# Youngs Moduli (GPa) = 34.59091 32.49045 138.85196
#
# Poissons Ratio (x) = 0.21471 0.75175
# Poissons Ratio (y) = 0.22859 0.47202
# Poissons Ratio (z) = 0.18728 0.11045
#
# Static dielectric constant tensor:
#      x y z
#    x 5.131690 -0.156860 0.417300 
#    y -0.156860 6.728410 -0.831390 
#    z 0.417300 -0.831390 5.601270 
# 
# 
# High freq. dielectric constant tensor:
#      x y z
#    x 2.110480 0.012940 0.009840 
#    y 0.012940 2.126450 -0.010430 
#    z 0.009840 -0.010430 2.121080 
# 
# From -- ./inp_files/345874.got.cif
#   From: 2010.06.25/outbox.cif.g09.slc.cpg/sg2_173_cif.got.tgz:345874.got - 2010.06.27 13:26:56.
