data_PCOD8031963
_publ_section_title
;
Structure prediction by ZEFSAII (Michael W. Deem and Ramdas Pophale) SiO2 
 PCOD8031963
Probable space group: P -1
;
_chemical_formula_sum "Si O2"
_cell_formula_units_Z 16
_cell_length_a 22.107189
_cell_length_b 9.438963
_cell_length_c 18.515193
_cell_angle_alpha 141.608193
_cell_angle_beta 17.936916
_cell_angle_gamma 142.361430
_cell_volume 717.068418
_symmetry_space_group_name_H-M "P -1"
_symmetry_group_IT_number 2
_symmetry_cell_setting 'triclinic'
loop_
_space_group_symop_operation_xyz
x,y,z
-x,-y,-z
loop_
_atom_site_type_symbol
_atom_site_label
_atom_site_fract_x
_atom_site_fract_y
_atom_site_fract_z
Si Si1 0.855784 0.781308 0.615993
Si Si2 0.616096 0.954991 0.640733
Si Si3 0.123873 0.725917 0.644268
Si Si4 0.135779 0.397894 0.750093
Si Si5 0.634961 0.233028 0.474305
Si Si6 0.272135 0.332975 0.003355
Si Si7 0.572275 0.178107 0.924688
Si Si8 0.193755 0.006986 0.099504
O O1 0.919994 0.553342 0.424709
O O2 0.876112 0.822349 0.695323
O O3 0.619736 0.737516 0.850831
O O4 0.000000 0.000000 0.500000
O O5 0.703225 0.722676 0.440117
O O6 0.716245 0.151923 0.548295
O O7 0.668842 0.055480 0.701754
O O8 0.375244 0.896176 0.878068
O O9 0.202892 0.815132 0.670056
O O10 0.906129 0.779133 0.895824
O O11 0.253232 0.614869 0.656923
O O12 0.995341 0.210379 0.783038
O O13 0.000000 0.500000 0.000000
O O14 0.489060 0.372151 0.734712
O O15 0.500000 0.000000 0.500000
O O16 0.258706 0.591103 0.149503
O O17 0.257911 0.148788 0.010259
O O18 0.500000 0.000000 0.000000
#
# Coordination Sequence:
#
# PCOD8031963 Si02
#       8
#     2   2   2   2   2   2   2   2
#     4  11  23  39  67 108 152 191 235 288 354 435
#     4  11  25  45  73 107 144 190 241 295 357 427
#     4  12  25  44  75 108 143 191 242 291 362 428
#     4  12  28  49  74 104 138 189 243 298 364 428
#     4  12  28  51  74 101 145 186 241 306 356 428
#     4  12  24  44  73 107 146 189 237 294 363 425
#     4  11  23  39  67 107 154 190 232 288 361 427
#     4  11  24  45  71 106 148 186 239 294 358 427
#
# _framework density 22.313071999999998
#
# number of rings (size 3 to 8) (size 9 to 14) (size 15 to 20)
#    0.000    0.500    3.750    3.750    3.500    7.000 
#    0.000    0.000    0.000    0.000    0.000    0.000 
#    0.000    0.000    0.000    0.000    0.000    0.000 
#
# Total GULP energy -198460.179625 kJ/mol
# GULP energy per Si atom -12403.761227 kJ/mol
# Density = 2.226229 g / cm^3
# Si number density = 22.313072 Si / 1000 Ang^3
#
#
#
# Elastic Constant Matrix: (Units=GPa)
#
#
# Indices 1 2 3 4 5 6 
#
# 1 142.4414 64.3640 43.4529 1.2953 -4.7156 2.0713
# 2 64.3640 134.3547 26.4945 -11.6558 9.0356 -5.4828
# 3 43.4529 26.4945 80.6710 -0.4817 1.3129 -4.4032
# 4 1.2953 -11.6558 -0.4817 38.6689 -0.5488 2.4587
# 5 -4.7156 9.0356 1.3129 -0.5488 40.1541 -11.9273
# 6 2.0713 -5.4828 -4.4032 2.4587 -11.9273 42.0135
#
#
#
# Elastic Compliance Matrix: (Units=1/GPa)
#
#
# Indices 1 2 3 4 5 6 
#
# 1 0.010437 -0.004485 -0.004240 -0.001670 0.002098 -0.000851
# 2 -0.004485 0.010230 -0.000853 0.003152 -0.002596 0.000545
# 3 -0.004240 -0.000853 0.015052 -0.000033 -0.000328 0.001584
# 4 -0.001670 0.003152 -0.000033 0.026939 -0.000938 -0.001353
# 5 0.002098 -0.002596 -0.000328 -0.000938 0.027965 0.007517
# 6 -0.000851 0.000545 0.001584 -0.001353 0.007517 0.026294
#
#
# Mechanical properties :
#
#
# Convention : Reuss Voigt Hill
#
# Bulk Modulus (GPa) = 60.37390 69.56554 64.96972
# Shear Modulus (GPa) = 35.31229 39.04433 37.17831
#
# Velocity S-wave (km/s) = 3.98249 4.18765 4.08635
# Velocity P-wave (km/s) = 6.94718 7.39098 7.17251
#
# Compressibility (1/GPa) = 0.01656345
#
# Stress axis : x y z
#
# Youngs Moduli (GPa) = 95.81039 97.75199 66.43854
#
# Poissons Ratio (x) = 0.43840 0.28167
# Poissons Ratio (y) = 0.42969 0.05669
# Poissons Ratio (z) = 0.40620 0.08341
#
# Static dielectric constant tensor:
#      x y z
#    x 4.255580 0.126020 -0.124120 
#    y 0.126020 3.844430 0.049540 
#    z -0.124120 0.049540 4.088560 
# 
# 
# High freq. dielectric constant tensor:
#      x y z
#    x 1.889220 -0.000380 -0.007800 
#    y -0.000380 1.879820 -0.011460 
#    z -0.007800 -0.011460 1.887100 
# 
# From -- ./inp_files/226207.got.cif
#   From: 2010.06.25/outbox.cif.g09.slc.cpg/sg2_114_cif.got.tgz:226207.got - 2010.06.27 13:26:56.
