data_PCOD8031359
_publ_section_title
;
Structure prediction by ZEFSAII (Michael W. Deem and Ramdas Pophale) SiO2 
 PCOD8031359
Probable space group: P -1
;
_chemical_formula_sum "Si O2"
_cell_formula_units_Z 14
_cell_length_a 9.212008
_cell_length_b 10.313570
_cell_length_c 9.272750
_cell_angle_alpha 87.081500
_cell_angle_beta 86.185033
_cell_angle_gamma 134.966483
_cell_volume 615.924642
_symmetry_space_group_name_H-M "P -1"
_symmetry_group_IT_number 2
_symmetry_cell_setting 'triclinic'
loop_
_space_group_symop_operation_xyz
x,y,z
-x,-y,-z
loop_
_atom_site_type_symbol
_atom_site_label
_atom_site_fract_x
_atom_site_fract_y
_atom_site_fract_z
Si Si1 0.356520 0.285596 0.999311
Si Si2 0.915459 0.393539 0.295294
Si Si3 0.348340 0.304766 0.442082
Si Si4 0.744714 0.223201 0.625327
Si Si5 0.062814 0.233822 0.223226
Si Si6 0.352454 0.148002 0.712391
Si Si7 0.509874 0.817430 0.769986
O O1 0.422589 0.193174 0.077732
O O2 0.139626 0.199693 0.083078
O O3 0.500000 0.500000 0.000000
O O4 0.357867 0.257763 0.832459
O O5 0.803376 0.256540 0.450763
O O6 0.086595 0.405182 0.211334
O O7 0.732861 0.301927 0.197712
O O8 0.043710 0.605452 0.313054
O O9 0.500000 0.500000 0.500000
O O10 0.250269 0.157129 0.583310
O O11 0.483555 0.298143 0.332916
O O12 0.166708 0.254601 0.364733
O O13 0.575419 0.228258 0.661055
O O14 0.658947 0.030426 0.697661
O O15 0.814130 0.068753 0.236188
#
# Coordination Sequence:
#
# PCOD8031359 Si02
#       7
#     2   2   2   2   2   2   2
#     4  11  26  48  66  94 139 183 230 278 337 404
#     4  11  22  43  71 105 136 174 228 279 341 400
#     4  11  23  41  68  99 132 177 226 278 340 395
#     4  11  23  40  72 103 139 175 222 287 338 396
#     4  11  24  43  68 100 131 178 228 279 341 400
#     4  12  22  44  67  97 140 176 227 282 333 404
#     4  11  23  46  69 101 135 180 226 279 338 406
#
# _framework density 22.730055
#
# number of rings (size 3 to 8) (size 9 to 14) (size 15 to 20)
#    0.000    0.857    2.857    5.571    2.000    1.714 
#    7.714    1.429    0.000    0.000    0.000    0.000 
#    0.000    0.000    0.000    0.000    0.000    0.000 
#
# Total GULP energy -173510.456060 kJ/mol
# GULP energy per Si atom -12393.604004 kJ/mol
# Density = 2.267832 g / cm^3
# Si number density = 22.730055 Si / 1000 Ang^3
#
#
#
# Elastic Constant Matrix: (Units=GPa)
#
#
# Indices 1 2 3 4 5 6 
#
# 1 129.9578 23.4666 30.4376 6.9442 -4.8829 3.8629
# 2 23.4666 88.7835 -20.3497 -3.6143 5.4647 2.6596
# 3 30.4376 -20.3497 52.5297 6.0188 -10.5274 5.9898
# 4 6.9442 -3.6143 6.0188 26.7516 -11.0764 -0.9767
# 5 -4.8829 5.4647 -10.5274 -11.0764 25.1133 0.0308
# 6 3.8629 2.6596 5.9898 -0.9767 0.0308 35.9225
#
#
#
# Elastic Compliance Matrix: (Units=1/GPa)
#
#
# Indices 1 2 3 4 5 6 
#
# 1 0.010414 -0.004580 -0.007865 -0.002018 -0.001166 0.000477
# 2 -0.004580 0.014496 0.008351 0.001191 -0.000017 -0.001941
# 3 -0.007865 0.008351 0.029132 0.000146 0.008936 -0.004634
# 4 -0.002018 0.001191 0.000146 0.046290 0.019825 0.001346
# 5 -0.001166 -0.000017 0.008936 0.019825 0.052087 -0.000869
# 6 0.000477 -0.001941 -0.004634 0.001346 -0.000869 0.028740
#
#
# Mechanical properties :
#
#
# Convention : Reuss Voigt Hill
#
# Bulk Modulus (GPa) = 21.80912 37.59780 29.70346
# Shear Modulus (GPa) = 24.43419 33.40525 28.91972
#
# Velocity S-wave (km/s) = 3.28223 3.83776 3.57082
# Velocity P-wave (km/s) = 4.89691 6.01787 5.48610
#
# Compressibility (1/GPa) = 0.04585237
#
# Stress axis : x y z
#
# Youngs Moduli (GPa) = 96.02676 68.98667 34.32684
#
# Poissons Ratio (x) = 0.31595 0.26999
# Poissons Ratio (y) = 0.43979 -0.28666
# Poissons Ratio (z) = 0.75527 -0.57609
#
# Static dielectric constant tensor:
#      x y z
#    x 4.589140 -0.039840 -0.627200 
#    y -0.039840 4.245820 0.141150 
#    z -0.627200 0.141150 5.598630 
# 
# 
# High freq. dielectric constant tensor:
#      x y z
#    x 1.906130 -0.005100 -0.008500 
#    y -0.005100 1.909420 0.007820 
#    z -0.008500 0.007820 1.881800 
# 
# From -- ./inp_files/186865.got.cif
#   From: 2010.06.25/outbox.cif.g09.slc.cpg/sg2_94_cif.got.tgz:186865.got - 2010.06.27 13:26:56.
