data_PCOD8031091
_publ_section_title
;
Structure prediction by ZEFSAII (Michael W. Deem and Ramdas Pophale) SiO2 
 PCOD8031091
Probable space group: P -1
;
_chemical_formula_sum "Si O2"
_cell_formula_units_Z 16
_cell_length_a 13.077465
_cell_length_b 8.892148
_cell_length_c 9.032627
_cell_angle_alpha 47.555378
_cell_angle_beta 84.861322
_cell_angle_gamma 87.053850
_cell_volume 771.929312
_symmetry_space_group_name_H-M "P -1"
_symmetry_group_IT_number 2
_symmetry_cell_setting 'triclinic'
loop_
_space_group_symop_operation_xyz
x,y,z
-x,-y,-z
loop_
_atom_site_type_symbol
_atom_site_label
_atom_site_fract_x
_atom_site_fract_y
_atom_site_fract_z
Si Si1 0.107139 0.458751 0.088784
Si Si2 0.706978 0.288527 0.053107
Si Si3 0.749213 0.803789 0.939061
Si Si4 0.893358 0.547584 0.557182
Si Si5 0.281024 0.728731 0.388687
Si Si6 0.620236 0.433916 0.238228
Si Si7 0.607432 0.522791 0.654811
Si Si8 0.252129 0.161532 0.740904
O O1 0.090760 0.439750 0.278536
O O2 0.184911 0.648638 0.926957
O O3 0.154887 0.261564 0.132198
O O4 0.000000 0.500000 0.000000
O O5 0.623383 0.274610 0.206112
O O6 0.719926 0.074474 0.113459
O O7 0.673775 0.471336 0.826163
O O8 0.649923 0.657394 0.019606
O O9 0.770729 0.786383 0.121520
O O10 0.726161 0.032842 0.743907
O O11 0.812666 0.373114 0.626355
O O12 0.853062 0.772702 0.369578
O O13 0.000000 0.500000 0.500000
O O14 0.291826 0.626605 0.615691
O O15 0.385427 0.677815 0.317546
O O16 0.508679 0.429216 0.325796
O O17 0.654468 0.712175 0.430145
#
# Coordination Sequence:
#
# PCOD8031091 Si02
#       8
#     2   2   2   2   2   2   2   2
#     4  11  24  43  66  95 127 160 213 264 310 379
#     4  11  24  43  65  93 130 168 210 262 317 371
#     4  11  23  41  66  93 131 167 208 260 313 369
#     4  11  23  43  68  92 128 166 206 259 320 376
#     4  11  23  42  64  94 130 166 212 257 311 379
#     4  11  25  39  66  95 130 167 213 265 306 371
#     4  11  22  43  64  94 129 169 215 257 313 372
#     4  11  22  42  67  90 130 171 206 257 319 372
#
# _framework density 20.727284999999998
#
# number of rings (size 3 to 8) (size 9 to 14) (size 15 to 20)
#    0.000    1.000    6.250    1.500    3.500    3.000 
#    0.000    3.750    0.000    0.000    0.000    0.000 
#    0.000    0.000    0.000    0.000    0.000    0.000 
#
# Total GULP energy -198264.759361 kJ/mol
# GULP energy per Si atom -12391.547460 kJ/mol
# Density = 2.068011 g / cm^3
# Si number density = 20.727285 Si / 1000 Ang^3
#
#
#
# Elastic Constant Matrix: (Units=GPa)
#
#
# Indices 1 2 3 4 5 6 
#
# 1 100.2221 43.4894 46.1191 3.8391 -1.5931 -17.6747
# 2 43.4894 137.2346 60.4763 15.5927 -7.0637 -20.7888
# 3 46.1191 60.4763 106.3456 2.8142 2.2329 -5.6018
# 4 3.8391 15.5927 2.8142 42.5192 -2.6727 -6.1955
# 5 -1.5931 -7.0637 2.2329 -2.6727 23.4677 10.9817
# 6 -17.6747 -20.7888 -5.6018 -6.1955 10.9817 34.6439
#
#
#
# Elastic Compliance Matrix: (Units=1/GPa)
#
#
# Indices 1 2 3 4 5 6 
#
# 1 0.013865 -0.001492 -0.004817 0.000380 -0.001837 0.006050
# 2 -0.001492 0.011192 -0.005459 -0.002919 0.001556 0.004056
# 3 -0.004817 -0.005459 0.014478 0.000976 -0.002032 -0.002574
# 4 0.000380 -0.002919 0.000976 0.024946 0.000543 0.002889
# 5 -0.001837 0.001556 -0.002032 0.000543 0.050866 -0.016359
# 6 0.006050 0.004056 -0.002574 0.002889 -0.016359 0.039672
#
#
# Mechanical properties :
#
#
# Convention : Reuss Voigt Hill
#
# Bulk Modulus (GPa) = 62.50793 71.55244 67.03019
# Shear Modulus (GPa) = 27.19051 33.04064 30.11558
#
# Velocity S-wave (km/s) = 3.62584 3.99691 3.81588
# Velocity P-wave (km/s) = 6.91026 7.47637 7.19889
#
# Compressibility (1/GPa) = 0.01599797
#
# Stress axis : x y z
#
# Youngs Moduli (GPa) = 72.12272 89.35246 69.07034
#
# Poissons Ratio (x) = 0.13335 0.33272
# Poissons Ratio (y) = 0.10764 0.37705
# Poissons Ratio (z) = 0.34742 0.48777
#
# Static dielectric constant tensor:
#      x y z
#    x 3.660140 -0.172090 0.024600 
#    y -0.172090 4.017070 0.214370 
#    z 0.024600 0.214370 3.813430 
# 
# 
# High freq. dielectric constant tensor:
#      x y z
#    x 1.794880 -0.016010 0.003340 
#    y -0.016010 1.827420 0.021150 
#    z 0.003340 0.021150 1.816290 
# 
# From -- ./inp_files/202714.got.cif
#   From: 2010.06.25/outbox.cif.g09.slc.cpg/sg2_102_cif.got.tgz:202714.got - 2010.06.27 13:26:56.
