data_PCOD8031405
_publ_section_title
;
Structure prediction by ZEFSAII (Michael W. Deem and Ramdas Pophale) SiO2 
 PCOD8031405
Probable space group: P -1
;
_chemical_formula_sum "Si O2"
_cell_formula_units_Z 14
_cell_length_a 14.246281
_cell_length_b 13.949869
_cell_length_c 9.440558
_cell_angle_alpha 41.675800
_cell_angle_beta 31.197078
_cell_angle_gamma 45.321360
_cell_volume 634.843435
_symmetry_space_group_name_H-M "P -1"
_symmetry_group_IT_number 2
_symmetry_cell_setting 'triclinic'
loop_
_space_group_symop_operation_xyz
x,y,z
-x,-y,-z
loop_
_atom_site_type_symbol
_atom_site_label
_atom_site_fract_x
_atom_site_fract_y
_atom_site_fract_z
Si Si1 0.276622 0.800356 0.876876
Si Si2 0.326623 0.300649 0.603435
Si Si3 0.135433 0.624470 0.492005
Si Si4 0.639630 0.221984 0.751326
Si Si5 0.743786 0.990400 0.086704
Si Si6 0.840421 0.057514 0.418341
Si Si7 0.726898 0.758711 0.938713
O O1 0.464717 0.689754 0.717709
O O2 0.167568 0.859467 0.812312
O O3 0.317458 0.942048 0.754764
O O4 0.152535 0.713128 0.228113
O O5 0.192331 0.452549 0.578418
O O6 0.261857 0.180782 0.717145
O O7 0.323554 0.246080 0.827251
O O8 0.269422 0.664151 0.398880
O O9 0.921798 0.652743 0.779490
O O10 0.770547 0.176001 0.498410
O O11 0.433786 0.296525 0.883543
O O12 0.615645 0.080990 0.031791
O O13 0.947416 0.016727 0.750550
O O14 0.724172 0.927606 0.714681
#
# Coordination Sequence:
#
# PCOD8031405 Si02
#       7
#     2   2   2   2   2   2   2
#     4  11  24  45  68  98 138 177 220 284 333 392
#     4  12  24  45  68 100 137 178 225 274 334 403
#     4  11  27  47  67  98 143 178 220 273 337 408
#     4  11  22  43  73  99 130 177 226 276 332 392
#     4  11  23  41  73  99 132 180 224 277 337 391
#     4  12  21  43  71 104 137 165 232 290 326 385
#     4  12  23  42  73 102 134 172 230 279 329 395
#
# _framework density 22.052681
#
# number of rings (size 3 to 8) (size 9 to 14) (size 15 to 20)
#    0.000    0.571    5.714    4.286    0.000    1.714 
#    2.571    0.714    0.000    0.000    0.000    0.000 
#    0.000    0.000    0.000    0.000    0.000    0.000 
#
# Total GULP energy -173668.970653 kJ/mol
# GULP energy per Si atom -12404.926475 kJ/mol
# Density = 2.200249 g / cm^3
# Si number density = 22.052681 Si / 1000 Ang^3
#
#
#
# Elastic Constant Matrix: (Units=GPa)
#
#
# Indices 1 2 3 4 5 6 
#
# 1 89.6814 39.0698 32.6533 0.9028 11.1128 -8.0383
# 2 39.0698 122.0936 26.5584 5.9518 -4.2614 8.2607
# 3 32.6533 26.5584 74.8676 20.3512 8.0135 1.6364
# 4 0.9028 5.9518 20.3512 41.6716 -10.8833 -4.3356
# 5 11.1128 -4.2614 8.0135 -10.8833 32.2084 11.8188
# 6 -8.0383 8.2607 1.6364 -4.3356 11.8188 24.1347
#
#
#
# Elastic Compliance Matrix: (Units=1/GPa)
#
#
# Indices 1 2 3 4 5 6 
#
# 1 0.018288 -0.006021 -0.005604 0.001998 -0.010118 0.013845
# 2 -0.006021 0.011498 -0.002269 0.000664 0.007884 -0.009528
# 3 -0.005604 -0.002269 0.020497 -0.011494 -0.006928 -0.001152
# 4 0.001998 0.000664 -0.011494 0.032978 0.013142 0.000706
# 5 -0.010118 0.007884 -0.006928 0.013142 0.052339 -0.028868
# 6 0.013845 -0.009528 -0.001152 0.000706 -0.028868 0.063648
#
#
# Mechanical properties :
#
#
# Convention : Reuss Voigt Hill
#
# Bulk Modulus (GPa) = 44.45079 53.68951 49.07015
# Shear Modulus (GPa) = 21.31886 32.16033 26.73959
#
# Velocity S-wave (km/s) = 3.11259 3.82297 3.48592
# Velocity P-wave (km/s) = 5.75483 6.62462 6.20498
#
# Compressibility (1/GPa) = 0.02249679
#
# Stress axis : x y z
#
# Youngs Moduli (GPa) = 54.67967 86.97112 48.78809
#
# Poissons Ratio (x) = 0.52362 0.27339
# Poissons Ratio (y) = 0.32921 0.11070
# Poissons Ratio (z) = 0.30640 0.19734
#
# Static dielectric constant tensor:
#      x y z
#    x 3.923780 0.019040 0.057700 
#    y 0.019040 3.896240 0.208070 
#    z 0.057700 0.208070 3.958210 
# 
# 
# High freq. dielectric constant tensor:
#      x y z
#    x 1.864990 -0.005370 0.007770 
#    y -0.005370 1.864740 0.017260 
#    z 0.007770 0.017260 1.874590 
# 
# From -- ./inp_files/158290.got.cif
#   From: 2010.06.25/outbox.cif.g09.slc.cpg/sg2_80_cif.got.tgz:158290.got - 2010.06.27 13:26:56.
