data_PCOD8031684
_publ_section_title
;
Structure prediction by ZEFSAII (Michael W. Deem and Ramdas Pophale) SiO2 
 PCOD8031684
Probable space group: P -1
;
_chemical_formula_sum "Si O2"
_cell_formula_units_Z 14
_cell_length_a 20.379301
_cell_length_b 5.209067
_cell_length_c 12.212565
_cell_angle_alpha 103.201182
_cell_angle_beta 152.648909
_cell_angle_gamma 81.183113
_cell_volume 576.332329
_symmetry_space_group_name_H-M "P -1"
_symmetry_group_IT_number 2
_symmetry_cell_setting 'triclinic'
loop_
_space_group_symop_operation_xyz
x,y,z
-x,-y,-z
loop_
_atom_site_type_symbol
_atom_site_label
_atom_site_fract_x
_atom_site_fract_y
_atom_site_fract_z
Si Si1 0.582172 0.842964 0.912131
Si Si2 0.769566 0.769049 0.383865
Si Si3 0.595941 0.666418 0.305734
Si Si4 0.194509 0.370910 0.206752
Si Si5 0.228592 0.148706 0.012918
Si Si6 0.103862 0.849943 0.214178
Si Si7 0.049661 0.580705 0.700805
O O1 0.717326 0.859428 0.197272
O O2 0.490488 0.890014 0.158564
O O3 0.637141 0.822049 0.867496
O O4 0.477959 0.581131 0.760221
O O5 0.645111 0.581079 0.247731
O O6 0.912325 0.627888 0.573510
O O7 0.795034 0.014359 0.528319
O O8 0.740313 0.771534 0.602788
O O9 0.212841 0.687392 0.288927
O O10 0.280150 0.271476 0.219354
O O11 0.023119 0.326665 0.925047
O O12 0.107720 0.322459 0.809712
O O13 0.166023 0.840047 0.900269
O O14 0.000000 0.000000 0.000000
O O15 0.000000 0.500000 0.500000
#
# Coordination Sequence:
#
# PCOD8031684 Si02
#       7
#     2   2   2   2   2   2   2
#     4  12  29  49  72 106 151 203 247 291 360 445
#     4  12  25  47  81 107 150 185 249 315 372 429
#     4  12  28  49  72 107 149 203 248 293 355 445
#     4  11  26  43  75 107 148 192 247 300 374 432
#     4  12  27  48  74 112 150 191 247 303 373 441
#     4  11  22  45  71 113 145 183 238 314 376 429
#     4  12  26  45  76 114 150 185 238 313 385 430
#
# _framework density 24.291540000000001
#
# number of rings (size 3 to 8) (size 9 to 14) (size 15 to 20)
#    0.000    0.286    4.286    3.857    2.000    3.429 
#    0.000    0.000    0.000    0.000    0.000    0.000 
#    0.000    0.000    0.000    0.000    0.000    0.000 
#
# Total GULP energy -173526.708226 kJ/mol
# GULP energy per Si atom -12394.764873 kJ/mol
# Density = 2.423625 g / cm^3
# Si number density = 24.291540 Si / 1000 Ang^3
#
#
#
# Elastic Constant Matrix: (Units=GPa)
#
#
# Indices 1 2 3 4 5 6 
#
# 1 169.9729 10.7994 -2.7451 10.7305 -2.3958 -8.3661
# 2 10.7994 74.6161 0.9299 -5.6263 4.3749 -7.3989
# 3 -2.7451 0.9299 54.1060 5.0425 -7.8037 -0.4769
# 4 10.7305 -5.6263 5.0425 40.0070 -1.2726 -7.3305
# 5 -2.3958 4.3749 -7.8037 -1.2726 48.7600 -0.6954
# 6 -8.3661 -7.3989 -0.4769 -7.3305 -0.6954 26.8261
#
#
#
# Elastic Compliance Matrix: (Units=1/GPa)
#
#
# Indices 1 2 3 4 5 6 
#
# 1 0.006119 -0.000916 0.000550 -0.001598 0.000447 0.001240
# 2 -0.000916 0.014298 -0.000732 0.003126 -0.001300 0.004465
# 3 0.000550 -0.000732 0.019212 -0.002634 0.003094 -0.000328
# 4 -0.001598 0.003126 -0.002634 0.027640 0.000053 0.007871
# 5 0.000447 -0.001300 0.003094 0.000053 0.021149 0.000399
# 6 0.001240 0.004465 -0.000328 0.007871 0.000399 0.041051
#
#
# Mechanical properties :
#
#
# Convention : Reuss Voigt Hill
#
# Bulk Modulus (GPa) = 26.71373 35.18481 30.94927
# Shear Modulus (GPa) = 34.68828 42.43268 38.56048
#
# Velocity S-wave (km/s) = 3.78299 4.18402 3.98855
# Velocity P-wave (km/s) = 5.48656 6.15282 5.82922
#
# Compressibility (1/GPa) = 0.03743394
#
# Stress axis : x y z
#
# Youngs Moduli (GPa) = 163.43586 69.93835 52.05205
#
# Poissons Ratio (x) = 0.06407 -0.02865
# Poissons Ratio (y) = 0.14973 0.03808
# Poissons Ratio (z) = -0.08997 0.05117
#
# Static dielectric constant tensor:
#      x y z
#    x 5.502420 0.341440 0.477280 
#    y 0.341440 2.941560 -1.951940 
#    z 0.477280 -1.951940 4.549990 
# 
# 
# High freq. dielectric constant tensor:
#      x y z
#    x 1.977080 -0.000030 -0.004210 
#    y -0.000030 1.972910 -0.001860 
#    z -0.004210 -0.001860 1.971440 
# 
# From -- ./inp_files/468177.got.cif
#   From: 2010.06.25/outbox.cif.g09.slc.cpg/sg2_235_cif.got.tgz:468177.got - 2010.06.27 13:26:56.
