data_PCOD8031818
_publ_section_title
;
Structure prediction by ZEFSAII (Michael W. Deem and Ramdas Pophale) SiO2 
 PCOD8031818
Probable space group: P -1
;
_chemical_formula_sum "Si O2"
_cell_formula_units_Z 16
_cell_length_a 10.658368
_cell_length_b 16.673519
_cell_length_c 19.330016
_cell_angle_alpha 22.836580
_cell_angle_beta 33.186057
_cell_angle_gamma 33.775272
_cell_volume 700.106894
_symmetry_space_group_name_H-M "P -1"
_symmetry_group_IT_number 2
_symmetry_cell_setting 'triclinic'
loop_
_space_group_symop_operation_xyz
x,y,z
-x,-y,-z
loop_
_atom_site_type_symbol
_atom_site_label
_atom_site_fract_x
_atom_site_fract_y
_atom_site_fract_z
Si Si1 0.444374 0.753463 0.127348
Si Si2 0.872463 0.388486 0.511526
Si Si3 0.447698 0.443102 0.992370
Si Si4 0.312551 0.418822 0.352171
Si Si5 0.012235 0.377710 0.018704
Si Si6 0.514450 0.829682 0.296465
Si Si7 0.008809 0.085777 0.572792
Si Si8 0.558510 0.006544 0.647532
O O1 0.283550 0.755552 0.267342
O O2 0.389088 0.588050 0.230078
O O3 0.716752 0.672921 0.092506
O O4 0.390380 0.987751 0.930586
O O5 0.712078 0.602529 0.378142
O O6 0.057439 0.232084 0.497337
O O7 0.026325 0.468238 0.436236
O O8 0.563740 0.186286 0.134937
O O9 0.500000 0.500000 0.000000
O O10 0.578004 0.571907 0.780986
O O11 0.167452 0.490777 0.061405
O O12 0.409204 0.177053 0.526784
O O13 0.932362 0.163776 0.237329
O O14 0.000000 0.500000 0.000000
O O15 0.272138 0.808195 0.392750
O O16 0.443905 0.882735 0.366080
O O17 0.171145 0.098520 0.421592
#
# Coordination Sequence:
#
# PCOD8031818 Si02
#       8
#     2   2   2   2   2   2   2   2
#     4  11  24  47  74 101 141 193 249 285 358 433
#     4  12  28  45  70 103 153 192 227 305 366 430
#     4  12  26  43  71 114 145 184 239 309 366 414
#     4  12  25  48  69 107 146 189 245 290 362 435
#     4  11  22  46  76 103 143 188 242 301 349 432
#     4  11  25  45  74 106 136 193 246 294 352 441
#     4  11  25  46  71 108 147 180 243 303 368 418
#     4  12  24  44  77 101 140 191 242 298 353 430
#
# _framework density 22.853653000000001
#
# number of rings (size 3 to 8) (size 9 to 14) (size 15 to 20)
#    0.000    0.500    5.000    2.625    3.500    4.500 
#    4.500    0.000    0.000    0.000    0.000    0.000 
#    0.000    0.000    0.000    0.000    0.000    0.000 
#
# Total GULP energy -198413.525965 kJ/mol
# GULP energy per Si atom -12400.845373 kJ/mol
# Density = 2.280164 g / cm^3
# Si number density = 22.853653 Si / 1000 Ang^3
#
#
#
# Elastic Constant Matrix: (Units=GPa)
#
#
# Indices 1 2 3 4 5 6 
#
# 1 106.5217 18.7618 34.2224 -14.4970 4.6969 -4.6305
# 2 18.7618 79.4468 39.3148 -11.9159 7.7530 2.9045
# 3 34.2224 39.3148 125.6303 -13.9791 19.9769 -17.6353
# 4 -14.4970 -11.9159 -13.9791 41.3822 -3.0238 -3.2506
# 5 4.6969 7.7530 19.9769 -3.0238 34.2942 -1.3313
# 6 -4.6305 2.9045 -17.6353 -3.2506 -1.3313 44.3142
#
#
#
# Elastic Compliance Matrix: (Units=1/GPa)
#
#
# Indices 1 2 3 4 5 6 
#
# 1 0.010678 -0.001043 -0.002264 0.002740 0.000353 0.000495
# 2 -0.001043 0.015646 -0.004662 0.002299 -0.000586 -0.002839
# 3 -0.002264 -0.004662 0.011712 0.001817 -0.005116 0.004710
# 4 0.002740 0.002299 0.001817 0.026660 0.000507 0.002830
# 5 0.000353 -0.000586 -0.005116 0.000507 0.032231 -0.000955
# 6 0.000495 -0.002839 0.004710 0.002830 -0.000955 0.024857
#
#
# Mechanical properties :
#
#
# Convention : Reuss Voigt Hill
#
# Bulk Modulus (GPa) = 45.25106 55.13296 50.19201
# Shear Modulus (GPa) = 34.46202 38.61810 36.54006
#
# Velocity S-wave (km/s) = 3.88744 4.11518 4.00293
# Velocity P-wave (km/s) = 6.32399 6.83786 6.58594
#
# Compressibility (1/GPa) = 0.02209893
#
# Stress axis : x y z
#
# Youngs Moduli (GPa) = 93.65334 63.91428 85.38141
#
# Poissons Ratio (x) = 0.06664 0.19332
# Poissons Ratio (y) = 0.09765 0.39801
# Poissons Ratio (z) = 0.21205 0.29794
#
# Static dielectric constant tensor:
#      x y z
#    x 4.260250 -0.035050 0.087590 
#    y -0.035050 4.114440 0.103940 
#    z 0.087590 0.103940 4.532950 
# 
# 
# High freq. dielectric constant tensor:
#      x y z
#    x 1.907630 0.000580 -0.000710 
#    y 0.000580 1.895410 -0.004320 
#    z -0.000710 -0.004320 1.920790 
# 
# From -- ./inp_files/595907.got.cif
#   From: 2010.06.25/outbox.cif.g09.slc.cpg/sg2_298_cif.got.tgz:595907.got - 2010.06.27 13:26:56.
