data_PCOD8031670
_publ_section_title
;
Structure prediction by ZEFSAII (Michael W. Deem and Ramdas Pophale) SiO2 
 PCOD8031670
Probable space group: P -1
;
_chemical_formula_sum "Si O2"
_cell_formula_units_Z 16
_cell_length_a 15.253837
_cell_length_b 14.880661
_cell_length_c 15.482623
_cell_angle_alpha 153.235950
_cell_angle_beta 153.545700
_cell_angle_gamma 36.240507
_cell_volume 704.562110
_symmetry_space_group_name_H-M "P -1"
_symmetry_group_IT_number 2
_symmetry_cell_setting 'triclinic'
loop_
_space_group_symop_operation_xyz
x,y,z
-x,-y,-z
loop_
_atom_site_type_symbol
_atom_site_label
_atom_site_fract_x
_atom_site_fract_y
_atom_site_fract_z
Si Si1 0.405116 0.294083 0.435658
Si Si2 0.178596 0.809578 0.227658
Si Si3 0.350847 0.838689 0.039615
Si Si4 0.139272 0.820084 0.999661
Si Si5 0.922770 0.780034 0.245076
Si Si6 0.082338 0.540432 0.463661
Si Si7 0.234749 0.229089 0.720933
Si Si8 0.831567 0.604334 0.837087
O O1 0.631341 0.320722 0.683871
O O2 0.274238 0.434193 0.501624
O O3 0.375159 0.367909 0.372922
O O4 0.343677 0.065050 0.194341
O O5 0.168620 0.017944 0.446829
O O6 0.193887 0.844470 0.168843
O O7 0.988322 0.691663 0.983417
O O8 0.549271 0.723402 0.083611
O O9 0.338516 0.825295 0.121887
O O10 0.154094 0.735450 0.743703
O O11 0.027202 0.615437 0.705760
O O12 0.000000 0.000000 0.000000
O O13 0.110847 0.626634 0.290993
O O14 0.763912 0.767845 0.171294
O O15 0.000000 0.000000 0.500000
O O16 0.813030 0.730392 0.016823
O O17 0.923058 0.601901 0.302885
#
# Coordination Sequence:
#
# PCOD8031670 Si02
#       8
#     2   2   2   2   2   2   2   2
#     4  11  24  44  70  99 137 185 219 281 343 402
#     4  11  24  44  73  98 142 177 229 281 339 407
#     4  11  27  44  67 103 138 176 233 275 340 404
#     4  12  23  46  71 102 138 186 229 280 338 401
#     4  11  23  41  73 101 131 180 227 281 343 406
#     4  12  24  43  72  95 140 184 221 278 342 403
#     4  11  24  46  69 102 137 179 223 286 339 403
#     4  11  22  45  70  97 138 179 225 276 346 408
#
# _framework density 22.709140999999999
#
# number of rings (size 3 to 8) (size 9 to 14) (size 15 to 20)
#    0.000    0.750    5.000    1.875    3.500    2.500 
#    2.250    6.250    0.000    0.000    0.000    0.000 
#    0.000    0.000    0.000    0.000    0.000    0.000 
#
# Total GULP energy -198428.456554 kJ/mol
# GULP energy per Si atom -12401.778535 kJ/mol
# Density = 2.265745 g / cm^3
# Si number density = 22.709141 Si / 1000 Ang^3
#
#
#
# Elastic Constant Matrix: (Units=GPa)
#
#
# Indices 1 2 3 4 5 6 
#
# 1 141.8111 40.0195 28.6884 -10.9866 -21.2968 -2.8586
# 2 40.0195 109.3286 24.3566 -15.1224 -6.9785 2.1269
# 3 28.6884 24.3566 60.0579 -6.2892 -12.7317 8.2046
# 4 -10.9866 -15.1224 -6.2892 44.1130 3.2486 -4.2907
# 5 -21.2968 -6.9785 -12.7317 3.2486 33.4349 -4.0232
# 6 -2.8586 2.1269 8.2046 -4.2907 -4.0232 35.6081
#
#
#
# Elastic Compliance Matrix: (Units=1/GPa)
#
#
# Indices 1 2 3 4 5 6 
#
# 1 0.009021 -0.002349 -0.002604 0.000947 0.004422 0.002078
# 2 -0.002349 0.011071 -0.003237 0.002814 -0.000673 0.000159
# 3 -0.002604 -0.003237 0.020904 0.000439 0.005077 -0.004206
# 4 0.000947 0.002814 0.000439 0.024240 -0.000679 0.002651
# 5 0.004422 -0.000673 0.005077 -0.000679 0.034957 0.003093
# 6 0.002078 0.000159 -0.004206 0.002651 0.003093 0.029879
#
#
# Mechanical properties :
#
#
# Convention : Reuss Voigt Hill
#
# Bulk Modulus (GPa) = 40.62496 55.25852 47.94174
# Shear Modulus (GPa) = 32.32973 37.17341 34.75157
#
# Velocity S-wave (km/s) = 3.77721 4.05030 3.91614
# Velocity P-wave (km/s) = 6.07875 6.80141 6.45021
#
# Compressibility (1/GPa) = 0.02461541
#
# Stress axis : x y z
#
# Youngs Moduli (GPa) = 110.85735 90.32573 47.83759
#
# Poissons Ratio (x) = 0.21219 0.12455
# Poissons Ratio (y) = 0.26042 0.15487
# Poissons Ratio (z) = 0.28862 0.29242
#
# Static dielectric constant tensor:
#      x y z
#    x 4.401450 0.019500 -0.077940 
#    y 0.019500 4.302800 0.055970 
#    z -0.077940 0.055970 4.099460 
# 
# 
# High freq. dielectric constant tensor:
#      x y z
#    x 1.901800 0.001130 -0.013620 
#    y 0.001130 1.902890 0.015640 
#    z -0.013620 0.015640 1.896230 
# 
# From -- ./inp_files/534650.got.cif
#   From: 2010.06.25/outbox.cif.g09.slc.cpg/sg2_268_cif.got.tgz:534650.got - 2010.06.27 13:26:56.
