data_PCOD8031050
_publ_section_title
;
Structure prediction by ZEFSAII (Michael W. Deem and Ramdas Pophale) SiO2 
 PCOD8031050
Probable space group: P -1
;
_chemical_formula_sum "Si O2"
_cell_formula_units_Z 16
_cell_length_a 8.418459
_cell_length_b 14.251658
_cell_length_c 20.035056
_cell_angle_alpha 38.425309
_cell_angle_beta 137.140868
_cell_angle_gamma 147.049453
_cell_volume 791.964285
_symmetry_space_group_name_H-M "P -1"
_symmetry_group_IT_number 2
_symmetry_cell_setting 'triclinic'
loop_
_space_group_symop_operation_xyz
x,y,z
-x,-y,-z
loop_
_atom_site_type_symbol
_atom_site_label
_atom_site_fract_x
_atom_site_fract_y
_atom_site_fract_z
Si Si1 0.555486 0.750947 0.451589
Si Si2 0.593293 0.617410 0.787885
Si Si3 0.153552 0.131510 0.395455
Si Si4 0.823695 0.035039 0.976255
Si Si5 0.198860 0.332009 0.036656
Si Si6 0.695914 0.358795 0.897547
Si Si7 0.731428 0.535513 0.682150
Si Si8 0.095387 0.647970 0.258375
O O1 0.616656 0.850267 0.488961
O O2 0.508076 0.550003 0.560244
O O3 0.272604 0.701685 0.352699
O O4 0.861012 0.910852 0.415085
O O5 0.671965 0.781397 0.668887
O O6 0.716545 0.719073 0.840600
O O7 0.755475 0.525815 0.870377
O O8 0.239611 0.441004 0.776904
O O9 0.060145 0.259783 0.326210
O O10 0.027026 0.144504 0.042315
O O11 0.518296 0.843258 0.017295
O O12 0.746871 0.158344 0.845023
O O13 0.000000 0.000000 0.000000
O O14 0.500000 0.500000 0.000000
O O15 0.008551 0.405382 0.951256
O O16 0.562679 0.364652 0.781585
O O17 0.915682 0.507924 0.702445
#
# Coordination Sequence:
#
# PCOD8031050 Si02
#       8
#     2   2   2   2   2   2   2   2
#     4   9  20  40  68  88 120 165 213 264 313 368
#     4  11  23  40  60  95 128 165 208 258 316 385
#     4   8  20  41  61  90 123 154 218 256 320 367
#     4  12  25  42  59  95 134 163 216 256 312 382
#     4  12  23  42  63  91 126 167 209 261 317 374
#     4  11  22  42  63  90 127 169 207 265 312 379
#     4   9  19  39  64  89 120 162 213 258 311 374
#     4  12  22  39  62  92 129 167 210 256 317 370
#
# _framework density 20.202931
#
# number of rings (size 3 to 8) (size 9 to 14) (size 15 to 20)
#    0.750    0.750    3.750    1.125    1.750    0.500 
#    4.500    0.625    0.000    0.000    0.000    0.000 
#    0.000    0.000    0.000    0.000    0.000    0.000 
#
# Total GULP energy -198223.542797 kJ/mol
# GULP energy per Si atom -12388.971425 kJ/mol
# Density = 2.015695 g / cm^3
# Si number density = 20.202931 Si / 1000 Ang^3
#
#
#
# Elastic Constant Matrix: (Units=GPa)
#
#
# Indices 1 2 3 4 5 6 
#
# 1 100.2046 32.7623 45.2069 9.9243 -12.3462 2.7259
# 2 32.7623 54.2503 52.4081 10.0677 -12.7336 7.1874
# 3 45.2069 52.4081 140.8578 5.8174 -29.3864 9.6438
# 4 9.9243 10.0677 5.8174 32.7215 2.4201 -10.5159
# 5 -12.3462 -12.7336 -29.3864 2.4201 40.2052 -3.6949
# 6 2.7259 7.1874 9.6438 -10.5159 -3.6949 31.4686
#
#
#
# Elastic Compliance Matrix: (Units=1/GPa)
#
#
# Indices 1 2 3 4 5 6 
#
# 1 0.012899 -0.005440 -0.001832 -0.001938 0.001031 0.000160
# 2 -0.005440 0.034357 -0.009706 -0.009728 0.002021 -0.007415
# 3 -0.001832 -0.009706 0.012420 0.000762 0.005345 -0.000548
# 4 -0.001938 -0.009728 0.000762 0.039041 -0.004116 0.014719
# 5 0.001031 0.002021 0.005345 -0.004116 0.029979 -0.000044
# 6 0.000160 -0.007415 -0.000548 0.014719 -0.000044 0.038539
#
#
# Mechanical properties :
#
#
# Convention : Reuss Voigt Hill
#
# Bulk Modulus (GPa) = 38.88051 61.78524 50.33288
# Shear Modulus (GPa) = 23.83643 31.87477 27.85560
#
# Velocity S-wave (km/s) = 3.43862 3.97637 3.71723
# Velocity P-wave (km/s) = 5.92049 7.19241 6.58722
#
# Compressibility (1/GPa) = 0.02571983
#
# Stress axis : x y z
#
# Youngs Moduli (GPa) = 77.52456 29.10645 80.51814
#
# Poissons Ratio (x) = 0.15834 0.14749
# Poissons Ratio (y) = 0.42174 0.78150
# Poissons Ratio (z) = 0.14200 0.28251
#
# Static dielectric constant tensor:
#      x y z
#    x 3.652070 -0.042810 -0.278150 
#    y -0.042810 3.153500 -0.097760 
#    z -0.278150 -0.097760 3.975840 
# 
# 
# High freq. dielectric constant tensor:
#      x y z
#    x 1.782430 -0.007140 -0.026330 
#    y -0.007140 1.764600 -0.007150 
#    z -0.026330 -0.007150 1.799290 
# 
# From -- ./inp_files/590269.got.cif
#   From: 2010.06.25/outbox.cif.g09.slc.cpg/sg2_296_cif.got.tgz:590269.got - 2010.06.27 13:26:56.
