data_PCOD8031066
_publ_section_title
;
Structure prediction by ZEFSAII (Michael W. Deem and Ramdas Pophale) SiO2 
 PCOD8031066
Probable space group: P -1
;
_chemical_formula_sum "Si O2"
_cell_formula_units_Z 12
_cell_length_a 11.697151
_cell_length_b 8.611356
_cell_length_c 9.666583
_cell_angle_alpha 132.141725
_cell_angle_beta 125.716740
_cell_angle_gamma 61.605816
_cell_volume 580.477241
_symmetry_space_group_name_H-M "P -1"
_symmetry_group_IT_number 2
_symmetry_cell_setting 'triclinic'
loop_
_space_group_symop_operation_xyz
x,y,z
-x,-y,-z
loop_
_atom_site_type_symbol
_atom_site_label
_atom_site_fract_x
_atom_site_fract_y
_atom_site_fract_z
Si Si1 0.540852 0.243618 0.485655
Si Si2 0.359538 0.662325 0.670509
Si Si3 0.769752 0.054042 0.732927
Si Si4 0.979377 0.704098 0.010626
Si Si5 0.889266 0.588733 0.586641
Si Si6 0.701935 0.999835 0.948015
O O1 0.494594 0.478473 0.655418
O O2 0.650248 0.240997 0.433059
O O3 0.618536 0.109086 0.584083
O O4 0.400689 0.154646 0.280636
O O5 0.212828 0.582882 0.555911
O O6 0.383406 0.838305 0.907297
O O7 0.759447 0.120676 0.928513
O O8 0.887393 0.167189 0.804290
O O9 0.802766 0.802329 0.594080
O O10 0.977175 0.628787 0.807548
O O11 0.000000 0.500000 0.000000
O O12 0.832851 0.857665 0.034095
O O13 0.000000 0.500000 0.500000
#
# Coordination Sequence:
#
# PCOD8031066 Si02
#       6
#     2   2   2   2   2   2
#     4  11  24  43  64  95 134 165 210 263 316 379
#     4  11  23  41  68  91 131 170 209 257 322 372
#     4  11  23  41  65  94 131 165 212 267 313 374
#     4  11  23  41  65  92 129 167 213 264 313 374
#     4  11  22  42  65  94 128 167 214 262 313 375
#     4  11  23  44  65  93 130 167 214 260 316 376
#
# _framework density 20.672643000000001
#
# number of rings (size 3 to 8) (size 9 to 14) (size 15 to 20)
#    0.000    1.000    3.333    6.000    2.333    2.000 
#    3.000    3.333    0.000    0.000    0.000    0.000 
#    0.000    0.000    0.000    0.000    0.000    0.000 
#
# Total GULP energy -148817.379689 kJ/mol
# GULP energy per Si atom -12401.448307 kJ/mol
# Density = 2.062559 g / cm^3
# Si number density = 20.672643 Si / 1000 Ang^3
#
#
#
# Elastic Constant Matrix: (Units=GPa)
#
#
# Indices 1 2 3 4 5 6 
#
# 1 120.9982 46.3831 28.4196 5.1513 -11.4399 -0.4468
# 2 46.3831 122.4568 50.1172 -8.5837 -10.1656 -1.4729
# 3 28.4196 50.1172 74.5048 7.3334 -13.5119 -19.2745
# 4 5.1513 -8.5837 7.3334 30.2971 -9.4256 1.2126
# 5 -11.4399 -10.1656 -13.5119 -9.4256 48.8295 14.9473
# 6 -0.4468 -1.4729 -19.2745 1.2126 14.9473 33.9734
#
#
#
# Elastic Compliance Matrix: (Units=1/GPa)
#
#
# Indices 1 2 3 4 5 6 
#
# 1 0.010064 -0.003139 -0.001702 -0.001703 0.001367 -0.001510
# 2 -0.003139 0.014491 -0.010664 0.008490 0.003160 -0.007157
# 3 -0.001702 -0.010664 0.025878 -0.010302 -0.002202 0.015533
# 4 -0.001703 0.008490 -0.010302 0.041789 0.010082 -0.011427
# 5 0.001367 0.003160 -0.002202 0.010082 0.026857 -0.013270
# 6 -0.001510 -0.007157 0.015533 -0.011427 -0.013270 0.044164
#
#
# Mechanical properties :
#
#
# Convention : Reuss Voigt Hill
#
# Bulk Modulus (GPa) = 51.48975 63.08885 57.28930
# Shear Modulus (GPa) = 24.90927 35.48932 30.19930
#
# Velocity S-wave (km/s) = 3.47499 4.14784 3.82623
# Velocity P-wave (km/s) = 6.40796 7.31599 6.87698
#
# Compressibility (1/GPa) = 0.01942134
#
# Stress axis : x y z
#
# Youngs Moduli (GPa) = 99.36427 69.00781 38.64260
#
# Poissons Ratio (x) = 0.21664 0.06578
# Poissons Ratio (y) = 0.31193 0.41210
# Poissons Ratio (z) = 0.16915 0.73592
#
# Static dielectric constant tensor:
#      x y z
#    x 4.171840 0.196090 -0.061440 
#    y 0.196090 3.645310 -0.002090 
#    z -0.061440 -0.002090 3.592860 
# 
# 
# High freq. dielectric constant tensor:
#      x y z
#    x 1.827150 0.007740 0.002540 
#    y 0.007740 1.808660 0.004050 
#    z 0.002540 0.004050 1.800940 
# 
# From -- ./inp_files/146957.got.cif
#   From: 2010.06.25/outbox.cif.g09.slc.cpg/sg2_74_cif.got.tgz:146957.got - 2010.06.27 13:26:56.
