data_PCOD8031296
_publ_section_title
;
Structure prediction by ZEFSAII (Michael W. Deem and Ramdas Pophale) SiO2 
 PCOD8031296
Probable space group: P -1
;
_chemical_formula_sum "Si O2"
_cell_formula_units_Z 14
_cell_length_a 9.964731
_cell_length_b 9.564183
_cell_length_c 8.358679
_cell_angle_alpha 86.324097
_cell_angle_beta 113.070748
_cell_angle_gamma 116.755392
_cell_volume 648.296652
_symmetry_space_group_name_H-M "P -1"
_symmetry_group_IT_number 2
_symmetry_cell_setting 'triclinic'
loop_
_space_group_symop_operation_xyz
x,y,z
-x,-y,-z
loop_
_atom_site_type_symbol
_atom_site_label
_atom_site_fract_x
_atom_site_fract_y
_atom_site_fract_z
Si Si1 0.013417 0.869781 0.770841
Si Si2 0.340306 0.643723 0.303256
Si Si3 0.091617 0.412641 0.463214
Si Si4 0.805768 0.127373 0.821310
Si Si5 0.359759 0.202997 0.352246
Si Si6 0.379154 0.421566 0.093417
Si Si7 0.894443 0.787541 0.244563
O O1 0.039812 0.741313 0.686471
O O2 0.817688 0.808398 0.693503
O O3 0.100756 0.044817 0.717887
O O4 0.092019 0.882592 0.979535
O O5 0.232591 0.532984 0.404730
O O6 0.265441 0.752177 0.190577
O O7 0.527241 0.752351 0.440516
O O8 0.337734 0.546764 0.153568
O O9 0.172627 0.341200 0.634937
O O10 0.000000 0.500000 0.500000
O O11 0.921985 0.181097 0.715808
O O12 0.655389 0.956530 0.722666
O O13 0.454896 0.345469 0.260549
O O14 0.500000 0.500000 0.000000
O O15 0.213053 0.280227 0.958651
#
# Coordination Sequence:
#
# PCOD8031296 Si02
#       7
#     2   2   2   2   2   2   2
#     4  11  23  44  71  93 132 178 224 267 323 393
#     4  12  26  43  66 100 140 170 211 281 338 374
#     4  12  25  41  67 103 138 167 220 276 330 387
#     4  11  22  45  70  96 134 175 221 270 329 392
#     4  11  22  45  67  97 132 179 219 264 330 397
#     4  12  25  43  70  97 132 174 226 269 326 395
#     4  11  22  43  68  99 127 177 226 266 318 400
#
# _framework density 21.595051000000002
#
# number of rings (size 3 to 8) (size 9 to 14) (size 15 to 20)
#    0.000    0.571    5.714    3.000    4.000    1.143 
#    0.000    0.714    0.000    0.000    0.000    0.000 
#    0.000    0.000    0.000    0.000    0.000    0.000 
#
# Total GULP energy -173599.177257 kJ/mol
# GULP energy per Si atom -12399.941233 kJ/mol
# Density = 2.154590 g / cm^3
# Si number density = 21.595051 Si / 1000 Ang^3
#
#
#
# Elastic Constant Matrix: (Units=GPa)
#
#
# Indices 1 2 3 4 5 6 
#
# 1 90.3791 63.3103 34.7339 2.9255 -13.0041 -9.9229
# 2 63.3103 152.2940 40.0512 10.8364 -6.1485 -27.1573
# 3 34.7339 40.0512 84.4466 13.9196 2.6324 -7.9016
# 4 2.9255 10.8364 13.9196 51.1594 -2.5629 -4.4337
# 5 -13.0041 -6.1485 2.6324 -2.5629 37.7227 5.0692
# 6 -9.9229 -27.1573 -7.9016 -4.4337 5.0692 25.5504
#
#
#
# Elastic Compliance Matrix: (Units=1/GPa)
#
#
# Indices 1 2 3 4 5 6 
#
# 1 0.018110 -0.006495 -0.005070 0.001819 0.005972 -0.002307
# 2 -0.006495 0.011336 -0.001655 -0.000863 -0.001567 0.009176
# 3 -0.005070 -0.001655 0.015531 -0.003662 -0.003503 0.001134
# 4 0.001819 -0.000863 -0.003662 0.020882 0.001905 0.001903
# 5 0.005972 -0.001567 -0.003503 0.001905 0.029486 -0.005949
# 6 -0.002307 0.009176 0.001134 0.001903 -0.005949 0.049856
#
#
# Mechanical properties :
#
#
# Convention : Reuss Voigt Hill
#
# Bulk Modulus (GPa) = 53.94861 67.03451 60.49156
# Shear Modulus (GPa) = 28.11819 35.48811 31.80315
#
# Velocity S-wave (km/s) = 3.61233 4.05822 3.84175
# Velocity P-wave (km/s) = 6.51420 7.28477 6.91023
#
# Compressibility (1/GPa) = 0.01853616
#
# Stress axis : x y z
#
# Youngs Moduli (GPa) = 55.21914 88.21564 64.38582
#
# Poissons Ratio (x) = 0.57294 0.32645
# Poissons Ratio (y) = 0.35863 0.10658
# Poissons Ratio (z) = 0.27998 0.14603
#
# Static dielectric constant tensor:
#      x y z
#    x 3.379220 0.130150 0.114080 
#    y 0.130150 4.168130 0.039560 
#    z 0.114080 0.039560 3.872320 
# 
# 
# High freq. dielectric constant tensor:
#      x y z
#    x 1.818720 -0.004060 -0.005340 
#    y -0.004060 1.873670 0.005870 
#    z -0.005340 0.005870 1.857860 
# 
# From -- ./inp_files/158890.got.cif
#   From: 2010.06.25/outbox.cif.g09.slc.cpg/sg2_80_cif.got.tgz:158890.got - 2010.06.27 13:26:56.
