data_PCOD8031875
_publ_section_title
;
Structure prediction by ZEFSAII (Michael W. Deem and Ramdas Pophale) SiO2 
 PCOD8031875
Probable space group: P -1
;
_chemical_formula_sum "Si O2"
_cell_formula_units_Z 14
_cell_length_a 8.559911
_cell_length_b 9.292578
_cell_length_c 12.694258
_cell_angle_alpha 128.542302
_cell_angle_beta 129.077629
_cell_angle_gamma 75.292064
_cell_volume 596.839049
_symmetry_space_group_name_H-M "P -1"
_symmetry_group_IT_number 2
_symmetry_cell_setting 'triclinic'
loop_
_space_group_symop_operation_xyz
x,y,z
-x,-y,-z
loop_
_atom_site_type_symbol
_atom_site_label
_atom_site_fract_x
_atom_site_fract_y
_atom_site_fract_z
Si Si1 0.075322 0.973034 0.814647
Si Si2 0.474198 0.063911 0.148076
Si Si3 0.202569 0.274346 0.256880
Si Si4 0.956336 0.331266 0.983860
Si Si5 0.161738 0.591301 0.521087
Si Si6 0.512747 0.291101 0.874780
Si Si7 0.089545 0.173893 0.544370
O O1 0.982709 0.155342 0.845311
O O2 0.327084 0.027242 0.963362
O O3 0.995526 0.867208 0.840910
O O4 0.985432 0.853512 0.620799
O O5 0.370287 0.155594 0.243112
O O6 0.677983 0.225033 0.278981
O O7 0.528005 0.867537 0.121790
O O8 0.283869 0.442892 0.453676
O O9 0.126813 0.366146 0.163709
O O10 0.727620 0.295639 0.914657
O O11 0.000000 0.500000 0.000000
O O12 0.000000 0.500000 0.500000
O O13 0.022010 0.654957 0.396117
O O14 0.335343 0.230509 0.683415
O O15 0.500000 0.500000 0.000000
O O16 0.000000 0.000000 0.500000
#
# Coordination Sequence:
#
# PCOD8031875 Si02
#       7
#     2   2   2   2   2   2   2
#     4  11  24  48  77 100 144 191 243 292 358 432
#     4  11  24  49  77 103 139 196 243 293 356 431
#     4  11  22  49  74 104 143 185 245 296 352 431
#     4  11  25  44  75 108 141 187 240 300 358 423
#     4  12  26  46  73 108 144 189 241 296 357 429
#     4  12  26  47  75 105 148 190 237 294 368 425
#     4  12  28  46  68 110 152 187 233 303 362 418
#
# _framework density 23.456909
#
# number of rings (size 3 to 8) (size 9 to 14) (size 15 to 20)
#    0.000    0.571    5.714    2.143    4.000    3.429 
#    5.143    0.000    0.000    0.000    0.000    0.000 
#    0.000    0.000    0.000    0.000    0.000    0.000 
#
# Total GULP energy -173530.921405 kJ/mol
# GULP energy per Si atom -12395.065815 kJ/mol
# Density = 2.340352 g / cm^3
# Si number density = 23.456909 Si / 1000 Ang^3
#
#
#
# Elastic Constant Matrix: (Units=GPa)
#
#
# Indices 1 2 3 4 5 6 
#
# 1 75.8073 42.5786 51.7871 -0.1449 14.4634 -6.0557
# 2 42.5786 176.9663 53.8654 10.9500 1.9823 1.8714
# 3 51.7871 53.8654 135.3206 2.2042 7.7395 -6.8638
# 4 -0.1449 10.9500 2.2042 40.8494 -0.8670 -0.0265
# 5 14.4634 1.9823 7.7395 -0.8670 39.2541 3.6570
# 6 -6.0557 1.8714 -6.8638 -0.0265 3.6570 52.9132
#
#
#
# Elastic Compliance Matrix: (Units=1/GPa)
#
#
# Indices 1 2 3 4 5 6 
#
# 1 0.020522 -0.003076 -0.006177 0.001097 -0.006359 0.002096
# 2 -0.003076 0.007014 -0.001698 -0.001775 0.001159 -0.000901
# 3 -0.006177 -0.001698 0.010453 -0.000125 0.000233 0.000693
# 4 0.001097 -0.001775 -0.000125 0.024972 0.000246 0.000168
# 5 -0.006359 0.001159 0.000233 0.000246 0.027968 -0.002671
# 6 0.002096 -0.000901 0.000693 0.000168 -0.002671 0.019445
#
#
# Mechanical properties :
#
#
# Convention : Reuss Voigt Hill
#
# Bulk Modulus (GPa) = 62.16099 76.06180 69.11140
# Shear Modulus (GPa) = 36.32688 42.59421 39.46054
#
# Velocity S-wave (km/s) = 3.93958 4.26590 4.10598
# Velocity P-wave (km/s) = 6.87396 7.53395 7.21151
#
# Compressibility (1/GPa) = 0.01608726
#
# Stress axis : x y z
#
# Youngs Moduli (GPa) = 48.72878 142.56894 95.66208
#
# Poissons Ratio (x) = 0.43858 0.59090
# Poissons Ratio (y) = 0.14990 0.16242
# Poissons Ratio (z) = 0.30100 0.24206
#
# Static dielectric constant tensor:
#      x y z
#    x 4.696790 -0.459870 0.237730 
#    y -0.459870 4.713840 0.163270 
#    z 0.237730 0.163270 4.691430 
# 
# 
# High freq. dielectric constant tensor:
#      x y z
#    x 1.944840 -0.013880 0.000040 
#    y -0.013880 1.950610 0.014690 
#    z 0.000040 0.014690 1.926720 
# 
# From -- ./inp_files/185168.got.cif
#   From: 2010.06.25/outbox.cif.g09.slc.cpg/sg2_93_cif.got.tgz:185168.got - 2010.06.27 13:26:56.
