data_PCOD8031664
_publ_section_title
;
Structure prediction by ZEFSAII (Michael W. Deem and Ramdas Pophale) SiO2 
 PCOD8031664
Probable space group: P -1
;
_chemical_formula_sum "Si O2"
_cell_formula_units_Z 16
_cell_length_a 12.103946
_cell_length_b 7.610844
_cell_length_c 8.643662
_cell_angle_alpha 77.158009
_cell_angle_beta 101.404350
_cell_angle_gamma 107.673601
_cell_volume 732.397898
_symmetry_space_group_name_H-M "P -1"
_symmetry_group_IT_number 2
_symmetry_cell_setting 'triclinic'
loop_
_space_group_symop_operation_xyz
x,y,z
-x,-y,-z
loop_
_atom_site_type_symbol
_atom_site_label
_atom_site_fract_x
_atom_site_fract_y
_atom_site_fract_z
Si Si1 0.995915 0.556531 0.312443
Si Si2 0.521197 0.243375 0.319595
Si Si3 0.163095 0.326216 0.329981
Si Si4 0.220433 0.164138 0.689192
Si Si5 0.617063 0.480498 0.833026
Si Si6 0.735153 0.479617 0.185569
Si Si7 0.991128 0.021531 0.812038
Si Si8 0.464776 0.149478 0.665964
O O1 0.867644 0.467261 0.223511
O O2 0.035204 0.780850 0.267360
O O3 0.000000 0.500000 0.500000
O O4 0.083180 0.467911 0.257175
O O5 0.455562 0.369183 0.177684
O O6 0.660232 0.329980 0.316789
O O7 0.488561 0.254977 0.487727
O O8 0.484326 0.030746 0.289217
O O9 0.167276 0.267568 0.520339
O O10 0.292735 0.433970 0.293914
O O11 0.116406 0.142300 0.248169
O O12 0.270523 0.313829 0.808199
O O13 0.110913 0.006463 0.762301
O O14 0.324608 0.081958 0.672930
O O15 0.529767 0.286332 0.790877
O O16 0.682735 0.434526 0.009563
O O17 0.000000 0.000000 0.000000
#
# Coordination Sequence:
#
# PCOD8031664 Si02
#       8
#     2   2   2   2   2   2   2   2
#     4  11  25  45  72 103 136 184 239 280 340 417
#     4  11  24  44  69  98 135 179 234 281 337 412
#     4  12  24  44  75  97 137 187 230 282 345 416
#     4  11  22  45  70 101 136 181 230 282 339 415
#     4  12  25  45  67 101 143 176 224 287 353 399
#     4  11  24  43  69  98 142 177 219 295 344 400
#     4  11  26  45  68 104 144 178 227 292 347 403
#     4  11  25  43  71 102 130 183 236 277 339 413
#
# _framework density 21.846046999999999
#
# number of rings (size 3 to 8) (size 9 to 14) (size 15 to 20)
#    0.000    0.750    5.000    3.375    1.750    3.500 
#    0.000    0.000    0.000    0.000    0.000    0.000 
#    0.000    0.000    0.000    0.000    0.000    0.000 
#
# Total GULP energy -198470.550852 kJ/mol
# GULP energy per Si atom -12404.409428 kJ/mol
# Density = 2.179632 g / cm^3
# Si number density = 21.846047 Si / 1000 Ang^3
#
#
#
# Elastic Constant Matrix: (Units=GPa)
#
#
# Indices 1 2 3 4 5 6 
#
# 1 108.5088 43.8539 16.7456 3.3844 7.1900 -5.5276
# 2 43.8539 92.1620 20.2216 1.1834 17.8600 -14.3586
# 3 16.7456 20.2216 87.5891 7.8445 9.9842 -12.9447
# 4 3.3844 1.1834 7.8445 26.8066 6.8445 -0.0985
# 5 7.1900 17.8600 9.9842 6.8445 35.6595 -5.9317
# 6 -5.5276 -14.3586 -12.9447 -0.0985 -5.9317 32.9158
#
#
#
# Elastic Compliance Matrix: (Units=1/GPa)
#
#
# Indices 1 2 3 4 5 6 
#
# 1 0.011554 -0.005530 -0.001034 -0.001125 0.000824 -0.000734
# 2 -0.005530 0.015583 -0.001409 0.001961 -0.005966 0.004246
# 3 -0.001034 -0.001409 0.012991 -0.003229 -0.001429 0.004054
# 4 -0.001125 0.001961 -0.003229 0.040317 -0.007907 -0.001908
# 5 0.000824 -0.005966 -0.001429 -0.007907 0.033273 0.002946
# 6 -0.000734 0.004246 0.004054 -0.001908 0.002946 0.034229
#
#
# Mechanical properties :
#
#
# Convention : Reuss Voigt Hill
#
# Bulk Modulus (GPa) = 41.35123 49.98909 45.67016
# Shear Modulus (GPa) = 29.07786 32.90563 30.99175
#
# Velocity S-wave (km/s) = 3.65229 3.88526 3.77057
# Velocity P-wave (km/s) = 6.06261 6.56194 6.31721
#
# Compressibility (1/GPa) = 0.02418308
#
# Stress axis : x y z
#
# Youngs Moduli (GPa) = 86.55343 64.17081 76.97655
#
# Poissons Ratio (x) = 0.35488 0.07957
# Poissons Ratio (y) = 0.47866 0.10842
# Poissons Ratio (z) = 0.08946 0.09039
#
# Static dielectric constant tensor:
#      x y z
#    x 4.226480 0.014100 -0.056700 
#    y 0.014100 3.775750 -0.020350 
#    z -0.056700 -0.020350 3.791670 
# 
# 
# High freq. dielectric constant tensor:
#      x y z
#    x 1.872270 0.004550 -0.007860 
#    y 0.004550 1.857450 0.002170 
#    z -0.007860 0.002170 1.854210 
# 
# From -- ./inp_files/237890.got.cif
#   From: 2010.06.25/outbox.cif.g09.slc.cpg/sg2_119_cif.got.tgz:237890.got - 2010.06.27 13:26:56.
