data_PCOD8031420
_publ_section_title
;
Structure prediction by ZEFSAII (Michael W. Deem and Ramdas Pophale) SiO2 
 PCOD8031420
Probable space group: P -1
;
_chemical_formula_sum "Si O2"
_cell_formula_units_Z 16
_cell_length_a 18.351483
_cell_length_b 9.633735
_cell_length_c 13.578063
_cell_angle_alpha 34.768623
_cell_angle_beta 44.891501
_cell_angle_gamma 70.842932
_cell_volume 749.826749
_symmetry_space_group_name_H-M "P -1"
_symmetry_group_IT_number 2
_symmetry_cell_setting 'triclinic'
loop_
_space_group_symop_operation_xyz
x,y,z
-x,-y,-z
loop_
_atom_site_type_symbol
_atom_site_label
_atom_site_fract_x
_atom_site_fract_y
_atom_site_fract_z
Si Si1 0.830119 0.843214 0.545269
Si Si2 0.797836 0.286639 0.398306
Si Si3 0.751224 0.611844 0.544970
Si Si4 0.490039 0.229113 0.111022
Si Si5 0.124090 0.665862 0.482093
Si Si6 0.391325 0.825688 0.791986
Si Si7 0.895861 0.958502 0.852311
Si Si8 0.163084 0.882565 0.981656
O O1 0.791578 0.824195 0.479429
O O2 0.881313 0.180929 0.338549
O O3 0.705077 0.556393 0.896604
O O4 0.947658 0.821759 0.449944
O O5 0.813022 0.302076 0.491691
O O6 0.649540 0.021676 0.659211
O O7 0.841996 0.608277 0.123581
O O8 0.817406 0.444943 0.585164
O O9 0.802094 0.812224 0.281049
O O10 0.591474 0.363069 0.844051
O O11 0.525437 0.065019 0.249736
O O12 0.500000 0.500000 0.000000
O O13 0.168652 0.000111 0.204908
O O14 0.963216 0.417250 0.780298
O O15 0.294918 0.914440 0.830632
O O16 0.500000 0.000000 0.500000
O O17 0.874063 0.106122 0.878295
#
# Coordination Sequence:
#
# PCOD8031420 Si02
#       8
#     2   2   2   2   2   2   2   2
#     4  11  23  45  70 101 146 183 234 293 354 417
#     4  12  27  45  68 110 143 187 233 296 358 412
#     4  11  22  43  75 100 134 192 236 286 351 424
#     4  11  23  47  68  96 142 192 233 283 352 427
#     4  12  25  45  73 105 145 178 239 295 352 420
#     4  11  24  42  73 106 134 188 246 282 346 432
#     4  12  24  46  70 109 145 185 234 295 360 415
#     4  12  23  44  76 106 138 186 241 291 349 429
#
# _framework density 21.338263999999999
#
# number of rings (size 3 to 8) (size 9 to 14) (size 15 to 20)
#    0.000    0.500    6.250    4.125    0.000    2.000 
#    0.000    1.250    0.000    0.000    0.000    0.000 
#    0.000    0.000    0.000    0.000    0.000    0.000 
#
# Total GULP energy -198323.755887 kJ/mol
# GULP energy per Si atom -12395.234743 kJ/mol
# Density = 2.128970 g / cm^3
# Si number density = 21.338264 Si / 1000 Ang^3
#
#
#
# Elastic Constant Matrix: (Units=GPa)
#
#
# Indices 1 2 3 4 5 6 
#
# 1 135.5175 47.6055 71.7429 -6.0821 4.7498 -11.3365
# 2 47.6055 101.6589 51.2986 3.9170 -1.4647 -13.3340
# 3 71.7429 51.2986 128.2706 8.4285 10.1409 -0.7955
# 4 -6.0821 3.9170 8.4285 31.1746 -7.2825 -5.0482
# 5 4.7498 -1.4647 10.1409 -7.2825 43.9874 -2.2366
# 6 -11.3365 -13.3340 -0.7955 -5.0482 -2.2366 34.9813
#
#
#
# Elastic Compliance Matrix: (Units=1/GPa)
#
#
# Indices 1 2 3 4 5 6 
#
# 1 0.011925 -0.002142 -0.006216 0.005139 0.001114 0.003720
# 2 -0.002142 0.013693 -0.004424 0.000265 0.001984 0.004590
# 3 -0.006216 -0.004424 0.013713 -0.005995 -0.003859 -0.004501
# 4 0.005139 0.000265 -0.005995 0.037628 0.007449 0.007536
# 5 0.001114 0.001984 -0.003859 0.007449 0.024991 0.003702
# 6 0.003720 0.004590 -0.004501 0.007536 0.003702 0.032763
#
#
# Mechanical properties :
#
#
# Convention : Reuss Voigt Hill
#
# Bulk Modulus (GPa) = 72.63541 78.52678 75.58110
# Shear Modulus (GPa) = 30.32800 35.01534 32.67167
#
# Velocity S-wave (km/s) = 3.77410 4.05528 3.91721
# Velocity P-wave (km/s) = 7.28736 7.66863 7.48042
#
# Compressibility (1/GPa) = 0.01376739
#
# Stress axis : x y z
#
# Youngs Moduli (GPa) = 83.85839 73.03263 72.92431
#
# Poissons Ratio (x) = 0.15642 0.45328
# Poissons Ratio (y) = 0.17960 0.32261
# Poissons Ratio (z) = 0.52125 0.32309
#
# Static dielectric constant tensor:
#      x y z
#    x 4.114070 -0.203060 -0.030100 
#    y -0.203060 3.845810 -0.000440 
#    z -0.030100 -0.000440 4.054010 
# 
# 
# High freq. dielectric constant tensor:
#      x y z
#    x 1.853620 -0.022300 0.006590 
#    y -0.022300 1.827300 0.011770 
#    z 0.006590 0.011770 1.839560 
# 
# From -- ./inp_files/407355.got.cif
#   From: 2010.06.25/outbox.cif.g09.slc.cpg/sg2_204_cif.got.tgz:407355.got - 2010.06.27 13:26:56.
