data_PCOD8031529
_publ_section_title
;
Structure prediction by ZEFSAII (Michael W. Deem and Ramdas Pophale) SiO2 
 PCOD8031529
Probable space group: P -1
;
_chemical_formula_sum "Si O2"
_cell_formula_units_Z 14
_cell_length_a 13.222726
_cell_length_b 12.585108
_cell_length_c 9.672653
_cell_angle_alpha 123.724228
_cell_angle_beta 36.376391
_cell_angle_gamma 136.707937
_cell_volume 652.732454
_symmetry_space_group_name_H-M "P -1"
_symmetry_group_IT_number 2
_symmetry_cell_setting 'triclinic'
loop_
_space_group_symop_operation_xyz
x,y,z
-x,-y,-z
loop_
_atom_site_type_symbol
_atom_site_label
_atom_site_fract_x
_atom_site_fract_y
_atom_site_fract_z
Si Si1 0.830164 0.872185 0.695456
Si Si2 0.952768 0.296700 0.035854
Si Si3 0.453615 0.839573 0.989929
Si Si4 0.462967 0.747665 0.617713
Si Si5 0.936422 0.945666 0.183874
Si Si6 0.955251 0.451899 0.673456
Si Si7 0.217428 0.420956 0.564898
O O1 0.638273 0.887068 0.927426
O O2 0.735376 0.704343 0.611757
O O3 0.000000 0.000000 0.500000
O O4 0.935743 0.900726 0.749368
O O5 0.706967 0.228840 0.248498
O O6 0.065644 0.426576 0.125991
O O7 0.997877 0.168327 0.924870
O O8 0.043037 0.367373 0.835995
O O9 0.452788 0.746153 0.792531
O O10 0.242606 0.726986 0.225022
O O11 0.500000 0.000000 0.000000
O O12 0.694882 0.878534 0.410001
O O13 0.424237 0.583042 0.501011
O O14 0.000000 0.000000 0.000000
O O15 0.000000 0.500000 0.500000
O O16 0.146348 0.454100 0.524134
#
# Coordination Sequence:
#
# PCOD8031529 Si02
#       7
#     2   2   2   2   2   2   2
#     4  12  24  41  68 104 133 177 238 286 330 422
#     4  11  22  45  72  98 135 182 237 275 338 428
#     4  12  23  40  73 101 135 184 235 279 347 415
#     4  11  23  43  73  98 131 189 231 278 345 413
#     4  12  29  45  66 104 145 179 225 296 354 397
#     4  11  25  41  68 105 137 176 225 297 350 395
#     4  11  22  44  71 100 134 176 241 276 334 429
#
# _framework density 21.448298000000001
#
# number of rings (size 3 to 8) (size 9 to 14) (size 15 to 20)
#    0.000    0.571    5.714    2.571    4.000    4.000 
#    0.000    1.429    0.000    0.000    0.000    0.000 
#    0.000    0.000    0.000    0.000    0.000    0.000 
#
# Total GULP energy -173561.255053 kJ/mol
# GULP energy per Si atom -12397.232504 kJ/mol
# Density = 2.139948 g / cm^3
# Si number density = 21.448298 Si / 1000 Ang^3
#
#
#
# Elastic Constant Matrix: (Units=GPa)
#
#
# Indices 1 2 3 4 5 6 
#
# 1 126.2803 45.5714 55.4260 -12.1218 16.7565 9.3067
# 2 45.5714 109.6087 41.6056 1.0235 4.7472 16.1052
# 3 55.4260 41.6056 87.0857 -9.5966 9.0823 5.3988
# 4 -12.1218 1.0235 -9.5966 40.2561 -2.0617 -0.5457
# 5 16.7565 4.7472 9.0823 -2.0617 48.2527 -4.9020
# 6 9.3067 16.1052 5.3988 -0.5457 -4.9020 36.8940
#
#
#
# Elastic Compliance Matrix: (Units=1/GPa)
#
#
# Indices 1 2 3 4 5 6 
#
# 1 0.012093 -0.002472 -0.005887 0.002132 -0.002906 -0.001464
# 2 -0.002472 0.012440 -0.004339 -0.002156 -0.000069 -0.004213
# 3 -0.005887 -0.004339 0.017601 0.002510 -0.000658 0.000753
# 4 0.002132 -0.002156 0.002510 0.026151 0.000162 0.000444
# 5 -0.002906 -0.000069 -0.000658 0.000162 0.022259 0.003819
# 6 -0.001464 -0.004213 0.000753 0.000444 0.003819 0.029717
#
#
# Mechanical properties :
#
#
# Convention : Reuss Voigt Hill
#
# Bulk Modulus (GPa) = 59.74307 67.57561 63.65934
# Shear Modulus (GPa) = 33.06074 37.10534 35.08304
#
# Velocity S-wave (km/s) = 3.93035 4.16383 4.04877
# Velocity P-wave (km/s) = 6.96504 7.39536 7.18342
#
# Compressibility (1/GPa) = 0.01673834
#
# Stress axis : x y z
#
# Youngs Moduli (GPa) = 82.69243 80.38290 56.81441
#
# Poissons Ratio (x) = 0.19872 0.33445
# Poissons Ratio (y) = 0.20443 0.24653
# Poissons Ratio (z) = 0.48678 0.34880
#
# Static dielectric constant tensor:
#      x y z
#    x 4.153550 0.187970 0.069330 
#    y 0.187970 3.966660 0.333640 
#    z 0.069330 0.333640 3.916120 
# 
# 
# High freq. dielectric constant tensor:
#      x y z
#    x 1.850120 0.016270 -0.006580 
#    y 0.016270 1.850060 0.013390 
#    z -0.006580 0.013390 1.827110 
# 
# From -- ./inp_files/160181.got.cif
#   From: 2010.06.25/outbox.cif.g09.slc.cpg/sg2_81_cif.got.tgz:160181.got - 2010.06.27 13:26:56.
