data_PCOD8031767
_publ_section_title
;
Structure prediction by ZEFSAII (Michael W. Deem and Ramdas Pophale) SiO2 
 PCOD8031767
Probable space group: P -1
;
_chemical_formula_sum "Si O2"
_cell_formula_units_Z 16
_cell_length_a 9.189941
_cell_length_b 14.878404
_cell_length_c 9.467815
_cell_angle_alpha 107.377840
_cell_angle_beta 70.659151
_cell_angle_gamma 140.422538
_cell_volume 776.207025
_symmetry_space_group_name_H-M "P -1"
_symmetry_group_IT_number 2
_symmetry_cell_setting 'triclinic'
loop_
_space_group_symop_operation_xyz
x,y,z
-x,-y,-z
loop_
_atom_site_type_symbol
_atom_site_label
_atom_site_fract_x
_atom_site_fract_y
_atom_site_fract_z
Si Si1 0.530213 0.547467 0.352685
Si Si2 0.003762 0.051418 0.306784
Si Si3 0.821673 0.461291 0.649038
Si Si4 0.022202 0.867071 0.363014
Si Si5 0.460136 0.200350 0.820280
Si Si6 0.660623 0.126950 0.899617
Si Si7 0.877003 0.384320 0.105148
Si Si8 0.468319 0.320490 0.143029
O O1 0.500000 0.500000 0.500000
O O2 0.310589 0.510539 0.362965
O O3 0.762179 0.714769 0.339544
O O4 0.544961 0.463554 0.206508
O O5 0.941740 0.102691 0.466689
O O6 0.206744 0.186411 0.211446
O O7 0.085402 0.993492 0.327860
O O8 0.794676 0.929920 0.216039
O O9 0.639160 0.297896 0.679718
O O10 0.000000 0.500000 0.500000
O O11 0.972529 0.562091 0.780269
O O12 0.210807 0.879610 0.256417
O O13 0.509808 0.129879 0.859007
O O14 0.481987 0.301433 0.963268
O O15 0.846977 0.266113 0.999665
O O16 0.500000 0.000000 0.000000
O O17 0.633789 0.327227 0.186798
O O18 0.000000 0.500000 0.000000
#
# Coordination Sequence:
#
# PCOD8031767 Si02
#       8
#     2   2   2   2   2   2   2   2
#     4  12  25  44  69 106 135 178 236 289 347 404
#     4  11  24  44  67  97 136 182 224 279 351 410
#     4  12  27  43  71 103 139 186 231 286 352 412
#     4  11  24  42  69  95 136 180 226 280 345 408
#     4  11  25  45  68 102 137 184 228 287 345 416
#     4  11  25  44  70 101 137 180 231 283 349 408
#     4  11  22  46  71 100 141 186 225 288 352 408
#     4  11  23  42  73  97 140 174 228 286 351 405
#
# _framework density 20.613060000000001
#
# number of rings (size 3 to 8) (size 9 to 14) (size 15 to 20)
#    0.000    0.750    5.000    3.375    1.750    4.000 
#    0.000    0.000    0.000    0.000    0.000    0.000 
#    0.000    0.000    0.000    0.000    0.000    0.000 
#
# Total GULP energy -198438.418580 kJ/mol
# GULP energy per Si atom -12402.401161 kJ/mol
# Density = 2.056614 g / cm^3
# Si number density = 20.613060 Si / 1000 Ang^3
#
#
#
# Elastic Constant Matrix: (Units=GPa)
#
#
# Indices 1 2 3 4 5 6 
#
# 1 102.5141 15.6968 58.3406 7.2197 3.5401 0.5684
# 2 15.6968 99.3664 40.8889 0.0295 -0.7660 -7.9532
# 3 58.3406 40.8889 123.9831 4.2735 -8.5253 -3.0988
# 4 7.2197 0.0295 4.2735 43.7725 -1.3292 3.0913
# 5 3.5401 -0.7660 -8.5253 -1.3292 41.2932 6.4422
# 6 0.5684 -7.9532 -3.0988 3.0913 6.4422 35.3108
#
#
#
# Elastic Compliance Matrix: (Units=1/GPa)
#
#
# Indices 1 2 3 4 5 6 
#
# 1 0.013731 0.000597 -0.006781 -0.001678 -0.002611 -0.000058
# 2 0.000597 0.011897 -0.004220 0.000097 -0.001087 0.002490
# 3 -0.006781 -0.004220 0.012862 -0.000016 0.003204 -0.000296
# 4 -0.001678 0.000097 -0.000016 0.023318 0.001239 -0.002220
# 5 -0.002611 -0.001087 0.003204 0.001239 0.025863 -0.004749
# 6 -0.000058 0.002490 -0.000296 -0.002220 -0.004749 0.029916
#
#
# Mechanical properties :
#
#
# Convention : Reuss Voigt Hill
#
# Bulk Modulus (GPa) = 56.55823 61.74625 59.15224
# Shear Modulus (GPa) = 34.65227 38.13778 36.39503
#
# Velocity S-wave (km/s) = 4.10455 4.30603 4.20650
# Velocity P-wave (km/s) = 7.06829 7.39882 7.23544
#
# Compressibility (1/GPa) = 0.01768089
#
# Stress axis : x y z
#
# Youngs Moduli (GPa) = 72.82646 84.05507 77.74873
#
# Poissons Ratio (x) = -0.05019 0.52724
# Poissons Ratio (y) = -0.04348 0.32813
# Poissons Ratio (z) = 0.49386 0.35474
#
# Static dielectric constant tensor:
#      x y z
#    x 3.646160 0.108920 -0.258230 
#    y 0.108920 4.001660 0.073200 
#    z -0.258230 0.073200 3.803330 
# 
# 
# High freq. dielectric constant tensor:
#      x y z
#    x 1.803260 0.005160 -0.002850 
#    y 0.005160 1.822530 0.001610 
#    z -0.002850 0.001610 1.817350 
# 
# From -- ./inp_files/208224.got.cif
#   From: 2010.06.25/outbox.cif.g09.slc.cpg/sg2_105_cif.got.tgz:208224.got - 2010.06.27 13:26:56.
