data_PCOD8031951
_publ_section_title
;
Structure prediction by ZEFSAII (Michael W. Deem and Ramdas Pophale) SiO2 
 PCOD8031951
Probable space group: P -1
;
_chemical_formula_sum "Si O2"
_cell_formula_units_Z 14
_cell_length_a 19.090379
_cell_length_b 11.193190
_cell_length_c 7.639428
_cell_angle_alpha 142.388138
_cell_angle_beta 136.950079
_cell_angle_gamma 44.443301
_cell_volume 643.362251
_symmetry_space_group_name_H-M "P -1"
_symmetry_group_IT_number 2
_symmetry_cell_setting 'triclinic'
loop_
_space_group_symop_operation_xyz
x,y,z
-x,-y,-z
loop_
_atom_site_type_symbol
_atom_site_label
_atom_site_fract_x
_atom_site_fract_y
_atom_site_fract_z
Si Si1 0.591937 0.625220 0.624952
Si Si2 0.347891 0.689939 0.315918
Si Si3 0.975585 0.616609 0.276181
Si Si4 0.747707 0.841613 0.266966
Si Si5 0.838966 0.723417 0.656807
Si Si6 0.722364 0.481888 0.366210
Si Si7 0.911504 0.102828 0.314527
O O1 0.463460 0.712869 0.507284
O O2 0.644624 0.446002 0.654585
O O3 0.619972 0.551365 0.389459
O O4 0.638353 0.813794 0.959698
O O5 0.264649 0.916613 0.470311
O O6 0.306754 0.597066 0.964696
O O7 0.847642 0.710401 0.177156
O O8 0.041051 0.446823 0.341052
O O9 0.024063 0.806912 0.605885
O O10 0.000000 0.500000 0.000000
O O11 0.768230 0.734710 0.369127
O O12 0.771731 0.667352 0.629381
O O13 0.855112 0.944228 0.958067
O O14 0.812620 0.301753 0.428884
O O15 0.000000 0.000000 0.500000
#
# Coordination Sequence:
#
# PCOD8031951 Si02
#       7
#     2   2   2   2   2   2   2
#     4  11  26  44  73  97 136 175 228 286 334 395
#     4  11  25  48  68 104 129 176 234 279 338 394
#     4  11  24  40  64  98 134 176 226 266 330 407
#     4  12  24  44  69  95 140 176 220 283 335 396
#     4  11  23  42  64  98 135 176 220 269 333 405
#     4  11  24  46  71  98 138 179 220 278 340 397
#     4  11  23  39  65  98 135 172 227 267 323 413
#
# _framework density 21.760681000000002
#
# number of rings (size 3 to 8) (size 9 to 14) (size 15 to 20)
#    0.000    0.857    4.286    3.000    2.000    0.571 
#    0.000    0.714    0.000    0.000    0.000    0.000 
#    0.000    0.000    0.000    0.000    0.000    0.000 
#
# Total GULP energy -173516.376674 kJ/mol
# GULP energy per Si atom -12394.026905 kJ/mol
# Density = 2.171115 g / cm^3
# Si number density = 21.760681 Si / 1000 Ang^3
#
#
#
# Elastic Constant Matrix: (Units=GPa)
#
#
# Indices 1 2 3 4 5 6 
#
# 1 110.3186 18.2464 41.7875 11.1979 -1.9481 -6.8504
# 2 18.2464 82.4751 12.1756 7.6949 -6.3686 2.7823
# 3 41.7875 12.1756 104.8178 10.5568 12.5996 4.1085
# 4 11.1979 7.6949 10.5568 36.8066 2.6772 5.7255
# 5 -1.9481 -6.3686 12.5996 2.6772 35.7884 -4.7907
# 6 -6.8504 2.7823 4.1085 5.7255 -4.7907 28.4387
#
#
#
# Elastic Compliance Matrix: (Units=1/GPa)
#
#
# Indices 1 2 3 4 5 6 
#
# 1 0.011755 -0.001573 -0.004750 -0.002830 0.002877 0.004726
# 2 -0.001573 0.013034 -0.000972 -0.002058 0.002642 -0.000654
# 3 -0.004750 -0.000972 0.012409 -0.000985 -0.005197 -0.003519
# 4 -0.002830 -0.002058 -0.000985 0.030069 -0.003354 -0.006957
# 5 0.002877 0.002642 -0.005197 -0.003354 0.031611 0.007186
# 6 0.004726 -0.000654 -0.003519 -0.006957 0.007186 0.039485
#
#
# Mechanical properties :
#
#
# Convention : Reuss Voigt Hill
#
# Bulk Modulus (GPa) = 44.22844 49.11450 46.67147
# Shear Modulus (GPa) = 31.15465 35.23355 33.19410
#
# Velocity S-wave (km/s) = 3.78788 4.02822 3.90990
# Velocity P-wave (km/s) = 6.28488 6.65242 6.47126
#
# Compressibility (1/GPa) = 0.02260988
#
# Stress axis : x y z
#
# Youngs Moduli (GPa) = 85.06664 76.71987 80.58795
#
# Poissons Ratio (x) = 0.12067 0.38278
# Poissons Ratio (y) = 0.13379 0.07831
# Poissons Ratio (z) = 0.40406 0.07455
#
# Static dielectric constant tensor:
#      x y z
#    x 3.855040 -0.004720 0.101230 
#    y -0.004720 4.176730 0.144060 
#    z 0.101230 0.144060 4.252030 
# 
# 
# High freq. dielectric constant tensor:
#      x y z
#    x 1.842760 0.005420 0.014950 
#    y 0.005420 1.864420 -0.005210 
#    z 0.014950 -0.005210 1.866430 
# 
# From -- ./inp_files/281575.got.cif
#   From: 2010.06.25/outbox.cif.g09.slc.cpg/sg2_141_cif.got.tgz:281575.got - 2010.06.27 13:26:56.
