data_PCOD8031717
_publ_section_title
;
Structure prediction by ZEFSAII (Michael W. Deem and Ramdas Pophale) SiO2 
 PCOD8031717
Probable space group: P -1
;
_chemical_formula_sum "Si O2"
_cell_formula_units_Z 16
_cell_length_a 10.644998
_cell_length_b 11.852734
_cell_length_c 17.229005
_cell_angle_alpha 159.006235
_cell_angle_beta 116.565687
_cell_angle_gamma 63.325851
_cell_volume 693.235151
_symmetry_space_group_name_H-M "P -1"
_symmetry_group_IT_number 2
_symmetry_cell_setting 'triclinic'
loop_
_space_group_symop_operation_xyz
x,y,z
-x,-y,-z
loop_
_atom_site_type_symbol
_atom_site_label
_atom_site_fract_x
_atom_site_fract_y
_atom_site_fract_z
Si Si1 0.410473 0.741481 0.343472
Si Si2 0.441980 0.294366 0.921080
Si Si3 0.894989 0.233942 0.318405
Si Si4 0.303985 0.048142 0.149038
Si Si5 0.396534 0.733568 0.820685
Si Si6 0.059931 0.725166 0.941342
Si Si7 0.873902 0.377703 0.572458
Si Si8 0.205300 0.067130 0.612431
O O1 0.499135 0.580750 0.336810
O O2 0.500000 0.000000 0.500000
O O3 0.264902 0.911611 0.448096
O O4 0.382010 0.503569 0.112733
O O5 0.323336 0.096205 0.728324
O O6 0.556613 0.017468 0.803644
O O7 0.500000 0.500000 0.000000
O O8 0.727152 0.330138 0.315797
O O9 0.909654 0.166217 0.370992
O O10 0.000000 0.500000 0.500000
O O11 0.940354 0.901030 0.076315
O O12 0.277309 0.414350 0.349521
O O13 0.311614 0.817426 0.929704
O O14 0.175210 0.966798 0.114943
O O15 0.500000 0.000000 0.000000
O O16 0.128783 0.411682 0.800695
O O17 0.988332 0.633229 0.781411
O O18 0.890831 0.171424 0.523950
#
# Coordination Sequence:
#
# PCOD8031717 Si02
#       8
#     2   2   2   2   2   2   2   2
#     4  11  24  43  70 101 140 189 233 288 359 434
#     4  11  23  43  69 105 141 181 239 292 351 425
#     4  12  27  46  77 106 139 195 248 292 361 436
#     4  11  22  45  73  97 142 186 231 303 346 424
#     4  11  25  45  71 105 146 183 234 306 366 410
#     4  12  25  50  70  99 151 187 239 294 354 437
#     4  12  27  43  70 107 138 187 243 291 359 420
#     4  12  27  44  70 105 146 186 232 297 362 423
#
# _framework density 23.080192
#
# number of rings (size 3 to 8) (size 9 to 14) (size 15 to 20)
#    0.000    0.500    5.000    3.000    5.250    3.000 
#    0.000    0.000    0.000    0.000    0.000    0.000 
#    0.000    0.000    0.000    0.000    0.000    0.000 
#
# Total GULP energy -198358.548022 kJ/mol
# GULP energy per Si atom -12397.409251 kJ/mol
# Density = 2.302766 g / cm^3
# Si number density = 23.080192 Si / 1000 Ang^3
#
#
#
# Elastic Constant Matrix: (Units=GPa)
#
#
# Indices 1 2 3 4 5 6 
#
# 1 68.3190 15.6444 19.1145 -5.1016 0.9407 8.6872
# 2 15.6444 106.3673 26.9362 5.1774 -8.3456 0.9136
# 3 19.1145 26.9362 66.3191 -1.4709 -8.6699 -2.7889
# 4 -5.1016 5.1774 -1.4709 61.3257 1.1036 1.3453
# 5 0.9407 -8.3456 -8.6699 1.1036 43.7262 -2.3291
# 6 8.6872 0.9136 -2.7889 1.3453 -2.3291 35.8421
#
#
#
# Elastic Compliance Matrix: (Units=1/GPa)
#
#
# Indices 1 2 3 4 5 6 
#
# 1 0.017028 -0.001496 -0.004705 0.001565 -0.001871 -0.004636
# 2 -0.001496 0.010742 -0.003783 -0.001145 0.001357 -0.000074
# 3 -0.004705 -0.003783 0.018516 0.000251 0.003197 0.002876
# 4 0.001565 -0.001145 0.000251 0.016573 -0.000674 -0.000997
# 5 -0.001871 0.001357 0.003197 -0.000674 0.023940 0.002249
# 6 -0.004636 -0.000074 0.002876 -0.000997 0.002249 0.029433
#
#
# Mechanical properties :
#
#
# Convention : Reuss Voigt Hill
#
# Bulk Modulus (GPa) = 37.99696 40.48841 39.24268
# Shear Modulus (GPa) = 34.48918 40.13284 37.31101
#
# Velocity S-wave (km/s) = 3.86984 4.17447 4.02504
# Velocity P-wave (km/s) = 6.03873 6.38870 6.21618
#
# Compressibility (1/GPa) = 0.02631790
#
# Stress axis : x y z
#
# Youngs Moduli (GPa) = 58.72572 93.09001 54.00833
#
# Poissons Ratio (x) = 0.13928 0.25411
# Poissons Ratio (y) = 0.08787 0.20431
# Poissons Ratio (z) = 0.27631 0.35215
#
# Static dielectric constant tensor:
#      x y z
#    x 4.382350 -0.128160 -0.208350 
#    y -0.128160 4.376030 -0.134740 
#    z -0.208350 -0.134740 4.681950 
# 
# 
# High freq. dielectric constant tensor:
#      x y z
#    x 1.908720 -0.002580 -0.005510 
#    y -0.002580 1.925660 -0.000040 
#    z -0.005510 -0.000040 1.915550 
# 
# From -- ./inp_files/437350.got.cif
#   From: 2010.06.25/outbox.cif.g09.slc.cpg/sg2_219_cif.got.tgz:437350.got - 2010.06.27 13:26:56.
