data_PCOD8031631
_publ_section_title
;
Structure prediction by ZEFSAII (Michael W. Deem and Ramdas Pophale) SiO2 
 PCOD8031631
Probable space group: P -1
;
_chemical_formula_sum "Si O2"
_cell_formula_units_Z 16
_cell_length_a 9.203732
_cell_length_b 12.307326
_cell_length_c 11.636978
_cell_angle_alpha 57.755245
_cell_angle_beta 126.340846
_cell_angle_gamma 89.703792
_cell_volume 791.864220
_symmetry_space_group_name_H-M "P -1"
_symmetry_group_IT_number 2
_symmetry_cell_setting 'triclinic'
loop_
_space_group_symop_operation_xyz
x,y,z
-x,-y,-z
loop_
_atom_site_type_symbol
_atom_site_label
_atom_site_fract_x
_atom_site_fract_y
_atom_site_fract_z
Si Si1 0.359682 0.145368 0.703645
Si Si2 0.716869 0.666181 0.001320
Si Si3 0.479839 0.832963 0.996761
Si Si4 0.099877 0.658446 0.693748
Si Si5 0.033373 0.173007 0.011992
Si Si6 0.779095 0.305235 0.026497
Si Si7 0.703249 0.162401 0.703300
Si Si8 0.546763 0.363776 0.295028
O O1 0.371477 0.175948 0.826139
O O2 0.511542 0.177863 0.678859
O O3 0.128502 0.245018 0.506464
O O4 0.408758 0.978748 0.806684
O O5 0.820037 0.769925 0.006361
O O6 0.575110 0.699388 0.803454
O O7 0.582245 0.696163 0.035945
O O8 0.881275 0.497270 0.176287
O O9 0.292844 0.815120 0.972400
O O10 0.137247 0.727624 0.786700
O O11 0.259676 0.646636 0.677864
O O12 0.962939 0.264088 0.046216
O O13 0.162257 0.000348 0.189987
O O14 0.842081 0.210218 0.817961
O O15 0.602976 0.470232 0.833168
O O16 0.621387 0.269781 0.497338
#
# Coordination Sequence:
#
# PCOD8031631 Si02
#       8
#     2   2   2   2   2   2   2   2
#     4  11  26  40  66  97 128 164 211 263 308 375
#     4  11  23  45  66  91 128 170 211 257 312 375
#     4  11  22  45  66  88 130 167 212 259 308 368
#     4  11  25  42  66  97 125 164 213 263 312 370
#     4  11  26  43  66  90 128 175 204 257 320 372
#     4  11  23  45  66  91 128 170 211 257 312 375
#     4  11  26  44  60  97 134 160 211 263 312 373
#     4  11  25  42  66  95 131 160 209 269 310 370
#
# _framework density 20.205486000000001
#
# number of rings (size 3 to 8) (size 9 to 14) (size 15 to 20)
#    0.000    1.000    5.000    0.750    7.000    5.000 
#    0.000    0.000    0.000    0.000    0.000    0.000 
#    0.000    0.000    0.000    0.000    0.000    0.000 
#
# Total GULP energy -198427.662505 kJ/mol
# GULP energy per Si atom -12401.728907 kJ/mol
# Density = 2.015950 g / cm^3
# Si number density = 20.205486 Si / 1000 Ang^3
#
#
#
# Elastic Constant Matrix: (Units=GPa)
#
#
# Indices 1 2 3 4 5 6 
#
# 1 110.6830 47.4979 81.1425 -2.7603 0.4317 -4.4456
# 2 47.4979 100.5096 58.9546 3.8349 0.7661 4.0401
# 3 81.1425 58.9546 185.9813 5.4108 -0.5626 2.5139
# 4 -2.7603 3.8349 5.4108 11.3406 -0.1429 1.3910
# 5 0.4317 0.7661 -0.5626 -0.1429 36.9127 0.2654
# 6 -4.4456 4.0401 2.5139 1.3910 0.2654 42.7627
#
#
#
# Elastic Compliance Matrix: (Units=1/GPa)
#
#
# Indices 1 2 3 4 5 6 
#
# 1 0.015200 -0.004321 -0.005509 0.007534 -0.000158 0.002068
# 2 -0.004321 0.013546 -0.002263 -0.004378 -0.000272 -0.001452
# 3 -0.005509 -0.002263 0.008642 -0.004608 0.000230 -0.000719
# 4 0.007534 -0.004378 -0.004608 0.093890 0.000308 -0.001588
# 5 -0.000158 -0.000272 0.000230 0.000308 0.027104 -0.000183
# 6 0.002068 -0.001452 -0.000719 -0.001588 -0.000183 0.023832
#
#
# Mechanical properties :
#
#
# Convention : Reuss Voigt Hill
#
# Bulk Modulus (GPa) = 75.74527 85.81820 80.78174
# Shear Modulus (GPa) = 23.71913 32.17514 27.94714
#
# Velocity S-wave (km/s) = 3.42993 3.99481 3.72310
# Velocity P-wave (km/s) = 7.29759 7.99018 7.65172
#
# Compressibility (1/GPa) = 0.01320214
#
# Stress axis : x y z
#
# Youngs Moduli (GPa) = 65.79151 73.82392 115.70910
#
# Poissons Ratio (x) = 0.31896 0.63750
# Poissons Ratio (y) = 0.28426 0.26181
# Poissons Ratio (z) = 0.36248 0.16704
#
# Static dielectric constant tensor:
#      x y z
#    x 3.686670 -0.004590 0.032630 
#    y -0.004590 3.708490 0.012090 
#    z 0.032630 0.012090 3.572380 
# 
# 
# High freq. dielectric constant tensor:
#      x y z
#    x 1.803350 -0.000060 0.000930 
#    y -0.000060 1.801500 0.001790 
#    z 0.000930 0.001790 1.785160 
# 
# From -- ./inp_files/186834.got.cif
#   From: 2010.06.25/outbox.cif.g09.slc.cpg/sg2_94_cif.got.tgz:186834.got - 2010.06.27 13:26:56.
