data_PCOD8031775
_publ_section_title
;
Structure prediction by ZEFSAII (Michael W. Deem and Ramdas Pophale) SiO2 
 PCOD8031775
Probable space group: P -1
;
_chemical_formula_sum "Si O2"
_cell_formula_units_Z 14
_cell_length_a 32.418797
_cell_length_b 9.431531
_cell_length_c 6.704639
_cell_angle_alpha 53.121414
_cell_angle_beta 42.009847
_cell_angle_gamma 27.670675
_cell_volume 625.967684
_symmetry_space_group_name_H-M "P -1"
_symmetry_group_IT_number 2
_symmetry_cell_setting 'triclinic'
loop_
_space_group_symop_operation_xyz
x,y,z
-x,-y,-z
loop_
_atom_site_type_symbol
_atom_site_label
_atom_site_fract_x
_atom_site_fract_y
_atom_site_fract_z
Si Si1 0.617570 0.790899 0.780279
Si Si2 0.797384 0.291555 0.818628
Si Si3 0.668724 0.141692 0.727859
Si Si4 0.480259 0.629998 0.250024
Si Si5 0.256955 0.376456 0.890531
Si Si6 0.894087 0.355068 0.134871
Si Si7 0.891390 0.719968 0.082397
O O1 0.682052 0.517021 0.940562
O O2 0.669728 0.677010 0.470460
O O3 0.607549 0.008492 0.725675
O O4 0.500000 0.000000 0.000000
O O5 0.834458 0.372996 0.491235
O O6 0.797084 0.351220 0.999668
O O7 0.871683 0.941252 0.831143
O O8 0.585611 0.353495 0.663083
O O9 0.786754 0.941850 0.417174
O O10 0.599336 0.408044 0.924265
O O11 0.677934 0.918176 0.962558
O O12 0.500000 0.500000 0.500000
O O13 0.170967 0.470672 0.985460
O O14 0.911183 0.506871 0.045097
O O15 0.000000 0.000000 0.000000
O O16 0.000000 0.500000 0.000000
#
# Coordination Sequence:
#
# PCOD8031775 Si02
#       7
#     2   2   2   2   2   2   2
#     4  11  25  40  66 107 144 183 235 298 357 423
#     4  11  26  48  70 104 145 185 243 291 362 433
#     4  11  24  43  71 101 137 190 241 285 357 435
#     4  11  23  42  69 101 138 189 236 286 358 426
#     4  11  22  46  71  95 145 189 234 291 358 425
#     4  11  26  48  74 100 136 189 237 295 359 424
#     4  12  28  48  74 108 145 190 242 302 364 426
#
# _framework density 22.365373999999999
#
# number of rings (size 3 to 8) (size 9 to 14) (size 15 to 20)
#    0.000    0.857    4.286    1.714    6.000    2.286 
#    2.571    0.000    0.000    0.000    0.000    0.000 
#    0.000    0.000    0.000    0.000    0.000    0.000 
#
# Total GULP energy -173495.866323 kJ/mol
# GULP energy per Si atom -12392.561880 kJ/mol
# Density = 2.231447 g / cm^3
# Si number density = 22.365374 Si / 1000 Ang^3
#
#
#
# Elastic Constant Matrix: (Units=GPa)
#
#
# Indices 1 2 3 4 5 6 
#
# 1 141.6366 63.4594 54.9681 -2.6898 9.7761 -20.2701
# 2 63.4594 151.5991 35.4825 -7.3712 8.7154 -9.4721
# 3 54.9681 35.4825 76.8308 11.2653 18.7675 -10.5328
# 4 -2.6898 -7.3712 11.2653 48.1225 -0.3131 -1.4223
# 5 9.7761 8.7154 18.7675 -0.3131 34.5247 5.4481
# 6 -20.2701 -9.4721 -10.5328 -1.4223 5.4481 48.8758
#
#
#
# Elastic Compliance Matrix: (Units=1/GPa)
#
#
# Indices 1 2 3 4 5 6 
#
# 1 0.011431 -0.002953 -0.006950 0.001897 0.000889 0.002627
# 2 -0.002953 0.008375 -0.001922 0.001568 -0.000228 0.000055
# 3 -0.006950 -0.001922 0.022625 -0.005969 -0.010310 0.002597
# 4 0.001897 0.001568 -0.005969 0.022545 0.002488 0.000183
# 5 0.000889 -0.000228 -0.010310 0.002488 0.035306 -0.005760
# 6 0.002627 0.000055 0.002597 0.000183 -0.005760 0.022767
#
#
# Mechanical properties :
#
#
# Convention : Reuss Voigt Hill
#
# Bulk Modulus (GPa) = 53.24256 75.32073 64.28164
# Shear Modulus (GPa) = 32.68831 40.71504 36.70168
#
# Velocity S-wave (km/s) = 3.82718 4.27130 4.05533
# Velocity P-wave (km/s) = 6.58690 7.62075 7.12261
#
# Compressibility (1/GPa) = 0.01878197
#
# Stress axis : x y z
#
# Youngs Moduli (GPa) = 87.47958 119.40126 44.19938
#
# Poissons Ratio (x) = 0.35262 0.30717
# Poissons Ratio (y) = 0.25835 0.08493
# Poissons Ratio (z) = 0.60796 0.22944
#
# Static dielectric constant tensor:
#      x y z
#    x 4.133780 0.000780 0.318480 
#    y 0.000780 4.142740 0.349280 
#    z 0.318480 0.349280 4.288570 
# 
# 
# High freq. dielectric constant tensor:
#      x y z
#    x 1.880750 -0.007830 0.015300 
#    y -0.007830 1.899610 0.006190 
#    z 0.015300 0.006190 1.878540 
# 
# From -- ./inp_files/40004.got.cif
#   From: 2010.06.25/outbox.cif.g09.slc.cpg/sg2_21_cif.got.tgz:40004.got - 2010.06.27 13:26:56.
