data_PCOD8031206
_publ_section_title
;
Structure prediction by ZEFSAII (Michael W. Deem and Ramdas Pophale) SiO2 
 PCOD8031206
Probable space group: P -1
;
_chemical_formula_sum "Si O2"
_cell_formula_units_Z 16
_cell_length_a 22.917182
_cell_length_b 16.977980
_cell_length_c 14.769280
_cell_angle_alpha 31.230291
_cell_angle_beta 19.464017
_cell_angle_gamma 22.218390
_cell_volume 716.847652
_symmetry_space_group_name_H-M "P -1"
_symmetry_group_IT_number 2
_symmetry_cell_setting 'triclinic'
loop_
_space_group_symop_operation_xyz
x,y,z
-x,-y,-z
loop_
_atom_site_type_symbol
_atom_site_label
_atom_site_fract_x
_atom_site_fract_y
_atom_site_fract_z
Si Si1 0.145673 0.870062 0.614513
Si Si2 0.574973 0.625516 0.092611
Si Si3 0.101671 0.546353 0.038219
Si Si4 0.422476 0.166066 0.521969
Si Si5 0.092730 0.775584 0.104108
Si Si6 0.721738 0.268522 0.936505
Si Si7 0.615364 0.907738 0.664294
Si Si8 0.510326 0.128812 0.785747
O O1 0.298931 0.781780 0.382959
O O2 0.308205 0.844094 0.480939
O O3 0.081951 0.736377 0.862046
O O4 0.893874 0.118504 0.745941
O O5 0.764937 0.561973 0.954765
O O6 0.662431 0.415795 0.122799
O O7 0.571506 0.755704 0.892053
O O8 0.841614 0.621839 0.334267
O O9 0.252328 0.365926 0.919481
O O10 0.500000 0.000000 0.500000
O O11 0.422272 0.083499 0.700703
O O12 0.612601 0.187873 0.225758
O O13 0.133242 0.730088 0.197733
O O14 0.893426 0.774236 0.360077
O O15 0.000000 0.000000 0.000000
O O16 0.500000 0.500000 0.000000
O O17 0.579688 0.023651 0.692345
O O18 0.500000 0.000000 0.000000
#
# Coordination Sequence:
#
# PCOD8031206 Si02
#       8
#     2   2   2   2   2   2   2   2
#     4  11  23  46  71 104 140 184 234 283 356 415
#     4  11  25  43  76 104 134 188 237 288 347 417
#     4  11  24  42  72  99 145 185 227 286 350 414
#     4  12  27  46  66  99 144 182 231 285 356 409
#     4  12  25  45  68 104 141 176 242 288 339 419
#     4  12  28  44  74 102 138 187 229 294 354 415
#     4  12  25  43  72 104 142 182 234 289 350 416
#     4  11  22  42  72 107 135 178 234 293 339 414
#
# _framework density 22.319946000000002
#
# number of rings (size 3 to 8) (size 9 to 14) (size 15 to 20)
#    0.000    0.500    6.250    3.375    7.000    0.500 
#    0.000    2.500    0.000    0.000    0.000    0.000 
#    0.000    0.000    0.000    0.000    0.000    0.000 
#
# Total GULP energy -198325.885214 kJ/mol
# GULP energy per Si atom -12395.367826 kJ/mol
# Density = 2.226914 g / cm^3
# Si number density = 22.319946 Si / 1000 Ang^3
#
#
#
# Elastic Constant Matrix: (Units=GPa)
#
#
# Indices 1 2 3 4 5 6 
#
# 1 68.3535 27.9530 16.3917 4.4033 12.0115 0.0973
# 2 27.9530 141.0077 40.6963 30.5069 16.5870 12.3557
# 3 16.3917 40.6963 93.2200 18.7401 6.6795 1.9122
# 4 4.4033 30.5069 18.7401 43.0718 2.7396 4.9722
# 5 12.0115 16.5870 6.6795 2.7396 35.1507 4.6784
# 6 0.0973 12.3557 1.9122 4.9722 4.6784 45.7526
#
#
#
# Elastic Compliance Matrix: (Units=1/GPa)
#
#
# Indices 1 2 3 4 5 6 
#
# 1 0.016829 -0.002645 -0.001724 0.001057 -0.004402 0.001086
# 2 -0.002645 0.009978 -0.002600 -0.005296 -0.002667 -0.001732
# 3 -0.001724 -0.002600 0.012917 -0.003645 -0.000435 0.000606
# 4 0.001057 -0.005296 -0.003645 0.028580 0.000817 -0.001609
# 5 -0.004402 -0.002667 -0.000435 0.000817 0.031573 -0.002569
# 6 0.001086 -0.001732 0.000606 -0.001609 -0.002569 0.022734
#
#
# Mechanical properties :
#
#
# Convention : Reuss Voigt Hill
#
# Bulk Modulus (GPa) = 38.77967 52.51815 45.64891
# Shear Modulus (GPa) = 34.44909 39.29770 36.87340
#
# Velocity S-wave (km/s) = 3.93290 4.20057 4.06894
# Velocity P-wave (km/s) = 6.16732 6.86346 6.52468
#
# Compressibility (1/GPa) = 0.02578671
#
# Stress axis : x y z
#
# Youngs Moduli (GPa) = 59.42256 100.22427 77.41855
#
# Poissons Ratio (x) = 0.26505 0.13347
# Poissons Ratio (y) = 0.15715 0.20125
# Poissons Ratio (z) = 0.10245 0.26054
#
# Static dielectric constant tensor:
#      x y z
#    x 3.856940 0.351260 0.112180 
#    y 0.351260 4.169230 0.244430 
#    z 0.112180 0.244430 4.026920 
# 
# 
# High freq. dielectric constant tensor:
#      x y z
#    x 1.863220 0.017690 0.003040 
#    y 0.017690 1.893760 0.008610 
#    z 0.003040 0.008610 1.880100 
# 
# From -- ./inp_files/543141.got.cif
#   From: 2010.06.25/outbox.cif.g09.slc.cpg/sg2_272_cif.got.tgz:543141.got - 2010.06.27 13:26:56.
