data_PCOD8031370
_publ_section_title
;
Structure prediction by ZEFSAII (Michael W. Deem and Ramdas Pophale) SiO2 
 PCOD8031370
Probable space group: P -1
;
_chemical_formula_sum "Si O2"
_cell_formula_units_Z 16
_cell_length_a 13.701493
_cell_length_b 6.476363
_cell_length_c 14.289720
_cell_angle_alpha 41.832065
_cell_angle_beta 120.520616
_cell_angle_gamma 116.537180
_cell_volume 723.346340
_symmetry_space_group_name_H-M "P -1"
_symmetry_group_IT_number 2
_symmetry_cell_setting 'triclinic'
loop_
_space_group_symop_operation_xyz
x,y,z
-x,-y,-z
loop_
_atom_site_type_symbol
_atom_site_label
_atom_site_fract_x
_atom_site_fract_y
_atom_site_fract_z
Si Si1 0.159291 0.389553 0.342813
Si Si2 0.115492 0.676130 0.035990
Si Si3 0.394437 0.615937 0.857899
Si Si4 0.401334 0.330109 0.573526
Si Si5 0.789198 0.259959 0.131121
Si Si6 0.105271 0.693951 0.535333
Si Si7 0.948173 0.649970 0.195125
Si Si8 0.688562 0.574912 0.314951
O O1 0.174568 0.500657 0.205942
O O2 0.280407 0.381635 0.452334
O O3 0.083815 0.622343 0.283913
O O4 0.085308 0.048272 0.423427
O O5 0.214387 0.713450 0.992204
O O6 0.000000 0.500000 0.000000
O O7 0.080467 0.001157 0.949025
O O8 0.299274 0.564240 0.910751
O O9 0.367080 0.409842 0.820308
O O10 0.418200 0.968535 0.712670
O O11 0.500000 0.500000 0.000000
O O12 0.500000 0.500000 0.500000
O O13 0.406641 0.477564 0.631511
O O14 0.913760 0.435902 0.159529
O O15 0.768477 0.896600 0.269529
O O16 0.126336 0.511948 0.702243
O O17 0.226760 0.691569 0.542777
O O18 0.000000 0.500000 0.500000
#
# Coordination Sequence:
#
# PCOD8031370 Si02
#       8
#     2   2   2   2   2   2   2   2
#     4  12  25  43  67 105 146 182 232 289 350 416
#     4  12  25  42  65 103 148 191 229 278 352 424
#     4  11  25  48  74 101 132 183 242 292 341 415
#     4  11  27  48  68 102 141 181 235 293 353 411
#     4  11  22  43  72 100 138 183 233 288 344 415
#     4  12  21  40  71 102 137 183 226 281 353 415
#     4  12  23  44  68  99 145 183 232 283 344 426
#     4  11  22  46  73  99 135 177 237 285 345 421
#
# _framework density 22.119418
#
# number of rings (size 3 to 8) (size 9 to 14) (size 15 to 20)
#    0.000    0.500    5.000    3.750    0.000    5.500 
#    2.250    0.000    0.000    0.000    0.000    0.000 
#    0.000    0.000    0.000    0.000    0.000    0.000 
#
# Total GULP energy -198320.259753 kJ/mol
# GULP energy per Si atom -12395.016235 kJ/mol
# Density = 2.206907 g / cm^3
# Si number density = 22.119418 Si / 1000 Ang^3
#
#
#
# Elastic Constant Matrix: (Units=GPa)
#
#
# Indices 1 2 3 4 5 6 
#
# 1 118.1285 41.4324 33.5378 17.0546 -0.5178 -12.9337
# 2 41.4324 115.0651 43.4433 10.5412 9.0331 -7.2121
# 3 33.5378 43.4433 120.4756 18.0790 12.1959 6.4049
# 4 17.0546 10.5412 18.0790 26.6673 1.4356 -9.1965
# 5 -0.5178 9.0331 12.1959 1.4356 36.8348 4.5080
# 6 -12.9337 -7.2121 6.4049 -9.1965 4.5080 33.1446
#
#
#
# Elastic Compliance Matrix: (Units=1/GPa)
#
#
# Indices 1 2 3 4 5 6 
#
# 1 0.010780 -0.002827 -0.001683 -0.003768 0.001218 0.002706
# 2 -0.002827 0.011196 -0.003249 0.000514 -0.002021 0.002378
# 3 -0.001683 -0.003249 0.011508 -0.007150 -0.002112 -0.005284
# 4 -0.003768 0.000514 -0.007150 0.049437 -0.001444 0.013937
# 5 0.001218 -0.002021 -0.002112 -0.001444 0.028892 -0.003887
# 6 0.002706 0.002378 -0.005284 0.013937 -0.003887 0.037161
#
#
# Mechanical properties :
#
#
# Convention : Reuss Voigt Hill
#
# Bulk Modulus (GPa) = 55.66212 65.61069 60.63640
# Shear Modulus (GPa) = 29.32848 35.01305 32.17076
#
# Velocity S-wave (km/s) = 3.64526 3.98290 3.81781
# Velocity P-wave (km/s) = 6.55258 7.13286 6.84887
#
# Compressibility (1/GPa) = 0.01796554
#
# Stress axis : x y z
#
# Youngs Moduli (GPa) = 92.76067 89.31670 86.89313
#
# Poissons Ratio (x) = 0.25251 0.14626
# Poissons Ratio (y) = 0.26224 0.28235
# Poissons Ratio (z) = 0.15614 0.29022
#
# Static dielectric constant tensor:
#      x y z
#    x 6.340980 -3.804610 -4.864740 
#    y -3.804610 9.714150 7.511140 
#    z -4.864740 7.511140 13.987370 
# 
# 
# High freq. dielectric constant tensor:
#      x y z
#    x 1.871920 -0.021590 -0.007040 
#    y -0.021590 1.875210 0.002180 
#    z -0.007040 0.002180 1.866650 
# 
# From -- ./inp_files/525492.got.cif
#   From: 2010.06.25/outbox.cif.g09.slc.cpg/sg2_263_cif.got.tgz:525492.got - 2010.06.27 13:26:56.
