data_PCOD8031776
_publ_section_title
;
Structure prediction by ZEFSAII (Michael W. Deem and Ramdas Pophale) SiO2 
 PCOD8031776
Probable space group: P -1
;
_chemical_formula_sum "Si O2"
_cell_formula_units_Z 16
_cell_length_a 18.808135
_cell_length_b 8.620475
_cell_length_c 19.378092
_cell_angle_alpha 124.965624
_cell_angle_beta 21.143149
_cell_angle_gamma 135.949519
_cell_volume 726.287347
_symmetry_space_group_name_H-M "P -1"
_symmetry_group_IT_number 2
_symmetry_cell_setting 'triclinic'
loop_
_space_group_symop_operation_xyz
x,y,z
-x,-y,-z
loop_
_atom_site_type_symbol
_atom_site_label
_atom_site_fract_x
_atom_site_fract_y
_atom_site_fract_z
Si Si1 0.416843 0.434106 0.635499
Si Si2 0.094925 0.887279 0.931397
Si Si3 0.627575 0.334805 0.605181
Si Si4 0.257472 0.591900 0.327316
Si Si5 0.115395 0.093654 0.342826
Si Si6 0.318162 0.933714 0.018058
Si Si7 0.588830 0.728863 0.686017
Si Si8 0.157957 0.562069 0.701094
O O1 0.500000 0.500000 0.500000
O O2 0.480835 0.642766 0.684153
O O3 0.555448 0.330455 0.513342
O O4 0.115623 0.246840 0.852782
O O5 0.077711 0.691564 0.850573
O O6 0.362711 0.068696 0.770532
O O7 0.000000 0.000000 0.000000
O O8 0.748030 0.349193 0.572715
O O9 0.578756 0.530517 0.689626
O O10 0.826900 0.378128 0.378903
O O11 0.283651 0.380117 0.251671
O O12 0.000000 0.500000 0.500000
O O13 0.505516 0.827584 0.127556
O O14 0.279178 0.010413 0.147797
O O15 0.000000 0.000000 0.500000
O O16 0.875020 0.969189 0.478306
O O17 0.042878 0.729568 0.180476
O O18 0.440553 0.799186 0.882111
#
# Coordination Sequence:
#
# PCOD8031776 Si02
#       8
#     2   2   2   2   2   2   2   2
#     4  11  25  42  67 104 141 183 227 279 349 416
#     4  12  23  43  70 104 141 181 233 282 342 419
#     4  11  24  46  71 103 142 183 238 287 338 427
#     4  12  27  47  69 106 139 179 237 299 344 404
#     4  12  24  49  73  98 137 184 235 289 350 421
#     4  12  24  44  74 100 140 182 227 295 352 404
#     4  11  22  46  71  98 142 181 234 277 350 422
#     4  11  23  45  70 100 141 186 226 281 349 426
#
# _framework density 22.029847
#
# number of rings (size 3 to 8) (size 9 to 14) (size 15 to 20)
#    0.000    0.500    8.750    0.750    1.750    2.000 
#    2.250    1.250    0.000    0.000    0.000    0.000 
#    0.000    0.000    0.000    0.000    0.000    0.000 
#
# Total GULP energy -198275.280162 kJ/mol
# GULP energy per Si atom -12392.205010 kJ/mol
# Density = 2.197971 g / cm^3
# Si number density = 22.029847 Si / 1000 Ang^3
#
#
#
# Elastic Constant Matrix: (Units=GPa)
#
#
# Indices 1 2 3 4 5 6 
#
# 1 127.5614 43.1794 55.9869 -4.1361 19.6593 17.4412
# 2 43.1794 127.5239 66.1412 -3.3682 14.7845 8.8765
# 3 55.9869 66.1412 155.0286 -2.5750 23.4939 9.9154
# 4 -4.1361 -3.3682 -2.5750 57.8246 7.3688 -3.6089
# 5 19.6593 14.7845 23.4939 7.3688 35.6960 -2.4095
# 6 17.4412 8.8765 9.9154 -3.6089 -2.4095 20.8691
#
#
#
# Elastic Compliance Matrix: (Units=1/GPa)
#
#
# Indices 1 2 3 4 5 6 
#
# 1 0.011162 -0.001542 -0.002113 0.000722 -0.004813 -0.008099
# 2 -0.001542 0.010514 -0.003625 0.000411 -0.001308 -0.001541
# 3 -0.002113 -0.003625 0.009431 0.000438 -0.003736 -0.001528
# 4 0.000722 0.000411 0.000438 0.018060 -0.004475 0.001620
# 5 -0.004813 -0.001308 -0.003736 -0.004475 0.035241 0.009649
# 6 -0.008099 -0.001541 -0.001528 0.001620 0.009649 0.057462
#
#
# Mechanical properties :
#
#
# Convention : Reuss Voigt Hill
#
# Bulk Modulus (GPa) = 60.44039 82.30320 71.37179
# Shear Modulus (GPa) = 30.87443 39.19836 35.03640
#
# Velocity S-wave (km/s) = 3.74770 4.22279 3.99232
# Velocity P-wave (km/s) = 6.79869 7.82412 7.32936
#
# Compressibility (1/GPa) = 0.01654523
#
# Stress axis : x y z
#
# Youngs Moduli (GPa) = 89.59304 95.11334 106.02874
#
# Poissons Ratio (x) = 0.14669 0.22409
# Poissons Ratio (y) = 0.13818 0.38435
# Poissons Ratio (z) = 0.18935 0.34478
#
# Static dielectric constant tensor:
#      x y z
#    x 3.898630 0.176040 0.323070 
#    y 0.176040 4.272150 0.063870 
#    z 0.323070 0.063870 4.069780 
# 
# 
# High freq. dielectric constant tensor:
#      x y z
#    x 1.842980 0.021490 0.004050 
#    y 0.021490 1.876060 -0.004710 
#    z 0.004050 -0.004710 1.883110 
# 
# From -- ./inp_files/601183.got.cif
#   From: 2010.06.25/outbox.cif.g09.slc.cpg/sg2_301_cif.got.tgz:601183.got - 2010.06.27 13:26:56.
