data_PCOD8031774
_publ_section_title
;
Structure prediction by ZEFSAII (Michael W. Deem and Ramdas Pophale) SiO2 
 PCOD8031774
Probable space group: P -1
;
_chemical_formula_sum "Si O2"
_cell_formula_units_Z 16
_cell_length_a 9.244910
_cell_length_b 25.710369
_cell_length_c 8.938762
_cell_angle_alpha 41.487692
_cell_angle_beta 77.343721
_cell_angle_gamma 45.164596
_cell_volume 751.673083
_symmetry_space_group_name_H-M "P -1"
_symmetry_group_IT_number 2
_symmetry_cell_setting 'triclinic'
loop_
_space_group_symop_operation_xyz
x,y,z
-x,-y,-z
loop_
_atom_site_type_symbol
_atom_site_label
_atom_site_fract_x
_atom_site_fract_y
_atom_site_fract_z
Si Si1 0.248525 0.853615 0.351528
Si Si2 0.121478 0.871074 0.670581
Si Si3 0.575423 0.658276 0.244257
Si Si4 0.111892 0.343721 0.691877
Si Si5 0.830787 0.652616 0.670279
Si Si6 0.066239 0.678316 0.760822
Si Si7 0.392145 0.645781 0.578578
Si Si8 0.815812 0.849507 0.749333
O O1 0.113174 0.889464 0.458542
O O2 0.503735 0.797599 0.435780
O O3 0.395116 0.713191 0.553077
O O4 0.000000 0.000000 0.000000
O O5 0.959091 0.862927 0.756869
O O6 0.429877 0.728807 0.965613
O O7 0.000000 0.000000 0.500000
O O8 0.625090 0.721389 0.176171
O O9 0.378355 0.691922 0.319440
O O10 0.859336 0.490965 0.519482
O O11 0.072164 0.363218 0.481048
O O12 0.123953 0.248862 0.942421
O O13 0.890356 0.686971 0.714521
O O14 0.000000 0.500000 0.000000
O O15 0.133455 0.706477 0.545408
O O16 0.905190 0.794602 0.676519
O O17 0.338397 0.525079 0.103692
O O18 0.500000 0.000000 0.500000
#
# Coordination Sequence:
#
# PCOD8031774 Si02
#       8
#     2   2   2   2   2   2   2   2
#     4  12  26  46  72 101 145 187 239 293 353 430
#     4  12  28  47  72 101 139 194 239 289 365 437
#     4  11  23  43  74 101 145 181 237 290 357 422
#     4  11  25  43  70 110 142 184 234 297 358 424
#     4  12  25  45  75 106 139 189 246 293 353 431
#     4  11  25  45  73 102 142 184 239 298 354 423
#     4  11  22  46  71 104 142 184 235 299 355 413
#     4  12  28  48  69 101 149 188 236 301 364 425
#
# _framework density 21.285848000000001
#
# number of rings (size 3 to 8) (size 9 to 14) (size 15 to 20)
#    0.000    0.500    5.000    2.250    8.750    0.500 
#    0.000    1.250    0.000    0.000    0.000    0.000 
#    0.000    0.000    0.000    0.000    0.000    0.000 
#
# Total GULP energy -198389.187520 kJ/mol
# GULP energy per Si atom -12399.324220 kJ/mol
# Density = 2.123740 g / cm^3
# Si number density = 21.285848 Si / 1000 Ang^3
#
#
#
# Elastic Constant Matrix: (Units=GPa)
#
#
# Indices 1 2 3 4 5 6 
#
# 1 132.8859 33.5336 59.8877 -3.0764 -9.3236 -0.6759
# 2 33.5336 104.1142 48.3318 1.3630 -7.3902 -7.8271
# 3 59.8877 48.3318 111.9624 11.8726 -4.3692 -9.0575
# 4 -3.0764 1.3630 11.8726 41.4078 -2.9374 -3.7626
# 5 -9.3236 -7.3902 -4.3692 -2.9374 39.3077 1.5282
# 6 -0.6759 -7.8271 -9.0575 -3.7626 1.5282 37.6639
#
#
#
# Elastic Compliance Matrix: (Units=1/GPa)
#
#
# Indices 1 2 3 4 5 6 
#
# 1 0.010380 -0.000775 -0.005489 0.002404 0.001930 -0.001133
# 2 -0.000775 0.012311 -0.004845 0.001172 0.001624 0.001430
# 3 -0.005489 -0.004845 0.014539 -0.004306 -0.000996 0.002001
# 4 0.002404 0.001172 -0.004306 0.025837 0.002175 0.001744
# 5 0.001930 0.001624 -0.000996 0.002175 0.026283 -0.000717
# 6 -0.001133 0.001430 0.002001 0.001744 -0.000717 0.027512
#
#
# Mechanical properties :
#
#
# Convention : Reuss Voigt Hill
#
# Bulk Modulus (GPa) = 66.61385 70.27432 68.44409
# Shear Modulus (GPa) = 34.70204 37.48984 36.09594
#
# Velocity S-wave (km/s) = 4.04206 4.20129 4.12244
# Velocity P-wave (km/s) = 7.29021 7.52467 7.40837
#
# Compressibility (1/GPa) = 0.01501189
#
# Stress axis : x y z
#
# Youngs Moduli (GPa) = 96.34140 81.22759 68.78208
#
# Poissons Ratio (x) = 0.06293 0.37754
# Poissons Ratio (y) = 0.07464 0.33326
# Poissons Ratio (z) = 0.52881 0.39356
#
# Static dielectric constant tensor:
#      x y z
#    x 4.186290 0.005970 -0.252160 
#    y 0.005970 3.862840 -0.018870 
#    z -0.252160 -0.018870 3.059990 
# 
# 
# High freq. dielectric constant tensor:
#      x y z
#    x 1.842530 -0.005510 -0.007850 
#    y -0.005510 1.847490 0.003170 
#    z -0.007850 0.003170 1.834160 
# 
# From -- ./inp_files/208432.got.cif
#   From: 2010.06.25/outbox.cif.g09.slc.cpg/sg2_105_cif.got.tgz:208432.got - 2010.06.27 13:26:56.
