data_PCOD8031791
_publ_section_title
;
Structure prediction by ZEFSAII (Michael W. Deem and Ramdas Pophale) SiO2 
 PCOD8031791
Probable space group: P -1
;
_chemical_formula_sum "Si O2"
_cell_formula_units_Z 14
_cell_length_a 10.899017
_cell_length_b 18.198267
_cell_length_c 9.297324
_cell_angle_alpha 30.381518
_cell_angle_beta 52.468311
_cell_angle_gamma 42.113663
_cell_volume 622.859019
_symmetry_space_group_name_H-M "P -1"
_symmetry_group_IT_number 2
_symmetry_cell_setting 'triclinic'
loop_
_space_group_symop_operation_xyz
x,y,z
-x,-y,-z
loop_
_atom_site_type_symbol
_atom_site_label
_atom_site_fract_x
_atom_site_fract_y
_atom_site_fract_z
Si Si1 0.793094 0.477881 0.334427
Si Si2 0.097717 0.440558 0.376731
Si Si3 0.503626 0.136641 0.164517
Si Si4 0.472980 0.081664 0.730251
Si Si5 0.250166 0.597809 0.812117
Si Si6 0.356284 0.678522 0.088015
Si Si7 0.209214 0.856756 0.615779
O O1 0.838592 0.362524 0.351716
O O2 0.661977 0.453668 0.576146
O O3 0.982523 0.404115 0.407229
O O4 0.692373 0.679815 0.022732
O O5 0.298698 0.273919 0.531709
O O6 0.000000 0.500000 0.500000
O O7 0.118647 0.587437 0.040793
O O8 0.500000 0.000000 0.500000
O O9 0.564742 0.041155 0.130916
O O10 0.656192 0.172231 0.054189
O O11 0.658344 0.073107 0.565872
O O12 0.500000 0.000000 0.000000
O O13 0.445544 0.420014 0.963221
O O14 0.278913 0.744019 0.609579
O O15 0.212155 0.755525 0.929448
O O16 0.000000 0.000000 0.500000
#
# Coordination Sequence:
#
# PCOD8031791 Si02
#       7
#     2   2   2   2   2   2   2
#     4  11  26  44  77 107 138 188 245 290 354 428
#     4  12  26  46  71 105 142 190 241 289 347 433
#     4  11  22  46  73 101 143 182 232 294 358 415
#     4  12  28  44  69 103 145 187 233 297 363 411
#     4  11  24  46  71  98 143 184 238 294 351 423
#     4  11  24  48  74 104 139 192 240 291 352 427
#     4  12  28  45  70 105 144 186 237 297 359 420
#
# _framework density 22.476997000000001
#
# number of rings (size 3 to 8) (size 9 to 14) (size 15 to 20)
#    0.000    0.571    2.857    5.143   12.000    1.143 
#    0.000    1.429    0.000    0.000    0.000    0.000 
#    0.000    0.000    0.000    0.000    0.000    0.000 
#
# Total GULP energy -173565.224811 kJ/mol
# GULP energy per Si atom -12397.516058 kJ/mol
# Density = 2.242584 g / cm^3
# Si number density = 22.476997 Si / 1000 Ang^3
#
#
#
# Elastic Constant Matrix: (Units=GPa)
#
#
# Indices 1 2 3 4 5 6 
#
# 1 152.8607 61.3347 44.1822 -3.1771 20.4895 12.4325
# 2 61.3347 109.5296 38.6577 7.4566 4.1197 17.3762
# 3 44.1822 38.6577 125.2834 15.1721 12.5436 0.8767
# 4 -3.1771 7.4566 15.1721 36.6390 5.7943 -0.6089
# 5 20.4895 4.1197 12.5436 5.7943 42.8329 0.6687
# 6 12.4325 17.3762 0.8767 -0.6089 0.6687 51.8492
#
#
#
# Elastic Compliance Matrix: (Units=1/GPa)
#
#
# Indices 1 2 3 4 5 6 
#
# 1 0.009636 -0.004682 -0.001936 0.003215 -0.004017 -0.000619
# 2 -0.004682 0.013181 -0.002292 -0.002516 0.002035 -0.003312
# 3 -0.001936 -0.002292 0.009929 -0.003592 -0.001291 0.001039
# 4 0.003215 -0.002516 -0.003592 0.030268 -0.004347 0.000545
# 5 -0.004017 0.002035 -0.001291 -0.004347 0.026040 -0.000084
# 6 -0.000619 -0.003312 0.001039 0.000545 -0.000084 0.020535
#
#
# Mechanical properties :
#
#
# Convention : Reuss Voigt Hill
#
# Bulk Modulus (GPa) = 67.00047 75.11367 71.05707
# Shear Modulus (GPa) = 37.76890 42.49751 40.13321
#
# Velocity S-wave (km/s) = 4.10364 4.35295 4.23013
# Velocity P-wave (km/s) = 7.23369 7.66517 7.45255
#
# Compressibility (1/GPa) = 0.01492527
#
# Stress axis : x y z
#
# Youngs Moduli (GPa) = 103.77861 75.86750 100.71642
#
# Poissons Ratio (x) = 0.35522 0.19501
# Poissons Ratio (y) = 0.48590 0.23082
# Poissons Ratio (z) = 0.20094 0.17387
#
# Static dielectric constant tensor:
#      x y z
#    x 4.444280 0.389430 0.137940 
#    y 0.389430 4.001100 0.168230 
#    z 0.137940 0.168230 4.108930 
# 
# 
# High freq. dielectric constant tensor:
#      x y z
#    x 1.907560 0.020960 0.008570 
#    y 0.020960 1.871640 0.009390 
#    z 0.008570 0.009390 1.891340 
# 
# From -- ./inp_files/184778.got.cif
#   From: 2010.06.25/outbox.cif.g09.slc.cpg/sg2_93_cif.got.tgz:184778.got - 2010.06.27 13:26:56.
