data_PCOD8031056
_publ_section_title
;
Structure prediction by ZEFSAII (Michael W. Deem and Ramdas Pophale) SiO2 
 PCOD8031056
Probable space group: P -1
;
_chemical_formula_sum "Si O2"
_cell_formula_units_Z 16
_cell_length_a 14.578861
_cell_length_b 14.090538
_cell_length_c 9.027100
_cell_angle_alpha 120.368864
_cell_angle_beta 39.223722
_cell_angle_gamma 140.681346
_cell_volume 722.382703
_symmetry_space_group_name_H-M "P -1"
_symmetry_group_IT_number 2
_symmetry_cell_setting 'triclinic'
loop_
_space_group_symop_operation_xyz
x,y,z
-x,-y,-z
loop_
_atom_site_type_symbol
_atom_site_label
_atom_site_fract_x
_atom_site_fract_y
_atom_site_fract_z
Si Si1 0.364054 0.828485 0.476786
Si Si2 0.021719 0.646217 0.975812
Si Si3 0.696700 0.861767 0.948099
Si Si4 0.074729 0.174537 0.879588
Si Si5 0.744607 0.296609 0.020697
Si Si6 0.909904 0.790506 0.765327
Si Si7 0.708106 0.892723 0.602542
Si Si8 0.067924 0.653551 0.475179
O O1 0.213322 0.697198 0.684660
O O2 0.208743 0.796366 0.526123
O O3 0.500000 0.000000 0.500000
O O4 0.483612 0.792316 0.221857
O O5 0.137353 0.734585 0.055898
O O6 0.914162 0.691786 0.069782
O O7 0.841170 0.464187 0.079673
O O8 0.712415 0.882838 0.767961
O O9 0.724320 0.748876 0.874467
O O10 0.866978 0.019515 0.947952
O O11 0.260053 0.209444 0.595080
O O12 0.087411 0.165051 0.033247
O O13 0.502888 0.169966 0.243907
O O14 0.784832 0.291487 0.798943
O O15 0.885225 0.644026 0.667302
O O16 0.117292 0.932860 0.533241
O O17 0.000000 0.500000 0.500000
#
# Coordination Sequence:
#
# PCOD8031056 Si02
#       8
#     2   2   2   2   2   2   2   2
#     4  12  23  41  71  98 128 175 223 277 325 395
#     4  11  25  43  66  94 132 174 223 277 331 393
#     4  11  23  40  63 104 131 168 218 275 330 388
#     4  11  22  42  64  93 134 170 218 272 329 388
#     4  11  26  42  65  95 132 176 219 275 337 387
#     4  11  24  40  68  98 130 178 213 274 334 389
#     4  11  25  40  65  98 135 169 222 270 325 403
#     4  12  24  46  69  95 135 174 223 280 332 393
#
# _framework density 22.148924000000001
#
# number of rings (size 3 to 8) (size 9 to 14) (size 15 to 20)
#    0.000    0.750    5.000    3.000    8.750    1.000 
#    0.000    0.625    0.000    0.000    0.000    0.000 
#    0.000    0.000    0.000    0.000    0.000    0.000 
#
# Total GULP energy -198259.083928 kJ/mol
# GULP energy per Si atom -12391.192746 kJ/mol
# Density = 2.209851 g / cm^3
# Si number density = 22.148924 Si / 1000 Ang^3
#
#
#
# Elastic Constant Matrix: (Units=GPa)
#
#
# Indices 1 2 3 4 5 6 
#
# 1 113.8743 32.2624 22.0526 4.9168 9.5705 -10.6897
# 2 32.2624 44.4041 24.0791 10.9729 -1.2342 -9.9403
# 3 22.0526 24.0791 115.4438 0.9362 4.9457 -14.6788
# 4 4.9168 10.9729 0.9362 26.0680 -4.0660 -5.9960
# 5 9.5705 -1.2342 4.9457 -4.0660 39.5752 8.4011
# 6 -10.6897 -9.9403 -14.6788 -5.9960 8.4011 36.7562
#
#
#
# Elastic Compliance Matrix: (Units=1/GPa)
#
#
# Indices 1 2 3 4 5 6 
#
# 1 0.011572 -0.008309 -0.000082 0.001268 -0.003354 0.002059
# 2 -0.008309 0.035097 -0.005406 -0.012129 0.002007 0.002479
# 3 -0.000082 -0.005406 0.010309 0.002418 -0.001924 0.003465
# 4 0.001268 -0.012129 0.002418 0.044636 0.002592 0.004743
# 5 -0.003354 0.002007 -0.001924 0.002592 0.028181 -0.007220
# 6 0.002059 0.002479 0.003465 0.004743 -0.007220 0.032283
#
#
# Mechanical properties :
#
#
# Convention : Reuss Voigt Hill
#
# Bulk Modulus (GPa) = 34.03211 47.83450 40.93331
# Shear Modulus (GPa) = 25.06684 33.50173 29.28428
#
# Velocity S-wave (km/s) = 3.36779 3.89339 3.64009
# Velocity P-wave (km/s) = 5.52459 6.46954 6.01565
#
# Compressibility (1/GPa) = 0.02938401
#
# Stress axis : x y z
#
# Youngs Moduli (GPa) = 86.41534 28.49269 97.00380
#
# Poissons Ratio (x) = 0.23674 0.00798
# Poissons Ratio (y) = 0.71802 0.52437
# Poissons Ratio (z) = 0.00711 0.15402
#
# Static dielectric constant tensor:
#      x y z
#    x 4.617070 -0.106600 -0.108870 
#    y -0.106600 3.798720 0.268860 
#    z -0.108870 0.268860 4.342720 
# 
# 
# High freq. dielectric constant tensor:
#      x y z
#    x 1.894750 -0.003980 0.008150 
#    y -0.003980 1.843760 0.010610 
#    z 0.008150 0.010610 1.884200 
# 
# From -- ./inp_files/313785.got.cif
#   From: 2010.06.25/outbox.cif.g09.slc.cpg/sg2_157_cif.got.tgz:313785.got - 2010.06.27 13:26:56.
