data_PCOD8031452
_publ_section_title
;
Structure prediction by ZEFSAII (Michael W. Deem and Ramdas Pophale) SiO2 
 PCOD8031452
Probable space group: P -1
;
_chemical_formula_sum "Si O2"
_cell_formula_units_Z 14
_cell_length_a 4.907123
_cell_length_b 14.636373
_cell_length_c 20.102754
_cell_angle_alpha 154.999138
_cell_angle_beta 87.487831
_cell_angle_gamma 92.201289
_cell_volume 609.619081
_symmetry_space_group_name_H-M "P -1"
_symmetry_group_IT_number 2
_symmetry_cell_setting 'triclinic'
loop_
_space_group_symop_operation_xyz
x,y,z
-x,-y,-z
loop_
_atom_site_type_symbol
_atom_site_label
_atom_site_fract_x
_atom_site_fract_y
_atom_site_fract_z
Si Si1 0.698302 0.000233 0.562157
Si Si2 0.543183 0.663157 0.958575
Si Si3 0.956957 0.733475 0.717308
Si Si4 0.949567 0.631206 0.249968
Si Si5 0.943825 0.722830 0.559115
Si Si6 0.449899 0.980742 0.911230
Si Si7 0.440036 0.987831 0.697562
O O1 0.535195 0.047349 0.662092
O O2 0.846281 0.762377 0.403881
O O3 0.500000 0.000000 0.500000
O O4 0.928081 0.186116 0.679703
O O5 0.456831 0.811094 0.994752
O O6 0.585639 0.799556 0.115745
O O7 0.819565 0.545404 0.854281
O O8 0.307751 0.487878 0.859824
O O9 0.034617 0.528480 0.628361
O O10 0.130110 0.936809 0.875924
O O11 0.050340 0.711492 0.625910
O O12 0.634668 0.778875 0.752435
O O13 0.639962 0.814014 0.615044
O O14 0.144908 0.879546 0.619935
O O15 0.500000 0.000000 0.000000
#
# Coordination Sequence:
#
# PCOD8031452 Si02
#       7
#     2   2   2   2   2   2   2
#     4  11  27  52  70 103 137 178 225 291 347 419
#     4  12  24  46  70 104 136 182 228 282 339 413
#     4  11  22  44  66  97 141 177 233 272 329 393
#     4  11  26  47  73  97 141 176 225 283 352 413
#     4  11  23  42  71 101 131 183 227 286 327 392
#     4  12  25  42  64 100 145 182 221 278 337 403
#     4  12  26  43  76 101 140 175 237 287 340 404
#
# _framework density 22.965161999999999
#
# number of rings (size 3 to 8) (size 9 to 14) (size 15 to 20)
#    0.000    0.571    4.286    3.000    4.000    6.857 
#    0.000    0.000    0.000    0.000    0.000    0.000 
#    0.000    0.000    0.000    0.000    0.000    0.000 
#
# Total GULP energy -173582.335671 kJ/mol
# GULP energy per Si atom -12398.738262 kJ/mol
# Density = 2.291289 g / cm^3
# Si number density = 22.965162 Si / 1000 Ang^3
#
#
#
# Elastic Constant Matrix: (Units=GPa)
#
#
# Indices 1 2 3 4 5 6 
#
# 1 99.2680 9.1053 36.3352 -1.8109 -5.9923 6.0198
# 2 9.1053 104.2624 44.4869 -18.6937 2.4277 12.1721
# 3 36.3352 44.4869 120.4223 9.4122 -14.2665 7.1982
# 4 -1.8109 -18.6937 9.4122 25.7975 2.2179 -3.4929
# 5 -5.9923 2.4277 -14.2665 2.2179 50.7450 8.9417
# 6 6.0198 12.1721 7.1982 -3.4929 8.9417 36.6377
#
#
#
# Elastic Compliance Matrix: (Units=1/GPa)
#
#
# Indices 1 2 3 4 5 6 
#
# 1 0.011632 0.001521 -0.004223 0.003263 0.000205 -0.001326
# 2 0.001521 0.015471 -0.007514 0.014063 -0.002962 -0.001850
# 3 -0.004223 -0.007514 0.013895 -0.011440 0.004575 -0.001747
# 4 0.003263 0.014063 -0.011440 0.054439 -0.006558 0.003830
# 5 0.000205 -0.002962 0.004575 -0.006558 0.022514 -0.006069
# 6 -0.001326 -0.001850 -0.001747 0.003830 -0.006069 0.030316
#
#
# Mechanical properties :
#
#
# Convention : Reuss Voigt Hill
#
# Bulk Modulus (GPa) = 48.62373 55.97862 52.30118
# Shear Modulus (GPa) = 28.48119 38.23774 33.35946
#
# Velocity S-wave (km/s) = 3.52546 4.08491 3.81545
# Velocity P-wave (km/s) = 6.14740 6.83206 6.49875
#
# Compressibility (1/GPa) = 0.02056609
#
# Stress axis : x y z
#
# Youngs Moduli (GPa) = 85.96721 64.63882 71.96968
#
# Poissons Ratio (x) = -0.09832 0.30395
# Poissons Ratio (y) = -0.13077 0.54075
# Poissons Ratio (z) = 0.36307 0.48567
#
# Static dielectric constant tensor:
#      x y z
#    x 4.891130 0.250620 -0.805450 
#    y 0.250620 3.878620 0.018220 
#    z -0.805450 0.018220 5.512900 
# 
# 
# High freq. dielectric constant tensor:
#      x y z
#    x 1.924780 0.007760 -0.005380 
#    y 0.007760 1.888040 0.008670 
#    z -0.005380 0.008670 1.914620 
# 
# From -- ./inp_files/582119.got.cif
#   From: 2010.06.25/outbox.cif.g09.slc.cpg/sg2_292_cif.got.tgz:582119.got - 2010.06.27 13:26:56.
