data_PCOD8031589
_publ_section_title
;
Structure prediction by ZEFSAII (Michael W. Deem and Ramdas Pophale) SiO2 
 PCOD8031589
Probable space group: P -1
;
_chemical_formula_sum "Si O2"
_cell_formula_units_Z 16
_cell_length_a 9.994219
_cell_length_b 17.894997
_cell_length_c 14.045619
_cell_angle_alpha 31.980835
_cell_angle_beta 125.857945
_cell_angle_gamma 145.917777
_cell_volume 685.453265
_symmetry_space_group_name_H-M "P -1"
_symmetry_group_IT_number 2
_symmetry_cell_setting 'triclinic'
loop_
_space_group_symop_operation_xyz
x,y,z
-x,-y,-z
loop_
_atom_site_type_symbol
_atom_site_label
_atom_site_fract_x
_atom_site_fract_y
_atom_site_fract_z
Si Si1 0.384412 0.407901 0.945796
Si Si2 0.204628 0.286405 0.499071
Si Si3 0.398012 0.831308 0.495328
Si Si4 0.724230 0.829841 0.522840
Si Si5 0.632856 0.915906 0.689772
Si Si6 0.826703 0.452371 0.587029
Si Si7 0.404861 0.249910 0.782520
Si Si8 0.034574 0.752770 0.183385
O O1 0.594720 0.602280 0.751331
O O2 0.116541 0.314825 0.906622
O O3 0.500000 0.500000 0.000000
O O4 0.334196 0.213113 0.108332
O O5 0.251465 0.176013 0.574165
O O6 0.226418 0.251644 0.656128
O O7 0.412553 0.549970 0.279822
O O8 0.912501 0.152582 0.509390
O O9 0.571629 0.873755 0.438235
O O10 0.441202 0.771765 0.675115
O O11 0.098867 0.632255 0.560617
O O12 0.480814 0.047761 0.319753
O O13 0.000000 0.000000 0.500000
O O14 0.591722 0.312158 0.712040
O O15 0.790117 0.272404 0.721307
O O16 0.827186 0.578307 0.370610
O O17 0.225325 0.008848 0.014408
#
# Coordination Sequence:
#
# PCOD8031589 Si02
#       8
#     2   2   2   2   2   2   2   2
#     4  12  22  43  70 105 132 180 239 287 352 429
#     4  11  23  43  68 103 140 180 241 289 350 420
#     4  11  23  43  72  98 141 186 221 291 362 415
#     4  12  24  43  71 104 137 181 229 297 357 413
#     4  11  22  44  73  98 137 186 233 284 355 420
#     4  11  23  44  67 105 144 186 235 292 359 423
#     4  11  24  43  68 102 142 193 232 293 352 422
#     4  11  24  41  71 102 144 184 240 292 353 426
#
# _framework density 23.342217999999999
#
# number of rings (size 3 to 8) (size 9 to 14) (size 15 to 20)
#    0.000    0.750    6.250    1.125    1.750    1.000 
#    0.000    3.125    0.000    0.000    0.000    0.000 
#    0.000    0.000    0.000    0.000    0.000    0.000 
#
# Total GULP energy -198244.037683 kJ/mol
# GULP energy per Si atom -12390.252355 kJ/mol
# Density = 2.328909 g / cm^3
# Si number density = 23.342218 Si / 1000 Ang^3
#
#
#
# Elastic Constant Matrix: (Units=GPa)
#
#
# Indices 1 2 3 4 5 6 
#
# 1 101.5156 12.3354 26.6809 2.7723 8.3338 -14.1222
# 2 12.3354 121.4690 35.6875 0.1234 10.3429 1.6704
# 3 26.6809 35.6875 110.0739 -6.2147 27.5602 3.0827
# 4 2.7723 0.1234 -6.2147 32.2595 -0.0592 4.6895
# 5 8.3338 10.3429 27.5602 -0.0592 28.4047 -3.4696
# 6 -14.1222 1.6704 3.0827 4.6895 -3.4696 35.4863
#
#
#
# Elastic Compliance Matrix: (Units=1/GPa)
#
#
# Indices 1 2 3 4 5 6 
#
# 1 0.011443 -0.000374 -0.003009 -0.002313 0.000325 0.005170
# 2 -0.000374 0.009131 -0.002737 -0.000482 -0.000602 -0.000336
# 3 -0.003009 -0.002737 0.014081 0.003535 -0.012259 -0.003958
# 4 -0.002313 -0.000482 0.003535 0.032724 -0.003221 -0.005844
# 5 0.000325 -0.000602 -0.012259 -0.003221 0.047992 0.006341
# 6 0.005170 -0.000336 -0.003958 -0.005844 0.006341 0.031989
#
#
# Mechanical properties :
#
#
# Convention : Reuss Voigt Hill
#
# Bulk Modulus (GPa) = 44.61401 53.60736 49.11068
# Shear Modulus (GPa) = 29.92716 36.45372 33.19044
#
# Velocity S-wave (km/s) = 3.58453 3.95613 3.77491
# Velocity P-wave (km/s) = 6.02381 6.62447 6.33127
#
# Compressibility (1/GPa) = 0.02241448
#
# Stress axis : x y z
#
# Youngs Moduli (GPa) = 87.39150 109.51718 71.01566
#
# Poissons Ratio (x) = 0.04101 0.21369
# Poissons Ratio (y) = 0.03272 0.19436
# Poissons Ratio (z) = 0.26297 0.29973
#
# Static dielectric constant tensor:
#      x y z
#    x 4.549640 -0.038060 0.353910 
#    y -0.038060 4.577570 -0.025770 
#    z 0.353910 -0.025770 4.195470 
# 
# 
# High freq. dielectric constant tensor:
#      x y z
#    x 1.921790 -0.000770 0.021400 
#    y -0.000770 1.947780 -0.007720 
#    z 0.021400 -0.007720 1.894630 
# 
# From -- ./inp_files/524054.got.cif
#   From: 2010.06.25/outbox.cif.g09.slc.cpg/sg2_263_cif.got.tgz:524054.got - 2010.06.27 13:26:56.
