data_PCOD8031440
_publ_section_title
;
Structure prediction by ZEFSAII (Michael W. Deem and Ramdas Pophale) SiO2 
 PCOD8031440
Probable space group: P -1
;
_chemical_formula_sum "Si O2"
_cell_formula_units_Z 14
_cell_length_a 9.052271
_cell_length_b 9.058451
_cell_length_c 20.740731
_cell_angle_alpha 49.302355
_cell_angle_beta 138.858664
_cell_angle_gamma 100.785078
_cell_volume 672.661739
_symmetry_space_group_name_H-M "P -1"
_symmetry_group_IT_number 2
_symmetry_cell_setting 'triclinic'
loop_
_space_group_symop_operation_xyz
x,y,z
-x,-y,-z
loop_
_atom_site_type_symbol
_atom_site_label
_atom_site_fract_x
_atom_site_fract_y
_atom_site_fract_z
Si Si1 0.423086 0.213012 0.538933
Si Si2 0.125605 0.729409 0.636627
Si Si3 0.610804 0.441675 0.982106
Si Si4 0.863289 0.628390 0.851760
Si Si5 0.573259 0.389017 0.787664
Si Si6 0.630781 0.388070 0.659785
Si Si7 0.750091 0.019907 0.061404
O O1 0.438560 0.337223 0.572404
O O2 0.482396 0.328236 0.464959
O O3 0.109108 0.290379 0.406561
O O4 0.646949 0.921963 0.700299
O O5 0.374722 0.632910 0.798242
O O6 0.252705 0.572509 0.656911
O O7 0.000000 0.000000 0.500000
O O8 0.500000 0.500000 0.000000
O O9 0.747179 0.168889 0.078526
O O10 0.862049 0.460032 0.072972
O O11 0.717553 0.521782 0.802985
O O12 0.000000 0.500000 0.000000
O O13 0.601411 0.322020 0.741120
O O14 0.720130 0.144522 0.947585
O O15 0.942869 0.238051 0.772231
O O16 0.500000 0.000000 0.000000
#
# Coordination Sequence:
#
# PCOD8031440 Si02
#       7
#     2   2   2   2   2   2   2
#     4  11  24  43  68  91 140 177 211 280 334 389
#     4  11  22  44  63  97 134 167 216 282 329 380
#     4  11  25  42  67 100 128 174 223 268 331 396
#     4  12  21  44  69  96 131 174 223 275 324 394
#     4  11  24  40  70  97 126 176 227 272 327 396
#     4  11  24  43  64  99 131 175 224 264 339 400
#     4  11  23  45  64  94 141 172 216 278 333 392
#
# _framework density 20.812837999999999
#
# number of rings (size 3 to 8) (size 9 to 14) (size 15 to 20)
#    0.000    0.857    5.714    2.143    4.000    2.286 
#    2.571    0.000    0.000    0.000    0.000    0.000 
#    0.000    0.000    0.000    0.000    0.000    0.000 
#
# Total GULP energy -173478.557690 kJ/mol
# GULP energy per Si atom -12391.325549 kJ/mol
# Density = 2.076547 g / cm^3
# Si number density = 20.812838 Si / 1000 Ang^3
#
#
#
# Elastic Constant Matrix: (Units=GPa)
#
#
# Indices 1 2 3 4 5 6 
#
# 1 127.2802 35.7333 30.3216 2.6036 -3.1640 -5.6428
# 2 35.7333 57.8698 29.1629 -0.3233 -16.7846 11.9968
# 3 30.3216 29.1629 97.1974 -12.3888 6.8372 4.4676
# 4 2.6036 -0.3233 -12.3888 29.6217 8.1352 0.2291
# 5 -3.1640 -16.7846 6.8372 8.1352 33.5632 3.9172
# 6 -5.6428 11.9968 4.4676 0.2291 3.9172 47.4100
#
#
#
# Elastic Compliance Matrix: (Units=1/GPa)
#
#
# Indices 1 2 3 4 5 6 
#
# 1 0.010252 -0.007266 -0.001079 -0.000725 -0.002667 0.003384
# 2 -0.007266 0.036327 -0.011044 -0.009929 0.023411 -0.010903
# 3 -0.001079 -0.011044 0.015893 0.009755 -0.011468 0.002069
# 4 -0.000725 -0.009929 0.009755 0.042627 -0.017675 0.002761
# 5 -0.002667 0.023411 -0.011468 -0.017675 0.048935 -0.009118
# 6 0.003384 -0.010903 0.002069 0.002761 -0.009118 0.024799
#
#
# Mechanical properties :
#
#
# Convention : Reuss Voigt Hill
#
# Bulk Modulus (GPa) = 42.20216 52.53144 47.36680
# Shear Modulus (GPa) = 22.17195 34.59430 28.38312
#
# Velocity S-wave (km/s) = 3.26744 4.08138 3.69688
# Velocity P-wave (km/s) = 5.87842 6.89239 6.40550
#
# Compressibility (1/GPa) = 0.02369547
#
# Stress axis : x y z
#
# Youngs Moduli (GPa) = 97.54097 27.52770 62.91904
#
# Poissons Ratio (x) = 0.20001 0.06787
# Poissons Ratio (y) = 0.70873 0.69488
# Poissons Ratio (z) = 0.10521 0.30402
#
# Static dielectric constant tensor:
#      x y z
#    x 4.005050 0.279600 0.233830 
#    y 0.279600 3.554070 -0.544050 
#    z 0.233830 -0.544050 2.628190 
# 
# 
# High freq. dielectric constant tensor:
#      x y z
#    x 1.825060 0.016900 0.003670 
#    y 0.016900 1.809180 -0.004660 
#    z 0.003670 -0.004660 1.827720 
# 
# From -- ./inp_files/156602.got.cif
#   From: 2010.06.25/outbox.cif.g09.slc.cpg/sg2_79_cif.got.tgz:156602.got - 2010.06.27 13:26:56.
