data_PCOD8031201
_publ_section_title
;
Structure prediction by ZEFSAII (Michael W. Deem and Ramdas Pophale) SiO2 
 PCOD8031201
Probable space group: P -1
;
_chemical_formula_sum "Si O2"
_cell_formula_units_Z 14
_cell_length_a 10.315989
_cell_length_b 7.255005
_cell_length_c 18.981460
_cell_angle_alpha 56.870527
_cell_angle_beta 145.052242
_cell_angle_gamma 136.482449
_cell_volume 556.204205
_symmetry_space_group_name_H-M "P -1"
_symmetry_group_IT_number 2
_symmetry_cell_setting 'triclinic'
loop_
_space_group_symop_operation_xyz
x,y,z
-x,-y,-z
loop_
_atom_site_type_symbol
_atom_site_label
_atom_site_fract_x
_atom_site_fract_y
_atom_site_fract_z
Si Si1 0.531075 0.444527 0.736468
Si Si2 0.192277 0.263129 0.933857
Si Si3 0.441072 0.308922 0.442272
Si Si4 0.394283 0.753239 0.699745
Si Si5 0.172554 0.810486 0.093410
Si Si6 0.926745 0.261050 0.676368
Si Si7 0.073450 0.974351 0.460544
O O1 0.545851 0.482990 0.650073
O O2 0.590229 0.709953 0.746383
O O3 0.763617 0.392779 0.870848
O O4 0.222340 0.197242 0.675284
O O5 0.111932 0.339872 0.956133
O O6 0.976391 0.207254 0.789039
O O7 0.500000 0.500000 0.000000
O O8 0.169387 0.987529 0.992871
O O9 0.740780 0.373830 0.572529
O O10 0.216326 0.004227 0.378922
O O11 0.291127 0.276023 0.459120
O O12 0.212392 0.808855 0.556183
O O13 0.216060 0.491521 0.723135
O O14 0.577558 0.004981 0.779595
O O15 0.000000 0.000000 0.500000
#
# Coordination Sequence:
#
# PCOD8031201 Si02
#       7
#     2   2   2   2   2   2   2
#     4  12  25  43  69 105 143 183 231 285 354 422
#     4  11  24  47  74  98 138 184 237 292 346 411
#     4  11  24  41  68 104 144 177 230 286 350 421
#     4  12  22  45  71 101 149 181 229 293 348 415
#     4  11  26  46  72 103 135 186 236 289 350 410
#     4  11  22  42  72 102 135 190 231 282 354 412
#     4  12  24  40  66 105 143 187 229 285 350 422
#
# _framework density 25.170611999999998
#
# number of rings (size 3 to 8) (size 9 to 14) (size 15 to 20)
#    0.000    0.571    5.714    3.857    0.000    2.857 
#    0.000    7.143    0.000    0.000    0.000    0.000 
#    0.000    0.000    0.000    0.000    0.000    0.000 
#
# Total GULP energy -173641.546918 kJ/mol
# GULP energy per Si atom -12402.967637 kJ/mol
# Density = 2.511332 g / cm^3
# Si number density = 25.170612 Si / 1000 Ang^3
#
#
#
# Elastic Constant Matrix: (Units=GPa)
#
#
# Indices 1 2 3 4 5 6 
#
# 1 114.6495 39.9744 9.9914 -26.5415 20.9208 12.6808
# 2 39.9744 83.9354 25.3807 -20.6585 23.2559 30.2494
# 3 9.9914 25.3807 93.0398 -35.1388 14.2372 5.3660
# 4 -26.5415 -20.6585 -35.1388 48.2525 -1.3544 5.2715
# 5 20.9208 23.2559 14.2372 -1.3544 43.2701 -12.2038
# 6 12.6808 30.2494 5.3660 5.2715 -12.2038 54.7687
#
#
#
# Elastic Compliance Matrix: (Units=1/GPa)
#
#
# Indices 1 2 3 4 5 6 
#
# 1 0.013420 0.000172 0.004685 0.011350 -0.009719 -0.006919
# 2 0.000172 0.030454 0.003336 0.017536 -0.023820 -0.024182
# 3 0.004685 0.003336 0.018623 0.018232 -0.012218 -0.009229
# 4 0.011350 0.017536 0.018232 0.049717 -0.026337 -0.024753
# 5 -0.009719 -0.023820 -0.012218 -0.026337 0.052505 0.030838
# 6 -0.006919 -0.024182 -0.009229 -0.024753 0.030838 0.043375
#
#
# Mechanical properties :
#
#
# Convention : Reuss Voigt Hill
#
# Bulk Modulus (GPa) = 12.67700 49.14641 30.91171
# Shear Modulus (GPa) = 22.93554 43.67682 33.30618
#
# Velocity S-wave (km/s) = 3.02189 4.17013 3.64155
# Velocity P-wave (km/s) = 4.15007 6.53868 5.47620
#
# Compressibility (1/GPa) = 0.07888301
#
# Stress axis : x y z
#
# Youngs Moduli (GPa) = 74.51358 32.83642 53.69812
#
# Poissons Ratio (x) = -0.00564 -0.25157
# Poissons Ratio (y) = -0.01280 -0.17916
# Poissons Ratio (z) = -0.34909 -0.10955
#
# Static dielectric constant tensor:
#      x y z
#    x 4.901940 0.218500 -0.047430 
#    y 0.218500 4.860590 0.139390 
#    z -0.047430 0.139390 4.627950 
# 
# 
# High freq. dielectric constant tensor:
#      x y z
#    x 2.016570 0.012420 -0.000270 
#    y 0.012420 2.017300 0.005200 
#    z -0.000270 0.005200 1.997240 
# 
# From -- ./inp_files/400140.got.cif
#   From: 2010.06.25/outbox.cif.g09.slc.cpg/sg2_201_cif.got.tgz:400140.got - 2010.06.27 13:26:56.
