data_PCOD8031330
_publ_section_title
;
Structure prediction by ZEFSAII (Michael W. Deem and Ramdas Pophale) SiO2 
 PCOD8031330
Probable space group: P -1
;
_chemical_formula_sum "Si O2"
_cell_formula_units_Z 12
_cell_length_a 12.474863
_cell_length_b 13.503274
_cell_length_c 10.831872
_cell_angle_alpha 31.063298
_cell_angle_beta 146.130139
_cell_angle_gamma 148.545842
_cell_volume 456.450715
_symmetry_space_group_name_H-M "P -1"
_symmetry_group_IT_number 2
_symmetry_cell_setting 'triclinic'
loop_
_space_group_symop_operation_xyz
x,y,z
-x,-y,-z
loop_
_atom_site_type_symbol
_atom_site_label
_atom_site_fract_x
_atom_site_fract_y
_atom_site_fract_z
Si Si1 0.329774 0.910532 0.244591
Si Si2 0.040664 0.077818 0.268056
Si Si3 0.729317 0.538572 0.445985
Si Si4 0.901068 0.658205 0.727796
Si Si5 0.645675 0.547042 0.970687
Si Si6 0.200512 0.782885 0.530438
O O1 0.301726 0.684033 0.405760
O O2 0.224113 0.883798 0.308876
O O3 0.591513 0.076503 0.330584
O O4 0.207719 0.996181 0.939785
O O5 0.141556 0.292480 0.227163
O O6 0.214924 0.186930 0.204637
O O7 0.060925 0.891884 0.562703
O O8 0.698784 0.528785 0.576096
O O9 0.538441 0.587547 0.165714
O O10 0.973372 0.744898 0.419458
O O11 0.000000 0.500000 0.000000
O O12 0.500000 0.500000 0.000000
O O13 0.818151 0.458045 0.244803
#
# Coordination Sequence:
#
# PCOD8031330 Si02
#       6
#     2   2   2   2   2   2
#     4  11  22  43  70 102 145 189 236 301 358 428
#     4  11  25  46  74 108 145 189 252 297 358 440
#     4  12  24  43  72 101 144 192 238 295 366 426
#     4  11  24  47  74 102 143 196 246 303 361 421
#     4  12  24  43  72 107 146 191 235 296 371 435
#     4  11  24  43  68 105 149 187 238 298 364 438
#
# _framework density 26.289804
#
# number of rings (size 3 to 8) (size 9 to 14) (size 15 to 20)
#    0.000    0.667    5.000    2.500    2.333    0.667 
#    0.000    9.167    0.000    0.000    0.000    0.000 
#    0.000    0.000    0.000    0.000    0.000    0.000 
#
# Total GULP energy -148684.112495 kJ/mol
# GULP energy per Si atom -12390.342708 kJ/mol
# Density = 2.622997 g / cm^3
# Si number density = 26.289804 Si / 1000 Ang^3
#
#
#
# Elastic Constant Matrix: (Units=GPa)
#
#
# Indices 1 2 3 4 5 6 
#
# 1 51.3155 13.9615 16.6429 -0.6209 -6.2942 -6.3899
# 2 13.9615 118.5225 22.4786 13.9702 -13.9180 4.4368
# 3 16.6429 22.4786 146.3887 13.9808 -14.9896 7.2753
# 4 -0.6209 13.9702 13.9808 49.1736 -3.7477 -13.7478
# 5 -6.2942 -13.9180 -14.9896 -3.7477 32.1260 7.1062
# 6 -6.3899 4.4368 7.2753 -13.7478 7.1062 54.6614
#
#
#
# Elastic Compliance Matrix: (Units=1/GPa)
#
#
# Indices 1 2 3 4 5 6 
#
# 1 0.021560 -0.002350 -0.002354 0.002711 0.001652 0.003491
# 2 -0.002350 0.009665 -0.000445 -0.002993 0.003663 -0.002229
# 3 -0.002354 -0.000445 0.007858 -0.002547 0.003234 -0.002346
# 4 0.002711 -0.002993 -0.002547 0.023844 -0.000718 0.006989
# 5 0.001652 0.003663 0.003234 -0.000718 0.035647 -0.005350
# 6 0.003491 -0.002229 -0.002346 0.006989 -0.005350 0.021649
#
#
# Mechanical properties :
#
#
# Convention : Reuss Voigt Hill
#
# Bulk Modulus (GPa) = 34.73922 46.93252 40.83587
# Shear Modulus (GPa) = 35.68507 44.73512 40.21009
#
# Velocity S-wave (km/s) = 3.68825 4.12954 3.91512
# Velocity P-wave (km/s) = 5.60181 6.37402 6.00035
#
# Compressibility (1/GPa) = 0.02878591
#
# Stress axis : x y z
#
# Youngs Moduli (GPa) = 46.38210 103.46873 127.25752
#
# Poissons Ratio (x) = 0.24310 0.29952
# Poissons Ratio (y) = 0.10898 0.05667
# Poissons Ratio (z) = 0.10917 0.04607
#
# Static dielectric constant tensor:
#      x y z
#    x 4.781300 -0.335850 0.277600 
#    y -0.335850 5.117620 -0.273130 
#    z 0.277600 -0.273130 4.498210 
# 
# 
# High freq. dielectric constant tensor:
#      x y z
#    x 2.039510 -0.026740 -0.008800 
#    y -0.026740 2.076330 -0.000680 
#    z -0.008800 -0.000680 2.066560 
# 
# From -- ./inp_files/454421.got.cif
#   From: 2010.06.25/outbox.cif.g09.slc.cpg/sg2_228_cif.got.tgz:454421.got - 2010.06.27 13:26:56.
