data_PCOD8031414
_publ_section_title
;
Structure prediction by ZEFSAII (Michael W. Deem and Ramdas Pophale) SiO2 
 PCOD8031414
Probable space group: P -1
;
_chemical_formula_sum "Si O2"
_cell_formula_units_Z 16
_cell_length_a 13.658351
_cell_length_b 8.329209
_cell_length_c 9.308819
_cell_angle_alpha 70.610909
_cell_angle_beta 126.523727
_cell_angle_gamma 75.425185
_cell_volume 646.609919
_symmetry_space_group_name_H-M "P -1"
_symmetry_group_IT_number 2
_symmetry_cell_setting 'triclinic'
loop_
_space_group_symop_operation_xyz
x,y,z
-x,-y,-z
loop_
_atom_site_type_symbol
_atom_site_label
_atom_site_fract_x
_atom_site_fract_y
_atom_site_fract_z
Si Si1 0.090759 0.768630 0.462179
Si Si2 0.036784 0.762732 0.730547
Si Si3 0.564726 0.580821 0.145314
Si Si4 0.491144 0.095568 0.219891
Si Si5 0.680397 0.568743 0.780191
Si Si6 0.438384 0.737159 0.293817
Si Si7 0.808572 0.781974 0.700847
Si Si8 0.114004 0.045136 0.022174
O O1 0.261433 0.598075 0.611305
O O2 0.055083 0.701133 0.598466
O O3 0.067477 0.988783 0.402751
O O4 0.974397 0.793371 0.235236
O O5 0.953982 0.669983 0.757375
O O6 0.202755 0.657278 0.975189
O O7 0.472360 0.631651 0.197264
O O8 0.500000 0.500000 0.000000
O O9 0.549761 0.782116 0.004224
O O10 0.398339 0.250982 0.223304
O O11 0.454238 0.927158 0.235179
O O12 0.666627 0.986580 0.436823
O O13 0.556744 0.572090 0.571802
O O14 0.776351 0.610621 0.746853
O O15 0.268472 0.829129 0.165335
O O16 0.843118 0.847058 0.860054
O O17 0.000000 0.000000 0.000000
#
# Coordination Sequence:
#
# PCOD8031414 Si02
#       8
#     2   2   2   2   2   2   2   2
#     4  11  27  45  64 102 148 192 237 291 365 434
#     4  11  24  45  70  99 144 193 236 297 364 420
#     4  12  28  46  74 106 149 194 247 296 366 441
#     4  11  22  49  75 106 147 190 249 299 362 434
#     4  11  22  47  76 107 139 191 251 296 360 435
#     4  11  26  47  77 109 144 192 245 306 363 431
#     4  11  22  43  74 105 142 189 234 303 361 428
#     4  12  25  44  72 105 148 185 239 301 368 431
#
# _framework density 24.744440000000001
#
# number of rings (size 3 to 8) (size 9 to 14) (size 15 to 20)
#    0.000    0.750    5.000    2.250    7.000    0.000 
#    0.000    3.125    0.000    0.000    0.000    0.000 
#    0.000    0.000    0.000    0.000    0.000    0.000 
#
# Total GULP energy -198482.394258 kJ/mol
# GULP energy per Si atom -12405.149641 kJ/mol
# Density = 2.468812 g / cm^3
# Si number density = 24.744440 Si / 1000 Ang^3
#
#
#
# Elastic Constant Matrix: (Units=GPa)
#
#
# Indices 1 2 3 4 5 6 
#
# 1 117.0700 45.1826 75.1762 13.8013 6.3103 -39.1929
# 2 45.1826 69.2351 51.3057 14.3815 8.4169 -17.2738
# 3 75.1762 51.3057 208.8037 -5.3914 8.7174 -17.5289
# 4 13.8013 14.3815 -5.3914 42.8157 -5.1174 3.1641
# 5 6.3103 8.4169 8.7174 -5.1174 47.3279 1.7331
# 6 -39.1929 -17.2738 -17.5289 3.1641 1.7331 36.4871
#
#
#
# Elastic Compliance Matrix: (Units=1/GPa)
#
#
# Indices 1 2 3 4 5 6 
#
# 1 0.020327 -0.002720 -0.005152 -0.008023 -0.002837 0.018902
# 2 -0.002720 0.023393 -0.004220 -0.008537 -0.004202 0.007065
# 3 -0.005152 -0.004220 0.007396 0.004420 0.000714 -0.004396
# 4 -0.008023 -0.008537 0.004420 0.031035 0.005624 -0.013495
# 5 -0.002837 -0.004202 0.000714 0.005624 0.022961 -0.006272
# 6 0.018902 0.007065 -0.004396 -0.013495 -0.006272 0.050412
#
#
# Mechanical properties :
#
#
# Convention : Reuss Voigt Hill
#
# Bulk Modulus (GPa) = 37.13162 82.04864 59.59013
# Shear Modulus (GPa) = 26.49905 40.22243 33.36074
#
# Velocity S-wave (km/s) = 3.27602 4.03614 3.67578
# Velocity P-wave (km/s) = 5.41742 7.41289 6.49228
#
# Compressibility (1/GPa) = 0.02693123
#
# Stress axis : x y z
#
# Youngs Moduli (GPa) = 49.19626 42.74792 135.20213
#
# Poissons Ratio (x) = 0.11628 0.69654
# Poissons Ratio (y) = 0.13382 0.57062
# Poissons Ratio (z) = 0.25345 0.18042
#
# Static dielectric constant tensor:
#      x y z
#    x 4.849110 -0.072340 -0.106310 
#    y -0.072340 4.290950 -0.083540 
#    z -0.106310 -0.083540 5.072300 
# 
# 
# High freq. dielectric constant tensor:
#      x y z
#    x 2.001100 -0.003950 0.001310 
#    y -0.003950 1.979960 -0.004320 
#    z 0.001310 -0.004320 2.007160 
# 
# From -- ./inp_files/298384.got.cif
#   From: 2010.06.25/outbox.cif.g09.slc.cpg/sg2_150_cif.got.tgz:298384.got - 2010.06.27 13:26:56.
