data_PCOD8031632
_publ_section_title
;
Structure prediction by ZEFSAII (Michael W. Deem and Ramdas Pophale) SiO2 
 PCOD8031632
Probable space group: P -1
;
_chemical_formula_sum "Si O2"
_cell_formula_units_Z 12
_cell_length_a 12.515519
_cell_length_b 7.903692
_cell_length_c 9.769535
_cell_angle_alpha 71.637934
_cell_angle_beta 50.885362
_cell_angle_gamma 42.083074
_cell_volume 480.223991
_symmetry_space_group_name_H-M "P -1"
_symmetry_group_IT_number 2
_symmetry_cell_setting 'triclinic'
loop_
_space_group_symop_operation_xyz
x,y,z
-x,-y,-z
loop_
_atom_site_type_symbol
_atom_site_label
_atom_site_fract_x
_atom_site_fract_y
_atom_site_fract_z
Si Si1 0.492792 0.857537 0.375873
Si Si2 0.750809 0.878850 0.974801
Si Si3 0.447549 0.703122 0.193411
Si Si4 0.127244 0.745657 0.373089
Si Si5 0.826977 0.593355 0.373591
Si Si6 0.139313 0.852173 0.054490
O O1 0.409614 0.777447 0.367283
O O2 0.669094 0.627147 0.399170
O O3 0.296132 0.112209 0.557038
O O4 0.600467 0.901458 0.179722
O O5 0.963642 0.573498 0.838731
O O6 0.635007 0.047689 0.887116
O O7 0.797841 0.008815 0.991923
O O8 0.356388 0.604609 0.234353
O O9 0.685792 0.453318 0.047935
O O10 0.115723 0.560559 0.491938
O O11 0.037616 0.844738 0.267065
O O12 0.000000 0.000000 0.500000
O O13 0.000000 0.000000 0.000000
#
# Coordination Sequence:
#
# PCOD8031632 Si02
#       6
#     2   2   2   2   2   2
#     4  11  25  42  64 101 137 177 222 271 334 410
#     4  11  22  45  66  94 137 179 219 275 336 397
#     4  11  23  41  68  96 130 175 224 273 333 396
#     4  11  22  45  67  95 133 170 223 282 327 389
#     4  11  23  44  66  94 139 177 221 275 336 391
#     4  11  23  42  70  99 127 175 229 276 333 395
#
# _framework density 24.988340999999998
#
# number of rings (size 3 to 8) (size 9 to 14) (size 15 to 20)
#    0.000    1.000    3.333    6.000    0.000    1.333 
#    9.000    0.000    0.000    0.000    0.000    0.000 
#    0.000    0.000    0.000    0.000    0.000    0.000 
#
# Total GULP energy -148705.762560 kJ/mol
# GULP energy per Si atom -12392.146880 kJ/mol
# Density = 2.493147 g / cm^3
# Si number density = 24.988341 Si / 1000 Ang^3
#
#
#
# Elastic Constant Matrix: (Units=GPa)
#
#
# Indices 1 2 3 4 5 6 
#
# 1 77.3841 18.7790 24.0741 -4.7607 30.7945 -21.8025
# 2 18.7790 103.8723 49.3595 25.5815 14.0817 -32.2268
# 3 24.0741 49.3595 108.2163 15.9806 21.9160 -13.6344
# 4 -4.7607 25.5815 15.9806 58.7227 -1.4541 6.4551
# 5 30.7945 14.0817 21.9160 -1.4541 44.8485 -12.0500
# 6 -21.8025 -32.2268 -13.6344 6.4551 -12.0500 36.9477
#
#
#
# Elastic Compliance Matrix: (Units=1/GPa)
#
#
# Indices 1 2 3 4 5 6 
#
# 1 0.019959 0.001341 -0.001794 0.000298 -0.010908 0.008675
# 2 0.001341 0.019699 -0.005817 -0.008800 0.000128 0.017406
# 3 -0.001794 -0.005817 0.012921 -0.000952 -0.003956 -0.002487
# 4 0.000298 -0.008800 -0.000952 0.022433 0.000645 -0.011560
# 5 -0.010908 0.000128 -0.003956 0.000645 0.032420 0.002676
# 6 0.008675 0.017406 -0.002487 -0.011560 0.002676 0.049341
#
#
# Mechanical properties :
#
#
# Convention : Reuss Voigt Hill
#
# Bulk Modulus (GPa) = 24.97499 52.65532 38.81516
# Shear Modulus (GPa) = 27.37354 41.25445 34.31399
#
# Velocity S-wave (km/s) = 3.31335 4.06759 3.70969
# Velocity P-wave (km/s) = 4.96529 6.57101 5.82375
#
# Compressibility (1/GPa) = 0.04004005
#
# Stress axis : x y z
#
# Youngs Moduli (GPa) = 50.10382 50.76373 77.39220
#
# Poissons Ratio (x) = -0.06807 0.13881
# Poissons Ratio (y) = -0.06719 0.45017
# Poissons Ratio (z) = 0.08986 0.29528
#
# Static dielectric constant tensor:
#      x y z
#    x 3.357820 0.338890 0.623030 
#    y 0.338890 3.921000 0.020020 
#    z 0.623030 0.020020 4.557260 
# 
# 
# High freq. dielectric constant tensor:
#      x y z
#    x 1.983740 -0.020600 0.021850 
#    y -0.020600 1.998590 0.012150 
#    z 0.021850 0.012150 2.004910 
# 
# From -- ./inp_files/158919.got.cif
#   From: 2010.06.25/outbox.cif.g09.slc.cpg/sg2_80_cif.got.tgz:158919.got - 2010.06.27 13:26:56.
