data_PCOD8031763
_publ_section_title
;
Structure prediction by ZEFSAII (Michael W. Deem and Ramdas Pophale) SiO2 
 PCOD8031763
Probable space group: P -1
;
_chemical_formula_sum "Si O2"
_cell_formula_units_Z 16
_cell_length_a 12.580107
_cell_length_b 14.409419
_cell_length_c 8.448377
_cell_angle_alpha 148.463389
_cell_angle_beta 70.914748
_cell_angle_gamma 112.499350
_cell_volume 740.045596
_symmetry_space_group_name_H-M "P -1"
_symmetry_group_IT_number 2
_symmetry_cell_setting 'triclinic'
loop_
_space_group_symop_operation_xyz
x,y,z
-x,-y,-z
loop_
_atom_site_type_symbol
_atom_site_label
_atom_site_fract_x
_atom_site_fract_y
_atom_site_fract_z
Si Si1 0.270091 0.500532 0.457535
Si Si2 0.228118 0.835202 0.138411
Si Si3 0.126248 0.032401 0.224408
Si Si4 0.490008 0.979433 0.290127
Si Si5 0.957102 0.674066 0.826763
Si Si6 0.011364 0.692050 0.193149
Si Si7 0.348817 0.242294 0.280894
Si Si8 0.486657 0.647308 0.350805
O O1 0.175068 0.345663 0.192960
O O2 0.324076 0.418846 0.462901
O O3 0.369701 0.575997 0.396048
O O4 0.209082 0.661995 0.778137
O O5 0.184845 0.000513 0.316378
O O6 0.359193 0.889172 0.194460
O O7 0.147846 0.783209 0.256656
O O8 0.058849 0.194707 0.501445
O O9 0.230642 0.091102 0.135272
O O10 0.034580 0.849523 0.956273
O O11 0.500000 0.000000 0.500000
O O12 0.527467 0.169452 0.460920
O O13 0.564666 0.842331 0.990321
O O14 0.000000 0.500000 0.500000
O O15 0.962292 0.689201 0.035475
O O16 0.000000 0.500000 0.000000
O O17 0.404383 0.309927 0.521789
O O18 0.500000 0.500000 0.000000
#
# Coordination Sequence:
#
# PCOD8031763 Si02
#       8
#     2   2   2   2   2   2   2   2
#     4  12  25  44  72 102 143 183 232 298 349 420
#     4  11  22  46  70  96 144 183 228 291 352 410
#     4  11  24  44  73  99 138 188 229 287 351 420
#     4  12  27  46  72 105 138 187 240 286 354 423
#     4  11  24  44  69 100 137 181 235 281 354 417
#     4  11  25  45  70 102 136 185 237 291 350 415
#     4  12  26  47  72 102 145 186 233 289 359 416
#     4  12  27  44  71 103 140 185 235 290 354 420
#
# _framework density 21.620287999999999
#
# number of rings (size 3 to 8) (size 9 to 14) (size 15 to 20)
#    0.000    0.500    5.000    4.500    3.500    4.500 
#    0.000    0.000    0.000    0.000    0.000    0.000 
#    0.000    0.000    0.000    0.000    0.000    0.000 
#
# Total GULP energy -198428.984484 kJ/mol
# GULP energy per Si atom -12401.811530 kJ/mol
# Density = 2.157108 g / cm^3
# Si number density = 21.620288 Si / 1000 Ang^3
#
#
#
# Elastic Constant Matrix: (Units=GPa)
#
#
# Indices 1 2 3 4 5 6 
#
# 1 120.8191 65.9449 45.6874 11.1719 3.1454 30.3154
# 2 65.9449 137.9493 30.2067 14.5582 -1.2064 14.0462
# 3 45.6874 30.2067 105.6125 9.6409 -5.6012 -0.6573
# 4 11.1719 14.5582 9.6409 33.3359 -2.7495 -2.3818
# 5 3.1454 -1.2064 -5.6012 -2.7495 42.8837 2.4649
# 6 30.3154 14.0462 -0.6573 -2.3818 2.4649 45.3195
#
#
#
# Elastic Compliance Matrix: (Units=1/GPa)
#
#
# Indices 1 2 3 4 5 6 
#
# 1 0.015533 -0.005165 -0.005179 -0.002219 -0.001592 -0.008895
# 2 -0.005165 0.010053 -0.000388 -0.002498 0.000441 0.000179
# 3 -0.005179 -0.000388 0.012038 -0.001182 0.001658 0.003607
# 4 -0.002219 -0.002498 -0.001182 0.032598 0.001807 0.003856
# 5 -0.001592 0.000441 0.001658 0.001807 0.023795 -0.000247
# 6 -0.008895 0.000179 0.003607 0.003856 -0.000247 0.028229
#
#
# Mechanical properties :
#
#
# Convention : Reuss Voigt Hill
#
# Bulk Modulus (GPa) = 61.88825 72.00653 66.94739
# Shear Modulus (GPa) = 33.53502 39.14396 36.33949
#
# Velocity S-wave (km/s) = 3.94266 4.25964 4.10421
# Velocity P-wave (km/s) = 7.02946 7.58749 7.31380
#
# Compressibility (1/GPa) = 0.01615816
#
# Stress axis : x y z
#
# Youngs Moduli (GPa) = 64.37797 99.47751 83.06688
#
# Poissons Ratio (x) = 0.51384 0.43024
# Poissons Ratio (y) = 0.33254 0.03224
# Poissons Ratio (z) = 0.33344 0.03861
#
# Static dielectric constant tensor:
#      x y z
#    x 6.562400 -0.160530 0.898390 
#    y -0.160530 4.141400 0.008970 
#    z 0.898390 0.008970 4.294230 
# 
# 
# High freq. dielectric constant tensor:
#      x y z
#    x 1.866340 0.013760 -0.008980 
#    y 0.013760 1.861230 0.012480 
#    z -0.008980 0.012480 1.847410 
# 
# From -- ./inp_files/274440.got.cif
#   From: 2010.06.25/outbox.cif.g09.slc.cpg/sg2_138_cif.got.tgz:274440.got - 2010.06.27 13:26:56.
