data_PCOD8031269
_publ_section_title
;
Structure prediction by ZEFSAII (Michael W. Deem and Ramdas Pophale) SiO2 
 PCOD8031269
Probable space group: P -1
;
_chemical_formula_sum "Si O2"
_cell_formula_units_Z 16
_cell_length_a 9.454476
_cell_length_b 8.582839
_cell_length_c 11.741973
_cell_angle_alpha 117.182218
_cell_angle_beta 122.341233
_cell_angle_gamma 77.556586
_cell_volume 715.576275
_symmetry_space_group_name_H-M "P -1"
_symmetry_group_IT_number 2
_symmetry_cell_setting 'triclinic'
loop_
_space_group_symop_operation_xyz
x,y,z
-x,-y,-z
loop_
_atom_site_type_symbol
_atom_site_label
_atom_site_fract_x
_atom_site_fract_y
_atom_site_fract_z
Si Si1 0.257364 0.029611 0.649236
Si Si2 0.218946 0.453087 0.385490
Si Si3 0.927659 0.202581 0.151206
Si Si4 0.445062 0.866471 0.333708
Si Si5 0.474151 0.481274 0.306140
Si Si6 0.390773 0.834262 0.852169
Si Si7 0.083892 0.848075 0.118340
Si Si8 0.958986 0.223840 0.673530
O O1 0.301064 0.883426 0.711798
O O2 0.165414 0.939082 0.470429
O O3 0.424539 0.129791 0.711796
O O4 0.146776 0.178940 0.705921
O O5 0.338580 0.412361 0.317082
O O6 0.337771 0.492890 0.556573
O O7 0.095247 0.608576 0.361699
O O8 0.091325 0.292987 0.311189
O O9 0.751651 0.239252 0.146797
O O10 0.927641 0.268679 0.040955
O O11 0.946536 0.994717 0.098525
O O12 0.415621 0.666521 0.296004
O O13 0.271588 0.933367 0.232095
O O14 0.500000 0.000000 0.500000
O O15 0.484734 0.326613 0.165903
O O16 0.500000 0.000000 0.000000
O O17 0.047854 0.738578 0.181526
#
# Coordination Sequence:
#
# PCOD8031269 Si02
#       8
#     2   2   2   2   2   2   2   2
#     4  11  24  41  70 100 134 181 228 286 350 408
#     4  11  24  44  70 104 140 174 234 294 348 413
#     4  11  27  43  71 100 137 189 230 285 349 418
#     4  12  23  43  72 102 138 182 229 287 347 412
#     4  11  26  43  71 108 139 182 233 288 350 417
#     4  12  27  49  68 100 147 188 228 288 351 415
#     4  11  23  45  65  99 134 182 239 270 347 418
#     4  11  22  43  67 100 136 177 227 291 344 401
#
# _framework density 22.359601000000001
#
# number of rings (size 3 to 8) (size 9 to 14) (size 15 to 20)
#    0.000    0.750    5.000    1.500    8.750    1.000 
#    2.250    1.250    0.000    0.000    0.000    0.000 
#    0.000    0.000    0.000    0.000    0.000    0.000 
#
# Total GULP energy -198419.249837 kJ/mol
# GULP energy per Si atom -12401.203115 kJ/mol
# Density = 2.230871 g / cm^3
# Si number density = 22.359601 Si / 1000 Ang^3
#
#
#
# Elastic Constant Matrix: (Units=GPa)
#
#
# Indices 1 2 3 4 5 6 
#
# 1 116.6893 11.0542 25.2115 13.3823 -0.7582 -4.0154
# 2 11.0542 73.3873 15.2819 5.5837 -9.7283 -13.4619
# 3 25.2115 15.2819 77.0451 6.1182 -3.1444 -0.5374
# 4 13.3823 5.5837 6.1182 38.1776 3.1539 -1.3705
# 5 -0.7582 -9.7283 -3.1444 3.1539 31.9589 -1.7998
# 6 -4.0154 -13.4619 -0.5374 -1.3705 -1.7998 36.5501
#
#
#
# Elastic Compliance Matrix: (Units=1/GPa)
#
#
# Indices 1 2 3 4 5 6 
#
# 1 0.009571 -0.000495 -0.002800 -0.002817 0.000120 0.000728
# 2 -0.000495 0.016201 -0.002640 -0.001985 0.005197 0.006056
# 3 -0.002800 -0.002640 0.014519 -0.001048 0.000601 -0.001076
# 4 -0.002817 -0.001985 -0.001048 0.027925 -0.003540 -0.000183
# 5 0.000120 0.005197 0.000601 -0.003540 0.033478 0.003452
# 6 0.000728 0.006056 -0.001076 -0.000183 0.003452 0.029817
#
#
# Mechanical properties :
#
#
# Convention : Reuss Voigt Hill
#
# Bulk Modulus (GPa) = 35.18309 41.13520 38.15914
# Shear Modulus (GPa) = 32.71085 35.70893 34.20989
#
# Velocity S-wave (km/s) = 3.82899 4.00062 3.91575
# Velocity P-wave (km/s) = 5.94286 6.30690 6.12758
#
# Compressibility (1/GPa) = 0.02842275
#
# Stress axis : x y z
#
# Youngs Moduli (GPa) = 104.48743 61.72345 68.87318
#
# Poissons Ratio (x) = 0.03053 0.19284
# Poissons Ratio (y) = 0.05169 0.18180
# Poissons Ratio (z) = 0.29256 0.16293
#
# Static dielectric constant tensor:
#      x y z
#    x 4.135480 -0.188920 -0.075480 
#    y -0.188920 3.830760 -0.142430 
#    z -0.075480 -0.142430 4.083490 
# 
# 
# High freq. dielectric constant tensor:
#      x y z
#    x 1.894950 -0.015070 -0.000730 
#    y -0.015070 1.869090 -0.007800 
#    z -0.000730 -0.007800 1.872900 
# 
# From -- ./inp_files/190019.got.cif
#   From: 2010.06.25/outbox.cif.g09.slc.cpg/sg2_96_cif.got.tgz:190019.got - 2010.06.27 13:26:56.
