data_PCOD8031780
_publ_section_title
;
Structure prediction by ZEFSAII (Michael W. Deem and Ramdas Pophale) SiO2 
 PCOD8031780
Probable space group: P -1
;
_chemical_formula_sum "Si O2"
_cell_formula_units_Z 16
_cell_length_a 19.104402
_cell_length_b 11.602542
_cell_length_c 8.751584
_cell_angle_alpha 32.927800
_cell_angle_beta 126.311258
_cell_angle_gamma 138.803365
_cell_volume 690.308527
_symmetry_space_group_name_H-M "P -1"
_symmetry_group_IT_number 2
_symmetry_cell_setting 'triclinic'
loop_
_space_group_symop_operation_xyz
x,y,z
-x,-y,-z
loop_
_atom_site_type_symbol
_atom_site_label
_atom_site_fract_x
_atom_site_fract_y
_atom_site_fract_z
Si Si1 0.251653 0.894834 0.138758
Si Si2 0.054715 0.775796 0.183929
Si Si3 0.915912 0.825931 0.715502
Si Si4 0.603963 0.504600 0.312757
Si Si5 0.335737 0.656702 0.714198
Si Si6 0.278811 0.667866 0.142604
Si Si7 0.617330 0.967974 0.394347
Si Si8 0.801824 0.894972 0.726213
O O1 0.350239 0.193019 0.971993
O O2 0.137728 0.835927 0.090561
O O3 0.258913 0.696026 0.471911
O O4 0.255230 0.835249 0.033319
O O5 0.000000 0.500000 0.500000
O O6 0.115959 0.992995 0.151761
O O7 0.966811 0.791824 0.969154
O O8 0.829600 0.543603 0.848877
O O9 0.861356 0.962964 0.562337
O O10 0.000000 0.000000 0.500000
O O11 0.597533 0.401407 0.247402
O O12 0.681094 0.478001 0.549813
O O13 0.483540 0.334285 0.414083
O O14 0.408575 0.910174 0.633529
O O15 0.266598 0.416498 0.006412
O O16 0.371927 0.874686 0.918126
O O17 0.727920 0.997744 0.527366
#
# Coordination Sequence:
#
# PCOD8031780 Si02
#       8
#     2   2   2   2   2   2   2   2
#     4  11  25  45  71 104 143 181 237 291 346 425
#     4  12  25  47  75 103 139 190 238 294 366 415
#     4  12  28  46  74 103 139 190 238 295 359 414
#     4  11  25  46  73 103 143 188 230 290 355 416
#     4  11  22  46  72 103 146 175 234 290 347 409
#     4  11  27  46  67 103 147 179 237 291 345 430
#     4  12  25  45  74 105 140 189 233 284 360 424
#     4  12  26  47  73 105 146 179 238 300 345 428
#
# _framework density 23.178041
#
# number of rings (size 3 to 8) (size 9 to 14) (size 15 to 20)
#    0.000    0.500    3.750    3.375    7.000    5.000 
#    0.000    0.000    0.000    0.000    0.000    0.000 
#    0.000    0.000    0.000    0.000    0.000    0.000 
#
# Total GULP energy -198450.119864 kJ/mol
# GULP energy per Si atom -12403.132492 kJ/mol
# Density = 2.312529 g / cm^3
# Si number density = 23.178041 Si / 1000 Ang^3
#
#
#
# Elastic Constant Matrix: (Units=GPa)
#
#
# Indices 1 2 3 4 5 6 
#
# 1 127.4947 52.6927 21.4551 -8.1981 -16.0521 -20.8742
# 2 52.6927 99.8205 14.7146 -11.0206 -2.6905 -8.7025
# 3 21.4551 14.7146 87.5292 -6.3344 -12.1574 -1.6440
# 4 -8.1981 -11.0206 -6.3344 31.3534 -2.3165 -5.7928
# 5 -16.0521 -2.6905 -12.1574 -2.3165 31.0674 -9.4830
# 6 -20.8742 -8.7025 -1.6440 -5.7928 -9.4830 39.2370
#
#
#
# Elastic Compliance Matrix: (Units=1/GPa)
#
#
# Indices 1 2 3 4 5 6 
#
# 1 0.012823 -0.005336 -0.000630 0.003513 0.008691 0.008231
# 2 -0.005336 0.013262 -0.000946 0.002962 -0.001733 0.000081
# 3 -0.000630 -0.000946 0.012703 0.002768 0.005280 0.001672
# 4 0.003513 0.002962 0.002768 0.036983 0.009053 0.010290
# 5 0.008691 -0.001733 0.005280 0.009053 0.044308 0.016506
# 6 0.008231 0.000081 0.001672 0.010290 0.016506 0.035461
#
#
# Mechanical properties :
#
#
# Convention : Reuss Voigt Hill
#
# Bulk Modulus (GPa) = 40.05998 54.72991 47.39494
# Shear Modulus (GPa) = 28.13945 35.39702 31.76823
#
# Velocity S-wave (km/s) = 3.48811 3.91215 3.70620
# Velocity P-wave (km/s) = 5.79169 6.63858 6.22954
#
# Compressibility (1/GPa) = 0.02496257
#
# Stress axis : x y z
#
# Youngs Moduli (GPa) = 77.98735 75.40512 78.71877
#
# Poissons Ratio (x) = 0.40238 0.04960
# Poissons Ratio (y) = 0.41616 0.07449
# Poissons Ratio (z) = 0.04914 0.07136
#
# Static dielectric constant tensor:
#      x y z
#    x 4.397900 -0.121010 -0.135150 
#    y -0.121010 4.371650 0.025990 
#    z -0.135150 0.025990 4.145280 
# 
# 
# High freq. dielectric constant tensor:
#      x y z
#    x 1.925310 -0.007940 -0.009870 
#    y -0.007940 1.918260 -0.002440 
#    z -0.009870 -0.002440 1.921190 
# 
# From -- ./inp_files/109512.got.cif
#   From: 2010.06.25/outbox.cif.g09.slc.cpg/sg2_55_cif.got.tgz:109512.got - 2010.06.27 13:26:56.
