data_PCOD8031739
_publ_section_title
;
Structure prediction by ZEFSAII (Michael W. Deem and Ramdas Pophale) SiO2 
 PCOD8031739
Probable space group: P -1
;
_chemical_formula_sum "Si O2"
_cell_formula_units_Z 14
_cell_length_a 14.311574
_cell_length_b 11.746168
_cell_length_c 21.274359
_cell_angle_alpha 28.585722
_cell_angle_beta 20.671004
_cell_angle_gamma 40.079866
_cell_volume 569.347991
_symmetry_space_group_name_H-M "P -1"
_symmetry_group_IT_number 2
_symmetry_cell_setting 'triclinic'
loop_
_space_group_symop_operation_xyz
x,y,z
-x,-y,-z
loop_
_atom_site_type_symbol
_atom_site_label
_atom_site_fract_x
_atom_site_fract_y
_atom_site_fract_z
Si Si1 0.255254 0.247730 0.116638
Si Si2 0.223409 0.723061 0.389939
Si Si3 0.865382 0.861041 0.087947
Si Si4 0.174302 0.344850 0.433979
Si Si5 0.126024 0.899676 0.775804
Si Si6 0.762715 0.312809 0.459671
Si Si7 0.685279 0.532102 0.152481
O O1 0.988463 0.179012 0.364267
O O2 0.393266 0.024497 0.141697
O O3 0.499937 0.505127 0.855309
O O4 0.143126 0.291557 0.097413
O O5 0.181156 0.605540 0.542601
O O6 0.381742 0.567686 0.325749
O O7 0.942956 0.721439 0.530872
O O8 0.833494 0.568223 0.251647
O O9 0.553515 0.875721 0.264512
O O10 0.070201 0.984454 0.840038
O O11 0.000000 0.000000 0.000000
O O12 0.000000 0.500000 0.500000
O O13 0.149093 0.105410 0.609054
O O14 0.376234 0.772427 0.673544
O O15 0.855566 0.643419 0.054859
#
# Coordination Sequence:
#
# PCOD8031739 Si02
#       7
#     2   2   2   2   2   2   2
#     4  12  25  47  71 112 151 193 249 305 377 446
#     4  12  25  48  76 106 150 201 243 308 375 440
#     4  11  26  47  76 107 153 197 251 304 374 447
#     4  12  27  43  75 111 148 190 251 308 370 439
#     4  11  24  47  75 115 145 195 252 313 370 441
#     4  11  27  49  71 108 152 199 246 304 378 447
#     4  11  22  45  78 104 152 193 252 309 371 437
#
# _framework density 24.589532999999999
#
# number of rings (size 3 to 8) (size 9 to 14) (size 15 to 20)
#    0.000    0.571    5.714    1.714    2.000    2.286 
#    2.571    0.000    0.000    0.000    0.000    0.000 
#    0.000    0.000    0.000    0.000    0.000    0.000 
#
# Total GULP energy -173574.905264 kJ/mol
# GULP energy per Si atom -12398.207519 kJ/mol
# Density = 2.453357 g / cm^3
# Si number density = 24.589533 Si / 1000 Ang^3
#
#
#
# Elastic Constant Matrix: (Units=GPa)
#
#
# Indices 1 2 3 4 5 6 
#
# 1 160.4004 33.9008 49.1790 18.2219 -1.6722 -1.3778
# 2 33.9008 150.4888 55.7930 11.9237 3.2218 -13.3931
# 3 49.1790 55.7930 94.5847 18.3666 4.5473 -4.1625
# 4 18.2219 11.9237 18.3666 38.9953 -5.1448 4.1973
# 5 -1.6722 3.2218 4.5473 -5.1448 28.1675 -7.2056
# 6 -1.3778 -13.3931 -4.1625 4.1973 -7.2056 40.1415
#
#
#
# Elastic Compliance Matrix: (Units=1/GPa)
#
#
# Indices 1 2 3 4 5 6 
#
# 1 0.007560 -0.000291 -0.003455 -0.001730 0.000755 0.000121
# 2 -0.000291 0.008755 -0.004820 -0.000501 0.000313 0.002520
# 3 -0.003455 -0.004820 0.016339 -0.005025 -0.003232 -0.000087
# 4 -0.001730 -0.000501 -0.005025 0.030011 0.005506 -0.002897
# 5 0.000755 0.000313 -0.003232 0.005506 0.038612 0.006150
# 6 0.000121 0.002520 -0.000087 -0.002897 0.006150 0.027155
#
#
# Mechanical properties :
#
#
# Convention : Reuss Voigt Hill
#
# Bulk Modulus (GPa) = 64.41652 75.91326 70.16489
# Shear Modulus (GPa) = 33.17056 39.23427 36.20242
#
# Velocity S-wave (km/s) = 3.67682 3.99879 3.84118
# Velocity P-wave (km/s) = 6.65424 7.22908 6.94761
#
# Compressibility (1/GPa) = 0.01552397
#
# Stress axis : x y z
#
# Youngs Moduli (GPa) = 132.26674 114.22442 61.20320
#
# Poissons Ratio (x) = 0.03321 0.21143
# Poissons Ratio (y) = 0.03845 0.29499
# Poissons Ratio (z) = 0.45692 0.55055
#
# Static dielectric constant tensor:
#      x y z
#    x 4.770600 -0.142450 -0.208140 
#    y -0.142450 4.474410 0.002920 
#    z -0.208140 0.002920 4.238160 
# 
# 
# High freq. dielectric constant tensor:
#      x y z
#    x 1.998600 -0.010440 -0.003750 
#    y -0.010440 1.984220 -0.005860 
#    z -0.003750 -0.005860 1.962720 
# 
# From -- ./inp_files/597925.got.cif
#   From: 2010.06.25/outbox.cif.g09.slc.cpg/sg2_299_cif.got.tgz:597925.got - 2010.06.27 13:26:56.
