data_PCOD8031824
_publ_section_title
;
Structure prediction by ZEFSAII (Michael W. Deem and Ramdas Pophale) SiO2 
 PCOD8031824
Probable space group: P -1
;
_chemical_formula_sum "Si O2"
_cell_formula_units_Z 16
_cell_length_a 11.847191
_cell_length_b 8.366248
_cell_length_c 16.705514
_cell_angle_alpha 146.234645
_cell_angle_beta 127.492403
_cell_angle_gamma 58.251206
_cell_volume 729.412939
_symmetry_space_group_name_H-M "P -1"
_symmetry_group_IT_number 2
_symmetry_cell_setting 'triclinic'
loop_
_space_group_symop_operation_xyz
x,y,z
-x,-y,-z
loop_
_atom_site_type_symbol
_atom_site_label
_atom_site_fract_x
_atom_site_fract_y
_atom_site_fract_z
Si Si1 0.095286 0.268933 0.641067
Si Si2 0.331256 0.946916 0.196852
Si Si3 0.577279 0.775037 0.497002
Si Si4 0.161621 0.433661 0.571386
Si Si5 0.300295 0.303386 0.894444
Si Si6 0.780884 0.954150 0.094039
Si Si7 0.555379 0.834327 0.819160
Si Si8 0.019630 0.091408 0.136722
O O1 0.166388 0.233051 0.569178
O O2 0.212815 0.283485 0.766587
O O3 0.999818 0.564792 0.721029
O O4 0.000000 0.000000 0.500000
O O5 0.437111 0.087275 0.363559
O O6 0.335355 0.115315 0.184958
O O7 0.176482 0.986357 0.186239
O O8 0.371224 0.610654 0.059184
O O9 0.743168 0.722705 0.521118
O O10 0.493444 0.486704 0.339878
O O11 0.500000 0.000000 0.500000
O O12 0.000000 0.500000 0.500000
O O13 0.238570 0.724058 0.746915
O O14 0.198539 0.258341 0.909065
O O15 0.422749 0.056816 0.844488
O O16 0.635396 0.881855 0.956694
O O17 0.915033 0.923972 0.080172
O O18 0.000000 0.000000 0.000000
#
# Coordination Sequence:
#
# PCOD8031824 Si02
#       8
#     2   2   2   2   2   2   2   2
#     4  11  25  42  73 101 135 180 240 284 344 423
#     4  12  26  45  70 102 142 179 229 292 355 411
#     4  12  28  45  70 106 141 181 238 293 354 416
#     4  11  24  48  71  99 142 190 233 290 348 418
#     4  12  25  43  71 105 135 186 236 280 345 426
#     4  11  23  44  76  94 137 186 233 280 346 426
#     4  12  26  46  72  98 143 189 227 284 356 425
#     4  11  22  47  67 100 138 178 227 289 351 405
#
# _framework density 21.935448000000001
#
# number of rings (size 3 to 8) (size 9 to 14) (size 15 to 20)
#    0.000    0.500    3.750    4.875    5.250    1.500 
#    2.250    0.000    0.000    0.000    0.000    0.000 
#    0.000    0.000    0.000    0.000    0.000    0.000 
#
# Total GULP energy -198443.512776 kJ/mol
# GULP energy per Si atom -12402.719549 kJ/mol
# Density = 2.188552 g / cm^3
# Si number density = 21.935448 Si / 1000 Ang^3
#
#
#
# Elastic Constant Matrix: (Units=GPa)
#
#
# Indices 1 2 3 4 5 6 
#
# 1 98.1505 32.8830 26.1773 4.5639 2.1188 18.5174
# 2 32.8830 114.0572 52.1386 -3.5751 8.8957 14.1572
# 3 26.1773 52.1386 168.5377 3.0640 7.0801 11.6089
# 4 4.5639 -3.5751 3.0640 44.8609 9.0480 -2.8883
# 5 2.1188 8.8957 7.0801 9.0480 31.4384 -2.0335
# 6 18.5174 14.1572 11.6089 -2.8883 -2.0335 48.4396
#
#
#
# Elastic Compliance Matrix: (Units=1/GPa)
#
#
# Indices 1 2 3 4 5 6 
#
# 1 0.012088 -0.002764 -0.000751 -0.001717 0.000390 -0.003719
# 2 -0.002764 0.011378 -0.002888 0.001894 -0.003031 -0.001591
# 3 -0.000751 -0.002888 0.007020 -0.000553 -0.000594 -0.000609
# 4 -0.001717 0.001894 -0.000553 0.024189 -0.007168 0.001377
# 5 0.000390 -0.003031 -0.000594 -0.007168 0.034960 0.001919
# 6 -0.003719 -0.001591 -0.000609 0.001377 0.001919 0.022839
#
#
# Mechanical properties :
#
#
# Convention : Reuss Voigt Hill
#
# Bulk Modulus (GPa) = 56.56401 67.01591 61.78996
# Shear Modulus (GPa) = 38.11695 42.91755 40.51725
#
# Velocity S-wave (km/s) = 4.17308 4.42808 4.30247
# Velocity P-wave (km/s) = 7.00443 7.53403 7.27405
#
# Compressibility (1/GPa) = 0.01767909
#
# Stress axis : x y z
#
# Youngs Moduli (GPa) = 82.72705 87.89008 142.44052
#
# Poissons Ratio (x) = 0.24294 0.10703
# Poissons Ratio (y) = 0.22867 0.41137
# Poissons Ratio (z) = 0.06216 0.25383
#
# Static dielectric constant tensor:
#      x y z
#    x 3.755530 0.260410 -0.421570 
#    y 0.260410 4.226160 0.000510 
#    z -0.421570 0.000510 4.007210 
# 
# 
# High freq. dielectric constant tensor:
#      x y z
#    x 1.873390 0.015910 -0.003310 
#    y 0.015910 1.863040 -0.007060 
#    z -0.003310 -0.007060 1.877410 
# 
# From -- ./inp_files/567140.got.cif
#   From: 2010.06.25/outbox.cif.g09.slc.cpg/sg2_284_cif.got.tgz:567140.got - 2010.06.27 13:26:56.
