data_PCOD8031039
_publ_section_title
;
Structure prediction by ZEFSAII (Michael W. Deem and Ramdas Pophale) SiO2 
 PCOD8031039
Probable space group: P -1
;
_chemical_formula_sum "Si O2"
_cell_formula_units_Z 16
_cell_length_a 15.819403
_cell_length_b 9.382004
_cell_length_c 9.462860
_cell_angle_alpha 101.827766
_cell_angle_beta 47.224684
_cell_angle_gamma 73.468977
_cell_volume 814.828517
_symmetry_space_group_name_H-M "P -1"
_symmetry_group_IT_number 2
_symmetry_cell_setting 'triclinic'
loop_
_space_group_symop_operation_xyz
x,y,z
-x,-y,-z
loop_
_atom_site_type_symbol
_atom_site_label
_atom_site_fract_x
_atom_site_fract_y
_atom_site_fract_z
Si Si1 0.897938 0.198240 0.496807
Si Si2 0.157545 0.895861 0.742647
Si Si3 0.333280 0.627865 0.734285
Si Si4 0.665901 0.893932 0.815681
Si Si5 0.838314 0.526333 0.051253
Si Si6 0.846157 0.552998 0.725666
Si Si7 0.794254 0.077644 0.831596
Si Si8 0.153873 0.214429 0.692064
O O1 0.828141 0.226298 0.429055
O O2 0.837601 0.388632 0.672241
O O3 0.853346 0.094513 0.620767
O O4 0.069973 0.077175 0.262148
O O5 0.270979 0.764653 0.702850
O O6 0.191622 0.034926 0.687057
O O7 0.000000 0.000000 0.000000
O O8 0.500000 0.500000 0.500000
O O9 0.278164 0.504076 0.775721
O O10 0.294415 0.735285 0.946583
O O11 0.722706 0.717106 0.806843
O O12 0.744270 0.836925 0.565853
O O13 0.691625 0.020162 0.902318
O O14 0.500000 0.000000 0.000000
O O15 0.822898 0.674109 0.201236
O O16 0.813638 0.603843 0.937312
O O17 0.991506 0.333410 0.846354
O O18 0.000000 0.500000 0.500000
#
# Coordination Sequence:
#
# PCOD8031039 Si02
#       8
#     2   2   2   2   2   2   2   2
#     4  11  22  41  75  98 126 171 238 283 312 387
#     4  12  24  41  70 102 129 176 228 270 331 392
#     4  12  28  45  67 100 141 178 217 275 343 399
#     4  12  28  45  67 100 141 178 217 275 343 399
#     4  11  24  44  68 100 135 172 226 281 325 393
#     4  12  24  41  70 102 129 176 228 270 331 392
#     4  11  22  45  69  96 135 174 222 283 329 386
#     4  11  24  44  68 100 135 172 226 281 325 393
#
# _framework density 19.636033000000001
#
# number of rings (size 3 to 8) (size 9 to 14) (size 15 to 20)
#    0.000    0.500    7.500    0.000    7.000    1.000 
#    0.000    2.500    0.000    0.000    0.000    0.000 
#    0.000    0.000    0.000    0.000    0.000    0.000 
#
# Total GULP energy -198510.448118 kJ/mol
# GULP energy per Si atom -12406.903007 kJ/mol
# Density = 1.959134 g / cm^3
# Si number density = 19.636033 Si / 1000 Ang^3
#
#
#
# Elastic Constant Matrix: (Units=GPa)
#
#
# Indices 1 2 3 4 5 6 
#
# 1 102.8999 51.4108 66.8546 2.4831 -10.7287 1.3092
# 2 51.4108 115.9369 36.2505 -10.4641 -11.2696 -10.5304
# 3 66.8546 36.2505 105.8156 -4.6791 -8.2837 -11.8094
# 4 2.4831 -10.4641 -4.6791 29.7384 -2.9059 2.2241
# 5 -10.7287 -11.2696 -8.2837 -2.9059 43.8499 2.4679
# 6 1.3092 -10.5304 -11.8094 2.2241 2.4679 41.2555
#
#
#
# Elastic Compliance Matrix: (Units=1/GPa)
#
#
# Indices 1 2 3 4 5 6 
#
# 1 0.020894 -0.006456 -0.011741 -0.005340 0.001188 -0.005455
# 2 -0.006456 0.012198 0.000606 0.004871 0.001817 0.003121
# 3 -0.011741 0.000606 0.017452 0.003594 0.000520 0.005298
# 4 -0.005340 0.004871 0.003594 0.036627 0.003036 0.000285
# 5 0.001188 0.001817 0.000520 0.003036 0.023920 -0.001020
# 6 -0.005455 0.003121 0.005298 0.000285 -0.001020 0.026771
#
#
# Mechanical properties :
#
#
# Convention : Reuss Voigt Hill
#
# Bulk Modulus (GPa) = 65.09649 70.40936 67.75292
# Shear Modulus (GPa) = 28.06379 34.31118 31.18749
#
# Velocity S-wave (km/s) = 3.78458 4.18468 3.98964
# Velocity P-wave (km/s) = 7.23332 7.69959 7.47009
#
# Compressibility (1/GPa) = 0.01536181
#
# Stress axis : x y z
#
# Youngs Moduli (GPa) = 47.86020 81.97730 57.30053
#
# Poissons Ratio (x) = 0.52925 0.67278
# Poissons Ratio (y) = 0.30899 -0.03472
# Poissons Ratio (z) = 0.56194 -0.04967
#
# Static dielectric constant tensor:
#      x y z
#    x 3.345610 0.419040 0.349560 
#    y 0.419040 3.184320 -0.266350 
#    z 0.349560 -0.266350 3.382100 
# 
# 
# High freq. dielectric constant tensor:
#      x y z
#    x 1.774320 0.006260 0.017390 
#    y 0.006260 1.776150 -0.008020 
#    z 0.017390 -0.008020 1.760660 
# 
# From -- ./inp_files/187474.got.cif
#   From: 2010.06.25/outbox.cif.g09.slc.cpg/sg2_94_cif.got.tgz:187474.got - 2010.06.27 13:26:56.
