data_PCOD8031830
_publ_section_title
;
Structure prediction by ZEFSAII (Michael W. Deem and Ramdas Pophale) SiO2 
 PCOD8031830
Probable space group: P -1
;
_chemical_formula_sum "Si O2"
_cell_formula_units_Z 14
_cell_length_a 9.155556
_cell_length_b 25.288406
_cell_length_c 9.632584
_cell_angle_alpha 38.688503
_cell_angle_beta 47.940579
_cell_angle_gamma 29.183057
_cell_volume 679.266763
_symmetry_space_group_name_H-M "P -1"
_symmetry_group_IT_number 2
_symmetry_cell_setting 'triclinic'
loop_
_space_group_symop_operation_xyz
x,y,z
-x,-y,-z
loop_
_atom_site_type_symbol
_atom_site_label
_atom_site_fract_x
_atom_site_fract_y
_atom_site_fract_z
Si Si1 0.596920 0.464838 0.169680
Si Si2 0.318737 0.822528 0.440100
Si Si3 0.273580 0.308768 0.063968
Si Si4 0.722102 0.981327 0.805536
Si Si5 0.650477 0.022637 0.445517
Si Si6 0.620478 0.295821 0.087500
Si Si7 0.671894 0.623804 0.401287
O O1 0.538113 0.390774 0.420346
O O2 0.945382 0.375020 0.148444
O O3 0.500000 0.500000 0.000000
O O4 0.403815 0.594352 0.118333
O O5 0.424628 0.718329 0.696439
O O6 0.541584 0.744457 0.327596
O O7 0.304996 0.915175 0.337215
O O8 0.991985 0.908983 0.412826
O O9 0.514495 0.156407 0.218714
O O10 0.347498 0.345217 0.072069
O O11 0.313793 0.353535 0.812384
O O12 0.058877 0.837138 0.905050
O O13 0.617367 0.012735 0.649414
O O14 0.500000 0.000000 0.000000
O O15 0.500000 0.000000 0.500000
O O16 0.000000 0.500000 0.500000
#
# Coordination Sequence:
#
# PCOD8031830 Si02
#       7
#     2   2   2   2   2   2   2
#     4  12  25  45  71  97 133 181 228 278 341 396
#     4  11  22  47  68  94 139 176 219 274 342 406
#     4  12  25  46  69 101 138 176 231 281 338 402
#     4  11  25  42  70 103 135 178 223 276 338 407
#     4  11  24  42  69 101 136 176 221 278 341 399
#     4  11  23  47  69  95 137 181 219 279 344 398
#     4  12  27  43  71 102 132 182 232 277 337 403
#
# _framework density 20.61046
#
# number of rings (size 3 to 8) (size 9 to 14) (size 15 to 20)
#    0.000    0.571    5.714    2.143    6.000    3.429 
#    0.000    0.000    0.000    0.000    0.000    0.000 
#    0.000    0.000    0.000    0.000    0.000    0.000 
#
# Total GULP energy -173643.720147 kJ/mol
# GULP energy per Si atom -12403.122868 kJ/mol
# Density = 2.056355 g / cm^3
# Si number density = 20.610460 Si / 1000 Ang^3
#
#
#
# Elastic Constant Matrix: (Units=GPa)
#
#
# Indices 1 2 3 4 5 6 
#
# 1 150.4780 55.2323 32.4744 -12.7545 -6.1825 -10.5748
# 2 55.2323 119.7035 39.7762 -11.3424 -5.8092 -5.2400
# 3 32.4744 39.7762 100.7273 -2.3611 -0.6223 -15.8289
# 4 -12.7545 -11.3424 -2.3611 14.7109 -22.8533 -19.7152
# 5 -6.1825 -5.8092 -0.6223 -22.8533 12.5497 -18.5843
# 6 -10.5748 -5.2400 -15.8289 -19.7152 -18.5843 34.2850
#
#
#
# Elastic Compliance Matrix: (Units=1/GPa)
#
#
# Indices 1 2 3 4 5 6 
#
# 1 0.007906 -0.003525 -0.001394 -0.001711 -0.002627 -0.001152
# 2 -0.003525 0.010923 -0.003565 -0.000701 -0.001548 -0.002306
# 3 -0.001394 -0.003565 0.012090 -0.002052 -0.002030 0.002327
# 4 -0.001711 -0.000701 -0.002052 -0.000710 -0.027924 -0.017127
# 5 -0.002627 -0.001548 -0.002030 -0.027924 0.000022 -0.018029
# 6 -0.001152 -0.002306 0.002327 -0.017127 -0.018029 0.009912
#
#
# Mechanical properties :
#
#
# Convention : Reuss Voigt Hill
#
# Bulk Modulus (GPa) = 71.68235 69.54163 70.61199
# Shear Modulus (GPa) = 80.95558 28.53752 54.74655
#
# Velocity S-wave (km/s) = 6.27409 3.72508 5.15947
# Velocity P-wave (km/s) = 9.34562 7.23296 8.35633
#
# Compressibility (1/GPa) = 0.01395044
#
# Stress axis : x y z
#
# Youngs Moduli (GPa) = 126.48216 91.55387 82.71183
#
# Poissons Ratio (x) = 0.32270 0.11534
# Poissons Ratio (y) = 0.44581 0.29488
# Poissons Ratio (z) = 0.17637 0.32640
#
# Static dielectric constant tensor:
#      x y z
#    x 0.992680 -0.407540 3.345990 
#    y -0.407540 3.786120 0.302810 
#    z 3.345990 0.302810 -0.026640 
# 
# 
# High freq. dielectric constant tensor:
#      x y z
#    x 1.824670 0.002640 -0.001880 
#    y 0.002640 1.818720 -0.013400 
#    z -0.001880 -0.013400 1.804640 
# 
# From -- ./inp_files/172609.got.cif
#   From: 2010.06.25/outbox.cif.g09.slc.cpg/sg2_87_cif.got.tgz:172609.got - 2010.06.27 13:26:56.
