data_PCOD8031817
_publ_section_title
;
Structure prediction by ZEFSAII (Michael W. Deem and Ramdas Pophale) SiO2 
 PCOD8031817
Probable space group: P -1
;
_chemical_formula_sum "Si O2"
_cell_formula_units_Z 16
_cell_length_a 20.352711
_cell_length_b 11.514679
_cell_length_c 7.003820
_cell_angle_alpha 82.679013
_cell_angle_beta 86.198463
_cell_angle_gamma 26.913231
_cell_volume 732.792760
_symmetry_space_group_name_H-M "P -1"
_symmetry_group_IT_number 2
_symmetry_cell_setting 'triclinic'
loop_
_space_group_symop_operation_xyz
x,y,z
-x,-y,-z
loop_
_atom_site_type_symbol
_atom_site_label
_atom_site_fract_x
_atom_site_fract_y
_atom_site_fract_z
Si Si1 0.581820 0.302659 0.193235
Si Si2 0.340494 0.353356 0.120114
Si Si3 0.830320 0.052489 0.405472
Si Si4 0.046727 0.258398 0.193381
Si Si5 0.376748 0.473366 0.417559
Si Si6 0.766602 0.840339 0.019309
Si Si7 0.015773 0.837878 0.063717
Si Si8 0.476575 0.900742 0.212868
O O1 0.697984 0.202641 0.288650
O O2 0.461616 0.455575 0.339849
O O3 0.659649 0.061179 0.154903
O O4 0.500000 0.500000 0.000000
O O5 0.323954 0.484343 0.244194
O O6 0.185631 0.535565 0.090622
O O7 0.457782 0.069262 0.221333
O O8 0.392119 0.327480 0.915131
O O9 0.766344 0.262983 0.492463
O O10 0.911634 0.833010 0.576665
O O11 0.949569 0.909906 0.265440
O O12 0.885457 0.569585 0.155482
O O13 0.161456 0.167157 0.105467
O O14 0.060071 0.117977 0.097201
O O15 0.484757 0.223054 0.573066
O O16 0.674975 0.909848 0.874215
O O17 0.000000 0.000000 0.000000
#
# Coordination Sequence:
#
# PCOD8031817 Si02
#       8
#     2   2   2   2   2   2   2   2
#     4  12  25  44  73 102 136 175 225 285 346 398
#     4  11  25  43  68 101 135 181 225 277 339 399
#     4  12  27  45  69 101 135 181 229 278 337 406
#     4  11  25  46  71 101 137 178 230 276 345 402
#     4  12  25  42  71 100 133 180 224 283 336 405
#     4  11  22  46  75  99 138 179 219 290 342 398
#     4  12  26  45  69  96 141 185 228 277 333 406
#     4  11  23  45  70 102 136 174 226 282 342 398
#
# _framework density 21.834275000000002
#
# number of rings (size 3 to 8) (size 9 to 14) (size 15 to 20)
#    0.000    0.500    3.750    4.500    1.750    4.500 
#    0.000    0.000    0.000    0.000    0.000    0.000 
#    0.000    0.000    0.000    0.000    0.000    0.000 
#
# Total GULP energy -198511.230009 kJ/mol
# GULP energy per Si atom -12406.951876 kJ/mol
# Density = 2.178458 g / cm^3
# Si number density = 21.834275 Si / 1000 Ang^3
#
#
#
# Elastic Constant Matrix: (Units=GPa)
#
#
# Indices 1 2 3 4 5 6 
#
# 1 106.6108 28.5444 44.0625 5.5458 -7.5181 -4.3007
# 2 28.5444 90.3997 41.1481 -1.2288 -2.6106 0.3348
# 3 44.0625 41.1481 125.9883 -11.8839 -17.0774 -3.7783
# 4 5.5458 -1.2288 -11.8839 28.9768 10.3378 -0.2057
# 5 -7.5181 -2.6106 -17.0774 10.3378 31.8869 5.2124
# 6 -4.3007 0.3348 -3.7783 -0.2057 5.2124 45.4402
#
#
#
# Elastic Compliance Matrix: (Units=1/GPa)
#
#
# Indices 1 2 3 4 5 6 
#
# 1 0.011832 -0.002111 -0.003579 -0.004561 0.002084 0.000578
# 2 -0.002111 0.013448 -0.003863 -0.000133 -0.001346 -0.000466
# 3 -0.003579 -0.003863 0.011312 0.003877 0.003603 0.000235
# 4 -0.004561 -0.000133 0.003877 0.041517 -0.012722 0.001539
# 5 0.002084 -0.001346 0.003603 -0.012722 0.038443 -0.003961
# 6 0.000578 -0.000466 0.000235 0.001539 -0.003961 0.022546
#
#
# Mechanical properties :
#
#
# Convention : Reuss Voigt Hill
#
# Bulk Modulus (GPa) = 57.18895 61.16767 59.17831
# Shear Modulus (GPa) = 30.48191 35.21038 32.84615
#
# Velocity S-wave (km/s) = 3.74044 4.02010 3.88279
# Velocity P-wave (km/s) = 6.70102 7.04440 6.87486
#
# Compressibility (1/GPa) = 0.01748590
#
# Stress axis : x y z
#
# Youngs Moduli (GPa) = 84.51755 74.36137 88.40480
#
# Poissons Ratio (x) = 0.15697 0.31640
# Poissons Ratio (y) = 0.17841 0.34149
# Poissons Ratio (z) = 0.30249 0.28725
#
# Static dielectric constant tensor:
#      x y z
#    x 4.021920 -0.069160 -0.010770 
#    y -0.069160 4.126070 0.080460 
#    z -0.010770 0.080460 3.934650 
# 
# 
# High freq. dielectric constant tensor:
#      x y z
#    x 1.870510 0.001480 -0.001460 
#    y 0.001480 1.872410 0.001620 
#    z -0.001460 0.001620 1.858440 
# 
# From -- ./inp_files/70706.got.cif
#   From: 2010.06.25/outbox.cif.g09.slc.cpg/sg2_36_cif.got.tgz:70706.got - 2010.06.27 13:26:56.
