data_PCOD8031852
_publ_section_title
;
Structure prediction by ZEFSAII (Michael W. Deem and Ramdas Pophale) SiO2 
 PCOD8031852
Probable space group: P -1
;
_chemical_formula_sum "Si O2"
_cell_formula_units_Z 16
_cell_length_a 11.245769
_cell_length_b 25.302255
_cell_length_c 6.555548
_cell_angle_alpha 136.832095
_cell_angle_beta 58.496516
_cell_angle_gamma 146.274037
_cell_volume 690.980502
_symmetry_space_group_name_H-M "P -1"
_symmetry_group_IT_number 2
_symmetry_cell_setting 'triclinic'
loop_
_space_group_symop_operation_xyz
x,y,z
-x,-y,-z
loop_
_atom_site_type_symbol
_atom_site_label
_atom_site_fract_x
_atom_site_fract_y
_atom_site_fract_z
Si Si1 0.231853 0.579668 0.916020
Si Si2 0.632334 0.744116 0.265672
Si Si3 0.273712 0.831518 0.728865
Si Si4 0.713638 0.645463 0.216554
Si Si5 0.980481 0.631998 0.735711
Si Si6 0.042485 0.179445 0.140266
Si Si7 0.644754 0.923372 0.907571
Si Si8 0.656325 0.228460 0.882846
O O1 0.209411 0.509669 0.551563
O O2 0.370896 0.710584 0.069664
O O3 0.390783 0.612921 0.039872
O O4 0.000000 0.500000 0.000000
O O5 0.674779 0.712586 0.341474
O O6 0.630349 0.833956 0.565242
O O7 0.807461 0.804741 0.101641
O O8 0.130157 0.847438 0.920913
O O9 0.503924 0.928768 0.922316
O O10 0.129634 0.702031 0.596628
O O11 0.311530 0.832885 0.459217
O O12 0.808628 0.700706 0.514162
O O13 0.500000 0.500000 0.000000
O O14 0.889538 0.676164 0.006533
O O15 0.127909 0.661452 0.867968
O O16 0.897729 0.059038 0.070438
O O17 0.557434 0.879056 0.091759
#
# Coordination Sequence:
#
# PCOD8031852 Si02
#       8
#     2   2   2   2   2   2   2   2
#     4  12  24  43  74 102 143 195 232 299 362 420
#     4  12  28  48  71 107 146 187 242 296 361 429
#     4  11  22  47  74 106 140 187 242 297 353 422
#     4  12  29  44  71 106 144 187 238 290 362 434
#     4  11  23  42  67 103 143 186 233 288 359 429
#     4  12  27  50  74 103 148 195 233 299 363 419
#     4  11  27  47  76 106 141 190 249 294 350 427
#     4  11  23  44  71 106 142 180 249 292 354 420
#
# _framework density 23.155501999999998
#
# number of rings (size 3 to 8) (size 9 to 14) (size 15 to 20)
#    0.000    0.500    5.000    2.625    7.000    3.000 
#    0.000    0.000    0.000    0.000    0.000    0.000 
#    0.000    0.000    0.000    0.000    0.000    0.000 
#
# Total GULP energy -198419.517390 kJ/mol
# GULP energy per Si atom -12401.219837 kJ/mol
# Density = 2.310280 g / cm^3
# Si number density = 23.155502 Si / 1000 Ang^3
#
#
#
# Elastic Constant Matrix: (Units=GPa)
#
#
# Indices 1 2 3 4 5 6 
#
# 1 94.8492 23.9424 14.6791 -8.1490 1.7572 11.1348
# 2 23.9424 122.8691 31.1411 -11.4694 13.1675 10.7067
# 3 14.6791 31.1411 87.5979 -16.4692 1.6665 9.5858
# 4 -8.1490 -11.4694 -16.4692 45.3399 2.7299 -1.1507
# 5 1.7572 13.1675 1.6665 2.7299 20.4205 -13.2436
# 6 11.1348 10.7067 9.5858 -1.1507 -13.2436 22.0247
#
#
#
# Elastic Compliance Matrix: (Units=1/GPa)
#
#
# Indices 1 2 3 4 5 6 
#
# 1 0.012253 -0.000338 -0.000188 0.002262 -0.008040 -0.010665
# 2 -0.000338 0.012331 -0.001592 0.003197 -0.018751 -0.016239
# 3 -0.000188 -0.001592 0.014018 0.004822 -0.006517 -0.008898
# 4 0.002262 0.003197 0.004822 0.025547 -0.013622 -0.011653
# 5 -0.008040 -0.018751 -0.006517 -0.013622 0.121359 0.088279
# 6 -0.010665 -0.016239 -0.008898 -0.011653 0.088279 0.115036
#
#
# Mechanical properties :
#
#
# Convention : Reuss Voigt Hill
#
# Bulk Modulus (GPa) = 29.09891 49.42682 39.26287
# Shear Modulus (GPa) = 15.81103 33.26058 24.53581
#
# Velocity S-wave (km/s) = 2.61592 3.79410 3.25870
# Velocity P-wave (km/s) = 4.66026 6.37068 5.58138
#
# Compressibility (1/GPa) = 0.03436555
#
# Stress axis : x y z
#
# Youngs Moduli (GPa) = 81.61466 81.09537 71.33894
#
# Poissons Ratio (x) = 0.02740 0.01340
# Poissons Ratio (y) = 0.02757 0.11359
# Poissons Ratio (z) = 0.01533 0.12913
#
# Static dielectric constant tensor:
#      x y z
#    x 4.157800 0.118120 0.014610 
#    y 0.118120 4.201620 -0.077170 
#    z 0.014610 -0.077170 4.057920 
# 
# 
# High freq. dielectric constant tensor:
#      x y z
#    x 1.916780 0.004460 -0.001930 
#    y 0.004460 1.921650 -0.005900 
#    z -0.001930 -0.005900 1.917760 
# 
# From -- ./inp_files/85141.got.cif
#   From: 2010.06.25/outbox.cif.g09.slc.cpg/sg2_43_cif.got.tgz:85141.got - 2010.06.27 13:26:56.
