data_PCOD8031106
_publ_section_title
;
Structure prediction by ZEFSAII (Michael W. Deem and Ramdas Pophale) SiO2 
 PCOD8031106
Probable space group: P -1
;
_chemical_formula_sum "Si O2"
_cell_formula_units_Z 16
_cell_length_a 21.547154
_cell_length_b 9.216901
_cell_length_c 10.821952
_cell_angle_alpha 124.366120
_cell_angle_beta 42.397331
_cell_angle_gamma 150.396064
_cell_volume 696.180178
_symmetry_space_group_name_H-M "P -1"
_symmetry_group_IT_number 2
_symmetry_cell_setting 'triclinic'
loop_
_space_group_symop_operation_xyz
x,y,z
-x,-y,-z
loop_
_atom_site_type_symbol
_atom_site_label
_atom_site_fract_x
_atom_site_fract_y
_atom_site_fract_z
Si Si1 0.332006 0.808343 0.695202
Si Si2 0.961645 0.306499 0.353690
Si Si3 0.299759 0.820286 0.102299
Si Si4 0.347043 0.165656 0.017240
Si Si5 0.257361 0.918932 0.639232
Si Si6 0.486756 0.147345 0.219410
Si Si7 0.230921 0.200515 0.990488
Si Si8 0.922892 0.870798 0.186112
O O1 0.236568 0.727878 0.675210
O O2 0.226249 0.494214 0.765933
O O3 0.500000 0.000000 0.500000
O O4 0.372314 0.033316 0.832435
O O5 0.891858 0.309796 0.343941
O O6 0.000000 0.500000 0.500000
O O7 0.129563 0.469927 0.156207
O O8 0.858525 0.967691 0.367328
O O9 0.333963 0.889832 0.231864
O O10 0.441553 0.930049 0.880433
O O11 0.274701 0.978815 0.161023
O O12 0.240552 0.137623 0.084601
O O13 0.500000 0.500000 0.000000
O O14 0.424806 0.157491 0.433971
O O15 0.260868 0.106669 0.794649
O O16 0.627438 0.443840 0.071139
O O17 0.057513 0.013860 0.151228
O O18 0.000000 0.000000 0.000000
#
# Coordination Sequence:
#
# PCOD8031106 Si02
#       8
#     2   2   2   2   2   2   2   2
#     4  11  28  48  72 103 145 191 236 294 360 426
#     4  12  25  45  70 104 140 185 239 299 356 419
#     4  11  23  40  70  97 143 186 236 294 358 415
#     4  11  24  43  69 102 140 182 235 294 349 417
#     4  11  25  42  70 102 143 180 241 289 357 420
#     4  11  22  42  68 101 138 188 239 291 350 421
#     4  11  24  42  70 103 137 188 240 286 360 427
#     4  12  26  48  74 102 142 192 239 294 361 429
#
# _framework density 22.982558000000001
#
# number of rings (size 3 to 8) (size 9 to 14) (size 15 to 20)
#    0.000    0.750    5.000    1.875    3.500    4.000 
#    2.250    0.625    0.000    0.000    0.000    0.000 
#    0.000    0.000    0.000    0.000    0.000    0.000 
#
# Total GULP energy -198226.582147 kJ/mol
# GULP energy per Si atom -12389.161384 kJ/mol
# Density = 2.293025 g / cm^3
# Si number density = 22.982558 Si / 1000 Ang^3
#
#
#
# Elastic Constant Matrix: (Units=GPa)
#
#
# Indices 1 2 3 4 5 6 
#
# 1 169.4992 55.8517 32.4025 2.1961 -9.5384 7.6864
# 2 55.8517 131.0091 31.2030 6.4969 -2.2593 0.1480
# 3 32.4025 31.2030 76.0281 9.9917 -0.9055 0.0471
# 4 2.1961 6.4969 9.9917 39.5744 0.4612 -1.2142
# 5 -9.5384 -2.2593 -0.9055 0.4612 16.4201 -1.7007
# 6 7.6864 0.1480 0.0471 -1.2142 -1.7007 42.1655
#
#
#
# Elastic Compliance Matrix: (Units=1/GPa)
#
#
# Indices 1 2 3 4 5 6 
#
# 1 0.007421 -0.002621 -0.002104 0.000470 0.003699 -0.001178
# 2 -0.002621 0.009413 -0.002656 -0.000713 -0.000311 0.000415
# 3 -0.002104 -0.002656 0.015575 -0.003365 -0.000608 0.000254
# 4 0.000470 -0.000713 -0.003365 0.026237 -0.000680 0.000649
# 5 0.003699 -0.000311 -0.000608 -0.000680 0.063185 0.001856
# 6 -0.001178 0.000415 0.000254 0.000649 0.001856 0.024023
#
#
# Mechanical properties :
#
#
# Convention : Reuss Voigt Hill
#
# Bulk Modulus (GPa) = 56.67109 68.38341 62.52725
# Shear Modulus (GPa) = 30.03044 36.77062 33.40053
#
# Velocity S-wave (km/s) = 3.61870 4.00426 3.81635
# Velocity P-wave (km/s) = 6.49398 7.15527 6.83263
#
# Compressibility (1/GPa) = 0.01764568
#
# Stress axis : x y z
#
# Youngs Moduli (GPa) = 134.75162 106.24125 64.20620
#
# Poissons Ratio (x) = 0.27843 0.13510
# Poissons Ratio (y) = 0.35315 0.17056
# Poissons Ratio (z) = 0.28355 0.28222
#
# Static dielectric constant tensor:
#      x y z
#    x 5.542180 0.033190 -0.018030 
#    y 0.033190 5.485990 -0.531460 
#    z -0.018030 -0.531460 4.368810 
# 
# 
# High freq. dielectric constant tensor:
#      x y z
#    x 1.935480 0.009020 -0.012930 
#    y 0.009020 1.908020 0.014340 
#    z -0.012930 0.014340 1.889470 
# 
# From -- ./inp_files/470133.got.cif
#   From: 2010.06.25/outbox.cif.g09.slc.cpg/sg2_236_cif.got.tgz:470133.got - 2010.06.27 13:26:56.
