data_PCOD8031246
_publ_section_title
;
Structure prediction by ZEFSAII (Michael W. Deem and Ramdas Pophale) SiO2 
 PCOD8031246
Probable space group: P -1
;
_chemical_formula_sum "Si O2"
_cell_formula_units_Z 16
_cell_length_a 15.265534
_cell_length_b 9.120808
_cell_length_c 14.921659
_cell_angle_alpha 95.318925
_cell_angle_beta 150.874016
_cell_angle_gamma 64.484749
_cell_volume 696.942863
_symmetry_space_group_name_H-M "P -1"
_symmetry_group_IT_number 2
_symmetry_cell_setting 'triclinic'
loop_
_space_group_symop_operation_xyz
x,y,z
-x,-y,-z
loop_
_atom_site_type_symbol
_atom_site_label
_atom_site_fract_x
_atom_site_fract_y
_atom_site_fract_z
Si Si1 0.240790 0.996764 0.557712
Si Si2 0.729035 0.429889 0.142587
Si Si3 0.974184 0.665289 0.930445
Si Si4 0.736907 0.777792 0.549598
Si Si5 0.215740 0.316772 0.874497
Si Si6 0.832333 0.967915 0.972459
Si Si7 0.683879 0.366387 0.891032
Si Si8 0.112149 0.740343 0.388108
O O1 0.228650 0.078227 0.452919
O O2 0.006728 0.211412 0.417554
O O3 0.520227 0.860285 0.843251
O O4 0.166013 0.869824 0.481528
O O5 0.500000 0.500000 0.000000
O O6 0.719026 0.615046 0.147688
O O7 0.697452 0.397127 0.009648
O O8 0.227781 0.547263 0.087392
O O9 0.000000 0.500000 0.000000
O O10 0.727148 0.797859 0.650129
O O11 0.935807 0.829041 0.968301
O O12 0.474485 0.870771 0.279218
O O13 0.985001 0.529572 0.736566
O O14 0.091980 0.231598 0.729672
O O15 0.874275 0.119052 0.020401
O O16 0.984984 0.806259 0.181123
O O17 0.388529 0.496453 0.612012
#
# Coordination Sequence:
#
# PCOD8031246 Si02
#       8
#     2   2   2   2   2   2   2   2
#     4  11  22  42  76  98 140 184 230 285 362 410
#     4  11  25  48  76 104 140 186 233 289 363 428
#     4  12  26  44  68 103 141 195 242 282 347 425
#     4  11  22  44  65  99 141 188 230 286 344 417
#     4  11  22  43  73 102 138 185 229 290 354 415
#     4  12  25  41  69 101 144 185 237 286 351 410
#     4  12  25  47  68  99 148 182 233 301 351 414
#     4  12  23  41  74 102 136 185 237 290 349 414
#
# _framework density 22.957407
#
# number of rings (size 3 to 8) (size 9 to 14) (size 15 to 20)
#    0.000    0.500    7.500    1.500    1.750    1.000 
#    2.250    1.250    0.000    0.000    0.000    0.000 
#    0.000    0.000    0.000    0.000    0.000    0.000 
#
# Total GULP energy -198247.393851 kJ/mol
# GULP energy per Si atom -12390.462116 kJ/mol
# Density = 2.290515 g / cm^3
# Si number density = 22.957407 Si / 1000 Ang^3
#
#
#
# Elastic Constant Matrix: (Units=GPa)
#
#
# Indices 1 2 3 4 5 6 
#
# 1 119.7308 42.3529 34.5282 -3.2087 23.2262 26.8411
# 2 42.3529 97.1058 28.6527 -0.7525 4.9399 30.3347
# 3 34.5282 28.6527 158.6338 -6.2298 20.9473 5.9565
# 4 -3.2087 -0.7525 -6.2298 37.2518 7.7571 7.5320
# 5 23.2262 4.9399 20.9473 7.7571 24.2403 3.3301
# 6 26.8411 30.3347 5.9565 7.5320 3.3301 34.1845
#
#
#
# Elastic Compliance Matrix: (Units=1/GPa)
#
#
# Indices 1 2 3 4 5 6 
#
# 1 0.014003 -0.002637 -0.000281 0.005594 -0.013252 -0.008547
# 2 -0.002637 0.015745 -0.002033 0.001752 0.002183 -0.012146
# 3 -0.000281 -0.002033 0.007710 0.002496 -0.006888 0.000803
# 4 0.005594 0.001752 0.002496 0.033782 -0.017012 -0.012168
# 5 -0.013252 0.002183 -0.006888 -0.017012 0.063915 0.007191
# 6 -0.008547 -0.012146 0.000803 -0.012168 0.007191 0.048583
#
#
# Mechanical properties :
#
#
# Convention : Reuss Voigt Hill
#
# Bulk Modulus (GPa) = 36.29112 65.17088 50.73100
# Shear Modulus (GPa) = 24.65197 37.13110 30.89153
#
# Velocity S-wave (km/s) = 3.28046 4.02604 3.67222
# Velocity P-wave (km/s) = 5.49463 7.07541 6.33452
#
# Compressibility (1/GPa) = 0.02755495
#
# Stress axis : x y z
#
# Youngs Moduli (GPa) = 71.41504 63.51332 129.70783
#
# Poissons Ratio (x) = 0.16747 0.03644
# Poissons Ratio (y) = 0.18831 0.26373
# Poissons Ratio (z) = 0.02007 0.12914
#
# Static dielectric constant tensor:
#      x y z
#    x 4.113930 0.499520 0.209040 
#    y 0.499520 4.260350 -0.106960 
#    z 0.209040 -0.106960 4.568590 
# 
# 
# High freq. dielectric constant tensor:
#      x y z
#    x 1.884050 0.033400 0.009360 
#    y 0.033400 1.908930 -0.003370 
#    z 0.009360 -0.003370 1.928890 
# 
# From -- ./inp_files/529810.got.cif
#   From: 2010.06.25/outbox.cif.g09.slc.cpg/sg2_265_cif.got.tgz:529810.got - 2010.06.27 13:26:56.
