data_PCOD8031771
_publ_section_title
;
Structure prediction by ZEFSAII (Michael W. Deem and Ramdas Pophale) SiO2 
 PCOD8031771
Probable space group: P -1
;
_chemical_formula_sum "Si O2"
_cell_formula_units_Z 16
_cell_length_a 15.151491
_cell_length_b 8.710307
_cell_length_c 12.123091
_cell_angle_alpha 126.648828
_cell_angle_beta 130.626814
_cell_angle_gamma 38.081680
_cell_volume 736.690284
_symmetry_space_group_name_H-M "P -1"
_symmetry_group_IT_number 2
_symmetry_cell_setting 'triclinic'
loop_
_space_group_symop_operation_xyz
x,y,z
-x,-y,-z
loop_
_atom_site_type_symbol
_atom_site_label
_atom_site_fract_x
_atom_site_fract_y
_atom_site_fract_z
Si Si1 0.299991 0.628192 0.341786
Si Si2 0.853544 0.270088 0.964970
Si Si3 0.068237 0.400648 0.889945
Si Si4 0.877177 0.295282 0.561260
Si Si5 0.402573 0.907384 0.626948
Si Si6 0.447476 0.556726 0.106619
Si Si7 0.623785 0.035598 0.128567
Si Si8 0.403973 0.234913 0.603819
O O1 0.182690 0.739321 0.194591
O O2 0.220399 0.704138 0.426346
O O3 0.367397 0.770419 0.456193
O O4 0.419354 0.323616 0.294095
O O5 0.724305 0.340805 0.976773
O O6 0.899199 0.441927 0.084592
O O7 0.000000 0.000000 0.000000
O O8 0.956725 0.394688 0.721536
O O9 0.237802 0.125694 0.916520
O O10 0.000000 0.500000 0.000000
O O11 0.757038 0.499736 0.457343
O O12 0.000000 0.000000 0.500000
O O13 0.311153 0.022193 0.717796
O O14 0.366351 0.146806 0.641829
O O15 0.549936 0.317622 0.166091
O O16 0.469653 0.744577 0.251188
O O17 0.500000 0.500000 0.000000
O O18 0.500000 0.000000 0.000000
O O19 0.500000 0.000000 0.500000
#
# Coordination Sequence:
#
# PCOD8031771 Si02
#       8
#     2   2   2   2   2   2   2   2
#     4  11  22  46  71 101 147 196 243 302 376 443
#     4  12  28  45  70 109 150 192 241 307 373 442
#     4  12  27  48  75 106 145 198 245 300 377 452
#     4  12  27  48  71 109 155 198 240 309 386 449
#     4  11  23  42  75 107 139 191 253 311 365 430
#     4  12  27  46  75 108 145 192 249 311 369 438
#     4  12  24  48  74 103 146 194 256 305 371 443
#     4  12  26  44  76 112 144 191 259 311 364 449
#
# _framework density 21.718761000000001
#
# number of rings (size 3 to 8) (size 9 to 14) (size 15 to 20)
#    0.000    0.250    5.000    3.750    5.250    1.000 
#    0.000    1.250    0.000    0.000    0.000    0.000 
#    0.000    0.000    0.000    0.000    0.000    0.000 
#
# Total GULP energy -198318.932740 kJ/mol
# GULP energy per Si atom -12394.933296 kJ/mol
# Density = 2.166933 g / cm^3
# Si number density = 21.718761 Si / 1000 Ang^3
#
#
#
# Elastic Constant Matrix: (Units=GPa)
#
#
# Indices 1 2 3 4 5 6 
#
# 1 146.3146 57.2733 44.0310 4.9039 -5.0346 3.8526
# 2 57.2733 150.9529 42.5932 -3.9620 -4.0594 0.6760
# 3 44.0310 42.5932 121.2539 8.5683 7.5626 10.1601
# 4 4.9039 -3.9620 8.5683 37.0723 3.2267 -3.5059
# 5 -5.0346 -4.0594 7.5626 3.2267 47.3534 3.6058
# 6 3.8526 0.6760 10.1601 -3.5059 3.6058 44.5312
#
#
#
# Elastic Compliance Matrix: (Units=1/GPa)
#
#
# Indices 1 2 3 4 5 6 
#
# 1 0.008607 -0.002652 -0.002157 -0.001059 0.001134 -0.000387
# 2 -0.002652 0.008303 -0.002173 0.001753 0.000605 0.000688
# 3 -0.002157 -0.002173 0.010250 -0.002371 -0.001726 -0.002166
# 4 -0.001059 0.001753 -0.002371 0.028282 -0.001737 0.002973
# 5 0.001134 0.000605 -0.001726 -0.001737 0.021807 -0.001616
# 6 -0.000387 0.000688 -0.002166 0.002973 -0.001616 0.023338
#
#
# Mechanical properties :
#
#
# Convention : Reuss Voigt Hill
#
# Bulk Modulus (GPa) = 75.78209 78.47962 77.13086
# Shear Modulus (GPa) = 42.03411 44.09962 43.06687
#
# Velocity S-wave (km/s) = 4.40407 4.51098 4.45785
# Velocity P-wave (km/s) = 7.79932 7.95895 7.87954
#
# Compressibility (1/GPa) = 0.01319573
#
# Stress axis : x y z
#
# Youngs Moduli (GPa) = 116.18891 120.43551 97.55745
#
# Poissons Ratio (x) = 0.31944 0.21044
# Poissons Ratio (y) = 0.30818 0.21197
# Poissons Ratio (z) = 0.25063 0.26168
#
# Static dielectric constant tensor:
#      x y z
#    x 3.958910 0.030880 -0.004900 
#    y 0.030880 4.091720 0.167920 
#    z -0.004900 0.167920 4.017510 
# 
# 
# High freq. dielectric constant tensor:
#      x y z
#    x 1.868030 0.004390 0.004540 
#    y 0.004390 1.854030 0.010840 
#    z 0.004540 0.010840 1.866880 
# 
# From -- ./inp_files/448228.got.cif
#   From: 2010.06.25/outbox.cif.g09.slc.cpg/sg2_225_cif.got.tgz:448228.got - 2010.06.27 13:26:56.
