data_PCOD8031562
_publ_section_title
;
Structure prediction by ZEFSAII (Michael W. Deem and Ramdas Pophale) SiO2 
 PCOD8031562
Probable space group: P -1
;
_chemical_formula_sum "Si O2"
_cell_formula_units_Z 14
_cell_length_a 11.027698
_cell_length_b 11.374494
_cell_length_c 11.807437
_cell_angle_alpha 140.129360
_cell_angle_beta 45.184034
_cell_angle_gamma 135.719698
_cell_volume 621.655490
_symmetry_space_group_name_H-M "P -1"
_symmetry_group_IT_number 2
_symmetry_cell_setting 'triclinic'
loop_
_space_group_symop_operation_xyz
x,y,z
-x,-y,-z
loop_
_atom_site_type_symbol
_atom_site_label
_atom_site_fract_x
_atom_site_fract_y
_atom_site_fract_z
Si Si1 0.883609 0.289236 0.364164
Si Si2 0.307303 0.280977 0.412469
Si Si3 0.539651 0.314027 0.489746
Si Si4 0.999825 0.719508 0.944032
Si Si5 0.793088 0.967344 0.375057
Si Si6 0.279954 0.905524 0.067799
Si Si7 0.067679 0.713346 0.283564
O O1 0.738218 0.314184 0.389437
O O2 0.007277 0.226461 0.144856
O O3 0.000000 0.500000 0.500000
O O4 0.791363 0.115583 0.385500
O O5 0.440356 0.221093 0.367221
O O6 0.431011 0.454938 0.374634
O O7 0.152085 0.333597 0.622267
O O8 0.210292 0.088999 0.255673
O O9 0.411256 0.199120 0.593881
O O10 0.902240 0.479982 0.833917
O O11 0.208959 0.789985 0.910943
O O12 0.907249 0.834913 0.168337
O O13 0.857953 0.099162 0.542323
O O14 0.179622 0.757042 0.125762
O O15 0.500000 0.000000 0.000000
#
# Coordination Sequence:
#
# PCOD8031562 Si02
#       7
#     2   2   2   2   2   2   2
#     4  12  25  50  72  98 144 194 238 290 348 416
#     4  11  22  44  72 104 147 181 226 290 365 416
#     4  11  24  42  75 103 138 190 230 291 358 409
#     4  12  26  45  72 105 140 190 238 285 356 419
#     4  12  25  47  74 103 142 192 239 284 351 418
#     4  12  26  41  70 111 147 179 234 296 353 428
#     4  12  24  47  71 106 149 185 226 294 360 422
#
# _framework density 22.520513000000001
#
# number of rings (size 3 to 8) (size 9 to 14) (size 15 to 20)
#    0.000    0.286    5.714    3.429    4.000    0.000 
#    0.000    0.714    0.000    0.000    0.000    0.000 
#    0.000    0.000    0.000    0.000    0.000    0.000 
#
# Total GULP energy -173437.979271 kJ/mol
# GULP energy per Si atom -12388.427091 kJ/mol
# Density = 2.246925 g / cm^3
# Si number density = 22.520513 Si / 1000 Ang^3
#
#
#
# Elastic Constant Matrix: (Units=GPa)
#
#
# Indices 1 2 3 4 5 6 
#
# 1 87.9608 38.3329 40.1012 -3.9374 9.4376 -2.6371
# 2 38.3329 166.5473 42.7793 -11.7404 9.6011 -15.5476
# 3 40.1012 42.7793 90.1657 8.0879 18.8448 6.2711
# 4 -3.9374 -11.7404 8.0879 29.8167 -7.2086 -1.1957
# 5 9.4376 9.6011 18.8448 -7.2086 35.2675 -2.8642
# 6 -2.6371 -15.5476 6.2711 -1.1957 -2.8642 33.2969
#
#
#
# Elastic Compliance Matrix: (Units=1/GPa)
#
#
# Indices 1 2 3 4 5 6 
#
# 1 0.015164 -0.001370 -0.006721 0.003561 0.000799 0.002024
# 2 -0.001370 0.008147 -0.004433 0.004887 0.001912 0.004871
# 3 -0.006721 -0.004433 0.019873 -0.010857 -0.010452 -0.007634
# 4 0.003561 0.004887 -0.010857 0.042247 0.012740 0.007222
# 5 0.000799 0.001912 -0.010452 0.012740 0.036338 0.006508
# 6 0.002024 0.004871 -0.007634 0.007222 0.006508 0.034724
#
#
# Mechanical properties :
#
#
# Convention : Reuss Voigt Hill
#
# Bulk Modulus (GPa) = 55.13983 65.23340 60.18662
# Shear Modulus (GPa) = 26.65424 34.57358 30.61391
#
# Velocity S-wave (km/s) = 3.44401 3.92242 3.69098
# Velocity P-wave (km/s) = 6.35235 7.03867 6.70430
#
# Compressibility (1/GPa) = 0.01813571
#
# Stress axis : x y z
#
# Youngs Moduli (GPa) = 65.94407 122.74168 50.32060
#
# Poissons Ratio (x) = 0.16814 0.33823
# Poissons Ratio (y) = 0.09034 0.22306
# Poissons Ratio (z) = 0.44324 0.54410
#
# Static dielectric constant tensor:
#      x y z
#    x 3.878800 0.065190 0.118400 
#    y 0.065190 4.324690 0.057720 
#    z 0.118400 0.057720 4.132460 
# 
# 
# High freq. dielectric constant tensor:
#      x y z
#    x 1.870200 0.000730 0.008590 
#    y 0.000730 1.912070 0.002170 
#    z 0.008590 0.002170 1.891040 
# 
# From -- ./inp_files/181074.got.cif
#   From: 2010.06.25/outbox.cif.g09.slc.cpg/sg2_91_cif.got.tgz:181074.got - 2010.06.27 13:26:56.
