data_PCOD8031202
_publ_section_title
;
Structure prediction by ZEFSAII (Michael W. Deem and Ramdas Pophale) SiO2 
 PCOD8031202
Probable space group: P -1
;
_chemical_formula_sum "Si O2"
_cell_formula_units_Z 14
_cell_length_a 16.748466
_cell_length_b 11.308051
_cell_length_c 9.475478
_cell_angle_alpha 87.866941
_cell_angle_beta 68.702873
_cell_angle_gamma 147.869041
_cell_volume 638.711209
_symmetry_space_group_name_H-M "P -1"
_symmetry_group_IT_number 2
_symmetry_cell_setting 'triclinic'
loop_
_space_group_symop_operation_xyz
x,y,z
-x,-y,-z
loop_
_atom_site_type_symbol
_atom_site_label
_atom_site_fract_x
_atom_site_fract_y
_atom_site_fract_z
Si Si1 0.974545 0.664116 0.272890
Si Si2 0.549888 0.103126 0.735964
Si Si3 0.730391 0.787735 0.756968
Si Si4 0.673534 0.454744 0.834130
Si Si5 0.095820 0.836411 0.596816
Si Si6 0.046256 0.424725 0.012977
Si Si7 0.255040 0.872078 0.266278
O O1 0.707981 0.312896 0.487326
O O2 0.006053 0.724000 0.082966
O O3 0.073774 0.900094 0.290321
O O4 0.102287 0.705876 0.234588
O O5 0.530190 0.208348 0.812400
O O6 0.306884 0.741869 0.871944
O O7 0.677434 0.178961 0.762657
O O8 0.787445 0.722227 0.700039
O O9 0.723003 0.841663 0.604240
O O10 0.500000 0.500000 0.000000
O O11 0.858258 0.597188 0.754446
O O12 0.490082 0.245601 0.084797
O O13 0.112242 0.735449 0.499712
O O14 0.124488 0.837873 0.742649
O O15 0.000000 0.500000 0.000000
#
# Coordination Sequence:
#
# PCOD8031202 Si02
#       7
#     2   2   2   2   2   2   2
#     4  11  24  43  69 102 139 184 225 288 349 402
#     4  12  24  41  73 105 138 183 230 289 349 415
#     4  11  23  46  73  98 137 181 247 288 325 403
#     4  12  22  40  73 102 129 179 239 287 333 392
#     4  11  24  43  71 102 135 187 227 287 339 411
#     4  12  27  44  66 106 152 176 223 284 365 422
#     4  11  22  42  72 103 136 174 241 286 340 404
#
# _framework density 21.919136999999999
#
# number of rings (size 3 to 8) (size 9 to 14) (size 15 to 20)
#    0.000    0.571    7.143    3.429    2.000    0.000 
#    0.000    1.429    0.000    0.000    0.000    0.000 
#    0.000    0.000    0.000    0.000    0.000    0.000 
#
# Total GULP energy -173453.091003 kJ/mol
# GULP energy per Si atom -12389.506500 kJ/mol
# Density = 2.186925 g / cm^3
# Si number density = 21.919137 Si / 1000 Ang^3
#
#
#
# Elastic Constant Matrix: (Units=GPa)
#
#
# Indices 1 2 3 4 5 6 
#
# 1 113.5115 47.9192 50.5925 9.0182 11.4196 -10.5772
# 2 47.9192 80.3663 37.6880 11.6098 15.2707 -7.8787
# 3 50.5925 37.6880 173.4027 -0.3391 20.3977 13.7361
# 4 9.0182 11.6098 -0.3391 41.8899 9.1927 1.3308
# 5 11.4196 15.2707 20.3977 9.1927 43.0651 -7.1394
# 6 -10.5772 -7.8787 13.7361 1.3308 -7.1394 23.9508
#
#
#
# Elastic Compliance Matrix: (Units=1/GPa)
#
#
# Indices 1 2 3 4 5 6 
#
# 1 0.013326 -0.005781 -0.003330 -0.001841 0.001557 0.006460
# 2 -0.005781 0.018390 -0.002379 -0.003483 -0.002399 0.004339
# 3 -0.003330 -0.002379 0.008433 0.002645 -0.004242 -0.008501
# 4 -0.001841 -0.003483 0.002645 0.026880 -0.006408 -0.006879
# 5 0.001557 -0.002399 -0.004242 -0.006408 0.028909 0.011305
# 6 0.006460 0.004339 -0.008501 -0.006879 0.011305 0.054660
#
#
# Mechanical properties :
#
#
# Convention : Reuss Voigt Hill
#
# Bulk Modulus (GPa) = 58.24264 71.07553 64.65909
# Shear Modulus (GPa) = 27.88635 37.18656 32.53646
#
# Velocity S-wave (km/s) = 3.57071 4.12337 3.85695
# Velocity P-wave (km/s) = 6.60525 7.42740 7.02835
#
# Compressibility (1/GPa) = 0.01716955
#
# Stress axis : x y z
#
# Youngs Moduli (GPa) = 75.04289 54.37854 118.58148
#
# Poissons Ratio (x) = 0.31435 0.39488
# Poissons Ratio (y) = 0.43380 0.28207
# Poissons Ratio (z) = 0.24990 0.12935
#
# Static dielectric constant tensor:
#      x y z
#    x 4.176300 -0.240760 0.089410 
#    y -0.240760 3.776020 -0.105910 
#    z 0.089410 -0.105910 4.591510 
# 
# 
# High freq. dielectric constant tensor:
#      x y z
#    x 1.861790 -0.017280 -0.012590 
#    y -0.017280 1.814790 -0.012050 
#    z -0.012590 -0.012050 1.897340 
# 
# From -- ./inp_files/332048.got.cif
#   From: 2010.06.25/outbox.cif.g09.slc.cpg/sg2_167_cif.got.tgz:332048.got - 2010.06.27 13:26:56.
