data_PCOD8031725
_publ_section_title
;
Structure prediction by ZEFSAII (Michael W. Deem and Ramdas Pophale) SiO2 
 PCOD8031725
Probable space group: P -1
;
_chemical_formula_sum "Si O2"
_cell_formula_units_Z 16
_cell_length_a 9.235443
_cell_length_b 18.127848
_cell_length_c 11.345986
_cell_angle_alpha 140.920582
_cell_angle_beta 125.095173
_cell_angle_gamma 84.094086
_cell_volume 731.027947
_symmetry_space_group_name_H-M "P -1"
_symmetry_group_IT_number 2
_symmetry_cell_setting 'triclinic'
loop_
_space_group_symop_operation_xyz
x,y,z
-x,-y,-z
loop_
_atom_site_type_symbol
_atom_site_label
_atom_site_fract_x
_atom_site_fract_y
_atom_site_fract_z
Si Si1 0.361613 0.088409 0.585362
Si Si2 0.272548 0.232211 0.318264
Si Si3 0.949329 0.061219 0.318473
Si Si4 0.238992 0.649127 0.741422
Si Si5 0.538360 0.554214 0.715529
Si Si6 0.124954 0.822279 0.781945
Si Si7 0.501175 0.137131 0.449527
Si Si8 0.908833 0.165335 0.660757
O O1 0.429260 0.069192 0.464850
O O2 0.225021 0.150621 0.579355
O O3 0.172986 0.925732 0.366191
O O4 0.609589 0.209772 0.919545
O O5 0.439399 0.409991 0.574645
O O6 0.420302 0.230712 0.488345
O O7 0.040061 0.187070 0.209654
O O8 0.192949 0.107921 0.022426
O O9 0.960937 0.183923 0.397047
O O10 0.831031 0.042872 0.365966
O O11 0.397762 0.612699 0.729606
O O12 0.150947 0.694195 0.649395
O O13 0.000000 0.500000 0.500000
O O14 0.500000 0.500000 0.500000
O O15 0.812775 0.694042 0.043473
O O16 0.383749 0.990484 0.127222
O O17 0.781527 0.236894 0.682955
#
# Coordination Sequence:
#
# PCOD8031725 Si02
#       8
#     2   2   2   2   2   2   2   2
#     4  12  23  44  73 101 139 183 242 284 332 425
#     4  11  23  46  72 102 144 180 234 287 354 411
#     4  11  23  44  75 104 137 184 233 290 347 406
#     4  12  27  45  69 104 135 184 236 284 352 411
#     4  12  29  45  67 102 149 187 220 293 360 408
#     4  11  22  45  74 103 135 180 239 290 344 411
#     4  11  24  43  75 104 133 186 236 289 344 413
#     4  12  27  43  69 109 142 182 237 286 346 416
#
# _framework density 21.886986
#
# number of rings (size 3 to 8) (size 9 to 14) (size 15 to 20)
#    0.000    0.500    6.250    2.250    3.500    3.500 
#    2.250    1.875    0.000    0.000    0.000    0.000 
#    0.000    0.000    0.000    0.000    0.000    0.000 
#
# Total GULP energy -198332.729693 kJ/mol
# GULP energy per Si atom -12395.795606 kJ/mol
# Density = 2.183717 g / cm^3
# Si number density = 21.886986 Si / 1000 Ang^3
#
#
#
# Elastic Constant Matrix: (Units=GPa)
#
#
# Indices 1 2 3 4 5 6 
#
# 1 131.2556 49.0770 39.0347 -9.6434 16.9391 -12.8427
# 2 49.0770 147.9327 48.3172 0.4814 9.1689 -19.6333
# 3 39.0347 48.3172 79.0778 -2.1621 17.9574 -14.7580
# 4 -9.6434 0.4814 -2.1621 32.5430 -2.2193 -2.1505
# 5 16.9391 9.1689 17.9574 -2.2193 33.9187 -13.2769
# 6 -12.8427 -19.6333 -14.7580 -2.1505 -13.2769 35.0821
#
#
#
# Elastic Compliance Matrix: (Units=1/GPa)
#
#
# Indices 1 2 3 4 5 6 
#
# 1 0.009810 -0.002129 -0.002825 0.002609 -0.002489 0.000429
# 2 -0.002129 0.009237 -0.004496 -0.000700 0.002186 0.003283
# 3 -0.002825 -0.004496 0.018608 0.000143 -0.006502 0.001826
# 4 0.002609 -0.000700 0.000143 0.031901 0.002239 0.003426
# 5 -0.002489 0.002186 -0.006502 0.002239 0.038537 0.012299
# 6 0.000429 0.003283 0.001826 0.003426 0.012299 0.036132
#
#
# Mechanical properties :
#
#
# Convention : Reuss Voigt Hill
#
# Bulk Modulus (GPa) = 53.31647 70.12488 61.72068
# Shear Modulus (GPa) = 29.52013 35.09790 32.30901
#
# Velocity S-wave (km/s) = 3.67652 4.00884 3.84627
# Velocity P-wave (km/s) = 6.51423 7.31688 6.92719
#
# Compressibility (1/GPa) = 0.01875593
#
# Stress axis : x y z
#
# Youngs Moduli (GPa) = 101.93873 108.25955 53.73970
#
# Poissons Ratio (x) = 0.23049 0.15180
# Poissons Ratio (y) = 0.21703 0.24160
# Poissons Ratio (z) = 0.28795 0.48671
#
# Static dielectric constant tensor:
#      x y z
#    x 4.038910 -0.108500 0.242200 
#    y -0.108500 4.259090 -0.421720 
#    z 0.242200 -0.421720 3.887580 
# 
# 
# High freq. dielectric constant tensor:
#      x y z
#    x 1.872210 -0.009740 0.014350 
#    y -0.009740 1.876940 -0.019120 
#    z 0.014350 -0.019120 1.841470 
# 
# From -- ./inp_files/317924.got.cif
#   From: 2010.06.25/outbox.cif.g09.slc.cpg/sg2_159_cif.got.tgz:317924.got - 2010.06.27 13:26:56.
