data_PCOD8031280
_publ_section_title
;
Structure prediction by ZEFSAII (Michael W. Deem and Ramdas Pophale) SiO2 
 PCOD8031280
Probable space group: P -1
;
_chemical_formula_sum "Si O2"
_cell_formula_units_Z 14
_cell_length_a 9.017873
_cell_length_b 14.651710
_cell_length_c 6.676717
_cell_angle_alpha 111.053901
_cell_angle_beta 50.976406
_cell_angle_gamma 96.695246
_cell_volume 632.247858
_symmetry_space_group_name_H-M "P -1"
_symmetry_group_IT_number 2
_symmetry_cell_setting 'triclinic'
loop_
_space_group_symop_operation_xyz
x,y,z
-x,-y,-z
loop_
_atom_site_type_symbol
_atom_site_label
_atom_site_fract_x
_atom_site_fract_y
_atom_site_fract_z
Si Si1 0.885573 0.265362 0.265710
Si Si2 0.289961 0.262266 0.088765
Si Si3 0.214243 0.597404 0.882720
Si Si4 0.408640 0.611044 0.115446
Si Si5 0.906604 0.548081 0.411287
Si Si6 0.505597 0.950701 0.168507
Si Si7 0.211619 0.943600 0.730592
O O1 0.859324 0.298555 0.082525
O O2 0.794517 0.351473 0.568788
O O3 0.782744 0.170677 0.313189
O O4 0.116000 0.239462 0.077735
O O5 0.445859 0.314824 0.874495
O O6 0.389240 0.161776 0.026993
O O7 0.205955 0.341635 0.388936
O O8 0.245977 0.518122 0.609624
O O9 0.390869 0.615908 0.890496
O O10 0.076479 0.552359 0.116778
O O11 0.500000 0.500000 0.000000
O O12 0.000000 0.500000 0.500000
O O13 0.287542 0.953499 0.445007
O O14 0.628910 0.015787 0.243656
O O15 0.500000 0.000000 0.000000
O O16 0.000000 0.000000 0.000000
#
# Coordination Sequence:
#
# PCOD8031280 Si02
#       7
#     2   2   2   2   2   2   2
#     4  12  25  46  70 104 141 185 238 291 360 427
#     4  12  24  46  71  99 148 185 227 307 351 412
#     4  11  24  42  70  99 139 191 238 277 358 425
#     4  12  27  45  68 104 152 185 234 296 346 428
#     4  11  22  43  68 100 140 185 238 287 342 421
#     4  11  27  49  72 109 141 184 246 300 366 442
#     4  11  25  49  75 102 143 184 234 307 366 421
#
# _framework density 22.143214
#
# number of rings (size 3 to 8) (size 9 to 14) (size 15 to 20)
#    0.000    0.571    5.714    1.714    4.000    4.000 
#    0.000    0.000    0.000    0.000    0.000    0.000 
#    0.000    0.000    0.000    0.000    0.000    0.000 
#
# Total GULP energy -173459.959260 kJ/mol
# GULP energy per Si atom -12389.997090 kJ/mol
# Density = 2.209281 g / cm^3
# Si number density = 22.143214 Si / 1000 Ang^3
#
#
#
# Elastic Constant Matrix: (Units=GPa)
#
#
# Indices 1 2 3 4 5 6 
#
# 1 98.3904 62.0864 56.5001 -8.2163 -7.2013 -9.1167
# 2 62.0864 188.5585 64.2844 -7.0988 4.0933 -13.0957
# 3 56.5001 64.2844 110.2915 -2.0143 -3.1847 -22.9586
# 4 -8.2163 -7.0988 -2.0143 43.4943 -2.8684 1.0341
# 5 -7.2013 4.0933 -3.1847 -2.8684 39.2013 -1.5094
# 6 -9.1167 -13.0957 -22.9586 1.0341 -1.5094 45.5248
#
#
#
# Elastic Compliance Matrix: (Units=1/GPa)
#
#
# Indices 1 2 3 4 5 6 
#
# 1 0.016248 -0.003152 -0.006547 0.002466 0.002927 -0.000914
# 2 -0.003152 0.007301 -0.002665 0.000370 -0.001528 0.000066
# 3 -0.006547 -0.002665 0.015131 -0.001075 0.000442 0.005592
# 4 0.002466 0.000370 -0.001075 0.023612 0.002039 -0.000410
# 5 0.002927 -0.001528 0.000442 0.002039 0.026438 0.001200
# 6 -0.000914 0.000066 0.005592 -0.000410 0.001200 0.024671
#
#
# Mechanical properties :
#
#
# Convention : Reuss Voigt Hill
#
# Bulk Modulus (GPa) = 71.66754 84.77580 78.22167
# Shear Modulus (GPa) = 35.01913 39.93538 37.47725
#
# Velocity S-wave (km/s) = 3.98110 4.25138 4.11846
# Velocity P-wave (km/s) = 7.31901 7.90362 7.61693
#
# Compressibility (1/GPa) = 0.01395332
#
# Stress axis : x y z
#
# Youngs Moduli (GPa) = 61.54779 136.96030 66.09004
#
# Poissons Ratio (x) = 0.43170 0.43267
# Poissons Ratio (y) = 0.19400 0.17610
# Poissons Ratio (z) = 0.40293 0.36494
#
# Static dielectric constant tensor:
#      x y z
#    x 4.334620 0.290970 0.056740 
#    y 0.290970 4.564310 0.199930 
#    z 0.056740 0.199930 4.537360 
# 
# 
# High freq. dielectric constant tensor:
#      x y z
#    x 1.872300 0.018260 -0.006650 
#    y 0.018260 1.889150 -0.001810 
#    z -0.006650 -0.001810 1.868460 
# 
# From -- ./inp_files/39598.got.cif
#   From: 2010.06.25/outbox.cif.g09.slc.cpg/sg2_20_cif.got.tgz:39598.got - 2010.06.27 13:26:56.
