data_PCOD8031190
_publ_section_title
;
Structure prediction by ZEFSAII (Michael W. Deem and Ramdas Pophale) SiO2 
 PCOD8031190
Probable space group: P -1
;
_chemical_formula_sum "Si O2"
_cell_formula_units_Z 14
_cell_length_a 11.466590
_cell_length_b 10.154700
_cell_length_c 8.292895
_cell_angle_alpha 123.977165
_cell_angle_beta 83.544732
_cell_angle_gamma 127.410413
_cell_volume 597.044580
_symmetry_space_group_name_H-M "P -1"
_symmetry_group_IT_number 2
_symmetry_cell_setting 'triclinic'
loop_
_space_group_symop_operation_xyz
x,y,z
-x,-y,-z
loop_
_atom_site_type_symbol
_atom_site_label
_atom_site_fract_x
_atom_site_fract_y
_atom_site_fract_z
Si Si1 0.174434 0.504398 0.370521
Si Si2 0.564233 0.502740 0.322838
Si Si3 0.770511 0.900087 0.415781
Si Si4 0.695546 0.612783 0.955346
Si Si5 0.481667 0.087232 0.407621
Si Si6 0.673108 0.323339 0.025942
Si Si7 0.012625 0.374382 0.642292
O O1 0.175926 0.338984 0.158967
O O2 0.350314 0.701814 0.535137
O O3 0.069344 0.383369 0.460479
O O4 0.109661 0.589361 0.326179
O O5 0.500000 0.500000 0.500000
O O6 0.747800 0.723494 0.413780
O O7 0.462602 0.478366 0.172994
O O8 0.574907 0.320538 0.185256
O O9 0.622770 0.860768 0.484724
O O10 0.759221 0.826917 0.182933
O O11 0.926805 0.142919 0.574676
O O12 0.659083 0.428943 0.948293
O O13 0.500000 0.000000 0.500000
O O14 0.401972 0.914152 0.159390
O O15 0.851693 0.452094 0.138844
#
# Coordination Sequence:
#
# PCOD8031190 Si02
#       7
#     2   2   2   2   2   2   2
#     4  11  24  43  69  97 141 168 222 272 324 384
#     4  11  23  42  67 102 129 166 226 284 313 385
#     4  11  23  41  71  93 134 175 222 261 339 389
#     4  11  22  42  71  96 127 177 220 274 321 388
#     4  12  20  41  73  97 120 183 226 267 314 396
#     4  11  24  41  71  95 137 171 223 264 336 385
#     4  11  26  45  62 103 139 173 207 281 330 393
#
# _framework density 23.448834999999999
#
# number of rings (size 3 to 8) (size 9 to 14) (size 15 to 20)
#    0.000    0.857    4.286    3.429    0.000    5.714 
#    0.000    1.429    0.000    0.000    0.000    0.000 
#    0.000    0.000    0.000    0.000    0.000    0.000 
#
# Total GULP energy -173477.594219 kJ/mol
# GULP energy per Si atom -12391.256730 kJ/mol
# Density = 2.339546 g / cm^3
# Si number density = 23.448835 Si / 1000 Ang^3
#
#
#
# Elastic Constant Matrix: (Units=GPa)
#
#
# Indices 1 2 3 4 5 6 
#
# 1 94.5005 17.5616 72.6552 5.6059 -16.0815 25.8527
# 2 17.5616 80.4238 42.7893 6.6139 -1.2680 16.3249
# 3 72.6552 42.7893 169.0631 19.8132 -17.9410 13.8820
# 4 5.6059 6.6139 19.8132 26.1942 -3.8530 5.4518
# 5 -16.0815 -1.2680 -17.9410 -3.8530 44.2882 -5.1265
# 6 25.8527 16.3249 13.8820 5.4518 -5.1265 31.4987
#
#
#
# Elastic Compliance Matrix: (Units=1/GPa)
#
#
# Indices 1 2 3 4 5 6 
#
# 1 0.021313 0.002847 -0.008903 0.005094 0.002867 -0.015460
# 2 0.002847 0.016095 -0.004787 0.000591 -0.001423 -0.008903
# 3 -0.008903 -0.004787 0.011363 -0.006556 0.001373 0.006139
# 4 0.005094 0.000591 -0.006556 0.044043 0.002013 -0.008893
# 5 0.002867 -0.001423 0.001373 0.002013 0.024475 0.001414
# 6 -0.015460 -0.008903 0.006139 -0.008893 0.001414 0.048114
#
#
# Mechanical properties :
#
#
# Convention : Reuss Voigt Hill
#
# Bulk Modulus (GPa) = 36.91930 67.77771 52.34850
# Shear Modulus (GPa) = 25.49506 34.46165 29.97836
#
# Velocity S-wave (km/s) = 3.30095 3.83776 3.57943
# Velocity P-wave (km/s) = 5.50519 6.97174 6.28141
#
# Compressibility (1/GPa) = 0.02708610
#
# Stress axis : x y z
#
# Youngs Moduli (GPa) = 46.91965 62.13017 88.00786
#
# Poissons Ratio (x) = -0.17691 0.78355
# Poissons Ratio (y) = -0.13360 0.42125
# Poissons Ratio (z) = 0.41774 0.29739
#
# Static dielectric constant tensor:
#      x y z
#    x 4.431400 0.061010 -0.354820 
#    y 0.061010 4.085700 0.041200 
#    z -0.354820 0.041200 4.657460 
# 
# 
# High freq. dielectric constant tensor:
#      x y z
#    x 1.940800 0.004110 -0.024500 
#    y 0.004110 1.913060 -0.009090 
#    z -0.024500 -0.009090 1.935150 
# 
# From -- ./inp_files/260628.got.cif
#   From: 2010.06.25/outbox.cif.g09.slc.cpg/sg2_131_cif.got.tgz:260628.got - 2010.06.27 13:26:56.
