data_PCOD8031277
_publ_section_title
;
Structure prediction by ZEFSAII (Michael W. Deem and Ramdas Pophale) SiO2 
 PCOD8031277
Probable space group: P -1
;
_chemical_formula_sum "Si O2"
_cell_formula_units_Z 16
_cell_length_a 6.547792
_cell_length_b 25.142341
_cell_length_c 15.754726
_cell_angle_alpha 17.180566
_cell_angle_beta 107.939076
_cell_angle_gamma 107.858254
_cell_volume 728.167437
_symmetry_space_group_name_H-M "P -1"
_symmetry_group_IT_number 2
_symmetry_cell_setting 'triclinic'
loop_
_space_group_symop_operation_xyz
x,y,z
-x,-y,-z
loop_
_atom_site_type_symbol
_atom_site_label
_atom_site_fract_x
_atom_site_fract_y
_atom_site_fract_z
Si Si1 0.656952 0.013899 0.922675
Si Si2 0.086255 0.540491 0.083200
Si Si3 0.819608 0.103794 0.369022
Si Si4 0.992798 0.727685 0.379872
Si Si5 0.709813 0.579893 0.862097
Si Si6 0.035056 0.294502 0.792005
Si Si7 0.438899 0.125838 0.178646
Si Si8 0.668007 0.992348 0.255218
O O1 0.774263 0.211937 0.643435
O O2 0.530102 0.969942 0.888150
O O3 0.500000 0.000000 0.000000
O O4 0.830077 0.867171 0.181790
O O5 0.291459 0.479662 0.147002
O O6 0.075589 0.460573 0.298414
O O7 0.071999 0.753106 0.771093
O O8 0.889504 0.477958 0.093039
O O9 0.651836 0.210947 0.124408
O O10 0.698911 0.962578 0.629535
O O11 0.000000 0.000000 0.500000
O O12 0.990418 0.716849 0.294826
O O13 0.750021 0.795853 0.544191
O O14 0.500000 0.500000 0.000000
O O15 0.000000 0.500000 0.500000
O O16 0.861589 0.147841 0.034493
O O17 0.281338 0.258315 0.907124
O O18 0.553318 0.990523 0.335120
#
# Coordination Sequence:
#
# PCOD8031277 Si02
#       8
#     2   2   2   2   2   2   2   2
#     4  11  22  43  67  99 133 183 221 279 346 409
#     4  11  25  42  67 101 137 174 223 289 343 413
#     4  11  25  47  73  99 136 181 235 287 350 409
#     4  11  25  42  67 101 141 174 233 282 341 419
#     4  11  24  44  70 103 135 173 227 289 354 407
#     4  12  28  46  68 102 144 189 234 283 342 415
#     4  11  25  46  71 100 133 184 235 286 342 415
#     4  12  24  45  73  98 140 182 232 287 354 408
#
# _framework density 21.972968999999999
#
# number of rings (size 3 to 8) (size 9 to 14) (size 15 to 20)
#    0.000    0.750    2.500    4.500    5.250    4.500 
#    2.250    0.000    0.000    0.000    0.000    0.000 
#    0.000    0.000    0.000    0.000    0.000    0.000 
#
# Total GULP energy -198226.956529 kJ/mol
# GULP energy per Si atom -12389.184783 kJ/mol
# Density = 2.192296 g / cm^3
# Si number density = 21.972969 Si / 1000 Ang^3
#
#
#
# Elastic Constant Matrix: (Units=GPa)
#
#
# Indices 1 2 3 4 5 6 
#
# 1 137.1648 61.4467 47.6585 -2.7793 -7.1198 -16.8323
# 2 61.4467 108.3654 30.6600 -6.1419 -2.5081 -14.0219
# 3 47.6585 30.6600 97.4697 -15.8686 -1.8301 -9.0039
# 4 -2.7793 -6.1419 -15.8686 41.8002 -1.1871 8.0234
# 5 -7.1198 -2.5081 -1.8301 -1.1871 30.3603 3.7065
# 6 -16.8323 -14.0219 -9.0039 8.0234 3.7065 56.0946
#
#
#
# Elastic Compliance Matrix: (Units=1/GPa)
#
#
# Indices 1 2 3 4 5 6 
#
# 1 0.011198 -0.005076 -0.003988 -0.001773 0.001703 0.001592
# 2 -0.005076 0.012674 -0.001260 0.000776 -0.000354 0.001355
# 3 -0.003988 -0.001260 0.013355 0.004623 -0.000050 -0.000026
# 4 -0.001773 0.000776 0.004623 0.026378 0.001381 -0.003460
# 5 0.001703 -0.000354 -0.000050 0.001381 0.033603 -0.002004
# 6 0.001592 0.001355 -0.000026 -0.003460 -0.002004 0.019267
#
#
# Mechanical properties :
#
#
# Convention : Reuss Voigt Hill
#
# Bulk Modulus (GPa) = 60.31724 69.17006 64.74365
# Shear Modulus (GPa) = 35.05076 39.19998 37.12537
#
# Velocity S-wave (km/s) = 3.99830 4.22834 4.11493
# Velocity P-wave (km/s) = 6.98752 7.44220 7.21844
#
# Compressibility (1/GPa) = 0.01657901
#
# Stress axis : x y z
#
# Youngs Moduli (GPa) = 89.30051 78.90133 74.87705
#
# Poissons Ratio (x) = 0.40053 0.29862
# Poissons Ratio (y) = 0.45332 0.09432
# Poissons Ratio (z) = 0.35614 0.09939
#
# Static dielectric constant tensor:
#      x y z
#    x 4.346830 0.042780 0.080970 
#    y 0.042780 4.324010 -0.081230 
#    z 0.080970 -0.081230 3.985870 
# 
# 
# High freq. dielectric constant tensor:
#      x y z
#    x 1.883300 -0.002810 0.002710 
#    y -0.002810 1.884330 0.010390 
#    z 0.002710 0.010390 1.849310 
# 
# From -- ./inp_files/70141.got.cif
#   From: 2010.06.25/outbox.cif.g09.slc.cpg/sg2_36_cif.got.tgz:70141.got - 2010.06.27 13:26:56.
