data_PCOD8031530
_publ_section_title
;
Structure prediction by ZEFSAII (Michael W. Deem and Ramdas Pophale) SiO2 
 PCOD8031530
Probable space group: P -1
;
_chemical_formula_sum "Si O2"
_cell_formula_units_Z 16
_cell_length_a 11.759053
_cell_length_b 9.579875
_cell_length_c 14.310233
_cell_angle_alpha 29.633820
_cell_angle_beta 84.939323
_cell_angle_gamma 94.165327
_cell_volume 756.618389
_symmetry_space_group_name_H-M "P -1"
_symmetry_group_IT_number 2
_symmetry_cell_setting 'triclinic'
loop_
_space_group_symop_operation_xyz
x,y,z
-x,-y,-z
loop_
_atom_site_type_symbol
_atom_site_label
_atom_site_fract_x
_atom_site_fract_y
_atom_site_fract_z
Si Si1 0.003569 0.737007 0.585585
Si Si2 0.949993 0.999367 0.774304
Si Si3 0.175634 0.618919 0.780144
Si Si4 0.472426 0.174725 0.653934
Si Si5 0.572864 0.283168 0.381379
Si Si6 0.566566 0.892639 0.977718
Si Si7 0.210449 0.079709 0.672459
Si Si8 0.183120 0.677281 0.276269
O O1 0.079904 0.565594 0.735279
O O2 0.877808 0.479926 0.724062
O O3 0.058420 0.884600 0.397424
O O4 0.000000 0.000000 0.500000
O O5 0.919156 0.238717 0.705226
O O6 0.856510 0.671282 0.982426
O O7 0.084125 0.973042 0.800511
O O8 0.290398 0.646258 0.694503
O O9 0.187805 0.911438 0.671656
O O10 0.500000 0.500000 0.500000
O O11 0.547212 0.212781 0.532135
O O12 0.327480 0.021921 0.744065
O O13 0.526161 0.971717 0.833598
O O14 0.500000 0.000000 0.500000
O O15 0.525254 0.541969 0.194443
O O16 0.707768 0.024041 0.914834
O O17 0.500000 0.000000 0.000000
O O18 0.239213 0.435138 0.457919
#
# Coordination Sequence:
#
# PCOD8031530 Si02
#       8
#     2   2   2   2   2   2   2   2
#     4  11  24  42  70 102 137 190 224 277 361 408
#     4  11  25  45  69 103 143 175 237 291 337 414
#     4  12  25  45  70 103 141 181 232 290 347 415
#     4  12  25  45  75 104 137 192 235 285 358 415
#     4  12  27  49  71 105 144 182 242 297 344 422
#     4  12  26  48  73 103 143 187 237 290 355 419
#     4  11  22  44  71 101 143 183 227 290 351 410
#     4  11  23  45  70 103 142 179 233 289 340 413
#
# _framework density 21.146723000000001
#
# number of rings (size 3 to 8) (size 9 to 14) (size 15 to 20)
#    0.000    0.500    7.500    1.875    1.750    3.000 
#    2.250    0.000    0.000    0.000    0.000    0.000 
#    0.000    0.000    0.000    0.000    0.000    0.000 
#
# Total GULP energy -198261.785879 kJ/mol
# GULP energy per Si atom -12391.361617 kJ/mol
# Density = 2.109859 g / cm^3
# Si number density = 21.146723 Si / 1000 Ang^3
#
#
#
# Elastic Constant Matrix: (Units=GPa)
#
#
# Indices 1 2 3 4 5 6 
#
# 1 130.9530 58.5736 38.9454 5.6078 -6.7594 5.1597
# 2 58.5736 139.7699 58.2575 -3.7477 -1.1598 -2.8284
# 3 38.9454 58.2575 123.6674 -0.8670 5.1476 6.2397
# 4 5.6078 -3.7477 -0.8670 37.5634 -1.6486 1.8707
# 5 -6.7594 -1.1598 5.1476 -1.6486 34.9708 1.7020
# 6 5.1597 -2.8284 6.2397 1.8707 1.7020 46.0140
#
#
#
# Elastic Compliance Matrix: (Units=1/GPa)
#
#
# Indices 1 2 3 4 5 6 
#
# 1 0.009899 -0.003591 -0.001463 -0.001726 0.001983 -0.001136
# 2 -0.003591 0.010314 -0.003801 0.001412 0.000202 0.001487
# 3 -0.001463 -0.003801 0.010488 0.000070 -0.001880 -0.001425
# 4 -0.001726 0.001412 0.000070 0.027110 0.001023 -0.000869
# 5 0.001983 0.000202 -0.001880 0.001023 0.029363 -0.001083
# 6 -0.001136 0.001487 -0.001425 -0.000869 -0.001083 0.022220
#
#
# Mechanical properties :
#
#
# Convention : Reuss Voigt Hill
#
# Bulk Modulus (GPa) = 76.98278 78.43813 77.71046
# Shear Modulus (GPa) = 38.04183 39.61723 38.82953
#
# Velocity S-wave (km/s) = 4.24600 4.33303 4.28973
# Velocity P-wave (km/s) = 7.77954 7.88710 7.83350
#
# Compressibility (1/GPa) = 0.01298992
#
# Stress axis : x y z
#
# Youngs Moduli (GPa) = 101.02232 96.95912 95.34546
#
# Poissons Ratio (x) = 0.34822 0.13948
# Poissons Ratio (y) = 0.36281 0.36242
# Poissons Ratio (z) = 0.14778 0.36855
#
# Static dielectric constant tensor:
#      x y z
#    x 3.942870 -0.038930 -0.013440 
#    y -0.038930 3.903770 -0.030320 
#    z -0.013440 -0.030320 3.790280 
# 
# 
# High freq. dielectric constant tensor:
#      x y z
#    x 1.839150 -0.009150 -0.003240 
#    y -0.009150 1.834470 -0.014880 
#    z -0.003240 -0.014880 1.831750 
# 
# From -- ./inp_files/514809.got.cif
#   From: 2010.06.25/outbox.cif.g09.slc.cpg/sg2_258_cif.got.tgz:514809.got - 2010.06.27 13:26:56.
