data_PCOD8031541
_publ_section_title
;
Structure prediction by ZEFSAII (Michael W. Deem and Ramdas Pophale) SiO2 
 PCOD8031541
Probable space group: P -1
;
_chemical_formula_sum "Si O2"
_cell_formula_units_Z 16
_cell_length_a 13.275958
_cell_length_b 8.899309
_cell_length_c 13.388658
_cell_angle_alpha 102.563733
_cell_angle_beta 57.915221
_cell_angle_gamma 53.687765
_cell_volume 676.695784
_symmetry_space_group_name_H-M "P -1"
_symmetry_group_IT_number 2
_symmetry_cell_setting 'triclinic'
loop_
_space_group_symop_operation_xyz
x,y,z
-x,-y,-z
loop_
_atom_site_type_symbol
_atom_site_label
_atom_site_fract_x
_atom_site_fract_y
_atom_site_fract_z
Si Si1 0.836270 0.577359 0.031385
Si Si2 0.279442 0.410983 0.225197
Si Si3 0.948923 0.225572 0.314960
Si Si4 0.074850 0.106432 0.669506
Si Si5 0.498640 0.715184 0.270659
Si Si6 0.498285 0.789817 0.724931
Si Si7 0.304780 0.040556 0.211108
Si Si8 0.825195 0.095594 0.042378
O O1 0.971483 0.339387 0.838370
O O2 0.703766 0.605467 0.177794
O O3 0.000000 0.500000 0.000000
O O4 0.631083 0.907217 0.139415
O O5 0.369918 0.408023 0.271710
O O6 0.054471 0.739408 0.346079
O O7 0.205570 0.323177 0.291806
O O8 0.467155 0.213137 0.011388
O O9 0.692164 0.582681 0.507108
O O10 0.937840 0.053919 0.309984
O O11 0.115394 0.125588 0.290581
O O12 0.040415 0.156569 0.145790
O O13 0.335609 0.869502 0.474576
O O14 0.366724 0.926334 0.274589
O O15 0.633039 0.408529 0.130744
O O16 0.306544 0.875189 0.809204
O O17 0.000000 0.000000 0.000000
#
# Coordination Sequence:
#
# PCOD8031541 Si02
#       8
#     2   2   2   2   2   2   2   2
#     4  12  27  49  72 100 142 186 237 292 342 407
#     4  11  22  44  71 107 142 179 226 289 355 419
#     4  12  27  45  74 106 140 187 228 286 356 415
#     4  12  27  45  74 105 143 183 233 284 351 421
#     4  12  25  47  72 104 143 183 231 289 351 411
#     4  12  26  45  73 108 137 183 236 288 347 418
#     4  11  23  43  74 104 144 181 224 289 358 415
#     4  12  27  47  71 101 142 187 236 291 342 408
#
# _framework density 23.644304000000002
#
# number of rings (size 3 to 8) (size 9 to 14) (size 15 to 20)
#    0.000    0.250    6.250    2.250    3.500    5.000 
#    0.000    0.000    0.000    0.000    0.000    0.000 
#    0.000    0.000    0.000    0.000    0.000    0.000 
#
# Total GULP energy -198380.090790 kJ/mol
# GULP energy per Si atom -12398.755674 kJ/mol
# Density = 2.359049 g / cm^3
# Si number density = 23.644304 Si / 1000 Ang^3
#
#
#
# Elastic Constant Matrix: (Units=GPa)
#
#
# Indices 1 2 3 4 5 6 
#
# 1 122.8887 5.3336 61.0804 -3.6491 -12.6669 12.9265
# 2 5.3336 58.1638 33.1383 -1.3585 2.2827 10.9486
# 3 61.0804 33.1383 158.3550 -4.7162 -12.7670 13.6318
# 4 -3.6491 -1.3585 -4.7162 25.1273 15.0951 -5.7603
# 5 -12.6669 2.2827 -12.7670 15.0951 32.0843 -6.2941
# 6 12.9265 10.9486 13.6318 -5.7603 -6.2941 34.5774
#
#
#
# Elastic Compliance Matrix: (Units=1/GPa)
#
#
# Indices 1 2 3 4 5 6 
#
# 1 0.010573 0.001704 -0.004041 -0.001247 0.002512 -0.002649
# 2 0.001704 0.021203 -0.004917 0.002068 -0.004936 -0.005966
# 3 -0.004041 -0.004917 0.009113 -0.000823 0.002736 -0.000164
# 4 -0.001247 0.002068 -0.000823 0.056708 -0.026722 0.004719
# 5 0.002512 -0.004936 0.002736 -0.026722 0.046883 0.003628
# 6 -0.002649 -0.005966 -0.000164 0.004719 0.003628 0.033311
#
#
# Mechanical properties :
#
#
# Convention : Reuss Voigt Hill
#
# Bulk Modulus (GPa) = 37.90761 59.83469 48.87115
# Shear Modulus (GPa) = 24.86405 34.34813 29.60609
#
# Velocity S-wave (km/s) = 3.24634 3.81557 3.54240
# Velocity P-wave (km/s) = 5.48807 6.69123 6.11929
#
# Compressibility (1/GPa) = 0.02637993
#
# Stress axis : x y z
#
# Youngs Moduli (GPa) = 94.58315 47.16286 109.73522
#
# Poissons Ratio (x) = -0.08036 0.44346
# Poissons Ratio (y) = -0.16116 0.53958
# Poissons Ratio (z) = 0.38223 0.23190
#
# Static dielectric constant tensor:
#      x y z
#    x 4.239720 0.244800 -0.210020 
#    y 0.244800 4.337620 0.044610 
#    z -0.210020 0.044610 4.617400 
# 
# 
# High freq. dielectric constant tensor:
#      x y z
#    x 1.937500 0.014450 -0.017490 
#    y 0.014450 1.928900 0.000810 
#    z -0.017490 0.000810 1.955200 
# 
# From -- ./inp_files/515911.got.cif
#   From: 2010.06.25/outbox.cif.g09.slc.cpg/sg2_258_cif.got.tgz:515911.got - 2010.06.27 13:26:56.
