data_PCOD8031947
_publ_section_title
;
Structure prediction by ZEFSAII (Michael W. Deem and Ramdas Pophale) SiO2 
 PCOD8031947
Probable space group: P -1
;
_chemical_formula_sum "Si O2"
_cell_formula_units_Z 14
_cell_length_a 6.908092
_cell_length_b 21.521202
_cell_length_c 12.775172
_cell_angle_alpha 26.270125
_cell_angle_beta 129.855479
_cell_angle_gamma 120.944665
_cell_volume 635.026178
_symmetry_space_group_name_H-M "P -1"
_symmetry_group_IT_number 2
_symmetry_cell_setting 'triclinic'
loop_
_space_group_symop_operation_xyz
x,y,z
-x,-y,-z
loop_
_atom_site_type_symbol
_atom_site_label
_atom_site_fract_x
_atom_site_fract_y
_atom_site_fract_z
Si Si1 0.439067 0.730984 0.195239
Si Si2 0.629067 0.291205 0.381532
Si Si3 0.587533 0.195843 0.290123
Si Si4 0.104486 0.094347 0.195607
Si Si5 0.083173 0.133250 0.885235
Si Si6 0.135727 0.458862 0.000823
Si Si7 0.372122 0.570964 0.205832
O O1 0.674140 0.816329 0.163761
O O2 0.450347 0.672565 0.169065
O O3 0.460813 0.590141 0.489958
O O4 0.182513 0.844651 0.957992
O O5 0.639869 0.179738 0.457298
O O6 0.344199 0.312418 0.301429
O O7 0.830358 0.251660 0.604068
O O8 0.693018 0.429160 0.140162
O O9 0.297665 0.175708 0.200789
O O10 0.803764 0.075089 0.492666
O O11 0.601986 0.352539 0.012301
O O12 0.137843 0.114958 0.053220
O O13 0.000000 0.000000 0.000000
O O14 0.000000 0.500000 0.000000
O O15 0.924916 0.444045 0.861539
#
# Coordination Sequence:
#
# PCOD8031947 Si02
#       7
#     2   2   2   2   2   2   2
#     4  11  26  45  68 102 134 182 224 283 337 403
#     4  11  24  40  65  96 137 171 219 275 338 385
#     4  11  23  46  69 101 131 183 227 279 331 408
#     4  11  26  45  70  96 139 178 231 272 340 403
#     4  12  25  45  67  99 138 177 221 277 340 412
#     4  11  23  39  64  97 132 172 218 276 331 399
#     4  11  23  44  70  98 139 170 235 279 331 403
#
# _framework density 22.046334999999999
#
# number of rings (size 3 to 8) (size 9 to 14) (size 15 to 20)
#    0.000    0.857    5.714    0.857    2.000    2.857 
#    0.000    0.000    0.000    0.000    0.000    0.000 
#    0.000    0.000    0.000    0.000    0.000    0.000 
#
# Total GULP energy -173501.728328 kJ/mol
# GULP energy per Si atom -12392.980595 kJ/mol
# Density = 2.199616 g / cm^3
# Si number density = 22.046335 Si / 1000 Ang^3
#
#
#
# Elastic Constant Matrix: (Units=GPa)
#
#
# Indices 1 2 3 4 5 6 
#
# 1 88.9220 32.0538 47.3113 -10.1225 26.8270 15.1682
# 2 32.0538 102.6084 23.0794 0.5666 6.4952 25.3594
# 3 47.3113 23.0794 105.7889 5.1695 20.1556 10.2021
# 4 -10.1225 0.5666 5.1695 35.6256 1.0731 4.4667
# 5 26.8270 6.4952 20.1556 1.0731 46.6163 10.9743
# 6 15.1682 25.3594 10.2021 4.4667 10.9743 23.1581
#
#
#
# Elastic Compliance Matrix: (Units=1/GPa)
#
#
# Indices 1 2 3 4 5 6 
#
# 1 0.019698 -0.003094 -0.006699 0.007413 -0.007088 -0.004634
# 2 -0.003094 0.014502 -0.001068 0.000856 0.003817 -0.015357
# 3 -0.006699 -0.001068 0.013097 -0.003911 -0.001909 0.001447
# 4 0.007413 0.000856 -0.003911 0.031980 -0.001148 -0.009693
# 5 -0.007088 0.003817 -0.001909 -0.001148 0.028693 -0.012072
# 6 -0.004634 -0.015357 0.001447 -0.009693 -0.012072 0.069986
#
#
# Mechanical properties :
#
#
# Convention : Reuss Voigt Hill
#
# Bulk Modulus (GPa) = 39.10179 55.80091 47.45135
# Shear Modulus (GPa) = 24.01501 34.07169 29.04335
#
# Velocity S-wave (km/s) = 3.30403 3.93550 3.63351
# Velocity P-wave (km/s) = 5.68596 6.78355 6.25886
#
# Compressibility (1/GPa) = 0.02557428
#
# Stress axis : x y z
#
# Youngs Moduli (GPa) = 50.76644 68.95793 76.35147
#
# Poissons Ratio (x) = 0.21333 0.51151
# Poissons Ratio (y) = 0.15705 0.08157
# Poissons Ratio (z) = 0.34011 0.07367
#
# Static dielectric constant tensor:
#      x y z
#    x 10.125600 -2.762790 -0.631400 
#    y -2.762790 5.713790 0.675530 
#    z -0.631400 0.675530 4.817250 
# 
# 
# High freq. dielectric constant tensor:
#      x y z
#    x 1.846840 0.013900 0.011510 
#    y 0.013900 1.883230 0.008020 
#    z 0.011510 0.008020 1.878910 
# 
# From -- ./inp_files/68622.got.cif
#   From: 2010.06.25/outbox.cif.g09.slc.cpg/sg2_35_cif.got.tgz:68622.got - 2010.06.27 13:26:56.
