data_PCOD8031305
_publ_section_title
;
Structure prediction by ZEFSAII (Michael W. Deem and Ramdas Pophale) SiO2 
 PCOD8031305
Probable space group: P -1
;
_chemical_formula_sum "Si O2"
_cell_formula_units_Z 14
_cell_length_a 11.703281
_cell_length_b 14.885264
_cell_length_c 5.359635
_cell_angle_alpha 117.576160
_cell_angle_beta 89.294039
_cell_angle_gamma 133.954194
_cell_volume 521.286935
_symmetry_space_group_name_H-M "P -1"
_symmetry_group_IT_number 2
_symmetry_cell_setting 'triclinic'
loop_
_space_group_symop_operation_xyz
x,y,z
-x,-y,-z
loop_
_atom_site_type_symbol
_atom_site_label
_atom_site_fract_x
_atom_site_fract_y
_atom_site_fract_z
Si Si1 0.554322 0.270195 0.960722
Si Si2 0.156646 0.390876 0.865038
Si Si3 0.759850 0.929840 0.952682
Si Si4 0.587931 0.990117 0.767201
Si Si5 0.885930 0.860109 0.521168
Si Si6 0.831910 0.426345 0.558038
Si Si7 0.219637 0.789133 0.408148
O O1 0.684708 0.450958 0.101512
O O2 0.361997 0.184724 0.950628
O O3 0.647878 0.283488 0.220822
O O4 0.512980 0.159146 0.608825
O O5 0.201787 0.303464 0.797083
O O6 0.954030 0.261760 0.580783
O O7 0.145507 0.440310 0.196161
O O8 0.704788 0.005730 0.977788
O O9 0.729775 0.825076 0.599084
O O10 0.973799 0.078707 0.190251
O O11 0.400082 0.928103 0.769207
O O12 0.722484 0.151756 0.804396
O O13 0.000000 0.000000 0.500000
O O14 0.830538 0.363469 0.740767
O O15 0.000000 0.500000 0.500000
#
# Coordination Sequence:
#
# PCOD8031305 Si02
#       7
#     2   2   2   2   2   2   2
#     4  12  23  42  69 104 147 181 240 291 345 428
#     4  12  25  45  70 105 145 190 230 297 357 419
#     4  11  24  48  75 103 136 188 241 294 360 419
#     4  11  24  44  69 106 148 184 237 296 347 419
#     4  11  27  51  76 101 140 182 243 305 355 421
#     4  12  24  43  70 106 150 192 237 280 355 428
#     4  11  22  43  69 102 146 189 231 289 348 415
#
# _framework density 26.856607
#
# number of rings (size 3 to 8) (size 9 to 14) (size 15 to 20)
#    0.000    0.571    4.286    3.857    0.000    4.571 
#   10.286    5.000    0.000    0.000    0.000    0.000 
#    0.000    0.000    0.000    0.000    0.000    0.000 
#
# Total GULP energy -173503.930077 kJ/mol
# GULP energy per Si atom -12393.137863 kJ/mol
# Density = 2.679548 g / cm^3
# Si number density = 26.856607 Si / 1000 Ang^3
#
#
#
# Elastic Constant Matrix: (Units=GPa)
#
#
# Indices 1 2 3 4 5 6 
#
# 1 127.0802 40.2214 39.2656 -1.3998 -44.4154 7.6119
# 2 40.2214 145.8671 17.5433 5.6852 -21.3086 -0.2251
# 3 39.2656 17.5433 87.1051 10.5061 -15.4905 -6.1477
# 4 -1.3998 5.6852 10.5061 27.4302 -0.8317 0.3686
# 5 -44.4154 -21.3086 -15.4905 -0.8317 61.2295 5.6728
# 6 7.6119 -0.2251 -6.1477 0.3686 5.6728 53.5132
#
#
#
# Elastic Compliance Matrix: (Units=1/GPa)
#
#
# Indices 1 2 3 4 5 6 
#
# 1 0.012889 -0.001981 -0.004622 0.003119 0.007832 -0.003224
# 2 -0.001981 0.007657 -0.000248 -0.001561 0.001128 0.000177
# 3 -0.004622 -0.000248 0.014461 -0.005758 -0.000078 0.002366
# 4 0.003119 -0.001561 -0.005758 0.039192 0.000932 -0.001480
# 5 0.007832 0.001128 -0.000078 0.000932 0.022726 -0.003534
# 6 -0.003224 0.000177 0.002366 -0.001480 -0.003534 0.019803
#
#
# Mechanical properties :
#
#
# Convention : Reuss Voigt Hill
#
# Bulk Modulus (GPa) = 46.93481 61.56812 54.25146
# Shear Modulus (GPa) = 36.35495 45.96939 41.16217
#
# Velocity S-wave (km/s) = 3.68322 4.14171 3.91917
# Velocity P-wave (km/s) = 5.96675 6.77098 6.38155
#
# Compressibility (1/GPa) = 0.02130615
#
# Stress axis : x y z
#
# Youngs Moduli (GPa) = 77.58613 130.59284 69.14915
#
# Poissons Ratio (x) = 0.25864 0.31962
# Poissons Ratio (y) = 0.15366 0.01716
# Poissons Ratio (z) = 0.35862 0.03240
#
# Static dielectric constant tensor:
#      x y z
#    x 5.400840 0.303820 0.013170 
#    y 0.303820 5.227190 0.138370 
#    z 0.013170 0.138370 5.149700 
# 
# 
# High freq. dielectric constant tensor:
#      x y z
#    x 2.091390 0.014450 -0.006480 
#    y 0.014450 2.080870 0.002480 
#    z -0.006480 0.002480 2.092990 
# 
# From -- ./inp_files/78639.got.cif
#   From: 2010.06.25/outbox.cif.g09.slc.cpg/sg2_40_cif.got.tgz:78639.got - 2010.06.27 13:26:56.
