data_PCOD8031008
_publ_section_title
;
Structure prediction by ZEFSAII (Michael W. Deem and Ramdas Pophale) SiO2 
 PCOD8031008
Probable space group: P -1
;
_chemical_formula_sum "Si O2"
_cell_formula_units_Z 16
_cell_length_a 9.217740
_cell_length_b 11.155433
_cell_length_c 9.393868
_cell_angle_alpha 123.216948
_cell_angle_beta 76.940329
_cell_angle_gamma 113.477244
_cell_volume 741.182451
_symmetry_space_group_name_H-M "P -1"
_symmetry_group_IT_number 2
_symmetry_cell_setting 'triclinic'
loop_
_space_group_symop_operation_xyz
x,y,z
-x,-y,-z
loop_
_atom_site_type_symbol
_atom_site_label
_atom_site_fract_x
_atom_site_fract_y
_atom_site_fract_z
Si Si1 0.746715 0.210931 0.768381
Si Si2 0.449005 0.130360 0.427603
Si Si3 0.815082 0.287617 0.486878
Si Si4 0.528541 0.362047 0.043904
Si Si5 0.663061 0.701852 0.204247
Si Si6 0.587737 0.660765 0.661426
Si Si7 0.970464 0.649763 0.039878
Si Si8 0.102778 0.363608 0.287739
O O1 0.836434 0.253270 0.625191
O O2 0.674575 0.343275 0.910674
O O3 0.871943 0.210157 0.862801
O O4 0.607085 0.050479 0.692056
O O5 0.638178 0.189773 0.414762
O O6 0.377393 0.168670 0.614818
O O7 0.373375 0.203645 0.370444
O O8 0.844186 0.462527 0.563719
O O9 0.949037 0.254493 0.338034
O O10 0.366116 0.269316 0.936693
O O11 0.536557 0.537814 0.166967
O O12 0.527633 0.308155 0.172153
O O13 0.835327 0.691068 0.183655
O O14 0.500000 0.500000 0.500000
O O15 0.747808 0.681297 0.726412
O O16 0.937458 0.647217 0.878057
O O17 0.000000 0.500000 0.000000
#
# Coordination Sequence:
#
# PCOD8031008 Si02
#       8
#     2   2   2   2   2   2   2   2
#     4  12  27  45  69 104 142 186 228 279 353 414
#     4  12  27  45  69 104 142 186 228 279 353 414
#     4  11  23  43  70  99 144 172 228 295 345 401
#     4  11  22  41  71  99 135 178 232 283 333 409
#     4  11  22  41  71  99 135 178 232 283 333 409
#     4  12  24  43  70 103 139 178 231 289 337 412
#     4  12  24  43  70 103 139 178 231 289 337 412
#     4  11  24  43  69 106 132 175 237 290 341 391
#
# _framework density 21.587126999999999
#
# number of rings (size 3 to 8) (size 9 to 14) (size 15 to 20)
#    0.000    0.500    7.500    0.375    3.500    1.000 
#    0.000    0.625    0.000    0.000    0.000    0.000 
#    0.000    0.000    0.000    0.000    0.000    0.000 
#
# Total GULP energy -198295.050279 kJ/mol
# GULP energy per Si atom -12393.440642 kJ/mol
# Density = 2.153799 g / cm^3
# Si number density = 21.587127 Si / 1000 Ang^3
#
#
#
# Elastic Constant Matrix: (Units=GPa)
#
#
# Indices 1 2 3 4 5 6 
#
# 1 125.8680 23.1824 46.7780 -7.6536 19.3935 18.2567
# 2 23.1824 70.9902 40.3027 -9.9574 1.8089 9.8503
# 3 46.7780 40.3027 112.2703 -19.6860 14.7675 7.5062
# 4 -7.6536 -9.9574 -19.6860 37.4507 -0.8281 5.4591
# 5 19.3935 1.8089 14.7675 -0.8281 35.5713 -4.3947
# 6 18.2567 9.8503 7.5062 5.4591 -4.3947 33.6795
#
#
#
# Elastic Compliance Matrix: (Units=1/GPa)
#
#
# Indices 1 2 3 4 5 6 
#
# 1 0.010962 -0.000756 -0.002970 0.001228 -0.005413 -0.005964
# 2 -0.000756 0.018475 -0.005854 0.002277 0.001478 -0.003865
# 3 -0.002970 -0.005854 0.013711 0.005114 -0.003787 -0.001057
# 4 0.001228 0.002277 0.005114 0.031337 -0.003163 -0.007963
# 5 -0.005413 0.001478 -0.003787 -0.003163 0.033504 0.008231
# 6 -0.005964 -0.003865 -0.001057 -0.007963 0.008231 0.036656
#
#
# Mechanical properties :
#
#
# Convention : Reuss Voigt Hill
#
# Bulk Modulus (GPa) = 41.68649 58.85053 50.26851
# Shear Modulus (GPa) = 29.10362 34.59799 31.85081
#
# Velocity S-wave (km/s) = 3.67576 4.00773 3.84533
# Velocity P-wave (km/s) = 6.11291 6.98119 6.56143
#
# Compressibility (1/GPa) = 0.02398859
#
# Stress axis : x y z
#
# Youngs Moduli (GPa) = 91.22770 54.12828 72.93152
#
# Poissons Ratio (x) = 0.04091 0.21659
# Poissons Ratio (y) = 0.06895 0.42694
# Poissons Ratio (z) = 0.27093 0.31686
#
# Static dielectric constant tensor:
#      x y z
#    x 4.150100 0.085040 0.193230 
#    y 0.085040 3.747810 -0.124310 
#    z 0.193230 -0.124310 4.087260 
# 
# 
# High freq. dielectric constant tensor:
#      x y z
#    x 1.858380 0.006640 0.010730 
#    y 0.006640 1.820420 -0.015260 
#    z 0.010730 -0.015260 1.854180 
# 
# From -- ./inp_files/190009.got.cif
#   From: 2010.06.25/outbox.cif.g09.slc.cpg/sg2_96_cif.got.tgz:190009.got - 2010.06.27 13:26:56.
