data_PCOD8031599
_publ_section_title
;
Structure prediction by ZEFSAII (Michael W. Deem and Ramdas Pophale) SiO2 
 PCOD8031599
Probable space group: P -1
;
_chemical_formula_sum "Si O2"
_cell_formula_units_Z 16
_cell_length_a 17.537805
_cell_length_b 20.028560
_cell_length_c 11.642794
_cell_angle_alpha 148.844438
_cell_angle_beta 41.802262
_cell_angle_gamma 158.923348
_cell_volume 729.277580
_symmetry_space_group_name_H-M "P -1"
_symmetry_group_IT_number 2
_symmetry_cell_setting 'triclinic'
loop_
_space_group_symop_operation_xyz
x,y,z
-x,-y,-z
loop_
_atom_site_type_symbol
_atom_site_label
_atom_site_fract_x
_atom_site_fract_y
_atom_site_fract_z
Si Si1 0.901670 0.437172 0.894230
Si Si2 0.850789 0.189582 0.392634
Si Si3 0.126350 0.217958 0.880565
Si Si4 0.335151 0.608813 0.376421
Si Si5 0.411814 0.960121 0.736262
Si Si6 0.848065 0.135163 0.924303
Si Si7 0.429836 0.307031 0.564269
Si Si8 0.178738 0.121510 0.066917
O O1 0.888251 0.291348 0.622967
O O2 0.654307 0.257890 0.917487
O O3 0.000000 0.500000 0.000000
O O4 0.059184 0.692740 0.032482
O O5 0.685057 0.115309 0.393238
O O6 0.083588 0.401575 0.380307
O O7 0.744629 0.944576 0.162880
O O8 0.217918 0.175209 0.660328
O O9 0.043785 0.236628 0.903693
O O10 0.328987 0.481644 0.109193
O O11 0.922760 0.984668 0.848332
O O12 0.449187 0.843265 0.538119
O O13 0.471319 0.700006 0.468780
O O14 0.242512 0.855074 0.863625
O O15 0.649018 0.851510 0.689368
O O16 0.611625 0.583906 0.726193
O O17 0.000000 0.000000 0.000000
#
# Coordination Sequence:
#
# PCOD8031599 Si02
#       8
#     2   2   2   2   2   2   2   2
#     4  12  29  45  71 109 143 185 236 295 356 432
#     4  11  23  47  71 106 140 180 241 296 347 420
#     4  11  25  46  70 103 140 189 240 289 345 423
#     4  11  22  44  74 103 139 184 238 296 347 419
#     4  12  25  46  77 104 140 190 235 298 360 410
#     4  12  27  48  69 106 150 186 234 292 362 420
#     4  12  27  43  71 103 148 192 229 290 356 420
#     4  11  24  43  71 105 136 184 242 290 342 415
#
# _framework density 21.939518
#
# number of rings (size 3 to 8) (size 9 to 14) (size 15 to 20)
#    0.000    0.500    6.250    3.000    5.250    3.500 
#    0.000    0.000    0.000    0.000    0.000    0.000 
#    0.000    0.000    0.000    0.000    0.000    0.000 
#
# Total GULP energy -198490.272957 kJ/mol
# GULP energy per Si atom -12405.642060 kJ/mol
# Density = 2.188958 g / cm^3
# Si number density = 21.939518 Si / 1000 Ang^3
#
#
#
# Elastic Constant Matrix: (Units=GPa)
#
#
# Indices 1 2 3 4 5 6 
#
# 1 119.5511 35.6433 47.0865 -1.1065 1.7044 -10.5715
# 2 35.6433 75.1982 25.3889 11.6827 -6.6260 -1.5344
# 3 47.0865 25.3889 117.5340 8.7782 -2.5722 -10.9825
# 4 -1.1065 11.6827 8.7782 28.3502 -0.5696 -4.0968
# 5 1.7044 -6.6260 -2.5722 -0.5696 42.4034 3.0291
# 6 -10.5715 -1.5344 -10.9825 -4.0968 3.0291 31.2944
#
#
#
# Elastic Compliance Matrix: (Units=1/GPa)
#
#
# Indices 1 2 3 4 5 6 
#
# 1 0.011614 -0.004991 -0.003624 0.004046 -0.001633 0.003095
# 2 -0.004991 0.017475 -0.001407 -0.007271 0.002931 -0.002559
# 3 -0.003624 -0.001407 0.010657 -0.002554 0.000390 0.002075
# 4 0.004046 -0.007271 -0.002554 0.039983 -0.001308 0.005475
# 5 -0.001633 0.002931 0.000390 -0.001308 0.024312 -0.002796
# 6 0.003095 -0.002559 0.002075 0.005475 -0.002796 0.034590
#
#
# Mechanical properties :
#
#
# Convention : Reuss Voigt Hill
#
# Bulk Modulus (GPa) = 50.75532 58.72453 54.73992
# Shear Modulus (GPa) = 30.25861 34.02057 32.13959
#
# Velocity S-wave (km/s) = 3.71776 3.94210 3.83158
# Velocity P-wave (km/s) = 6.45085 6.89528 6.67676
#
# Compressibility (1/GPa) = 0.01970237
#
# Stress axis : x y z
#
# Youngs Moduli (GPa) = 86.10109 57.22570 93.83564
#
# Poissons Ratio (x) = 0.28562 0.34002
# Poissons Ratio (y) = 0.42974 0.13204
# Poissons Ratio (z) = 0.31199 0.08052
#
# Static dielectric constant tensor:
#      x y z
#    x 4.151990 -0.078610 -0.240750 
#    y -0.078610 3.983520 0.056460 
#    z -0.240750 0.056460 4.202310 
# 
# 
# High freq. dielectric constant tensor:
#      x y z
#    x 1.872500 0.002710 -0.003920 
#    y 0.002710 1.866390 0.003310 
#    z -0.003920 0.003310 1.868120 
# 
# From -- ./inp_files/283212.got.cif
#   From: 2010.06.25/outbox.cif.g09.slc.cpg/sg2_142_cif.got.tgz:283212.got - 2010.06.27 13:26:56.
