data_PCOD8031748
_publ_section_title
;
Structure prediction by ZEFSAII (Michael W. Deem and Ramdas Pophale) SiO2 
 PCOD8031748
Probable space group: P -1
;
_chemical_formula_sum "Si O2"
_cell_formula_units_Z 16
_cell_length_a 13.878136
_cell_length_b 13.187444
_cell_length_c 9.498026
_cell_angle_alpha 92.149807
_cell_angle_beta 65.916050
_cell_angle_gamma 146.353176
_cell_volume 705.138574
_symmetry_space_group_name_H-M "P -1"
_symmetry_group_IT_number 2
_symmetry_cell_setting 'triclinic'
loop_
_space_group_symop_operation_xyz
x,y,z
-x,-y,-z
loop_
_atom_site_type_symbol
_atom_site_label
_atom_site_fract_x
_atom_site_fract_y
_atom_site_fract_z
Si Si1 0.776320 0.872062 0.841284
Si Si2 0.065534 0.248313 0.890884
Si Si3 0.023877 0.420809 0.573800
Si Si4 0.926839 0.351783 0.927716
Si Si5 0.003981 0.861459 0.769974
Si Si6 0.329315 0.583887 0.181218
Si Si7 0.434721 0.241610 0.334871
Si Si8 0.501301 0.889244 0.876142
O O1 0.844225 0.813286 0.798186
O O2 0.712528 0.847929 0.718575
O O3 0.549793 0.696136 0.069318
O O4 0.993603 0.127290 0.784944
O O5 0.351224 0.499054 0.739144
O O6 0.941420 0.251463 0.973151
O O7 0.972457 0.106070 0.074485
O O8 0.093585 0.507769 0.697367
O O9 0.000000 0.500000 0.500000
O O10 0.225327 0.521624 0.393237
O O11 0.780108 0.149177 0.717526
O O12 0.649324 0.136356 0.044288
O O13 0.000000 0.500000 0.000000
O O14 0.877653 0.645675 0.800583
O O15 0.265254 0.088869 0.561588
O O16 0.422317 0.765606 0.060127
O O17 0.551319 0.232129 0.230166
#
# Coordination Sequence:
#
# PCOD8031748 Si02
#       8
#     2   2   2   2   2   2   2   2
#     4  11  26  48  75 103 144 192 237 307 362 411
#     4  12  27  46  68 107 149 186 237 301 358 422
#     4  12  26  42  76 106 135 193 240 283 355 435
#     4  12  24  44  69 100 148 183 223 292 359 416
#     4  12  24  49  74 103 142 191 245 294 362 427
#     4  11  23  44  74 106 139 185 243 292 352 427
#     4  11  24  47  74 102 143 188 241 300 353 424
#     4  11  22  46  67 100 145 180 227 298 345 417
#
# _framework density 22.690577000000001
#
# number of rings (size 3 to 8) (size 9 to 14) (size 15 to 20)
#    0.000    0.500    6.250    3.000    1.750    1.500 
#    0.000    1.250    0.000    0.000    0.000    0.000 
#    0.000    0.000    0.000    0.000    0.000    0.000 
#
# Total GULP energy -198432.270564 kJ/mol
# GULP energy per Si atom -12402.016910 kJ/mol
# Density = 2.263893 g / cm^3
# Si number density = 22.690577 Si / 1000 Ang^3
#
#
#
# Elastic Constant Matrix: (Units=GPa)
#
#
# Indices 1 2 3 4 5 6 
#
# 1 85.9067 6.7588 24.0317 -9.5667 2.4295 -3.5304
# 2 6.7588 114.9907 47.2230 -6.8369 15.9323 4.7915
# 3 24.0317 47.2230 154.9623 -20.9912 -4.3414 1.8345
# 4 -9.5667 -6.8369 -20.9912 26.7181 -1.7132 -0.4158
# 5 2.4295 15.9323 -4.3414 -1.7132 33.1132 1.0812
# 6 -3.5304 4.7915 1.8345 -0.4158 1.0812 28.3587
#
#
#
# Elastic Compliance Matrix: (Units=1/GPa)
#
#
# Indices 1 2 3 4 5 6 
#
# 1 0.012540 0.000204 -0.001622 0.003223 -0.001120 0.001721
# 2 0.000204 0.010982 -0.003564 -0.000306 -0.005737 -0.001385
# 3 -0.001622 -0.003564 0.008628 0.005492 0.003256 -0.000202
# 4 0.003223 -0.000306 0.005492 0.043009 0.002836 0.000620
# 5 -0.001120 -0.005737 0.003256 0.002836 0.033636 -0.000622
# 6 0.001721 -0.001385 -0.000202 0.000620 -0.000622 0.035757
#
#
# Mechanical properties :
#
#
# Convention : Reuss Voigt Hill
#
# Bulk Modulus (GPa) = 45.07316 56.87628 50.97472
# Shear Modulus (GPa) = 30.88092 36.16107 33.52100
#
# Velocity S-wave (km/s) = 3.69312 3.99640 3.84775
# Velocity P-wave (km/s) = 6.17194 6.81288 6.50032
#
# Compressibility (1/GPa) = 0.02218615
#
# Stress axis : x y z
#
# Youngs Moduli (GPa) = 79.74767 91.05406 115.89605
#
# Poissons Ratio (x) = -0.01860 0.18799
# Poissons Ratio (y) = -0.01629 0.41309
# Poissons Ratio (z) = 0.12936 0.32454
#
# Static dielectric constant tensor:
#      x y z
#    x 4.148120 -0.008360 -0.191630 
#    y -0.008360 4.173700 0.065030 
#    z -0.191630 0.065030 4.365080 
# 
# 
# High freq. dielectric constant tensor:
#      x y z
#    x 1.892180 -0.006860 -0.009120 
#    y -0.006860 1.899230 0.002380 
#    z -0.009120 0.002380 1.897680 
# 
# From -- ./inp_files/315260.got.cif
#   From: 2010.06.25/outbox.cif.g09.slc.cpg/sg2_158_cif.got.tgz:315260.got - 2010.06.27 13:26:56.
