data_PCOD8031676
_publ_section_title
;
Structure prediction by ZEFSAII (Michael W. Deem and Ramdas Pophale) SiO2 
 PCOD8031676
Probable space group: P -1
;
_chemical_formula_sum "Si O2"
_cell_formula_units_Z 14
_cell_length_a 21.452566
_cell_length_b 11.430253
_cell_length_c 11.605167
_cell_angle_alpha 119.057334
_cell_angle_beta 140.392971
_cell_angle_gamma 30.481282
_cell_volume 767.792474
_symmetry_space_group_name_H-M "P -1"
_symmetry_group_IT_number 2
_symmetry_cell_setting 'triclinic'
loop_
_space_group_symop_operation_xyz
x,y,z
-x,-y,-z
loop_
_atom_site_type_symbol
_atom_site_label
_atom_site_fract_x
_atom_site_fract_y
_atom_site_fract_z
Si Si1 0.588709 0.704758 0.894881
Si Si2 0.375137 0.848714 0.965189
Si Si3 0.329268 0.697017 0.013554
Si Si4 0.017355 0.357643 0.547497
Si Si5 0.589071 0.827156 0.210637
Si Si6 0.578848 0.372780 0.426244
Si Si7 0.981030 0.131824 0.253032
O O1 0.424447 0.784350 0.676375
O O2 0.552637 0.872316 0.839047
O O3 0.572485 0.774922 0.036690
O O4 0.813901 0.375881 0.036304
O O5 0.497413 0.599569 0.940782
O O6 0.279679 0.885839 0.955615
O O7 0.523517 0.791230 0.191620
O O8 0.207820 0.137211 0.797015
O O9 0.428125 0.624680 0.240721
O O10 0.118651 0.869471 0.814620
O O11 0.814276 0.606179 0.453023
O O12 0.000000 0.500000 0.500000
O O13 0.033160 0.193446 0.436534
O O14 0.500000 0.500000 0.500000
O O15 0.805283 0.163791 0.640810
#
# Coordination Sequence:
#
# PCOD8031676 Si02
#       7
#     2   2   2   2   2   2   2
#     4   9  18  31  50  79 105 132 169 211 263 298
#     4  11  19  33  49  76 113 138 163 208 256 317
#     4  10  22  33  49  75 108 140 171 203 260 312
#     4  11  19  27  51  78 106 138 168 204 260 312
#     4  10  17  31  50  76 110 134 161 212 256 311
#     4  11  21  36  54  74 102 136 181 220 249 299
#     4  10  18  33  49  75 104 135 171 211 256 306
#
# _framework density 18.234093000000001
#
# number of rings (size 3 to 8) (size 9 to 14) (size 15 to 20)
#    0.000    1.714    5.714    3.429    0.000    4.000 
#    0.000    0.000    0.000    0.857    0.000    8.000 
#    0.000    0.000    0.000    0.000    0.000    0.000 
#
# Total GULP energy -173435.537124 kJ/mol
# GULP energy per Si atom -12388.252652 kJ/mol
# Density = 1.819259 g / cm^3
# Si number density = 18.234093 Si / 1000 Ang^3
#
#
#
# Elastic Constant Matrix: (Units=GPa)
#
#
# Indices 1 2 3 4 5 6 
#
# 1 132.7068 42.8604 53.1612 -15.0157 19.3502 13.4482
# 2 42.8604 36.7328 25.9146 -12.5196 5.1759 3.0906
# 3 53.1612 25.9146 84.3884 -20.4737 20.8247 -3.4469
# 4 -15.0157 -12.5196 -20.4737 21.1431 -2.6855 -0.7763
# 5 19.3502 5.1759 20.8247 -2.6855 33.4184 -2.9604
# 6 13.4482 3.0906 -3.4469 -0.7763 -2.9604 27.8295
#
#
#
# Elastic Compliance Matrix: (Units=1/GPa)
#
#
# Indices 1 2 3 4 5 6 
#
# 1 0.015047 -0.013794 -0.005337 -0.003430 -0.004141 -0.006936
# 2 -0.013794 0.051224 -0.003696 0.017502 0.003889 0.001421
# 3 -0.005337 -0.003696 0.022223 0.014648 -0.008544 0.005242
# 4 -0.003430 0.017502 0.014648 0.069007 -0.004040 0.003023
# 5 -0.004141 0.003889 -0.008544 -0.004040 0.037104 0.004345
# 6 -0.006936 0.001421 0.005242 0.003023 0.004345 0.040323
#
#
# Mechanical properties :
#
#
# Convention : Reuss Voigt Hill
#
# Bulk Modulus (GPa) = 23.34211 55.30006 39.32108
# Shear Modulus (GPa) = 16.95714 25.27098 21.11406
#
# Velocity S-wave (km/s) = 3.05285 3.72683 3.40655
# Velocity P-wave (km/s) = 5.02550 6.99376 6.08968
#
# Compressibility (1/GPa) = 0.04284103
#
# Stress axis : x y z
#
# Youngs Moduli (GPa) = 66.45923 19.52216 44.99783
#
# Poissons Ratio (x) = 0.26929 0.24014
# Poissons Ratio (y) = 0.91673 0.16631
# Poissons Ratio (z) = 0.35467 0.07215
#
# Static dielectric constant tensor:
#      x y z
#    x 3.502800 0.255030 0.312580 
#    y 0.255030 3.135690 -0.309910 
#    z 0.312580 -0.309910 3.618890 
# 
# 
# High freq. dielectric constant tensor:
#      x y z
#    x 1.692800 0.026960 0.034980 
#    y 0.026960 1.666710 -0.026520 
#    z 0.034980 -0.026520 1.707730 
# 
# From -- ./inp_files/431403.got.cif
#   From: 2010.06.25/outbox.cif.g09.slc.cpg/sg2_216_cif.got.tgz:431403.got - 2010.06.27 13:26:56.
