data_PCOD8031226
_publ_section_title
;
Structure prediction by ZEFSAII (Michael W. Deem and Ramdas Pophale) SiO2 
 PCOD8031226
Probable space group: P -1
;
_chemical_formula_sum "Si O2"
_cell_formula_units_Z 12
_cell_length_a 8.928852
_cell_length_b 11.342745
_cell_length_c 8.665502
_cell_angle_alpha 58.344516
_cell_angle_beta 49.697258
_cell_angle_gamma 91.028260
_cell_volume 475.606426
_symmetry_space_group_name_H-M "P -1"
_symmetry_group_IT_number 2
_symmetry_cell_setting 'triclinic'
loop_
_space_group_symop_operation_xyz
x,y,z
-x,-y,-z
loop_
_atom_site_type_symbol
_atom_site_label
_atom_site_fract_x
_atom_site_fract_y
_atom_site_fract_z
Si Si1 0.255570 0.831040 0.276602
Si Si2 0.494327 0.639531 0.563931
Si Si3 0.196382 0.497994 0.580331
Si Si4 0.324929 0.761229 0.856425
Si Si5 0.876566 0.970804 0.941225
Si Si6 0.773899 0.059406 0.459967
O O1 0.265654 0.672915 0.340832
O O2 0.149147 0.820097 0.526455
O O3 0.122570 0.863851 0.206553
O O4 0.500000 0.000000 0.000000
O O5 0.255957 0.510408 0.716541
O O6 0.652051 0.566942 0.551250
O O7 0.433652 0.678264 0.742581
O O8 0.622069 0.799985 0.252814
O O9 0.920282 0.379136 0.807465
O O10 0.262942 0.864548 0.718709
O O11 0.522011 0.879900 0.772431
O O12 0.009475 0.956769 0.715276
O O13 0.000000 0.000000 0.000000
#
# Coordination Sequence:
#
# PCOD8031226 Si02
#       6
#     2   2   2   2   2   2
#     4  12  26  46  69 109 143 185 243 296 352 420
#     4  11  22  42  73 105 139 190 237 287 357 425
#     4  11  24  42  72 105 144 187 237 296 349 425
#     4  11  22  42  74 105 142 189 238 285 360 425
#     4  12  24  47  75 103 142 191 240 292 361 424
#     4  11  24  43  73 107 143 187 238 294 349 430
#
# _framework density 25.230947
#
# number of rings (size 3 to 8) (size 9 to 14) (size 15 to 20)
#    0.000    0.667    6.667    1.000    2.333    0.000 
#    3.000    4.167    0.000    0.000    0.000    0.000 
#    0.000    0.000    0.000    0.000    0.000    0.000 
#
# Total GULP energy -148746.932826 kJ/mol
# GULP energy per Si atom -12395.577735 kJ/mol
# Density = 2.517352 g / cm^3
# Si number density = 25.230947 Si / 1000 Ang^3
#
#
#
# Elastic Constant Matrix: (Units=GPa)
#
#
# Indices 1 2 3 4 5 6 
#
# 1 84.3159 31.2930 20.3435 -2.1851 4.9691 -18.0589
# 2 31.2930 115.5904 22.3020 -11.0763 -3.4233 -38.6967
# 3 20.3435 22.3020 80.6919 -10.8813 -15.2278 -19.2160
# 4 -2.1851 -11.0763 -10.8813 27.1556 -5.6387 0.2652
# 5 4.9691 -3.4233 -15.2278 -5.6387 37.2755 -5.7657
# 6 -18.0589 -38.6967 -19.2160 0.2652 -5.7657 58.0027
#
#
#
# Elastic Compliance Matrix: (Units=1/GPa)
#
#
# Indices 1 2 3 4 5 6 
#
# 1 0.014265 -0.003296 -0.003604 -0.002467 -0.003946 0.000667
# 2 -0.003296 0.012832 0.000841 0.006087 0.004150 0.008198
# 3 -0.003604 0.000841 0.017723 0.009203 0.010161 0.006278
# 4 -0.002467 0.006087 0.009203 0.045352 0.012651 0.007392
# 5 -0.003946 0.004150 0.010161 0.012651 0.035089 0.008337
# 6 0.000667 0.008198 0.006278 0.007392 0.008337 0.025792
#
#
# Mechanical properties :
#
#
# Convention : Reuss Voigt Hill
#
# Bulk Modulus (GPa) = 30.58034 47.60839 39.09436
# Shear Modulus (GPa) = 28.72390 38.26409 33.49399
#
# Velocity S-wave (km/s) = 3.37774 3.89852 3.64744
# Velocity P-wave (km/s) = 5.23055 6.25896 5.76772
#
# Compressibility (1/GPa) = 0.03270075
#
# Stress axis : x y z
#
# Youngs Moduli (GPa) = 70.10352 77.92955 56.42488
#
# Poissons Ratio (x) = 0.25688 0.20334
# Poissons Ratio (y) = 0.23109 -0.04744
# Poissons Ratio (z) = 0.25264 -0.06553
#
# Static dielectric constant tensor:
#      x y z
#    x 3.653300 1.296400 -0.872300 
#    y 1.296400 4.264940 0.106600 
#    z -0.872300 0.106600 4.800140 
# 
# 
# High freq. dielectric constant tensor:
#      x y z
#    x 2.005710 -0.004620 -0.012270 
#    y -0.004620 2.021430 0.002280 
#    z -0.012270 0.002280 1.989040 
# 
# From -- ./inp_files/166854.got.cif
#   From: 2010.06.25/outbox.cif.g09.slc.cpg/sg2_84_cif.got.tgz:166854.got - 2010.06.27 13:26:56.
