data_PCOD8031859
_publ_section_title
;
Structure prediction by ZEFSAII (Michael W. Deem and Ramdas Pophale) SiO2 
 PCOD8031859
Probable space group: P -1
;
_chemical_formula_sum "Si O2"
_cell_formula_units_Z 16
_cell_length_a 8.286548
_cell_length_b 11.313702
_cell_length_c 9.592523
_cell_angle_alpha 120.087334
_cell_angle_beta 81.027994
_cell_angle_gamma 118.508585
_cell_volume 679.670853
_symmetry_space_group_name_H-M "P -1"
_symmetry_group_IT_number 2
_symmetry_cell_setting 'triclinic'
loop_
_space_group_symop_operation_xyz
x,y,z
-x,-y,-z
loop_
_atom_site_type_symbol
_atom_site_label
_atom_site_fract_x
_atom_site_fract_y
_atom_site_fract_z
Si Si1 0.482912 0.948552 0.629529
Si Si2 0.924750 0.624606 0.099854
Si Si3 0.494200 0.131464 0.989133
Si Si4 0.339723 0.553988 0.756884
Si Si5 0.863098 0.868656 0.846224
Si Si6 0.781729 0.391950 0.482422
Si Si7 0.113997 0.982043 0.345009
Si Si8 0.715113 0.566301 0.811370
O O1 0.297657 0.793934 0.610785
O O2 0.500000 0.000000 0.500000
O O3 0.475248 0.085036 0.802256
O O4 0.665356 0.928586 0.615025
O O5 0.833737 0.596487 0.248658
O O6 0.065650 0.808367 0.196728
O O7 0.770390 0.591214 0.981097
O O8 0.000000 0.500000 0.000000
O O9 0.674111 0.297134 0.086332
O O10 0.338047 0.163123 0.097315
O O11 0.500000 0.000000 0.000000
O O12 0.325104 0.561716 0.595784
O O13 0.513651 0.543917 0.792080
O O14 0.869401 0.710001 0.784756
O O15 0.922145 0.920868 0.711947
O O16 0.000000 0.000000 0.000000
O O17 0.724811 0.418837 0.660418
O O18 0.000000 0.500000 0.500000
O O19 0.000000 0.000000 0.500000
#
# Coordination Sequence:
#
# PCOD8031859 Si02
#       8
#     2   2   2   2   2   2   2   2
#     4  12  29  46  73 111 154 196 251 316 382 450
#     4  12  27  46  74 111 148 195 251 312 382 459
#     4  11  22  47  75  99 140 196 251 306 373 448
#     4  11  25  45  74 101 146 194 248 307 373 450
#     4  11  24  45  75 102 138 194 252 307 368 456
#     4  12  28  46  73 109 148 199 247 313 378 451
#     4  12  29  48  75 113 157 197 252 320 387 453
#     4  11  26  46  74 103 145 192 251 304 380 453
#
# _framework density 23.540804999999999
#
# number of rings (size 3 to 8) (size 9 to 14) (size 15 to 20)
#    0.000    0.500    3.750    3.000   12.250    0.000 
#    0.000    0.000    0.000    0.000    0.000    0.000 
#    0.000    0.000    0.000    0.000    0.000    0.000 
#
# Total GULP energy -198209.313652 kJ/mol
# GULP energy per Si atom -12388.082103 kJ/mol
# Density = 2.348723 g / cm^3
# Si number density = 23.540805 Si / 1000 Ang^3
#
#
#
# Elastic Constant Matrix: (Units=GPa)
#
#
# Indices 1 2 3 4 5 6 
#
# 1 75.9123 18.5197 13.6088 2.7802 12.1871 3.5643
# 2 18.5197 103.6701 18.6658 -13.3836 7.3499 11.1355
# 3 13.6088 18.6658 124.3069 -17.0578 0.8342 0.2363
# 4 2.7802 -13.3836 -17.0578 50.8290 -5.4969 4.5793
# 5 12.1871 7.3499 0.8342 -5.4969 40.1324 -0.7774
# 6 3.5643 11.1355 0.2363 4.5793 -0.7774 34.1028
#
#
#
# Elastic Compliance Matrix: (Units=1/GPa)
#
#
# Indices 1 2 3 4 5 6 
#
# 1 0.014834 -0.002300 -0.001573 -0.002368 -0.004386 -0.000570
# 2 -0.002300 0.011094 -0.000996 0.002948 -0.000982 -0.003793
# 3 -0.001573 -0.000996 0.008751 0.002849 0.000870 0.000066
# 4 -0.002368 0.002948 0.002849 0.022198 0.003090 -0.003645
# 5 -0.004386 -0.000982 0.000870 0.003090 0.026853 0.000970
# 6 -0.000570 -0.003793 0.000066 -0.003645 0.000970 0.031133
#
#
# Mechanical properties :
#
#
# Convention : Reuss Voigt Hill
#
# Bulk Modulus (GPa) = 40.09393 45.05308 42.57351
# Shear Modulus (GPa) = 37.61818 41.88584 39.75201
#
# Velocity S-wave (km/s) = 4.00183 4.22274 4.11377
# Velocity P-wave (km/s) = 6.19851 6.55402 6.37874
#
# Compressibility (1/GPa) = 0.02494143
#
# Stress axis : x y z
#
# Youngs Moduli (GPa) = 67.41320 90.13982 114.26901
#
# Poissons Ratio (x) = 0.20734 0.17974
# Poissons Ratio (y) = 0.15506 0.11377
# Poissons Ratio (z) = 0.10604 0.08975
#
# Static dielectric constant tensor:
#      x y z
#    x 3.944020 0.393980 0.321860 
#    y 0.393980 4.160530 -0.179400 
#    z 0.321860 -0.179400 4.221950 
# 
# 
# High freq. dielectric constant tensor:
#      x y z
#    x 1.920850 0.003150 0.007250 
#    y 0.003150 1.952720 0.002280 
#    z 0.007250 0.002280 1.942050 
# 
# From -- ./inp_files/190010.got.cif
#   From: 2010.06.25/outbox.cif.g09.slc.cpg/sg2_96_cif.got.tgz:190010.got - 2010.06.27 13:26:56.
