data_PCOD8031536
_publ_section_title
;
Structure prediction by ZEFSAII (Michael W. Deem and Ramdas Pophale) SiO2 
 PCOD8031536
Probable space group: P -1
;
_chemical_formula_sum "Si O2"
_cell_formula_units_Z 16
_cell_length_a 11.964850
_cell_length_b 8.662960
_cell_length_c 15.706313
_cell_angle_alpha 80.906187
_cell_angle_beta 151.027132
_cell_angle_gamma 110.377854
_cell_volume 699.657043
_symmetry_space_group_name_H-M "P -1"
_symmetry_group_IT_number 2
_symmetry_cell_setting 'triclinic'
loop_
_space_group_symop_operation_xyz
x,y,z
-x,-y,-z
loop_
_atom_site_type_symbol
_atom_site_label
_atom_site_fract_x
_atom_site_fract_y
_atom_site_fract_z
Si Si1 0.716442 0.746947 0.449753
Si Si2 0.588590 0.144559 0.209648
Si Si3 0.979614 0.988955 0.088633
Si Si4 0.481569 0.222404 0.853138
Si Si5 0.035281 0.869250 0.414055
Si Si6 0.587697 0.705906 0.552569
Si Si7 0.129877 0.611640 0.766808
Si Si8 0.133423 0.763498 0.320438
O O1 0.505382 0.683314 0.238219
O O2 0.588334 0.764278 0.450737
O O3 0.868451 0.629440 0.571710
O O4 0.912407 0.939823 0.533031
O O5 0.811149 0.216474 0.422922
O O6 0.656991 0.297826 0.172296
O O7 0.593727 0.980229 0.182024
O O8 0.315136 0.087327 0.075002
O O9 0.143018 0.177124 0.228437
O O10 0.063648 0.837853 0.182708
O O11 0.000000 0.000000 0.000000
O O12 0.269581 0.248406 0.768268
O O13 0.760171 0.308171 0.074629
O O14 0.150111 0.900693 0.392189
O O15 0.500000 0.500000 0.500000
O O16 0.388470 0.743198 0.473181
O O17 0.074488 0.412432 0.758839
#
# Coordination Sequence:
#
# PCOD8031536 Si02
#       8
#     2   2   2   2   2   2   2   2
#     4  11  22  45  69 102 139 187 242 297 360 433
#     4  11  23  43  74 105 142 188 241 301 368 434
#     4  12  28  48  73 108 147 194 246 306 374 437
#     4  11  23  39  74 107 138 189 243 297 365 433
#     4  11  22  44  71 104 140 187 239 297 370 432
#     4  12  26  48  75  99 145 196 247 298 368 444
#     4  12  24  44  70 109 146 182 244 301 365 439
#     4  12  28  45  69 105 145 194 240 303 371 433
#
# _framework density 22.868345999999999
#
# number of rings (size 3 to 8) (size 9 to 14) (size 15 to 20)
#    0.000    0.500    5.000    3.750    3.500    3.500 
#    2.250    1.250    0.000    0.000    0.000    0.000 
#    0.000    0.000    0.000    0.000    0.000    0.000 
#
# Total GULP energy -198255.833054 kJ/mol
# GULP energy per Si atom -12390.989566 kJ/mol
# Density = 2.281630 g / cm^3
# Si number density = 22.868346 Si / 1000 Ang^3
#
#
#
# Elastic Constant Matrix: (Units=GPa)
#
#
# Indices 1 2 3 4 5 6 
#
# 1 114.7963 25.1905 20.4616 -6.5424 -5.7912 14.3775
# 2 25.1905 122.9796 34.3336 -11.7783 -3.6619 19.4245
# 3 20.4616 34.3336 71.0113 -22.6560 -10.3006 19.3356
# 4 -6.5424 -11.7783 -22.6560 21.6971 10.8531 1.1209
# 5 -5.7912 -3.6619 -10.3006 10.8531 40.7756 -12.6803
# 6 14.3775 19.4245 19.3356 1.1209 -12.6803 33.4154
#
#
#
# Elastic Compliance Matrix: (Units=1/GPa)
#
#
# Indices 1 2 3 4 5 6 
#
# 1 0.009582 -0.001051 -0.000853 0.001817 -0.000442 -0.003247
# 2 -0.001051 0.010141 -0.001982 0.004758 -0.002711 -0.005484
# 3 -0.000853 -0.001982 0.031802 0.037452 -0.008928 -0.021527
# 4 0.001817 0.004758 0.037452 0.105683 -0.030531 -0.040350
# 5 -0.000442 -0.002711 -0.008928 -0.030531 0.036920 0.021967
# 6 -0.003247 -0.005484 -0.021527 -0.040350 0.021967 0.056657
#
#
# Mechanical properties :
#
#
# Convention : Reuss Voigt Hill
#
# Bulk Modulus (GPa) = 22.85613 52.08430 37.47021
# Shear Modulus (GPa) = 18.30545 34.43106 26.36826
#
# Velocity S-wave (km/s) = 2.83233 3.88444 3.39934
# Velocity P-wave (km/s) = 4.55110 6.55314 5.64164
#
# Compressibility (1/GPa) = 0.04375194
#
# Stress axis : x y z
#
# Youngs Moduli (GPa) = 104.36640 98.60636 31.44451
#
# Poissons Ratio (x) = 0.10361 0.02683
# Poissons Ratio (y) = 0.10966 0.06234
# Poissons Ratio (z) = 0.08906 0.19548
#
# Static dielectric constant tensor:
#      x y z
#    x 4.151240 0.170400 -0.183170 
#    y 0.170400 4.255700 -0.108290 
#    z -0.183170 -0.108290 4.336760 
# 
# 
# High freq. dielectric constant tensor:
#      x y z
#    x 1.914950 0.009530 -0.005110 
#    y 0.009530 1.896560 -0.011290 
#    z -0.005110 -0.011290 1.897170 
# 
# From -- ./inp_files/272975.got.cif
#   From: 2010.06.25/outbox.cif.g09.slc.cpg/sg2_137_cif.got.tgz:272975.got - 2010.06.27 13:26:56.
