data_PCOD8031168
_publ_section_title
;
Structure prediction by ZEFSAII (Michael W. Deem and Ramdas Pophale) SiO2 
 PCOD8031168
Probable space group: P -1
;
_chemical_formula_sum "Si O2"
_cell_formula_units_Z 14
_cell_length_a 11.599094
_cell_length_b 5.147496
_cell_length_c 21.220384
_cell_angle_alpha 109.121011
_cell_angle_beta 145.630631
_cell_angle_gamma 58.729435
_cell_volume 597.827710
_symmetry_space_group_name_H-M "P -1"
_symmetry_group_IT_number 2
_symmetry_cell_setting 'triclinic'
loop_
_space_group_symop_operation_xyz
x,y,z
-x,-y,-z
loop_
_atom_site_type_symbol
_atom_site_label
_atom_site_fract_x
_atom_site_fract_y
_atom_site_fract_z
Si Si1 0.922987 0.529841 0.152621
Si Si2 0.695647 0.892888 0.526680
Si Si3 0.230667 0.997274 0.978076
Si Si4 0.403415 0.083462 0.286579
Si Si5 0.540111 0.095462 0.207922
Si Si6 0.832523 0.268534 0.899755
Si Si7 0.016252 0.755420 0.339039
O O1 0.825819 0.284546 0.081694
O O2 0.183249 0.403199 0.233193
O O3 0.928280 0.602251 0.233967
O O4 0.746255 0.855823 0.065815
O O5 0.840235 0.520705 0.568846
O O6 0.500000 0.000000 0.500000
O O7 0.596787 0.970997 0.418234
O O8 0.845357 0.077785 0.616606
O O9 0.017350 0.299739 0.939833
O O10 0.458930 0.868885 0.116059
O O11 0.514231 0.111781 0.272875
O O12 0.323435 0.823003 0.222414
O O13 0.349102 0.429081 0.120844
O O14 0.798880 0.015333 0.300079
O O15 0.000000 0.000000 0.000000
#
# Coordination Sequence:
#
# PCOD8031168 Si02
#       7
#     2   2   2   2   2   2   2
#     4  11  24  44  72 107 137 195 246 286 351 439
#     4  12  28  51  78 103 139 196 257 298 357 437
#     4  11  23  41  73 104 144 191 242 282 350 444
#     4  11  25  42  77 102 143 192 247 298 358 426
#     4  12  26  44  71 111 157 182 237 306 374 420
#     4  11  22  42  70 109 144 195 237 287 355 444
#     4  12  30  48  74 109 147 190 244 312 364 418
#
# _framework density 23.418116999999999
#
# number of rings (size 3 to 8) (size 9 to 14) (size 15 to 20)
#    0.000    0.571    4.286    3.429    6.000    2.286 
#    0.000    0.000    0.000    0.000    0.000    0.000 
#    0.000    0.000    0.000    0.000    0.000    0.000 
#
# Total GULP energy -173516.130325 kJ/mol
# GULP energy per Si atom -12394.009309 kJ/mol
# Density = 2.336482 g / cm^3
# Si number density = 23.418117 Si / 1000 Ang^3
#
#
#
# Elastic Constant Matrix: (Units=GPa)
#
#
# Indices 1 2 3 4 5 6 
#
# 1 131.4553 53.3407 63.0466 -13.2925 3.4359 -4.0983
# 2 53.3407 96.8134 47.2832 -16.7423 11.0044 14.3685
# 3 63.0466 47.2832 111.2758 -0.5863 -11.5580 -1.7776
# 4 -13.2925 -16.7423 -0.5863 29.1701 1.8720 -5.5454
# 5 3.4359 11.0044 -11.5580 1.8720 47.1501 -5.9359
# 6 -4.0983 14.3685 -1.7776 -5.5454 -5.9359 38.2936
#
#
#
# Elastic Compliance Matrix: (Units=1/GPa)
#
#
# Indices 1 2 3 4 5 6 
#
# 1 0.012218 -0.003700 -0.005404 0.003949 -0.001151 0.002839
# 2 -0.003700 0.019083 -0.006839 0.008104 -0.007166 -0.007811
# 3 -0.005404 -0.006839 0.015635 -0.005944 0.006417 0.002847
# 4 0.003949 0.008104 -0.005944 0.041375 -0.004986 0.002325
# 5 -0.001151 -0.007166 0.006417 -0.004986 0.025503 0.006095
# 6 0.002839 -0.007811 0.002847 0.002325 0.006095 0.030762
#
#
# Mechanical properties :
#
#
# Convention : Reuss Voigt Hill
#
# Bulk Modulus (GPa) = 66.44090 74.09840 70.26965
# Shear Modulus (GPa) = 27.55154 34.64769 31.09962
#
# Velocity S-wave (km/s) = 3.43374 3.85063 3.64815
# Velocity P-wave (km/s) = 6.64485 7.17496 6.91498
#
# Compressibility (1/GPa) = 0.01505097
#
# Stress axis : x y z
#
# Youngs Moduli (GPa) = 81.84615 52.40259 63.96009
#
# Poissons Ratio (x) = 0.19390 0.34561
# Poissons Ratio (y) = 0.30285 0.43740
# Poissons Ratio (z) = 0.44226 0.35836
#
# Static dielectric constant tensor:
#      x y z
#    x 4.734700 -0.132240 -0.080760 
#    y -0.132240 4.259540 0.084140 
#    z -0.080760 0.084140 4.384920 
# 
# 
# High freq. dielectric constant tensor:
#      x y z
#    x 1.926140 0.005860 -0.008800 
#    y 0.005860 1.921540 0.004800 
#    z -0.008800 0.004800 1.933710 
# 
# From -- ./inp_files/592814.got.cif
#   From: 2010.06.25/outbox.cif.g09.slc.cpg/sg2_297_cif.got.tgz:592814.got - 2010.06.27 13:26:56.
