data_PCOD8031743
_publ_section_title
;
Structure prediction by ZEFSAII (Michael W. Deem and Ramdas Pophale) SiO2 
 PCOD8031743
Probable space group: P -1
;
_chemical_formula_sum "Si O2"
_cell_formula_units_Z 14
_cell_length_a 11.489980
_cell_length_b 8.316920
_cell_length_c 9.534082
_cell_angle_alpha 132.626021
_cell_angle_beta 109.040131
_cell_angle_gamma 63.051032
_cell_volume 597.315216
_symmetry_space_group_name_H-M "P -1"
_symmetry_group_IT_number 2
_symmetry_cell_setting 'triclinic'
loop_
_space_group_symop_operation_xyz
x,y,z
-x,-y,-z
loop_
_atom_site_type_symbol
_atom_site_label
_atom_site_fract_x
_atom_site_fract_y
_atom_site_fract_z
Si Si1 0.630452 0.114191 0.973683
Si Si2 0.646207 0.950038 0.570372
Si Si3 0.201678 0.019687 0.586899
Si Si4 0.964290 0.155121 0.401014
Si Si5 0.334444 0.257689 0.997851
Si Si6 0.095309 0.628117 0.052986
Si Si7 0.188617 0.575886 0.743442
O O1 0.478019 0.264492 0.022389
O O2 0.662678 0.025758 0.777214
O O3 0.717386 0.269206 0.139040
O O4 0.666526 0.885095 0.946970
O O5 0.705666 0.099830 0.578297
O O6 0.726784 0.682194 0.417346
O O7 0.500000 0.000000 0.500000
O O8 0.280324 0.150251 0.783324
O O9 0.067172 0.206885 0.579209
O O10 0.166438 0.829844 0.554093
O O11 0.926511 0.333183 0.363451
O O12 0.032560 0.897142 0.217614
O O13 0.233983 0.519412 0.125931
O O14 0.119346 0.595038 0.876674
O O15 0.000000 0.500000 0.000000
#
# Coordination Sequence:
#
# PCOD8031743 Si02
#       7
#     2   2   2   2   2   2   2
#     4  11  25  46  73 101 139 178 229 288 335 406
#     4  12  25  45  71 101 139 179 223 285 348 399
#     4  11  22  46  65  97 141 175 229 278 338 406
#     4  11  25  41  70  97 138 181 227 287 331 407
#     4  11  23  47  69  98 141 181 224 281 345 404
#     4  12  22  42  68  97 140 183 220 279 347 402
#     4  12  25  45  70 107 135 176 239 278 335 415
#
# _framework density 23.438210999999999
#
# number of rings (size 3 to 8) (size 9 to 14) (size 15 to 20)
#    0.000    0.571    5.714    1.286    0.000    7.429 
#    2.571    3.571    0.000    0.000    0.000    0.000 
#    0.000    0.000    0.000    0.000    0.000    0.000 
#
# Total GULP energy -173547.747288 kJ/mol
# GULP energy per Si atom -12396.267663 kJ/mol
# Density = 2.338486 g / cm^3
# Si number density = 23.438211 Si / 1000 Ang^3
#
#
#
# Elastic Constant Matrix: (Units=GPa)
#
#
# Indices 1 2 3 4 5 6 
#
# 1 131.9261 33.6704 13.2533 -11.7948 -19.7639 6.4394
# 2 33.6704 118.2144 18.6578 -16.5232 -23.8829 -20.6844
# 3 13.2533 18.6578 65.0927 -7.2255 -13.4841 -2.3838
# 4 -11.7948 -16.5232 -7.2255 39.7835 -4.8221 -0.3141
# 5 -19.7639 -23.8829 -13.4841 -4.8221 44.8769 -6.9109
# 6 6.4394 -20.6844 -2.3838 -0.3141 -6.9109 26.4484
#
#
#
# Elastic Compliance Matrix: (Units=1/GPa)
#
#
# Indices 1 2 3 4 5 6 
#
# 1 0.008895 -0.002373 -0.000624 0.001767 0.002117 -0.003504
# 2 -0.002373 0.014581 -0.000470 0.006534 0.009508 0.014501
# 3 -0.000624 -0.000470 0.017239 0.003434 0.005455 0.002804
# 4 0.001767 0.006534 0.003434 0.030242 0.009753 0.007897
# 5 0.002117 0.009508 0.005455 0.009753 0.033469 0.016274
# 6 -0.003504 0.014501 0.002804 0.007897 0.016274 0.054602
#
#
# Mechanical properties :
#
#
# Convention : Reuss Voigt Hill
#
# Bulk Modulus (GPa) = 29.60485 49.59957 39.60221
# Shear Modulus (GPa) = 28.21328 38.86520 33.53924
#
# Velocity S-wave (km/s) = 3.47325 4.07652 3.78691
# Velocity P-wave (km/s) = 5.36125 6.58522 6.00450
#
# Compressibility (1/GPa) = 0.03377824
#
# Stress axis : x y z
#
# Youngs Moduli (GPa) = 112.42840 68.58295 58.00958
#
# Poissons Ratio (x) = 0.16277 0.03622
# Poissons Ratio (y) = 0.26683 0.02727
# Poissons Ratio (z) = 0.07020 0.03224
#
# Static dielectric constant tensor:
#      x y z
#    x 4.829270 0.052500 -0.161840 
#    y 0.052500 4.370340 -0.011200 
#    z -0.161840 -0.011200 4.300810 
# 
# 
# High freq. dielectric constant tensor:
#      x y z
#    x 1.954640 0.006880 -0.002230 
#    y 0.006880 1.927070 -0.017820 
#    z -0.002230 -0.017820 1.932110 
# 
# From -- ./inp_files/246112.got.cif
#   From: 2010.06.25/outbox.cif.g09.slc.cpg/sg2_124_cif.got.tgz:246112.got - 2010.06.27 13:26:56.
