data_PCOD8031113
_publ_section_title
;
Structure prediction by ZEFSAII (Michael W. Deem and Ramdas Pophale) SiO2 
 PCOD8031113
Probable space group: P -1
;
_chemical_formula_sum "Si O2"
_cell_formula_units_Z 12
_cell_length_a 11.964287
_cell_length_b 9.608836
_cell_length_c 12.105494
_cell_angle_alpha 37.087752
_cell_angle_beta 144.620970
_cell_angle_gamma 132.659019
_cell_volume 484.423924
_symmetry_space_group_name_H-M "P -1"
_symmetry_group_IT_number 2
_symmetry_cell_setting 'triclinic'
loop_
_space_group_symop_operation_xyz
x,y,z
-x,-y,-z
loop_
_atom_site_type_symbol
_atom_site_label
_atom_site_fract_x
_atom_site_fract_y
_atom_site_fract_z
Si Si1 0.572881 0.380243 0.805008
Si Si2 0.676016 0.456992 0.308123
Si Si3 0.629762 0.904677 0.760890
Si Si4 0.866292 0.187483 0.320129
Si Si5 0.041039 0.355648 0.765932
Si Si6 0.560576 0.846283 0.378344
O O1 0.412572 0.389744 0.765087
O O2 0.633197 0.626433 0.640225
O O3 0.488431 0.202364 0.757434
O O4 0.763974 0.287972 0.067812
O O5 0.500383 0.338441 0.169149
O O6 0.822982 0.617708 0.250345
O O7 0.817699 0.275869 0.600369
O O8 0.500000 0.000000 0.500000
O O9 0.626288 0.069030 0.761441
O O10 0.850601 0.838178 0.953858
O O11 0.976536 0.404562 0.334257
O O12 0.725187 0.057707 0.378959
O O13 0.000000 0.000000 0.500000
#
# Coordination Sequence:
#
# PCOD8031113 Si02
#       6
#     2   2   2   2   2   2
#     4  11  24  45  65  97 135 172 220 277 322 391
#     4  11  22  42  68  92 133 172 214 274 325 377
#     4  12  22  43  68  96 133 175 212 272 333 383
#     4  12  24  42  67  97 133 177 218 270 335 391
#     4  11  24  40  68 100 129 169 227 270 317 402
#     4  11  24  42  69  95 131 179 217 266 338 385
#
# _framework density 24.771691000000001
#
# number of rings (size 3 to 8) (size 9 to 14) (size 15 to 20)
#    0.000    0.667    5.000    3.000    0.000    4.000 
#    0.000    1.667    0.000    0.000    0.000    0.000 
#    0.000    0.000    0.000    0.000    0.000    0.000 
#
# Total GULP energy -148735.740054 kJ/mol
# GULP energy per Si atom -12394.645005 kJ/mol
# Density = 2.471531 g / cm^3
# Si number density = 24.771691 Si / 1000 Ang^3
#
#
#
# Elastic Constant Matrix: (Units=GPa)
#
#
# Indices 1 2 3 4 5 6 
#
# 1 70.5097 13.8558 13.1724 2.3696 9.1616 -40.2974
# 2 13.8558 75.5428 27.2768 3.0130 19.6563 -27.6020
# 3 13.1724 27.2768 154.8163 9.2076 24.4274 -16.0786
# 4 2.3696 3.0130 9.2076 32.6164 0.8288 11.9635
# 5 9.1616 19.6563 24.4274 0.8288 42.8091 -5.6409
# 6 -40.2974 -27.6020 -16.0786 11.9635 -5.6409 47.0294
#
#
#
# Elastic Compliance Matrix: (Units=1/GPa)
#
#
# Indices 1 2 3 4 5 6 
#
# 1 0.039471 0.011857 0.001907 -0.021071 -0.008541 0.045768
# 2 0.011857 0.023587 -0.000237 -0.012223 -0.009585 0.025882
# 3 0.001907 -0.000237 0.007681 -0.003881 -0.003997 0.004628
# 4 -0.021071 -0.012223 -0.003881 0.048210 0.006389 -0.038053
# 5 -0.008541 -0.009585 -0.003997 0.006389 0.030122 -0.012323
# 6 0.045768 0.025882 0.004628 -0.038053 -0.012323 0.085454
#
#
# Mechanical properties :
#
#
# Convention : Reuss Voigt Hill
#
# Bulk Modulus (GPa) = 10.22579 45.49766 27.86173
# Shear Modulus (GPa) = 20.82738 40.92857 30.87797
#
# Velocity S-wave (km/s) = 2.90275 4.06917 3.53441
# Velocity P-wave (km/s) = 3.92067 6.36272 5.28469
#
# Compressibility (1/GPa) = 0.09779192
#
# Stress axis : x y z
#
# Youngs Moduli (GPa) = 25.33512 42.39677 130.19146
#
# Poissons Ratio (x) = -0.50271 -0.24822
# Poissons Ratio (y) = -0.30041 0.03089
# Poissons Ratio (z) = -0.04830 0.01006
#
# Static dielectric constant tensor:
#      x y z
#    x 4.412520 0.158450 0.019290 
#    y 0.158450 5.578480 0.385390 
#    z 0.019290 0.385390 5.273860 
# 
# 
# High freq. dielectric constant tensor:
#      x y z
#    x 1.978530 -0.005800 -0.005650 
#    y -0.005800 1.987230 -0.007930 
#    z -0.005650 -0.007930 2.012720 
# 
# From -- ./inp_files/230956.got.cif
#   From: 2010.06.25/outbox.cif.g09.slc.cpg/sg2_116_cif.got.tgz:230956.got - 2010.06.27 13:26:56.
