data_PCOD8031594
_publ_section_title
;
Structure prediction by ZEFSAII (Michael W. Deem and Ramdas Pophale) SiO2 
 PCOD8031594
Probable space group: P -1
;
_chemical_formula_sum "Si O2"
_cell_formula_units_Z 16
_cell_length_a 11.245870
_cell_length_b 8.752323
_cell_length_c 9.550436
_cell_angle_alpha 64.315076
_cell_angle_beta 72.891792
_cell_angle_gamma 56.092456
_cell_volume 701.349493
_symmetry_space_group_name_H-M "P -1"
_symmetry_group_IT_number 2
_symmetry_cell_setting 'triclinic'
loop_
_space_group_symop_operation_xyz
x,y,z
-x,-y,-z
loop_
_atom_site_type_symbol
_atom_site_label
_atom_site_fract_x
_atom_site_fract_y
_atom_site_fract_z
Si Si1 0.881461 0.590151 0.721842
Si Si2 0.644412 0.201102 0.187464
Si Si3 0.847024 0.779080 0.951532
Si Si4 0.432536 0.863803 0.051617
Si Si5 0.427941 0.515537 0.665624
Si Si6 0.664737 0.853748 0.458394
Si Si7 0.092004 0.775088 0.013655
Si Si8 0.196240 0.449255 0.694209
O O1 0.832873 0.686663 0.851551
O O2 0.760771 0.744980 0.601385
O O3 0.889023 0.378238 0.807372
O O4 0.036395 0.566300 0.635366
O O5 0.550562 0.341686 0.292121
O O6 0.724873 0.981451 0.308855
O O7 0.542927 0.218513 0.084137
O O8 0.753420 0.272099 0.073045
O O9 0.737943 0.011665 0.907252
O O10 0.806645 0.681515 0.128254
O O11 0.008757 0.738549 0.929220
O O12 0.499753 0.696192 0.207543
O O13 0.500000 0.000000 0.000000
O O14 0.500000 0.500000 0.500000
O O15 0.257793 0.588545 0.670985
O O16 0.685145 0.688099 0.407363
O O17 0.500000 0.000000 0.500000
O O18 0.000000 0.000000 0.000000
#
# Coordination Sequence:
#
# PCOD8031594 Si02
#       8
#     2   2   2   2   2   2   2   2
#     4  11  26  43  77 103 136 195 237 287 360 425
#     4  12  25  46  69 103 143 182 232 302 352 417
#     4  11  22  44  74 102 133 184 243 285 345 435
#     4  12  25  45  73  99 140 195 240 283 355 433
#     4  12  27  44  67 106 148 182 234 302 361 412
#     4  12  27  46  69 102 146 191 240 285 350 434
#     4  11  22  45  72 107 138 174 240 303 351 413
#     4  11  22  49  68 100 141 187 238 287 348 437
#
# _framework density 22.813161999999998
#
# number of rings (size 3 to 8) (size 9 to 14) (size 15 to 20)
#    0.000    0.500    3.750    5.250    5.250    2.000 
#    2.250    1.250    0.000    0.000    0.000    0.000 
#    0.000    0.000    0.000    0.000    0.000    0.000 
#
# Total GULP energy -198377.581566 kJ/mol
# GULP energy per Si atom -12398.598848 kJ/mol
# Density = 2.276124 g / cm^3
# Si number density = 22.813162 Si / 1000 Ang^3
#
#
#
# Elastic Constant Matrix: (Units=GPa)
#
#
# Indices 1 2 3 4 5 6 
#
# 1 136.4253 36.0032 72.4330 -2.6450 12.7045 3.0374
# 2 36.0032 100.3306 55.0756 12.1944 16.8777 5.6760
# 3 72.4330 55.0756 134.0656 -2.6219 24.3522 3.8042
# 4 -2.6450 12.1944 -2.6219 52.3957 -3.0627 5.1335
# 5 12.7045 16.8777 24.3522 -3.0627 28.7575 3.4939
# 6 3.0374 5.6760 3.8042 5.1335 3.4939 39.7491
#
#
#
# Elastic Compliance Matrix: (Units=1/GPa)
#
#
# Indices 1 2 3 4 5 6 
#
# 1 0.010352 -0.000959 -0.005281 0.000540 0.000552 -0.000267
# 2 -0.000959 0.013995 -0.004506 -0.003720 -0.004293 -0.000636
# 3 -0.005281 -0.004506 0.013305 0.001068 -0.006197 0.000180
# 4 0.000540 -0.003720 0.001068 0.020490 0.003535 -0.002569
# 5 0.000552 -0.004293 -0.006197 0.003535 0.043048 -0.003076
# 6 -0.000267 -0.000636 0.000180 -0.002569 -0.003076 0.025854
#
#
# Mechanical properties :
#
#
# Convention : Reuss Voigt Hill
#
# Bulk Modulus (GPa) = 61.88269 77.53836 69.71052
# Shear Modulus (GPa) = 32.48381 38.00108 35.24245
#
# Velocity S-wave (km/s) = 3.77756 4.08579 3.93470
# Velocity P-wave (km/s) = 6.79790 7.50470 7.16002
#
# Compressibility (1/GPa) = 0.01615961
#
# Stress axis : x y z
#
# Youngs Moduli (GPa) = 96.59883 71.45396 75.16040
#
# Poissons Ratio (x) = 0.06853 0.39693
# Poissons Ratio (y) = 0.09265 0.33867
# Poissons Ratio (z) = 0.51015 0.32197
#
# Static dielectric constant tensor:
#      x y z
#    x 4.536260 -0.094100 0.185300 
#    y -0.094100 4.337570 0.092910 
#    z 0.185300 0.092910 4.072470 
# 
# 
# High freq. dielectric constant tensor:
#      x y z
#    x 1.908770 0.005620 0.003020 
#    y 0.005620 1.908240 0.006510 
#    z 0.003020 0.006510 1.896610 
# 
# From -- ./inp_files/190359.got.cif
#   From: 2010.06.25/outbox.cif.g09.slc.cpg/sg2_96_cif.got.tgz:190359.got - 2010.06.27 13:26:56.
