data_PCOD8031575
_publ_section_title
;
Structure prediction by ZEFSAII (Michael W. Deem and Ramdas Pophale) SiO2 
 PCOD8031575
Probable space group: P -1
;
_chemical_formula_sum "Si O2"
_cell_formula_units_Z 16
_cell_length_a 14.167105
_cell_length_b 21.948334
_cell_length_c 16.387779
_cell_angle_alpha 23.988338
_cell_angle_beta 33.861829
_cell_angle_gamma 20.008510
_cell_volume 694.224282
_symmetry_space_group_name_H-M "P -1"
_symmetry_group_IT_number 2
_symmetry_cell_setting 'triclinic'
loop_
_space_group_symop_operation_xyz
x,y,z
-x,-y,-z
loop_
_atom_site_type_symbol
_atom_site_label
_atom_site_fract_x
_atom_site_fract_y
_atom_site_fract_z
Si Si1 0.584872 0.102337 0.460098
Si Si2 0.776941 0.259413 0.793111
Si Si3 0.049970 0.573885 0.182322
Si Si4 0.950712 0.361800 0.408316
Si Si5 0.683411 0.199100 0.511945
Si Si6 0.527852 0.266440 0.824599
Si Si7 0.418095 0.106076 0.743985
Si Si8 0.036254 0.028777 0.253943
O O1 0.374234 0.311926 0.287032
O O2 0.405670 0.154228 0.598102
O O3 0.768660 0.109055 0.357627
O O4 0.770328 0.848974 0.589171
O O5 0.567610 0.510131 0.693655
O O6 0.551656 0.315777 0.837675
O O7 0.954356 0.242018 0.627168
O O8 0.000000 0.000000 0.000000
O O9 0.925103 0.546670 0.238203
O O10 0.886729 0.677459 0.259239
O O11 0.044484 0.744642 0.940684
O O12 0.700583 0.494447 0.362740
O O13 0.617181 0.077974 0.683090
O O14 0.700102 0.202848 0.593681
O O15 0.000000 0.000000 0.500000
O O16 0.844818 0.063122 0.810419
O O17 0.438603 0.156771 0.028526
#
# Coordination Sequence:
#
# PCOD8031575 Si02
#       8
#     2   2   2   2   2   2   2   2
#     4  12  25  42  67 104 151 185 233 300 362 422
#     4  12  27  45  73 108 148 189 238 300 370 426
#     4  11  25  44  70 102 142 188 241 290 362 429
#     4  12  24  47  74  99 143 192 240 295 358 432
#     4  12  24  45  72 105 143 187 244 298 353 430
#     4  11  24  47  76 101 138 189 246 286 361 436
#     4  11  25  44  72 102 143 188 241 296 363 417
#     4  11  22  44  73 101 133 192 241 289 350 436
#
# _framework density 23.047305999999999
#
# number of rings (size 3 to 8) (size 9 to 14) (size 15 to 20)
#    0.000    0.500    5.000    3.000    1.750    5.500 
#    2.250    0.000    0.000    0.000    0.000    0.000 
#    0.000    0.000    0.000    0.000    0.000    0.000 
#
# Total GULP energy -198361.510347 kJ/mol
# GULP energy per Si atom -12397.594397 kJ/mol
# Density = 2.299485 g / cm^3
# Si number density = 23.047306 Si / 1000 Ang^3
#
#
#
# Elastic Constant Matrix: (Units=GPa)
#
#
# Indices 1 2 3 4 5 6 
#
# 1 76.9552 13.4569 28.2140 -8.1241 1.6337 4.6411
# 2 13.4569 89.4908 33.2349 -10.7522 -0.4353 11.4851
# 3 28.2140 33.2349 107.8839 -5.0476 -0.4347 5.0312
# 4 -8.1241 -10.7522 -5.0476 29.8494 -6.6228 1.4483
# 5 1.6337 -0.4353 -0.4347 -6.6228 38.8331 -9.4918
# 6 4.6411 11.4851 5.0312 1.4483 -9.4918 35.1909
#
#
#
# Elastic Compliance Matrix: (Units=1/GPa)
#
#
# Indices 1 2 3 4 5 6 
#
# 1 0.014805 -0.000308 -0.003550 0.003285 -0.000500 -0.001614
# 2 -0.000308 0.013657 -0.003731 0.004374 -0.000131 -0.004099
# 3 -0.003550 -0.003731 0.011325 -0.000356 0.000207 0.000137
# 4 0.003285 0.004374 -0.000356 0.037292 0.005834 -0.001771
# 5 -0.000500 -0.000131 0.000207 0.005834 0.028615 0.007557
# 6 -0.001614 -0.004099 0.000137 -0.001771 0.007557 0.032059
#
#
# Mechanical properties :
#
#
# Convention : Reuss Voigt Hill
#
# Bulk Modulus (GPa) = 40.63739 47.12685 43.88212
# Shear Modulus (GPa) = 31.03003 34.06963 32.54983
#
# Velocity S-wave (km/s) = 3.67326 3.84897 3.76214
# Velocity P-wave (km/s) = 5.97168 6.34390 6.16060
#
# Compressibility (1/GPa) = 0.02460788
#
# Stress axis : x y z
#
# Youngs Moduli (GPa) = 67.54581 73.22030 88.30148
#
# Poissons Ratio (x) = 0.02258 0.31345
# Poissons Ratio (y) = 0.02083 0.32949
# Poissons Ratio (z) = 0.23977 0.27321
#
# Static dielectric constant tensor:
#      x y z
#    x 4.265010 0.110550 -0.075350 
#    y 0.110550 4.052770 0.004840 
#    z -0.075350 0.004840 4.256090 
# 
# 
# High freq. dielectric constant tensor:
#      x y z
#    x 1.914740 0.004080 -0.014870 
#    y 0.004080 1.908790 -0.003470 
#    z -0.014870 -0.003470 1.913290 
# 
# From -- ./inp_files/574401.got.cif
#   From: 2010.06.25/outbox.cif.g09.slc.cpg/sg2_288_cif.got.tgz:574401.got - 2010.06.27 13:26:56.
