data_PCOD8031489
_publ_section_title
;
Structure prediction by ZEFSAII (Michael W. Deem and Ramdas Pophale) SiO2 
 PCOD8031489
Probable space group: P -1
;
_chemical_formula_sum "Si O2"
_cell_formula_units_Z 16
_cell_length_a 17.742644
_cell_length_b 9.482833
_cell_length_c 8.682472
_cell_angle_alpha 103.932499
_cell_angle_beta 38.905121
_cell_angle_gamma 124.595417
_cell_volume 695.773906
_symmetry_space_group_name_H-M "P -1"
_symmetry_group_IT_number 2
_symmetry_cell_setting 'triclinic'
loop_
_space_group_symop_operation_xyz
x,y,z
-x,-y,-z
loop_
_atom_site_type_symbol
_atom_site_label
_atom_site_fract_x
_atom_site_fract_y
_atom_site_fract_z
Si Si1 0.941744 0.184277 0.363480
Si Si2 0.557863 0.616023 0.196908
Si Si3 0.400835 0.241658 0.517824
Si Si4 0.943981 0.604412 0.041272
Si Si5 0.360785 0.934753 0.308015
Si Si6 0.684225 0.417343 0.606723
Si Si7 0.937984 0.016674 0.914363
Si Si8 0.120866 0.239647 0.387935
O O1 0.763202 0.090404 0.619200
O O2 0.017002 0.241845 0.426417
O O3 0.957221 0.039783 0.207700
O O4 0.032800 0.377832 0.174138
O O5 0.482261 0.400846 0.297068
O O6 0.512910 0.680635 0.434357
O O7 0.481298 0.631793 0.169378
O O8 0.742285 0.752667 0.906328
O O9 0.406643 0.081772 0.406992
O O10 0.231812 0.166502 0.820521
O O11 0.768579 0.506599 0.332963
O O12 0.048772 0.812734 0.997447
O O13 0.000000 0.500000 0.000000
O O14 0.309092 0.749025 0.422855
O O15 0.500000 0.000000 0.000000
O O16 0.783947 0.567020 0.620255
O O17 0.998400 0.061455 0.647326
#
# Coordination Sequence:
#
# PCOD8031489 Si02
#       8
#     2   2   2   2   2   2   2   2
#     4  12  24  43  74 103 143 184 238 299 342 429
#     4  11  25  44  73 102 143 184 239 299 355 420
#     4  11  24  46  72 107 137 187 241 290 359 425
#     4  11  22  44  69 103 139 186 239 289 359 421
#     4  12  28  46  69 103 148 190 231 287 367 424
#     4  11  25  45  67 103 144 191 229 291 355 428
#     4  11  23  42  73 107 138 181 242 297 348 415
#     4  11  26  43  74 110 142 182 243 293 361 413
#
# _framework density 22.995975999999999
#
# number of rings (size 3 to 8) (size 9 to 14) (size 15 to 20)
#    0.000    0.750    3.750    2.625    7.000    1.000 
#    0.000    0.000    0.000    0.000    0.000    0.000 
#    0.000    0.000    0.000    0.000    0.000    0.000 
#
# Total GULP energy -198217.329886 kJ/mol
# GULP energy per Si atom -12388.583118 kJ/mol
# Density = 2.294364 g / cm^3
# Si number density = 22.995976 Si / 1000 Ang^3
#
#
#
# Elastic Constant Matrix: (Units=GPa)
#
#
# Indices 1 2 3 4 5 6 
#
# 1 128.4098 51.4825 36.8280 -2.0001 -7.1830 -12.0195
# 2 51.4825 88.8835 47.5351 2.2950 -0.5746 -11.5269
# 3 36.8280 47.5351 132.7737 -8.8852 -5.3562 1.1036
# 4 -2.0001 2.2950 -8.8852 37.8336 -3.3005 -0.0569
# 5 -7.1830 -0.5746 -5.3562 -3.3005 31.7339 -3.5059
# 6 -12.0195 -11.5269 1.1036 -0.0569 -3.5059 29.3548
#
#
#
# Elastic Compliance Matrix: (Units=1/GPa)
#
#
# Indices 1 2 3 4 5 6 
#
# 1 0.010572 -0.005322 -0.000886 0.000898 0.002525 0.002575
# 2 -0.005322 0.017783 -0.005172 -0.002699 -0.001505 0.004813
# 3 -0.000886 -0.005172 0.009887 0.002704 0.001369 -0.002597
# 4 0.000898 -0.002699 0.002704 0.027578 0.003443 -0.000329
# 5 0.002525 -0.001505 0.001369 0.003443 0.033126 0.004355
# 6 0.002575 0.004813 -0.002597 -0.000329 0.004355 0.037628
#
#
# Mechanical properties :
#
#
# Convention : Reuss Voigt Hill
#
# Bulk Modulus (GPa) = 64.59386 69.08423 66.83905
# Shear Modulus (GPa) = 30.39601 34.06588 32.23095
#
# Velocity S-wave (km/s) = 3.63960 3.85305 3.74784
# Velocity P-wave (km/s) = 6.76849 7.06412 6.91788
#
# Compressibility (1/GPa) = 0.01548135
#
# Stress axis : x y z
#
# Youngs Moduli (GPa) = 94.59074 56.23207 101.14438
#
# Poissons Ratio (x) = 0.29928 0.08966
# Poissons Ratio (y) = 0.50343 0.52310
# Poissons Ratio (z) = 0.08385 0.29082
#
# Static dielectric constant tensor:
#      x y z
#    x 4.252670 0.038300 0.320830 
#    y 0.038300 4.027840 -0.094830 
#    z 0.320830 -0.094830 4.777340 
# 
# 
# High freq. dielectric constant tensor:
#      x y z
#    x 1.902340 0.000540 0.009750 
#    y 0.000540 1.910780 -0.007770 
#    z 0.009750 -0.007770 1.933040 
# 
# From -- ./inp_files/329107.got.cif
#   From: 2010.06.25/outbox.cif.g09.slc.cpg/sg2_165_cif.got.tgz:329107.got - 2010.06.27 13:26:56.
