data_PCOD8031588
_publ_section_title
;
Structure prediction by ZEFSAII (Michael W. Deem and Ramdas Pophale) SiO2 
 PCOD8031588
Probable space group: P -1
;
_chemical_formula_sum "Si O2"
_cell_formula_units_Z 10
_cell_length_a 10.309821
_cell_length_b 10.884127
_cell_length_c 9.119730
_cell_angle_alpha 92.356009
_cell_angle_beta 64.173066
_cell_angle_gamma 144.001865
_cell_volume 437.721533
_symmetry_space_group_name_H-M "P -1"
_symmetry_group_IT_number 2
_symmetry_cell_setting 'triclinic'
loop_
_space_group_symop_operation_xyz
x,y,z
-x,-y,-z
loop_
_atom_site_type_symbol
_atom_site_label
_atom_site_fract_x
_atom_site_fract_y
_atom_site_fract_z
Si Si1 0.863042 0.010380 0.657258
Si Si2 0.543240 0.420662 0.584441
Si Si3 0.470911 0.816121 0.613271
Si Si4 0.972007 0.395412 0.364320
Si Si5 0.560831 0.675485 0.051742
O O1 0.094769 0.300228 0.541911
O O2 0.533146 0.800199 0.741295
O O3 0.000000 0.000000 0.500000
O O4 0.824679 0.942141 0.842982
O O5 0.500000 0.500000 0.500000
O O6 0.437249 0.214657 0.556148
O O7 0.346311 0.282496 0.823933
O O8 0.125774 0.597238 0.732958
O O9 0.693593 0.096781 0.510173
O O10 0.000000 0.500000 0.500000
O O11 0.276005 0.552905 0.184147
O O12 0.500000 0.500000 0.000000
#
# Coordination Sequence:
#
# PCOD8031588 Si02
#       5
#     2   2   2   2   2
#     4  12  23  44  66 101 146 178 231 289 338 414
#     4  12  24  44  70 103 139 179 231 294 337 409
#     4  11  22  44  73  97 142 184 228 289 344 404
#     4  11  23  45  74 100 141 185 229 290 346 414
#     4  12  24  44  73 101 140 187 231 283 353 408
#
# _framework density 22.845573000000002
#
# number of rings (size 3 to 8) (size 9 to 14) (size 15 to 20)
#    0.000    0.400    8.000    0.000    0.000    1.600 
#    3.600    4.000    0.000    0.000    0.000    0.000 
#    0.000    0.000    0.000    0.000    0.000    0.000 
#
# Total GULP energy -123890.626929 kJ/mol
# GULP energy per Si atom -12389.062693 kJ/mol
# Density = 2.279358 g / cm^3
# Si number density = 22.845573 Si / 1000 Ang^3
#
#
#
# Elastic Constant Matrix: (Units=GPa)
#
#
# Indices 1 2 3 4 5 6 
#
# 1 133.5648 33.5822 35.9064 24.3644 3.1547 20.0780
# 2 33.5822 140.5769 30.9583 21.0383 6.1403 -17.2286
# 3 35.9064 30.9583 124.6924 17.8448 22.6191 -3.0939
# 4 24.3644 21.0383 17.8448 30.6004 1.6933 2.2928
# 5 3.1547 6.1403 22.6191 1.6933 46.3667 10.2586
# 6 20.0780 -17.2286 -3.0939 2.2928 10.2586 49.3092
#
#
#
# Elastic Compliance Matrix: (Units=1/GPa)
#
#
# Indices 1 2 3 4 5 6 
#
# 1 0.010245 -0.001882 -0.002207 -0.005300 0.001957 -0.005128
# 2 -0.001882 0.008995 -0.000649 -0.004551 -0.001555 0.004404
# 3 -0.002207 -0.000649 0.010371 -0.003748 -0.005260 0.002591
# 4 -0.005300 -0.004551 -0.003748 0.042270 0.001687 -0.001984
# 5 0.001957 -0.001555 -0.005260 0.001687 0.025715 -0.007098
# 6 -0.005128 0.004404 0.002591 -0.001984 -0.007098 0.025639
#
#
# Mechanical properties :
#
#
# Convention : Reuss Voigt Hill
#
# Bulk Modulus (GPa) = 49.66217 66.63641 58.14929
# Shear Modulus (GPa) = 35.86282 45.14774 40.50528
#
# Velocity S-wave (km/s) = 3.96636 4.45029 4.21527
# Velocity P-wave (km/s) = 6.53922 7.45910 7.01426
#
# Compressibility (1/GPa) = 0.02013605
#
# Stress axis : x y z
#
# Youngs Moduli (GPa) = 97.60841 111.17638 96.42322
#
# Poissons Ratio (x) = 0.20926 0.21276
# Poissons Ratio (y) = 0.18372 0.06254
# Poissons Ratio (z) = 0.21537 0.07211
#
# Static dielectric constant tensor:
#      x y z
#    x 5.181580 0.626790 0.120920 
#    y 0.626790 4.816060 -0.006490 
#    z 0.120920 -0.006490 3.891460 
# 
# 
# High freq. dielectric constant tensor:
#      x y z
#    x 1.934860 0.009930 0.010880 
#    y 0.009930 1.916960 0.011080 
#    z 0.010880 0.011080 1.861410 
# 
# From -- ./inp_files/22230.got.cif
#   From: 2010.06.25/outbox.cif.g09.slc.cpg/sg2_12_cif.got.tgz:22230.got - 2010.06.27 13:26:56.
