data_PCOD8031235
_publ_section_title
;
Structure prediction by ZEFSAII (Michael W. Deem and Ramdas Pophale) SiO2 
 PCOD8031235
Probable space group: P -1
;
_chemical_formula_sum "Si O2"
_cell_formula_units_Z 16
_cell_length_a 18.611336
_cell_length_b 9.046126
_cell_length_c 5.358966
_cell_angle_alpha 96.761568
_cell_angle_beta 62.767017
_cell_angle_gamma 122.747885
_cell_volume 664.479339
_symmetry_space_group_name_H-M "P -1"
_symmetry_group_IT_number 2
_symmetry_cell_setting 'triclinic'
loop_
_space_group_symop_operation_xyz
x,y,z
-x,-y,-z
loop_
_atom_site_type_symbol
_atom_site_label
_atom_site_fract_x
_atom_site_fract_y
_atom_site_fract_z
Si Si1 0.576066 0.697681 0.510649
Si Si2 0.743538 0.054033 0.150973
Si Si3 0.270128 0.644802 0.917988
Si Si4 0.871682 0.776043 0.459893
Si Si5 0.554322 0.205483 0.005459
Si Si6 0.139461 0.891222 0.522856
Si Si7 0.928509 0.678556 0.835983
Si Si8 0.333011 0.470270 0.416061
O O1 0.500000 0.500000 0.500000
O O2 0.515369 0.779686 0.694642
O O3 0.636330 0.671074 0.622774
O O4 0.655434 0.845470 0.221858
O O5 0.706308 0.187205 0.258101
O O6 0.801243 0.084241 0.318440
O O7 0.805797 0.105271 0.811114
O O8 0.338142 0.729541 0.065973
O O9 0.295479 0.509803 0.734829
O O10 0.155061 0.527825 0.137158
O O11 0.924742 0.796109 0.640797
O O12 0.756893 0.622184 0.652814
O O13 0.885444 0.960990 0.411036
O O14 0.914198 0.730119 0.146599
O O15 0.572715 0.338016 0.775260
O O16 0.500000 0.000000 0.000000
O O17 0.033524 0.704977 0.667914
#
# Coordination Sequence:
#
# PCOD8031235 Si02
#       8
#     2   2   2   2   2   2   2   2
#     4  12  27  47  74 109 145 197 251 308 368 438
#     4  12  30  46  72 108 153 191 242 309 366 441
#     4  11  27  47  69 106 149 191 244 302 372 444
#     4  11  22  42  74 107 148 182 242 303 372 424
#     4  12  27  45  76 106 147 196 248 303 379 442
#     4  12  26  46  74 107 148 191 245 302 375 434
#     4  11  24  45  76 108 143 194 241 304 368 446
#     4  11  24  45  74 101 145 191 248 306 361 437
#
# _framework density 24.079003
#
# number of rings (size 3 to 8) (size 9 to 14) (size 15 to 20)
#    0.000    0.500    3.750    3.375    8.750    2.000 
#    0.000    0.000    0.000    0.000    0.000    0.000 
#    0.000    0.000    0.000    0.000    0.000    0.000 
#
# Total GULP energy -198294.187642 kJ/mol
# GULP energy per Si atom -12393.386728 kJ/mol
# Density = 2.402420 g / cm^3
# Si number density = 24.079003 Si / 1000 Ang^3
#
#
#
# Elastic Constant Matrix: (Units=GPa)
#
#
# Indices 1 2 3 4 5 6 
#
# 1 96.7754 46.4718 45.2958 -3.9395 -3.8369 4.3920
# 2 46.4718 134.6249 36.9421 -16.2795 -18.1374 4.9037
# 3 45.2958 36.9421 117.1580 -9.3893 0.4534 15.5881
# 4 -3.9395 -16.2795 -9.3893 34.8178 6.0392 -3.7011
# 5 -3.8369 -18.1374 0.4534 6.0392 37.2802 -10.5726
# 6 4.3920 4.9037 15.5881 -3.7011 -10.5726 41.9731
#
#
#
# Elastic Compliance Matrix: (Units=1/GPa)
#
#
# Indices 1 2 3 4 5 6 
#
# 1 0.014189 -0.003860 -0.004442 -0.001344 -0.000005 0.000496
# 2 -0.003860 0.010143 -0.001624 0.003237 0.004376 0.001210
# 3 -0.004442 -0.001624 0.011482 0.001890 -0.002875 -0.004167
# 4 -0.001344 0.003237 0.001890 0.031281 -0.003379 0.000968
# 5 -0.000005 0.004376 -0.002875 -0.003379 0.031886 0.008291
# 6 0.000496 0.001210 -0.004167 0.000968 0.008291 0.027353
#
#
# Mechanical properties :
#
#
# Convention : Reuss Voigt Hill
#
# Bulk Modulus (GPa) = 62.65408 67.33086 64.99247
# Shear Modulus (GPa) = 33.00163 37.47078 35.23621
#
# Velocity S-wave (km/s) = 3.70612 3.94910 3.82954
# Velocity P-wave (km/s) = 6.66262 6.98692 6.82669
#
# Compressibility (1/GPa) = 0.01596065
#
# Stress axis : x y z
#
# Youngs Moduli (GPa) = 70.47929 98.58755 87.09165
#
# Poissons Ratio (x) = 0.38056 0.38687
# Poissons Ratio (y) = 0.27206 0.14147
# Poissons Ratio (z) = 0.31308 0.16015
#
# Static dielectric constant tensor:
#      x y z
#    x 4.680210 0.229350 -0.254020 
#    y 0.229350 4.671310 -0.430220 
#    z -0.254020 -0.430220 4.244340 
# 
# 
# High freq. dielectric constant tensor:
#      x y z
#    x 1.967120 0.007760 -0.007800 
#    y 0.007760 1.969520 -0.018140 
#    z -0.007800 -0.018140 1.945130 
# 
# From -- ./inp_files/107103.got.cif
#   From: 2010.06.25/outbox.cif.g09.slc.cpg/sg2_54_cif.got.tgz:107103.got - 2010.06.27 13:26:56.
