data_PCOD8031327
_publ_section_title
;
Structure prediction by ZEFSAII (Michael W. Deem and Ramdas Pophale) SiO2 
 PCOD8031327
Probable space group: P -1
;
_chemical_formula_sum "Si O2"
_cell_formula_units_Z 16
_cell_length_a 17.935790
_cell_length_b 9.989259
_cell_length_c 11.280789
_cell_angle_alpha 88.107940
_cell_angle_beta 124.844422
_cell_angle_gamma 139.188309
_cell_volume 723.620410
_symmetry_space_group_name_H-M "P -1"
_symmetry_group_IT_number 2
_symmetry_cell_setting 'triclinic'
loop_
_space_group_symop_operation_xyz
x,y,z
-x,-y,-z
loop_
_atom_site_type_symbol
_atom_site_label
_atom_site_fract_x
_atom_site_fract_y
_atom_site_fract_z
Si Si1 0.495115 0.156566 0.662385
Si Si2 0.783888 0.444189 0.561334
Si Si3 0.502106 0.294121 0.254070
Si Si4 0.352812 0.181661 0.367320
Si Si5 0.237219 0.271207 0.713597
Si Si6 0.181146 0.909990 0.782418
Si Si7 0.063884 0.237530 0.072779
Si Si8 0.523631 0.879831 0.074036
O O1 0.381410 0.140976 0.517308
O O2 0.726138 0.448788 0.813471
O O3 0.510160 0.165854 0.815938
O O4 0.344540 0.842419 0.481449
O O5 0.617434 0.306356 0.337809
O O6 0.908649 0.699677 0.763348
O O7 0.935469 0.584983 0.593622
O O8 0.456969 0.238568 0.353345
O O9 0.663140 0.615903 0.331766
O O10 0.282371 0.010468 0.998194
O O11 0.500000 0.500000 0.500000
O O12 0.113540 0.900828 0.136151
O O13 0.261339 0.162057 0.805253
O O14 0.363074 0.559197 0.881853
O O15 0.000000 0.000000 0.500000
O O16 0.246462 0.876737 0.753243
O O17 0.000000 0.000000 0.000000
O O18 0.500000 0.000000 0.000000
#
# Coordination Sequence:
#
# PCOD8031327 Si02
#       8
#     2   2   2   2   2   2   2   2
#     4  12  28  46  73 108 152 187 240 302 376 435
#     4  12  25  47  74 107 146 194 244 298 377 441
#     4  11  22  43  70 101 145 181 244 300 360 427
#     4  12  26  42  72 107 142 190 240 303 366 429
#     4  11  24  43  76 107 136 199 251 302 368 432
#     4  11  25  45  78 105 145 198 249 305 362 443
#     4  12  26  47  74 106 145 192 246 303 360 438
#     4  11  27  50  74 108 157 192 248 308 370 446
#
# _framework density 22.111041
#
# number of rings (size 3 to 8) (size 9 to 14) (size 15 to 20)
#    0.000    0.500    5.000    3.375    5.250    4.000 
#    0.000    0.000    0.000    0.000    0.000    0.000 
#    0.000    0.000    0.000    0.000    0.000    0.000 
#
# Total GULP energy -198304.307076 kJ/mol
# GULP energy per Si atom -12394.019192 kJ/mol
# Density = 2.206072 g / cm^3
# Si number density = 22.111041 Si / 1000 Ang^3
#
#
#
# Elastic Constant Matrix: (Units=GPa)
#
#
# Indices 1 2 3 4 5 6 
#
# 1 123.0070 54.8265 46.0996 -0.4903 22.9060 4.1827
# 2 54.8265 148.5550 57.1586 -8.3312 12.4888 -7.9681
# 3 46.0996 57.1586 89.7101 -10.3009 28.7234 -12.6544
# 4 -0.4903 -8.3312 -10.3009 50.5158 2.3726 4.0832
# 5 22.9060 12.4888 28.7234 2.3726 47.1745 0.2514
# 6 4.1827 -7.9681 -12.6544 4.0832 0.2514 42.2674
#
#
#
# Elastic Compliance Matrix: (Units=1/GPa)
#
#
# Indices 1 2 3 4 5 6 
#
# 1 0.011282 -0.002696 -0.003771 -0.000775 -0.002415 -0.002665
# 2 -0.002696 0.009636 -0.005272 0.000360 0.001947 0.000459
# 3 -0.003771 -0.005272 0.020620 0.003318 -0.009523 0.005289
# 4 -0.000775 0.000360 0.003318 0.020723 -0.002777 -0.000847
# 5 -0.002415 0.001947 -0.009523 -0.002777 0.027804 -0.002142
# 6 -0.002665 0.000459 0.005289 -0.000847 -0.002142 0.025687
#
#
# Mechanical properties :
#
#
# Convention : Reuss Voigt Hill
#
# Bulk Modulus (GPa) = 55.37150 75.27129 65.32140
# Shear Modulus (GPa) = 34.42323 41.53735 37.98029
#
# Velocity S-wave (km/s) = 3.94995 4.33896 4.14902
# Velocity P-wave (km/s) = 6.77493 7.69535 7.24976
#
# Compressibility (1/GPa) = 0.01805983
#
# Stress axis : x y z
#
# Youngs Moduli (GPa) = 88.63752 103.77850 48.49631
#
# Poissons Ratio (x) = 0.27979 0.18290
# Poissons Ratio (y) = 0.23897 0.25565
# Poissons Ratio (z) = 0.33429 0.54708
#
# Static dielectric constant tensor:
#      x y z
#    x 4.107480 0.054720 0.229370 
#    y 0.054720 4.094250 0.069610 
#    z 0.229370 0.069610 4.022970 
# 
# 
# High freq. dielectric constant tensor:
#      x y z
#    x 1.875880 0.005190 0.016740 
#    y 0.005190 1.879630 -0.007630 
#    z 0.016740 -0.007630 1.881220 
# 
# From -- ./inp_files/403015.got.cif
#   From: 2010.06.25/outbox.cif.g09.slc.cpg/sg2_202_cif.got.tgz:403015.got - 2010.06.27 13:26:56.
