data_PCOD8031151
_publ_section_title
;
Structure prediction by ZEFSAII (Michael W. Deem and Ramdas Pophale) SiO2 
 PCOD8031151
Probable space group: P -1
;
_chemical_formula_sum "Si O2"
_cell_formula_units_Z 14
_cell_length_a 9.307733
_cell_length_b 8.507274
_cell_length_c 22.045912
_cell_angle_alpha 39.587480
_cell_angle_beta 146.134554
_cell_angle_gamma 123.520388
_cell_volume 600.708511
_symmetry_space_group_name_H-M "P -1"
_symmetry_group_IT_number 2
_symmetry_cell_setting 'triclinic'
loop_
_space_group_symop_operation_xyz
x,y,z
-x,-y,-z
loop_
_atom_site_type_symbol
_atom_site_label
_atom_site_fract_x
_atom_site_fract_y
_atom_site_fract_z
Si Si1 0.342824 0.287891 0.520101
Si Si2 0.599885 0.533852 0.306668
Si Si3 0.185959 0.090708 0.184895
Si Si4 0.840330 0.410650 0.221515
Si Si5 0.873960 0.842011 0.389545
Si Si6 0.658063 0.414808 0.930324
Si Si7 0.119629 0.750610 0.154548
O O1 0.500000 0.500000 0.500000
O O2 0.069897 0.345879 0.371291
O O3 0.270482 0.250369 0.576099
O O4 0.549122 0.022702 0.647920
O O5 0.805203 0.255413 0.462504
O O6 0.456886 0.594783 0.174274
O O7 0.371540 0.559488 0.269320
O O8 0.774273 0.734690 0.324740
O O9 0.224911 0.339542 0.089654
O O10 0.190624 0.851645 0.213914
O O11 0.906120 0.166886 0.100525
O O12 0.571228 0.589870 0.101118
O O13 0.911798 0.575303 0.142362
O O14 0.789701 0.145043 0.261167
O O15 0.000000 0.000000 0.000000
#
# Coordination Sequence:
#
# PCOD8031151 Si02
#       7
#     2   2   2   2   2   2   2
#     4  12  21  40  70 102 135 178 220 277 338 401
#     4  11  22  42  69  99 143 176 223 286 342 398
#     4  11  23  43  69 101 141 171 231 274 346 401
#     4  12  24  45  74 100 133 185 232 278 338 410
#     4  11  23  41  70 104 137 177 232 284 334 408
#     4  11  23  42  74 101 130 186 226 284 332 410
#     4  12  25  46  68  94 141 183 220 283 347 403
#
# _framework density 23.305813000000001
#
# number of rings (size 3 to 8) (size 9 to 14) (size 15 to 20)
#    0.000    0.571    7.143    1.286    0.000    1.143 
#    2.571    7.143    0.000    0.000    0.000    0.000 
#    0.000    0.000    0.000    0.000    0.000    0.000 
#
# Total GULP energy -173525.706703 kJ/mol
# GULP energy per Si atom -12394.693336 kJ/mol
# Density = 2.325277 g / cm^3
# Si number density = 23.305813 Si / 1000 Ang^3
#
#
#
# Elastic Constant Matrix: (Units=GPa)
#
#
# Indices 1 2 3 4 5 6 
#
# 1 108.2579 47.1562 62.8881 -23.7143 43.2146 22.7250
# 2 47.1562 81.0459 9.5647 -8.5669 3.3479 13.7578
# 3 62.8881 9.5647 139.2485 -14.0479 53.5744 9.7262
# 4 -23.7143 -8.5669 -14.0479 32.9729 0.1181 -1.6005
# 5 43.2146 3.3479 53.5744 0.1181 55.2488 -0.1081
# 6 22.7250 13.7578 9.7262 -1.6005 -0.1081 34.1929
#
#
#
# Elastic Compliance Matrix: (Units=1/GPa)
#
#
# Indices 1 2 3 4 5 6 
#
# 1 0.032257 -0.013159 -0.002186 0.018214 -0.022381 -0.014740
# 2 -0.013159 0.018996 0.001055 -0.004077 0.008128 0.000637
# 3 -0.002186 0.001055 0.012846 0.004094 -0.010824 -0.002468
# 4 0.018214 -0.004077 0.004094 0.043709 -0.018081 -0.009640
# 5 -0.022381 0.008128 -0.010824 -0.018081 0.045676 0.013982
# 6 -0.014740 0.000637 -0.002468 -0.009640 0.013982 0.039081
#
#
# Mechanical properties :
#
#
# Convention : Reuss Voigt Hill
#
# Bulk Modulus (GPa) = 28.15388 63.08556 45.61972
# Shear Modulus (GPa) = 21.46055 38.41248 29.93652
#
# Velocity S-wave (km/s) = 3.03780 4.06420 3.58789
# Velocity P-wave (km/s) = 4.94072 7.01078 6.06472
#
# Compressibility (1/GPa) = 0.03551909
#
# Stress axis : x y z
#
# Youngs Moduli (GPa) = 31.00063 52.64372 77.84349
#
# Poissons Ratio (x) = 0.69272 0.17019
# Poissons Ratio (y) = 0.40793 -0.08211
# Poissons Ratio (z) = 0.06778 -0.05553
#
# Static dielectric constant tensor:
#      x y z
#    x 4.144300 -0.097870 0.390790 
#    y -0.097870 4.393910 0.083180 
#    z 0.390790 0.083180 4.766700 
# 
# 
# High freq. dielectric constant tensor:
#      x y z
#    x 1.899650 -0.002100 0.031320 
#    y -0.002100 1.923160 0.006620 
#    z 0.031320 0.006620 1.942650 
# 
# From -- ./inp_files/211250.got.cif
#   From: 2010.06.25/outbox.cif.g09.slc.cpg/sg2_106_cif.got.tgz:211250.got - 2010.06.27 13:26:56.
