data_PCOD8031025
_publ_section_title
;
Structure prediction by ZEFSAII (Michael W. Deem and Ramdas Pophale) SiO2 
 PCOD8031025
Probable space group: P -1
;
_chemical_formula_sum "Si O2"
_cell_formula_units_Z 16
_cell_length_a 9.007323
_cell_length_b 11.680633
_cell_length_c 14.428764
_cell_angle_alpha 129.879576
_cell_angle_beta 38.997249
_cell_angle_gamma 129.020539
_cell_volume 705.472907
_symmetry_space_group_name_H-M "P -1"
_symmetry_group_IT_number 2
_symmetry_cell_setting 'triclinic'
loop_
_space_group_symop_operation_xyz
x,y,z
-x,-y,-z
loop_
_atom_site_type_symbol
_atom_site_label
_atom_site_fract_x
_atom_site_fract_y
_atom_site_fract_z
Si Si1 0.131388 0.418313 0.176065
Si Si2 0.643378 0.253460 0.698265
Si Si3 0.527470 0.134527 0.189878
Si Si4 0.662290 0.784427 0.344322
Si Si5 0.410095 0.630000 0.558842
Si Si6 0.260834 0.109274 0.956701
Si Si7 0.021401 0.639129 0.991009
Si Si8 0.985797 0.062695 0.437198
O O1 0.338747 0.572159 0.185598
O O2 0.878796 0.421643 0.350805
O O3 0.090865 0.417868 0.084592
O O4 0.223308 0.273334 0.093397
O O5 0.571475 0.223373 0.610371
O O6 0.438515 0.133699 0.795137
O O7 0.909081 0.222478 0.567339
O O8 0.538604 0.210539 0.325610
O O9 0.695884 0.259404 0.102857
O O10 0.244468 0.090084 0.271994
O O11 0.620803 0.978440 0.067984
O O12 0.569724 0.656843 0.402338
O O13 0.771614 0.951492 0.423193
O O14 0.871804 0.749540 0.161919
O O15 0.500000 0.500000 0.500000
O O16 0.000000 0.000000 0.000000
O O17 0.000000 0.500000 0.000000
O O18 0.000000 0.000000 0.500000
#
# Coordination Sequence:
#
# PCOD8031025 Si02
#       8
#     2   2   2   2   2   2   2   2
#     4  11  25  45  74 102 146 203 235 293 375 435
#     4  12  26  46  72 108 148 189 249 300 363 438
#     4  11  23  45  72 106 140 197 240 295 367 439
#     4  12  25  45  70 108 144 187 244 311 358 421
#     4  11  22  41  73 101 142 190 243 294 364 435
#     4  12  21  43  74 102 143 187 244 287 364 441
#     4  11  25  43  71 108 149 183 243 306 367 425
#     4  12  25  44  75 105 143 193 242 299 369 433
#
# _framework density 22.679822000000001
#
# number of rings (size 3 to 8) (size 9 to 14) (size 15 to 20)
#    0.000    0.500    6.250    3.000    1.750    1.000 
#    2.250    1.250    0.000    0.000    0.000    0.000 
#    0.000    0.000    0.000    0.000    0.000    0.000 
#
# Total GULP energy -198429.669648 kJ/mol
# GULP energy per Si atom -12401.854353 kJ/mol
# Density = 2.262820 g / cm^3
# Si number density = 22.679822 Si / 1000 Ang^3
#
#
#
# Elastic Constant Matrix: (Units=GPa)
#
#
# Indices 1 2 3 4 5 6 
#
# 1 86.8166 65.1092 49.5715 5.2373 -10.7831 -6.1204
# 2 65.1092 152.3551 57.3846 -2.7942 -8.1898 -11.7410
# 3 49.5715 57.3846 117.4643 -10.7139 -20.7034 -4.5385
# 4 5.2373 -2.7942 -10.7139 51.6955 -3.9843 -2.4514
# 5 -10.7831 -8.1898 -20.7034 -3.9843 45.1269 10.2583
# 6 -6.1204 -11.7410 -4.5385 -2.4514 10.2583 33.1334
#
#
#
# Elastic Compliance Matrix: (Units=1/GPa)
#
#
# Indices 1 2 3 4 5 6 
#
# 1 0.019687 -0.006409 -0.005347 -0.003384 0.000755 0.000149
# 2 -0.006409 0.010357 -0.002414 0.000733 -0.001288 0.002608
# 3 -0.005347 -0.002414 0.013072 0.003435 0.004883 -0.001310
# 4 -0.003384 0.000733 0.003435 0.020674 0.002532 0.000851
# 5 0.000755 -0.001288 0.004883 0.002532 0.026298 -0.007603
# 6 0.000149 0.002608 -0.001310 0.000851 -0.007603 0.033370
#
#
# Mechanical properties :
#
#
# Convention : Reuss Voigt Hill
#
# Bulk Modulus (GPa) = 67.67884 77.86298 72.77091
# Shear Modulus (GPa) = 31.90324 38.29587 35.09955
#
# Velocity S-wave (km/s) = 3.75464 4.11365 3.93824
# Velocity P-wave (km/s) = 6.97870 7.54776 7.26880
#
# Compressibility (1/GPa) = 0.01477567
#
# Stress axis : x y z
#
# Youngs Moduli (GPa) = 50.79612 96.55111 76.49796
#
# Poissons Ratio (x) = 0.61882 0.40900
# Poissons Ratio (y) = 0.32557 0.18469
# Poissons Ratio (z) = 0.27159 0.23310
#
# Static dielectric constant tensor:
#      x y z
#    x 4.053890 -0.014010 -0.242660 
#    y -0.014010 4.259140 -0.098130 
#    z -0.242660 -0.098130 4.376510 
# 
# 
# High freq. dielectric constant tensor:
#      x y z
#    x 1.876790 -0.000540 -0.019400 
#    y -0.000540 1.904470 -0.004970 
#    z -0.019400 -0.004970 1.908230 
# 
# From -- ./inp_files/500779.got.cif
#   From: 2010.06.25/outbox.cif.g09.slc.cpg/sg2_251_cif.got.tgz:500779.got - 2010.06.27 13:26:56.
