data_PCOD8031157
_publ_section_title
;
Structure prediction by ZEFSAII (Michael W. Deem and Ramdas Pophale) SiO2 
 PCOD8031157
Probable space group: P -1
;
_chemical_formula_sum "Si O2"
_cell_formula_units_Z 16
_cell_length_a 21.426039
_cell_length_b 10.550697
_cell_length_c 16.461451
_cell_angle_alpha 137.582829
_cell_angle_beta 19.026427
_cell_angle_gamma 145.501793
_cell_volume 670.063868
_symmetry_space_group_name_H-M "P -1"
_symmetry_group_IT_number 2
_symmetry_cell_setting 'triclinic'
loop_
_space_group_symop_operation_xyz
x,y,z
-x,-y,-z
loop_
_atom_site_type_symbol
_atom_site_label
_atom_site_fract_x
_atom_site_fract_y
_atom_site_fract_z
Si Si1 0.916214 0.066083 0.558807
Si Si2 0.658056 0.311961 0.379982
Si Si3 0.090357 0.378041 0.933414
Si Si4 0.712945 0.300435 0.006924
Si Si5 0.794775 0.936632 0.281391
Si Si6 0.741351 0.172879 0.597137
Si Si7 0.194413 0.392708 0.243071
Si Si8 0.501655 0.561201 0.788166
O O1 0.141098 0.199309 0.283555
O O2 0.689879 0.833891 0.692443
O O3 0.853367 0.241838 0.746799
O O4 0.000000 0.000000 0.500000
O O5 0.810757 0.508335 0.220406
O O6 0.423740 0.121164 0.531347
O O7 0.613323 0.426614 0.563839
O O8 0.805883 0.218481 0.192262
O O9 0.138287 0.555835 0.029510
O O10 0.222624 0.256282 0.730951
O O11 0.665133 0.462598 0.090893
O O12 0.483389 0.069479 0.213970
O O13 0.851425 0.146491 0.367588
O O14 0.000000 0.000000 0.000000
O O15 0.686597 0.362739 0.741292
O O16 0.927895 0.279861 0.490330
O O17 0.360411 0.432331 0.982990
#
# Coordination Sequence:
#
# PCOD8031157 Si02
#       8
#     2   2   2   2   2   2   2   2
#     4  12  27  44  68 103 140 185 235 295 363 428
#     4  11  24  46  72 104 144 186 239 296 357 421
#     4  11  25  44  73 104 140 189 243 295 351 431
#     4  12  21  44  73  99 137 190 240 294 357 422
#     4  12  25  43  70 104 143 191 239 290 360 422
#     4  11  22  42  70 102 137 182 241 294 348 430
#     4  11  25  43  71 105 137 182 241 293 356 432
#     4  12  23  45  73 104 137 189 239 295 359 426
#
# _framework density 23.878322000000001
#
# number of rings (size 3 to 8) (size 9 to 14) (size 15 to 20)
#    0.000    0.500    5.000    4.500    1.750    1.000 
#    0.000    0.000    0.000    0.000    0.000    0.000 
#    0.000    0.000    0.000    0.000    0.000    0.000 
#
# Total GULP energy -198308.125939 kJ/mol
# GULP energy per Si atom -12394.257871 kJ/mol
# Density = 2.382397 g / cm^3
# Si number density = 23.878322 Si / 1000 Ang^3
#
#
#
# Elastic Constant Matrix: (Units=GPa)
#
#
# Indices 1 2 3 4 5 6 
#
# 1 114.9663 42.9694 60.5922 -9.5189 10.8672 -0.8737
# 2 42.9694 58.3894 22.3337 -1.5159 3.0990 15.8255
# 3 60.5922 22.3337 99.7931 -2.4158 20.1558 8.6248
# 4 -9.5189 -1.5159 -2.4158 29.6973 3.8181 14.1064
# 5 10.8672 3.0990 20.1558 3.8181 51.5308 -11.9222
# 6 -0.8737 15.8255 8.6248 14.1064 -11.9222 30.3958
#
#
#
# Elastic Compliance Matrix: (Units=1/GPa)
#
#
# Indices 1 2 3 4 5 6 
#
# 1 0.018884 -0.013863 -0.010456 -0.002492 0.004262 0.013556
# 2 -0.013863 0.033881 0.005425 0.012590 -0.008854 -0.028894
# 3 -0.010456 0.005425 0.018548 0.006910 -0.009426 -0.015292
# 4 -0.002492 0.012590 0.006910 0.055619 -0.016512 -0.040876
# 5 0.004262 -0.008854 -0.009426 -0.016512 0.030175 0.026906
# 6 0.013556 -0.028894 -0.015292 -0.040876 0.026906 0.082195
#
#
# Mechanical properties :
#
#
# Convention : Reuss Voigt Hill
#
# Bulk Modulus (GPa) = 29.82845 58.32658 44.07752
# Shear Modulus (GPa) = 17.34513 32.14167 24.74340
#
# Velocity S-wave (km/s) = 2.69810 3.67285 3.22254
# Velocity P-wave (km/s) = 4.71437 6.51660 5.68733
#
# Compressibility (1/GPa) = 0.03352504
#
# Stress axis : x y z
#
# Youngs Moduli (GPa) = 52.95444 29.51503 53.91323
#
# Poissons Ratio (x) = 0.40915 0.56374
# Poissons Ratio (y) = 0.73408 -0.29246
# Poissons Ratio (z) = 0.55371 -0.16011
#
# Static dielectric constant tensor:
#      x y z
#    x 11.509640 -4.690000 -3.857530 
#    y -4.690000 7.366370 2.302320 
#    z -3.857530 2.302320 6.493220 
# 
# 
# High freq. dielectric constant tensor:
#      x y z
#    x 1.956900 0.008940 0.012950 
#    y 0.008940 1.938270 -0.005100 
#    z 0.012950 -0.005100 1.954200 
# 
# From -- ./inp_files/579243.got.cif
#   From: 2010.06.25/outbox.cif.g09.slc.cpg/sg2_290_cif.got.tgz:579243.got - 2010.06.27 13:26:56.
