data_PCOD8031679
_publ_section_title
;
Structure prediction by ZEFSAII (Michael W. Deem and Ramdas Pophale) SiO2 
 PCOD8031679
Probable space group: P -1
;
_chemical_formula_sum "Si O2"
_cell_formula_units_Z 12
_cell_length_a 14.163279
_cell_length_b 22.403591
_cell_length_c 13.970672
_cell_angle_alpha 157.481620
_cell_angle_beta 149.415515
_cell_angle_gamma 18.365643
_cell_volume 530.307882
_symmetry_space_group_name_H-M "P -1"
_symmetry_group_IT_number 2
_symmetry_cell_setting 'triclinic'
loop_
_space_group_symop_operation_xyz
x,y,z
-x,-y,-z
loop_
_atom_site_type_symbol
_atom_site_label
_atom_site_fract_x
_atom_site_fract_y
_atom_site_fract_z
Si Si1 0.620558 0.676582 0.663890
Si Si2 0.339525 0.485367 0.904002
Si Si3 0.715213 0.828270 0.800602
Si Si4 0.725465 0.959540 0.423830
Si Si5 0.262720 0.607545 0.230008
Si Si6 0.764344 0.723754 0.276973
O O1 0.605048 0.754919 0.659412
O O2 0.525325 0.557914 0.408610
O O3 0.957043 0.473089 0.698313
O O4 0.387201 0.933816 0.900889
O O5 0.078021 0.584959 0.756649
O O6 0.601809 0.185759 0.714476
O O7 0.500000 0.500000 0.000000
O O8 0.199290 0.650282 0.123396
O O9 0.576408 0.907575 0.691813
O O10 0.872423 0.733346 0.286830
O O11 0.962577 0.853272 0.391192
O O12 0.357715 0.369351 0.990504
O O13 0.500000 0.000000 0.500000
#
# Coordination Sequence:
#
# PCOD8031679 Si02
#       6
#     2   2   2   2   2   2
#     4  11  24  44  75 102 140 189 233 288 353 414
#     4  12  25  44  71 110 141 180 240 290 347 419
#     4  11  22  45  71 104 141 185 233 290 352 411
#     4  12  25  45  75 101 145 188 228 294 352 411
#     4  12  25  47  72 104 141 187 236 288 347 422
#     4  12  25  50  69 102 147 185 234 294 350 416
#
# _framework density 22.628364999999999
#
# number of rings (size 3 to 8) (size 9 to 14) (size 15 to 20)
#    0.000    0.333    5.000    4.000    0.000    4.667 
#    3.000    0.000    0.000    0.000    0.000    0.000 
#    0.000    0.000    0.000    0.000    0.000    0.000 
#
# Total GULP energy -148779.774525 kJ/mol
# GULP energy per Si atom -12398.314544 kJ/mol
# Density = 2.257686 g / cm^3
# Si number density = 22.628365 Si / 1000 Ang^3
#
#
#
# Elastic Constant Matrix: (Units=GPa)
#
#
# Indices 1 2 3 4 5 6 
#
# 1 97.0530 24.6304 30.2911 -8.7568 3.2124 1.9915
# 2 24.6304 77.1855 38.5038 5.6333 7.2371 -2.5633
# 3 30.2911 38.5038 117.8777 -1.5242 25.4647 -14.4795
# 4 -8.7568 5.6333 -1.5242 36.1234 -7.5770 -0.7550
# 5 3.2124 7.2371 25.4647 -7.5770 43.0728 2.5536
# 6 1.9915 -2.5633 -14.4795 -0.7550 2.5536 42.7905
#
#
#
# Elastic Compliance Matrix: (Units=1/GPa)
#
#
# Indices 1 2 3 4 5 6 
#
# 1 0.012237 -0.003052 -0.002739 0.003705 0.001974 -0.001732
# 2 -0.003052 0.016525 -0.004628 -0.003610 -0.000420 -0.000473
# 3 -0.002739 -0.004628 0.012755 -0.000770 -0.006965 0.004568
# 4 0.003705 -0.003610 -0.000770 0.030394 0.006160 -0.000480
# 5 0.001974 -0.000420 -0.006965 0.006160 0.028583 -0.004071
# 6 -0.001732 -0.000473 0.004568 -0.000480 -0.004071 0.025202
#
#
# Mechanical properties :
#
#
# Convention : Reuss Voigt Hill
#
# Bulk Modulus (GPa) = 48.35426 53.21852 50.78639
# Shear Modulus (GPa) = 32.58901 37.64339 35.11620
#
# Velocity S-wave (km/s) = 3.79909 4.08309 3.94365
# Velocity P-wave (km/s) = 6.37647 6.76745 6.57487
#
# Compressibility (1/GPa) = 0.02068070
#
# Stress axis : x y z
#
# Youngs Moduli (GPa) = 81.71642 60.51341 78.40297
#
# Poissons Ratio (x) = 0.18466 0.21475
# Poissons Ratio (y) = 0.24937 0.36282
# Poissons Ratio (z) = 0.22383 0.28003
#
# Static dielectric constant tensor:
#      x y z
#    x 4.103220 -0.199450 -0.122720 
#    y -0.199450 3.310780 -0.252110 
#    z -0.122720 -0.252110 4.046510 
# 
# 
# High freq. dielectric constant tensor:
#      x y z
#    x 1.900080 -0.005740 -0.001070 
#    y -0.005740 1.878010 0.012200 
#    z -0.001070 0.012200 1.906770 
# 
# From -- ./inp_files/379372.got.cif
#   From: 2010.06.25/outbox.cif.g09.slc.cpg/sg2_190_cif.got.tgz:379372.got - 2010.06.27 13:26:56.
