data_PCOD8031382
_publ_section_title
;
Structure prediction by ZEFSAII (Michael W. Deem and Ramdas Pophale) SiO2 
 PCOD8031382
Probable space group: P -1
;
_chemical_formula_sum "Si O2"
_cell_formula_units_Z 14
_cell_length_a 8.022105
_cell_length_b 16.358053
_cell_length_c 6.160988
_cell_angle_alpha 111.506336
_cell_angle_beta 67.512977
_cell_angle_gamma 123.555998
_cell_volume 609.742473
_symmetry_space_group_name_H-M "P -1"
_symmetry_group_IT_number 2
_symmetry_cell_setting 'triclinic'
loop_
_space_group_symop_operation_xyz
x,y,z
-x,-y,-z
loop_
_atom_site_type_symbol
_atom_site_label
_atom_site_fract_x
_atom_site_fract_y
_atom_site_fract_z
Si Si1 0.305742 0.313499 0.348242
Si Si2 0.657619 0.357246 0.512491
Si Si3 0.268232 0.450070 0.153369
Si Si4 0.158097 0.032399 0.753723
Si Si5 0.005306 0.854478 0.356398
Si Si6 0.878989 0.289824 0.012908
Si Si7 0.497681 0.226378 0.857011
O O1 0.524165 0.379058 0.422236
O O2 0.239518 0.384044 0.317681
O O3 0.131894 0.246653 0.540333
O O4 0.334689 0.239939 0.097729
O O5 0.789810 0.462715 0.673317
O O6 0.498313 0.272190 0.668078
O O7 0.795460 0.311353 0.300071
O O8 0.500000 0.500000 0.000000
O O9 0.113227 0.381975 0.972324
O O10 0.116597 0.101813 0.674169
O O11 0.395165 0.104655 0.780844
O O12 0.150959 0.938104 0.539595
O O13 0.000000 0.000000 0.000000
O O14 0.126307 0.818446 0.092301
O O15 0.731319 0.284398 0.884228
#
# Coordination Sequence:
#
# PCOD8031382 Si02
#       7
#     2   2   2   2   2   2   2
#     4  11  22  43  72  97 136 176 234 282 326 394
#     4  11  24  45  66 100 143 179 224 279 341 398
#     4  12  24  45  71 100 131 186 239 276 323 399
#     4  11  23  43  78 101 128 174 233 280 333 401
#     4  11  24  43  70 106 131 174 232 277 334 406
#     4  11  28  42  66 101 146 181 213 279 352 400
#     4  11  23  45  67 100 141 179 216 286 341 399
#
# _framework density 22.960514
#
# number of rings (size 3 to 8) (size 9 to 14) (size 15 to 20)
#    0.000    0.857    4.286    2.571    2.000    1.143 
#    0.000    1.429    0.000    0.000    0.000    0.000 
#    0.000    0.000    0.000    0.000    0.000    0.000 
#
# Total GULP energy -173519.567903 kJ/mol
# GULP energy per Si atom -12394.254850 kJ/mol
# Density = 2.290826 g / cm^3
# Si number density = 22.960514 Si / 1000 Ang^3
#
#
#
# Elastic Constant Matrix: (Units=GPa)
#
#
# Indices 1 2 3 4 5 6 
#
# 1 90.5195 47.7869 39.4640 9.3007 1.1970 21.1764
# 2 47.7869 146.9743 66.3813 19.8896 3.5631 15.3428
# 3 39.4640 66.3813 117.1532 36.0588 0.4125 4.6845
# 4 9.3007 19.8896 36.0588 58.1425 -10.4260 5.8828
# 5 1.1970 3.5631 0.4125 -10.4260 23.1250 13.5543
# 6 21.1764 15.3428 4.6845 5.8828 13.5543 34.8507
#
#
#
# Elastic Compliance Matrix: (Units=1/GPa)
#
#
# Indices 1 2 3 4 5 6 
#
# 1 0.017117 -0.002757 -0.005026 0.004220 0.008986 -0.012719
# 2 -0.002757 0.010033 -0.004717 0.000150 -0.000001 -0.002133
# 3 -0.005026 -0.004717 0.015530 -0.009461 -0.008128 0.007801
# 4 0.004220 0.000150 -0.009461 0.027421 0.020465 -0.013946
# 5 0.008986 -0.000001 -0.008128 0.020465 0.073486 -0.036402
# 6 -0.012719 -0.002133 0.007801 -0.013946 -0.036402 0.052824
#
#
# Mechanical properties :
#
#
# Convention : Reuss Voigt Hill
#
# Bulk Modulus (GPa) = 56.55866 73.54571 65.05219
# Shear Modulus (GPa) = 21.99690 36.62462 29.31076
#
# Velocity S-wave (km/s) = 3.09857 3.99822 3.57679
# Velocity P-wave (km/s) = 6.12274 7.30858 6.74178
#
# Compressibility (1/GPa) = 0.01768076
#
# Stress axis : x y z
#
# Youngs Moduli (GPa) = 58.42217 99.67010 64.38992
#
# Poissons Ratio (x) = 0.27474 0.32362
# Poissons Ratio (y) = 0.16104 0.30374
# Poissons Ratio (z) = 0.29363 0.47017
#
# Static dielectric constant tensor:
#      x y z
#    x 3.990920 0.160320 0.141940 
#    y 0.160320 4.170690 0.347090 
#    z 0.141940 0.347090 4.396080 
# 
# 
# High freq. dielectric constant tensor:
#      x y z
#    x 1.891440 0.011660 0.008430 
#    y 0.011660 1.904380 0.020020 
#    z 0.008430 0.020020 1.920860 
# 
# From -- ./inp_files/31608.got.cif
#   From: 2010.06.25/outbox.cif.g09.slc.cpg/sg2_16_cif.got.tgz:31608.got - 2010.06.27 13:26:56.
