data_PCOD8031318
_publ_section_title
;
Structure prediction by ZEFSAII (Michael W. Deem and Ramdas Pophale) SiO2 
 PCOD8031318
Probable space group: P -1
;
_chemical_formula_sum "Si O2"
_cell_formula_units_Z 16
_cell_length_a 19.944135
_cell_length_b 17.938637
_cell_length_c 11.581032
_cell_angle_alpha 31.473539
_cell_angle_beta 137.677067
_cell_angle_gamma 158.436484
_cell_volume 763.148558
_symmetry_space_group_name_H-M "P -1"
_symmetry_group_IT_number 2
_symmetry_cell_setting 'triclinic'
loop_
_space_group_symop_operation_xyz
x,y,z
-x,-y,-z
loop_
_atom_site_type_symbol
_atom_site_label
_atom_site_fract_x
_atom_site_fract_y
_atom_site_fract_z
Si Si1 0.359304 0.781467 0.002903
Si Si2 0.629246 0.357334 0.233505
Si Si3 0.922424 0.818821 0.526152
Si Si4 0.700909 0.034038 0.486754
Si Si5 0.927934 0.511075 0.493344
Si Si6 0.588019 0.611284 0.340540
Si Si7 0.280026 0.222053 0.287618
Si Si8 0.577918 0.920188 0.894180
O O1 0.468893 0.808758 0.021519
O O2 0.290117 0.839438 0.772247
O O3 0.171389 0.454953 0.220576
O O4 0.500000 0.000000 0.000000
O O5 0.476855 0.143429 0.423764
O O6 0.834722 0.541251 0.282681
O O7 0.549055 0.189771 0.233677
O O8 0.664166 0.566044 0.986172
O O9 0.768888 0.735209 0.386608
O O10 0.000000 0.000000 0.500000
O O11 0.078696 0.991366 0.398797
O O12 0.691313 0.863127 0.656598
O O13 0.896375 0.255474 0.509389
O O14 0.000000 0.500000 0.500000
O O15 0.765645 0.241103 0.719245
O O16 0.500000 0.500000 0.500000
O O17 0.424844 0.349377 0.400461
O O18 0.642809 0.836891 0.073792
#
# Coordination Sequence:
#
# PCOD8031318 Si02
#       8
#     2   2   2   2   2   2   2   2
#     4  12  27  46  72 103 151 190 225 293 361 419
#     4  11  24  49  71  99 141 181 236 293 353 416
#     4  12  25  44  70 102 138 186 244 281 339 426
#     4  12  27  45  70 104 139 185 233 289 356 418
#     4  12  25  41  72 103 134 177 237 289 346 416
#     4  11  22  43  69  95 137 185 229 279 343 414
#     4  11  27  43  70 103 140 183 233 292 351 421
#     4  11  23  44  71 100 136 183 228 288 351 414
#
# _framework density 20.965775000000001
#
# number of rings (size 3 to 8) (size 9 to 14) (size 15 to 20)
#    0.000    0.500    5.000    3.000    5.250    2.000 
#    0.000    0.000    0.000    0.000    0.000    0.000 
#    0.000    0.000    0.000    0.000    0.000    0.000 
#
# Total GULP energy -198282.105181 kJ/mol
# GULP energy per Si atom -12392.631574 kJ/mol
# Density = 2.091806 g / cm^3
# Si number density = 20.965775 Si / 1000 Ang^3
#
#
#
# Elastic Constant Matrix: (Units=GPa)
#
#
# Indices 1 2 3 4 5 6 
#
# 1 95.6574 53.9789 27.3939 6.5454 11.8599 -2.2680
# 2 53.9789 169.7168 60.4184 18.3607 12.7237 -0.4981
# 3 27.3939 60.4184 94.6135 0.5178 0.9647 -3.5056
# 4 6.5454 18.3607 0.5178 39.3854 -0.2880 6.8231
# 5 11.8599 12.7237 0.9647 -0.2880 27.9269 0.2152
# 6 -2.2680 -0.4981 -3.5056 6.8231 0.2152 44.3960
#
#
#
# Elastic Compliance Matrix: (Units=1/GPa)
#
#
# Indices 1 2 3 4 5 6 
#
# 1 0.013361 -0.003227 -0.001736 -0.000838 -0.004157 0.000658
# 2 -0.003227 0.009293 -0.004946 -0.003776 -0.002733 0.000142
# 3 -0.001736 -0.004946 0.014215 0.002320 0.002519 0.000609
# 4 -0.000838 -0.003776 0.002320 0.028006 0.002317 -0.004217
# 5 -0.004157 -0.002733 0.002519 0.002317 0.038760 -0.000588
# 6 0.000658 0.000142 0.000609 -0.004217 -0.000588 0.023259
#
#
# Mechanical properties :
#
#
# Convention : Reuss Voigt Hill
#
# Bulk Modulus (GPa) = 58.65327 71.50779 65.08053
# Shear Modulus (GPa) = 32.80926 36.88809 34.84868
#
# Velocity S-wave (km/s) = 3.96017 4.19912 4.08139
# Velocity P-wave (km/s) = 6.99622 7.59547 7.30199
#
# Compressibility (1/GPa) = 0.01704935
#
# Stress axis : x y z
#
# Youngs Moduli (GPa) = 74.84720 107.60626 70.34909
#
# Poissons Ratio (x) = 0.34725 0.12215
# Poissons Ratio (y) = 0.24153 0.34797
# Poissons Ratio (z) = 0.12996 0.53225
#
# Static dielectric constant tensor:
#      x y z
#    x 3.850740 0.110880 0.122480 
#    y 0.110880 4.107270 0.034500 
#    z 0.122480 0.034500 4.120650 
# 
# 
# High freq. dielectric constant tensor:
#      x y z
#    x 1.827830 0.002340 0.006430 
#    y 0.002340 1.833970 0.001940 
#    z 0.006430 0.001940 1.838200 
# 
# From -- ./inp_files/433954.got.cif
#   From: 2010.06.25/outbox.cif.g09.slc.cpg/sg2_217_cif.got.tgz:433954.got - 2010.06.27 13:26:56.
