data_PCOD8031666
_publ_section_title
;
Structure prediction by ZEFSAII (Michael W. Deem and Ramdas Pophale) SiO2 
 PCOD8031666
Probable space group: P -1
;
_chemical_formula_sum "Si O2"
_cell_formula_units_Z 14
_cell_length_a 14.454847
_cell_length_b 16.957569
_cell_length_c 10.447072
_cell_angle_alpha 63.521256
_cell_angle_beta 125.869426
_cell_angle_gamma 155.367249
_cell_volume 835.901062
_symmetry_space_group_name_H-M "P -1"
_symmetry_group_IT_number 2
_symmetry_cell_setting 'triclinic'
loop_
_space_group_symop_operation_xyz
x,y,z
-x,-y,-z
loop_
_atom_site_type_symbol
_atom_site_label
_atom_site_fract_x
_atom_site_fract_y
_atom_site_fract_z
Si Si1 0.661824 0.310233 0.854534
Si Si2 0.283174 0.722664 0.534409
Si Si3 0.618675 0.351329 0.524426
Si Si4 0.546592 0.025672 0.710342
Si Si5 0.063979 0.780299 0.615837
Si Si6 0.818383 0.949224 0.441638
Si Si7 0.143274 0.738752 0.968771
O O1 0.731937 0.365654 0.718278
O O2 0.871485 0.510418 0.957675
O O3 0.378587 0.154761 0.755524
O O4 0.676447 0.216858 0.970014
O O5 0.417442 0.730062 0.574697
O O6 0.436980 0.857756 0.688399
O O7 0.000000 0.500000 0.500000
O O8 0.284497 0.807407 0.378918
O O9 0.816265 0.566675 0.505197
O O10 0.346761 0.201554 0.462293
O O11 0.314198 0.929102 0.631027
O O12 0.725184 0.123706 0.903604
O O13 0.021113 0.855843 0.522599
O O14 0.100757 0.779369 0.793850
O O15 0.000000 0.000000 0.500000
#
# Coordination Sequence:
#
# PCOD8031666 Si02
#       7
#     2   2   2   2   2   2   2
#     4   8  17  30  49  71 107 132 156 205 255 294
#     4  11  20  31  47  71 111 139 168 199 245 313
#     4   9  18  34  45  75 103 130 168 208 246 294
#     4  11  20  29  48  76 106 140 164 196 255 319
#     4  11  19  31  54  75 106 136 161 209 260 307
#     4  10  20  35  50  73 106 136 173 208 250 299
#     4  10  17  31  50  76 109 131 159 206 266 312
#
# _framework density 16.748394000000001
#
# number of rings (size 3 to 8) (size 9 to 14) (size 15 to 20)
#    0.857    1.143    5.714    0.429    0.000    0.571 
#    0.000    0.000    0.000    0.000    0.000    2.000 
#    0.000    0.000    0.000    0.000    0.000    0.000 
#
# Total GULP energy -173477.194954 kJ/mol
# GULP energy per Si atom -12391.228211 kJ/mol
# Density = 1.671027 g / cm^3
# Si number density = 16.748394 Si / 1000 Ang^3
#
#
#
# Elastic Constant Matrix: (Units=GPa)
#
#
# Indices 1 2 3 4 5 6 
#
# 1 111.0680 43.2734 31.2313 20.5064 -4.8521 -7.6930
# 2 43.2734 101.6191 22.7461 15.2695 -10.2398 -11.9740
# 3 31.2313 22.7461 42.1678 15.8863 -10.9985 -9.3747
# 4 20.5064 15.2695 15.8863 23.7030 -4.2292 -7.0724
# 5 -4.8521 -10.2398 -10.9985 -4.2292 27.2990 6.9290
# 6 -7.6930 -11.9740 -9.3747 -7.0724 6.9290 27.0103
#
#
#
# Elastic Compliance Matrix: (Units=1/GPa)
#
#
# Indices 1 2 3 4 5 6 
#
# 1 0.013069 -0.003653 -0.006525 -0.005269 -0.002248 -0.000965
# 2 -0.003653 0.012774 -0.002069 -0.002482 0.002244 0.002679
# 3 -0.006525 -0.002069 0.039443 -0.016424 0.010410 0.003943
# 4 -0.005269 -0.002482 -0.016424 0.061588 -0.000994 0.008079
# 5 -0.002248 0.002244 0.010410 -0.000994 0.042971 -0.007316
# 6 -0.000965 0.002679 0.003943 0.008079 -0.007316 0.043296
#
#
# Mechanical properties :
#
#
# Convention : Reuss Voigt Hill
#
# Bulk Modulus (GPa) = 24.51424 49.92850 37.22137
# Shear Modulus (GPa) = 19.90190 26.10939 23.00565
#
# Velocity S-wave (km/s) = 3.45089 3.95260 3.71024
# Velocity P-wave (km/s) = 5.52691 7.12084 6.37390
#
# Compressibility (1/GPa) = 0.04079262
#
# Stress axis : x y z
#
# Youngs Moduli (GPa) = 76.51443 78.28232 25.35332
#
# Poissons Ratio (x) = 0.28600 0.16542
# Poissons Ratio (y) = 0.27954 0.05245
# Poissons Ratio (z) = 0.49923 0.16195
#
# Static dielectric constant tensor:
#      x y z
#    x 2.863250 -0.110770 -0.274520 
#    y -0.110770 3.417750 0.166290 
#    z -0.274520 0.166290 2.835950 
# 
# 
# High freq. dielectric constant tensor:
#      x y z
#    x 1.608700 -0.012900 -0.023450 
#    y -0.012900 1.673780 0.011460 
#    z -0.023450 0.011460 1.596990 
# 
# From -- ./inp_files/431402.got.cif
#   From: 2010.06.25/outbox.cif.g09.slc.cpg/sg2_216_cif.got.tgz:431402.got - 2010.06.27 13:26:56.
