data_PCOD8031479
_publ_section_title
;
Structure prediction by ZEFSAII (Michael W. Deem and Ramdas Pophale) SiO2 
 PCOD8031479
Probable space group: P -1
;
_chemical_formula_sum "Si O2"
_cell_formula_units_Z 16
_cell_length_a 13.240762
_cell_length_b 22.475601
_cell_length_c 6.567774
_cell_angle_alpha 97.825729
_cell_angle_beta 83.913994
_cell_angle_gamma 159.110313
_cell_volume 689.192839
_symmetry_space_group_name_H-M "P -1"
_symmetry_group_IT_number 2
_symmetry_cell_setting 'triclinic'
loop_
_space_group_symop_operation_xyz
x,y,z
-x,-y,-z
loop_
_atom_site_type_symbol
_atom_site_label
_atom_site_fract_x
_atom_site_fract_y
_atom_site_fract_z
Si Si1 0.249179 0.146702 0.674477
Si Si2 0.532558 0.114230 0.957707
Si Si3 0.819463 0.021918 0.349373
Si Si4 0.206393 0.526499 0.490090
Si Si5 0.828770 0.384145 0.178156
Si Si6 0.050020 0.834408 0.218571
Si Si7 0.725350 0.741520 0.965422
Si Si8 0.099306 0.378187 0.781762
O O1 0.494014 0.323405 0.606084
O O2 0.168642 0.138469 0.892337
O O3 0.358437 0.139097 0.692936
O O4 0.000000 0.000000 0.500000
O O5 0.839354 0.254027 0.925779
O O6 0.366765 0.028730 0.739597
O O7 0.560298 0.197646 0.074629
O O8 0.334610 0.970878 0.097791
O O9 0.878287 0.075483 0.589720
O O10 0.120020 0.176030 0.246893
O O11 0.276049 0.615097 0.684630
O O12 0.077954 0.397732 0.573766
O O13 0.996258 0.432892 0.317976
O O14 0.000000 0.500000 0.000000
O O15 0.817715 0.734124 0.070245
O O16 0.916904 0.702038 0.289947
O O17 0.387587 0.555276 0.917661
#
# Coordination Sequence:
#
# PCOD8031479 Si02
#       8
#     2   2   2   2   2   2   2   2
#     4  12  23  43  72 103 139 177 236 293 360 425
#     4  11  25  44  73 104 138 188 238 295 358 420
#     4  11  25  46  72 105 138 184 236 296 364 422
#     4  11  26  40  66 107 138 185 226 288 357 419
#     4  11  22  44  68  99 146 177 223 286 358 422
#     4  11  26  50  70  99 146 195 241 292 347 419
#     4  11  26  48  71 106 138 190 242 295 354 417
#     4  12  26  47  71 105 145 190 243 291 348 422
#
# _framework density 23.215563
#
# number of rings (size 3 to 8) (size 9 to 14) (size 15 to 20)
#    0.000    0.750    2.500    4.125    7.000    1.000 
#    9.000    0.000    0.000    0.000    0.000    0.000 
#    0.000    0.000    0.000    0.000    0.000    0.000 
#
# Total GULP energy -198421.867588 kJ/mol
# GULP energy per Si atom -12401.366724 kJ/mol
# Density = 2.316272 g / cm^3
# Si number density = 23.215563 Si / 1000 Ang^3
#
#
#
# Elastic Constant Matrix: (Units=GPa)
#
#
# Indices 1 2 3 4 5 6 
#
# 1 90.9467 37.3393 35.4995 -13.3209 6.2150 -7.9169
# 2 37.3393 97.2793 33.9006 -10.9649 7.7323 5.2624
# 3 35.4995 33.9006 108.9237 -14.2623 10.0168 3.4277
# 4 -13.3209 -10.9649 -14.2623 33.2480 -3.6478 2.6752
# 5 6.2150 7.7323 10.0168 -3.6478 34.1132 -9.1470
# 6 -7.9169 5.2624 3.4277 2.6752 -9.1470 52.2865
#
#
#
# Elastic Compliance Matrix: (Units=1/GPa)
#
#
# Indices 1 2 3 4 5 6 
#
# 1 0.014669 -0.004379 -0.003154 0.002889 0.000299 0.002773
# 2 -0.004379 0.013195 -0.002214 0.001613 -0.001980 -0.002275
# 3 -0.003154 -0.002214 0.011540 0.002817 -0.002435 -0.001581
# 4 0.002889 0.001613 0.002817 0.033245 0.001473 -0.001353
# 5 0.000299 -0.001980 -0.002435 0.001473 0.032179 0.005958
# 6 0.002773 -0.002275 -0.001581 -0.001353 0.005958 0.020989
#
#
# Mechanical properties :
#
#
# Convention : Reuss Voigt Hill
#
# Bulk Modulus (GPa) = 50.23128 56.73650 53.48389
# Shear Modulus (GPa) = 32.90582 36.62355 34.76469
#
# Velocity S-wave (km/s) = 3.76893 3.97614 3.87392
# Velocity P-wave (km/s) = 6.37367 6.75068 6.56488
#
# Compressibility (1/GPa) = 0.01990792
#
# Stress axis : x y z
#
# Youngs Moduli (GPa) = 68.17204 75.78885 86.65225
#
# Poissons Ratio (x) = 0.33190 0.27331
# Poissons Ratio (y) = 0.29855 0.19189
# Poissons Ratio (z) = 0.21502 0.16783
#
# Static dielectric constant tensor:
#      x y z
#    x 4.198220 -0.145020 0.034860 
#    y -0.145020 4.177260 -0.083940 
#    z 0.034860 -0.083940 4.462520 
# 
# 
# High freq. dielectric constant tensor:
#      x y z
#    x 1.914630 0.002890 0.007480 
#    y 0.002890 1.915070 -0.006310 
#    z 0.007480 -0.006310 1.928780 
# 
# From -- ./inp_files/101165.got.cif
#   From: 2010.06.25/outbox.cif.g09.slc.cpg/sg2_51_cif.got.tgz:101165.got - 2010.06.27 13:26:56.
