data_PCOD8031876
_publ_section_title
;
Structure prediction by ZEFSAII (Michael W. Deem and Ramdas Pophale) SiO2 
 PCOD8031876
Probable space group: P -1
;
_chemical_formula_sum "Si O2"
_cell_formula_units_Z 14
_cell_length_a 15.109152
_cell_length_b 11.267782
_cell_length_c 12.658568
_cell_angle_alpha 46.914720
_cell_angle_beta 142.652312
_cell_angle_gamma 152.335042
_cell_volume 605.327226
_symmetry_space_group_name_H-M "P -1"
_symmetry_group_IT_number 2
_symmetry_cell_setting 'triclinic'
loop_
_space_group_symop_operation_xyz
x,y,z
-x,-y,-z
loop_
_atom_site_type_symbol
_atom_site_label
_atom_site_fract_x
_atom_site_fract_y
_atom_site_fract_z
Si Si1 0.144498 0.125375 0.308501
Si Si2 0.273806 0.300958 0.977677
Si Si3 0.846173 0.484978 0.138479
Si Si4 0.961990 0.295645 0.032775
Si Si5 0.352198 0.095306 0.868077
Si Si6 0.015175 0.732527 0.584803
Si Si7 0.531277 0.436247 0.330812
O O1 0.396426 0.302681 0.394215
O O2 0.945021 0.958054 0.132291
O O3 0.092299 0.948300 0.454973
O O4 0.145024 0.312931 0.236558
O O5 0.198341 0.413342 0.880369
O O6 0.500000 0.500000 0.000000
O O7 0.341305 0.243867 0.175473
O O8 0.030774 0.685009 0.099752
O O9 0.925967 0.392541 0.334243
O O10 0.606019 0.245342 0.992815
O O11 0.000000 0.500000 0.000000
O O12 0.713592 0.014222 0.007554
O O13 0.350906 0.287857 0.740547
O O14 0.154940 0.855335 0.751578
O O15 0.741626 0.491985 0.492735
#
# Coordination Sequence:
#
# PCOD8031876 Si02
#       7
#     2   2   2   2   2   2   2
#     4  12  25  44  72 102 139 190 226 285 351 407
#     4  11  22  49  76  96 137 189 240 277 345 423
#     4  11  26  45  72 103 140 185 233 288 347 409
#     4  12  24  42  72 105 135 180 236 278 347 418
#     4  11  23  44  68  98 145 187 227 281 347 420
#     4  12  25  42  68 106 144 176 231 293 348 403
#     4  11  24  42  68 103 136 185 232 284 341 411
#
# _framework density 23.127987000000001
#
# number of rings (size 3 to 8) (size 9 to 14) (size 15 to 20)
#    0.000    0.571    7.143    2.143    0.000    3.429 
#    0.000    0.714    0.000    0.000    0.000    0.000 
#    0.000    0.000    0.000    0.000    0.000    0.000 
#
# Total GULP energy -173505.399936 kJ/mol
# GULP energy per Si atom -12393.242853 kJ/mol
# Density = 2.307535 g / cm^3
# Si number density = 23.127987 Si / 1000 Ang^3
#
#
#
# Elastic Constant Matrix: (Units=GPa)
#
#
# Indices 1 2 3 4 5 6 
#
# 1 146.1857 50.5043 49.2932 -13.2324 22.1052 11.3545
# 2 50.5043 85.6452 33.3980 -6.1074 7.3175 17.5398
# 3 49.2932 33.3980 110.4588 -5.7169 31.8715 -3.0511
# 4 -13.2324 -6.1074 -5.7169 43.4813 1.3933 -3.7977
# 5 22.1052 7.3175 31.8715 1.3933 38.5192 -7.6971
# 6 11.3545 17.5398 -3.0511 -3.7977 -7.6971 36.6249
#
#
#
# Elastic Compliance Matrix: (Units=1/GPa)
#
#
# Indices 1 2 3 4 5 6 
#
# 1 0.009845 -0.004201 -0.002023 0.002103 -0.003603 -0.001748
# 2 -0.004201 0.016937 -0.003686 -0.000018 0.000858 -0.006938
# 3 -0.002023 -0.003686 0.013862 0.001137 -0.009308 0.001709
# 4 0.002103 -0.000018 0.001137 0.023992 -0.002739 0.001363
# 5 -0.003603 0.000858 -0.009308 -0.002739 0.037157 0.007456
# 6 -0.001748 -0.006938 0.001709 0.001363 0.007456 0.033019
#
#
# Mechanical properties :
#
#
# Convention : Reuss Voigt Hill
#
# Bulk Modulus (GPa) = 48.02172 67.63120 57.82646
# Shear Modulus (GPa) = 30.94555 37.66472 34.30513
#
# Velocity S-wave (km/s) = 3.66185 4.03989 3.85551
# Velocity P-wave (km/s) = 6.21992 7.14609 6.69903
#
# Compressibility (1/GPa) = 0.02082391
#
# Stress axis : x y z
#
# Youngs Moduli (GPa) = 101.57366 59.04216 72.13755
#
# Poissons Ratio (x) = 0.24802 0.14594
# Poissons Ratio (y) = 0.42669 0.26593
# Poissons Ratio (z) = 0.20549 0.21765
#
# Static dielectric constant tensor:
#      x y z
#    x 4.490570 0.130670 0.149770 
#    y 0.130670 4.227650 -0.017980 
#    z 0.149770 -0.017980 4.165770 
# 
# 
# High freq. dielectric constant tensor:
#      x y z
#    x 1.929130 0.017030 0.015120 
#    y 0.017030 1.913420 -0.011150 
#    z 0.015120 -0.011150 1.895600 
# 
# From -- ./inp_files/451140.got.cif
#   From: 2010.06.25/outbox.cif.g09.slc.cpg/sg2_226_cif.got.tgz:451140.got - 2010.06.27 13:26:56.
