data_PCOD8031511
_publ_section_title
;
Structure prediction by ZEFSAII (Michael W. Deem and Ramdas Pophale) SiO2 
 PCOD8031511
Probable space group: P -1
;
_chemical_formula_sum "Si O2"
_cell_formula_units_Z 16
_cell_length_a 9.561274
_cell_length_b 19.421562
_cell_length_c 12.044139
_cell_angle_alpha 47.817268
_cell_angle_beta 108.016397
_cell_angle_gamma 146.347998
_cell_volume 729.108989
_symmetry_space_group_name_H-M "P -1"
_symmetry_group_IT_number 2
_symmetry_cell_setting 'triclinic'
loop_
_space_group_symop_operation_xyz
x,y,z
-x,-y,-z
loop_
_atom_site_type_symbol
_atom_site_label
_atom_site_fract_x
_atom_site_fract_y
_atom_site_fract_z
Si Si1 0.705031 0.082207 0.222324
Si Si2 0.159065 0.305190 0.902339
Si Si3 0.885004 0.371409 0.206948
Si Si4 0.691501 0.449137 0.481173
Si Si5 0.005465 0.996800 0.873539
Si Si6 0.824770 0.361769 0.445648
Si Si7 0.144899 0.325225 0.278387
Si Si8 0.310682 0.020563 0.303908
O O1 0.463555 0.030867 0.246128
O O2 0.956546 0.204333 0.249267
O O3 0.508146 0.878323 0.375082
O O4 0.895607 0.209136 0.017643
O O5 0.230711 0.402505 0.701398
O O6 0.484510 0.485071 0.858180
O O7 0.034443 0.132350 0.030853
O O8 0.908774 0.436692 0.259096
O O9 0.524107 0.143187 0.335041
O O10 0.108021 0.407570 0.227368
O O11 0.000000 0.500000 0.000000
O O12 0.805758 0.446936 0.412939
O O13 0.899601 0.549110 0.533742
O O14 0.328442 0.223977 0.663047
O O15 0.720763 0.899535 0.855864
O O16 0.000000 0.000000 0.000000
O O17 0.029006 0.196841 0.492189
#
# Coordination Sequence:
#
# PCOD8031511 Si02
#       8
#     2   2   2   2   2   2   2   2
#     4  11  23  45  74 104 140 188 239 295 354 434
#     4  12  27  48  72 105 146 188 236 295 368 417
#     4  11  23  40  70 106 142 187 239 294 356 419
#     4  11  28  47  70 105 147 193 240 292 360 426
#     4  12  29  47  72 107 142 187 246 296 356 431
#     4  11  24  47  70 104 147 191 240 296 354 432
#     4  11  22  44  70 107 142 184 239 294 362 419
#     4  11  23  45  71 104 140 184 242 293 353 422
#
# _framework density 21.944593000000001
#
# number of rings (size 3 to 8) (size 9 to 14) (size 15 to 20)
#    0.000    0.750    5.000    1.875    8.750    2.000 
#    2.250    1.875    0.000    0.000    0.000    0.000 
#    0.000    0.000    0.000    0.000    0.000    0.000 
#
# Total GULP energy -198390.722386 kJ/mol
# GULP energy per Si atom -12399.420149 kJ/mol
# Density = 2.189465 g / cm^3
# Si number density = 21.944593 Si / 1000 Ang^3
#
#
#
# Elastic Constant Matrix: (Units=GPa)
#
#
# Indices 1 2 3 4 5 6 
#
# 1 77.8473 29.5612 44.4393 11.0505 3.2978 -4.2198
# 2 29.5612 88.5085 36.3612 12.1383 -6.2752 -7.4731
# 3 44.4393 36.3612 150.8375 10.2110 0.7874 -6.6399
# 4 11.0505 12.1383 10.2110 36.3892 4.9675 2.9375
# 5 3.2978 -6.2752 0.7874 4.9675 36.1045 -1.0716
# 6 -4.2198 -7.4731 -6.6399 2.9375 -1.0716 26.6326
#
#
#
# Elastic Compliance Matrix: (Units=1/GPa)
#
#
# Indices 1 2 3 4 5 6 
#
# 1 0.016982 -0.003767 -0.003867 -0.002651 -0.001730 0.000892
# 2 -0.003767 0.014450 -0.001973 -0.003891 0.003539 0.003538
# 3 -0.003867 -0.001973 0.008327 -0.000574 -0.000064 0.000970
# 4 -0.002651 -0.003891 -0.000574 0.030826 -0.004819 -0.005249
# 5 -0.001730 0.003539 -0.000064 -0.004819 0.029206 0.002410
# 6 0.000892 0.003538 0.000970 -0.005249 0.002410 0.039600
#
#
# Mechanical properties :
#
#
# Convention : Reuss Voigt Hill
#
# Bulk Modulus (GPa) = 48.67508 59.76853 54.22180
# Shear Modulus (GPa) = 30.22006 33.61404 31.91705
#
# Velocity S-wave (km/s) = 3.71497 3.91803 3.81785
# Velocity P-wave (km/s) = 6.37419 6.91109 6.64806
#
# Compressibility (1/GPa) = 0.02054439
#
# Stress axis : x y z
#
# Youngs Moduli (GPa) = 58.88710 69.20306 120.09837
#
# Poissons Ratio (x) = 0.26067 0.46446
# Poissons Ratio (y) = 0.22181 0.23695
# Poissons Ratio (z) = 0.22773 0.13654
#
# Static dielectric constant tensor:
#      x y z
#    x 3.847270 0.233420 -0.193250 
#    y 0.233420 3.479390 0.239930 
#    z -0.193250 0.239930 3.812190 
# 
# 
# High freq. dielectric constant tensor:
#      x y z
#    x 1.856140 0.003160 -0.001540 
#    y 0.003160 1.869030 -0.002720 
#    z -0.001540 -0.002720 1.879960 
# 
# From -- ./inp_files/333302.got.cif
#   From: 2010.06.25/outbox.cif.g09.slc.cpg/sg2_167_cif.got.tgz:333302.got - 2010.06.27 13:26:56.
