data_PCOD8031253
_publ_section_title
;
Structure prediction by ZEFSAII (Michael W. Deem and Ramdas Pophale) SiO2 
 PCOD8031253
Probable space group: P -1
;
_chemical_formula_sum "Si O2"
_cell_formula_units_Z 14
_cell_length_a 11.625584
_cell_length_b 9.139414
_cell_length_c 17.531978
_cell_angle_alpha 111.388362
_cell_angle_beta 159.715998
_cell_angle_gamma 70.255610
_cell_volume 601.253616
_symmetry_space_group_name_H-M "P -1"
_symmetry_group_IT_number 2
_symmetry_cell_setting 'triclinic'
loop_
_space_group_symop_operation_xyz
x,y,z
-x,-y,-z
loop_
_atom_site_type_symbol
_atom_site_label
_atom_site_fract_x
_atom_site_fract_y
_atom_site_fract_z
Si Si1 0.158789 0.044132 0.991329
Si Si2 0.224364 0.643148 0.636695
Si Si3 0.245378 0.259403 0.310331
Si Si4 0.172537 0.543297 0.008093
Si Si5 0.293981 0.986249 0.793197
Si Si6 0.308766 0.685432 0.268939
Si Si7 0.685845 0.218105 0.442691
O O1 0.443320 0.972955 0.101387
O O2 0.354175 0.116904 0.198363
O O3 0.952161 0.179927 0.846940
O O4 0.889161 0.915004 0.822852
O O5 0.589122 0.602190 0.887339
O O6 0.132893 0.811603 0.647664
O O7 0.229581 0.657496 0.549538
O O8 0.000000 0.500000 0.500000
O O9 0.346891 0.279207 0.465883
O O10 0.572034 0.297242 0.467229
O O11 0.936404 0.373414 0.122090
O O12 0.359411 0.668813 0.205557
O O13 0.830895 0.483840 0.822955
O O14 0.000949 0.110066 0.632240
O O15 0.500000 0.000000 0.000000
#
# Coordination Sequence:
#
# PCOD8031253 Si02
#       7
#     2   2   2   2   2   2   2
#     4  11  22  43  66 101 132 176 230 274 333 406
#     4  11  25  44  70  96 132 184 228 276 342 410
#     4  12  25  39  73 102 132 176 225 280 336 405
#     4  11  23  42  65  94 142 168 224 276 344 395
#     4  11  25  46  69  98 138 180 231 281 333 408
#     4  11  22  43  63  98 136 176 219 279 335 400
#     4  11  23  44  70  96 137 182 225 277 346 399
#
# _framework density 23.284682
#
# number of rings (size 3 to 8) (size 9 to 14) (size 15 to 20)
#    0.000    0.857    4.286    4.714    4.000    1.143 
#    0.000    0.714    0.000    0.000    0.000    0.000 
#    0.000    0.000    0.000    0.000    0.000    0.000 
#
# Total GULP energy -173509.373959 kJ/mol
# GULP energy per Si atom -12393.526711 kJ/mol
# Density = 2.323169 g / cm^3
# Si number density = 23.284682 Si / 1000 Ang^3
#
#
#
# Elastic Constant Matrix: (Units=GPa)
#
#
# Indices 1 2 3 4 5 6 
#
# 1 47.5754 17.8069 24.3315 -5.3430 1.1709 9.9137
# 2 17.8069 82.7938 38.5412 -22.7697 5.0423 20.3015
# 3 24.3315 38.5412 123.2752 -28.0023 -23.5856 20.0255
# 4 -5.3430 -22.7697 -28.0023 49.3800 10.4362 9.4545
# 5 1.1709 5.0423 -23.5856 10.4362 31.9939 0.6552
# 6 9.9137 20.3015 20.0255 9.4545 0.6552 25.7829
#
#
#
# Elastic Compliance Matrix: (Units=1/GPa)
#
#
# Indices 1 2 3 4 5 6 
#
# 1 0.025106 -0.001247 -0.003866 0.002024 -0.004103 -0.006306
# 2 -0.001247 0.023742 -0.001678 0.016259 -0.009773 -0.022625
# 3 -0.003866 -0.001678 0.014704 0.007449 0.009053 -0.011574
# 4 0.002024 0.016259 0.007449 0.040775 -0.009748 -0.034070
# 5 -0.004103 -0.009773 0.009053 -0.009748 0.042703 0.004731
# 6 -0.006306 -0.022625 -0.011574 -0.034070 0.004731 0.080388
#
#
# Mechanical properties :
#
#
# Convention : Reuss Voigt Hill
#
# Bulk Modulus (GPa) = 20.01244 46.11151 33.06198
# Shear Modulus (GPa) = 19.40570 32.96235 26.18402
#
# Velocity S-wave (km/s) = 2.89002 3.76656 3.35702
# Velocity P-wave (km/s) = 4.44405 6.22594 5.40888
#
# Compressibility (1/GPa) = 0.04996892
#
# Stress axis : x y z
#
# Youngs Moduli (GPa) = 39.83156 42.11946 68.00914
#
# Poissons Ratio (x) = 0.05253 0.26295
# Poissons Ratio (y) = 0.04967 0.11411
# Poissons Ratio (z) = 0.15401 0.07067
#
# Static dielectric constant tensor:
#      x y z
#    x 1.255880 1.581220 -0.200600 
#    y 1.581220 3.368870 -0.038500 
#    z -0.200600 -0.038500 4.246080 
# 
# 
# High freq. dielectric constant tensor:
#      x y z
#    x 1.900460 0.002000 -0.010080 
#    y 0.002000 1.925210 -0.016500 
#    z -0.010080 -0.016500 1.923240 
# 
# From -- ./inp_files/204715.got.cif
#   From: 2010.06.25/outbox.cif.g09.slc.cpg/sg2_103_cif.got.tgz:204715.got - 2010.06.27 13:26:56.
