data_PCOD8031803
_publ_section_title
;
Structure prediction by ZEFSAII (Michael W. Deem and Ramdas Pophale) SiO2 
 PCOD8031803
Probable space group: P -1
;
_chemical_formula_sum "Si O2"
_cell_formula_units_Z 16
_cell_length_a 11.799831
_cell_length_b 16.489496
_cell_length_c 8.192078
_cell_angle_alpha 58.744169
_cell_angle_beta 48.798382
_cell_angle_gamma 31.683646
_cell_volume 626.388359
_symmetry_space_group_name_H-M "P -1"
_symmetry_group_IT_number 2
_symmetry_cell_setting 'triclinic'
loop_
_space_group_symop_operation_xyz
x,y,z
-x,-y,-z
loop_
_atom_site_type_symbol
_atom_site_label
_atom_site_fract_x
_atom_site_fract_y
_atom_site_fract_z
Si Si1 0.419946 0.870164 0.944231
Si Si2 0.919920 0.826923 0.878912
Si Si3 0.336074 0.167686 0.536136
Si Si4 0.107847 0.343357 0.093468
Si Si5 0.159269 0.608264 0.390086
Si Si6 0.328643 0.735872 0.722831
Si Si7 0.852236 0.175603 0.845276
Si Si8 0.308504 0.947507 0.441260
O O1 0.584446 0.787169 0.710767
O O2 0.602201 0.786773 0.013815
O O3 0.274076 0.843505 0.124541
O O4 0.240313 0.053223 0.940087
O O5 0.915660 0.715547 0.977922
O O6 0.203705 0.714105 0.760018
O O7 0.808695 0.933291 0.714646
O O8 0.417335 0.153968 0.658589
O O9 0.040190 0.299365 0.666168
O O10 0.500000 0.000000 0.500000
O O11 0.970339 0.359420 0.354938
O O12 0.000000 0.500000 0.000000
O O13 0.393270 0.426421 0.317831
O O14 0.266730 0.661543 0.245526
O O15 0.325639 0.827664 0.508325
O O16 0.168752 0.840532 0.927039
O O17 0.138691 0.044039 0.663637
#
# Coordination Sequence:
#
# PCOD8031803 Si02
#       8
#     2   2   2   2   2   2   2   2
#     4  11  25  46  75 107 141 191 252 299 354 438
#     4  12  26  46  74 109 144 191 248 294 362 441
#     4  11  22  46  74 100 149 194 239 302 359 429
#     4  11  27  50  70 106 150 196 235 302 375 431
#     4  11  27  47  73 108 146 197 244 301 368 428
#     4  12  27  44  74 114 148 190 242 303 368 433
#     4  12  23  49  74 107 146 189 249 302 361 425
#     4  12  23  44  75 106 146 192 243 299 359 428
#
# _framework density 25.543257000000001
#
# number of rings (size 3 to 8) (size 9 to 14) (size 15 to 20)
#    0.000    0.500    5.000    3.000    3.500    1.000 
#    0.000    0.000    0.000    0.000    0.000    0.000 
#    0.000    0.000    0.000    0.000    0.000    0.000 
#
# Total GULP energy -198378.732961 kJ/mol
# GULP energy per Si atom -12398.670810 kJ/mol
# Density = 2.548512 g / cm^3
# Si number density = 25.543257 Si / 1000 Ang^3
#
#
#
# Elastic Constant Matrix: (Units=GPa)
#
#
# Indices 1 2 3 4 5 6 
#
# 1 169.7610 44.8298 27.0437 4.2112 -25.2579 -7.8218
# 2 44.8298 125.4226 16.4272 3.9534 -14.3157 -7.6862
# 3 27.0437 16.4272 74.9721 -0.7173 -7.9343 3.4796
# 4 4.2112 3.9534 -0.7173 38.8310 4.8888 -13.4516
# 5 -25.2579 -14.3157 -7.9343 4.8888 27.4453 -6.1308
# 6 -7.8218 -7.6862 3.4796 -13.4516 -6.1308 50.2779
#
#
#
# Elastic Compliance Matrix: (Units=1/GPa)
#
#
# Indices 1 2 3 4 5 6 
#
# 1 0.007628 -0.001663 -0.001819 -0.000924 0.006140 0.001560
# 2 -0.001663 0.009215 -0.001134 -0.000703 0.003399 0.001455
# 3 -0.001819 -0.001134 0.014476 -0.000069 0.001647 -0.001276
# 4 -0.000924 -0.000703 -0.000069 0.028924 -0.004848 0.006901
# 5 0.006140 0.003399 0.001647 -0.004848 0.046480 0.005731
# 6 0.001560 0.001455 -0.001276 0.006901 0.005731 0.022988
#
#
# Mechanical properties :
#
#
# Convention : Reuss Voigt Hill
#
# Bulk Modulus (GPa) = 45.27330 60.75079 53.01204
# Shear Modulus (GPa) = 34.17562 42.10116 38.13839
#
# Velocity S-wave (km/s) = 3.66177 4.06424 3.86824
# Velocity P-wave (km/s) = 5.96998 6.77194 6.38357
#
# Compressibility (1/GPa) = 0.02208808
#
# Stress axis : x y z
#
# Youngs Moduli (GPa) = 131.10073 108.51735 69.08177
#
# Poissons Ratio (x) = 0.18043 0.12563
# Poissons Ratio (y) = 0.21798 0.07833
# Poissons Ratio (z) = 0.23842 0.12305
#
# Static dielectric constant tensor:
#      x y z
#    x 4.774400 -0.069800 -0.159000 
#    y -0.069800 4.519050 0.008730 
#    z -0.159000 0.008730 4.987700 
# 
# 
# High freq. dielectric constant tensor:
#      x y z
#    x 2.024950 -0.002830 -0.016270 
#    y -0.002830 2.008190 -0.005390 
#    z -0.016270 -0.005390 2.033600 
# 
# From -- ./inp_files/243326.got.cif
#   From: 2010.06.25/outbox.cif.g09.slc.cpg/sg2_122_cif.got.tgz:243326.got - 2010.06.27 13:26:56.
