data_PCOD8031208
_publ_section_title
;
Structure prediction by ZEFSAII (Michael W. Deem and Ramdas Pophale) SiO2 
 PCOD8031208
Probable space group: P -1
;
_chemical_formula_sum "Si O2"
_cell_formula_units_Z 16
_cell_length_a 11.075540
_cell_length_b 11.328662
_cell_length_c 8.218618
_cell_angle_alpha 130.727396
_cell_angle_beta 109.729800
_cell_angle_gamma 69.790274
_cell_volume 724.171665
_symmetry_space_group_name_H-M "P -1"
_symmetry_group_IT_number 2
_symmetry_cell_setting 'triclinic'
loop_
_space_group_symop_operation_xyz
x,y,z
-x,-y,-z
loop_
_atom_site_type_symbol
_atom_site_label
_atom_site_fract_x
_atom_site_fract_y
_atom_site_fract_z
Si Si1 0.970691 0.153920 0.520056
Si Si2 0.306548 0.703357 0.969112
Si Si3 0.198711 0.274813 0.108379
Si Si4 0.479305 0.189246 0.619183
Si Si5 0.139313 0.967153 0.946938
Si Si6 0.908833 0.382687 0.983107
Si Si7 0.219361 0.266352 0.756978
Si Si8 0.588967 0.576708 0.481311
O O1 0.875488 0.131119 0.311230
O O2 0.900848 0.292091 0.728783
O O3 0.112088 0.181258 0.542939
O O4 0.000000 0.000000 0.500000
O O5 0.262756 0.865535 0.999482
O O6 0.364629 0.554915 0.751465
O O7 0.412745 0.730922 0.172858
O O8 0.173683 0.680486 0.971966
O O9 0.287945 0.387691 0.329946
O O10 0.258684 0.198005 0.894402
O O11 0.054123 0.373470 0.107674
O O12 0.188642 0.130650 0.092268
O O13 0.339390 0.264739 0.692995
O O14 0.478714 0.257241 0.492622
O O15 0.500000 0.000000 0.500000
O O16 0.000000 0.000000 0.000000
O O17 0.848537 0.558847 0.071348
O O18 0.500000 0.500000 0.500000
#
# Coordination Sequence:
#
# PCOD8031208 Si02
#       8
#     2   2   2   2   2   2   2   2
#     4  11  22  42  72 108 142 188 228 295 370 427
#     4  12  27  45  73 104 142 188 242 296 355 433
#     4  11  24  45  71 108 145 183 239 297 365 428
#     4  12  29  50  74 101 140 200 245 299 363 438
#     4  12  25  43  70 111 152 181 234 299 363 434
#     4  11  24  44  71 106 143 182 237 298 361 427
#     4  11  25  45  72 100 147 186 242 293 358 436
#     4  12  29  50  74 105 146 195 243 302 360 435
#
# _framework density 22.094207000000001
#
# number of rings (size 3 to 8) (size 9 to 14) (size 15 to 20)
#    0.000    0.500    5.000    3.375   10.500    1.500 
#    0.000    2.500    0.000    0.000    0.000    0.000 
#    0.000    0.000    0.000    0.000    0.000    0.000 
#
# Total GULP energy -198307.385619 kJ/mol
# GULP energy per Si atom -12394.211601 kJ/mol
# Density = 2.204392 g / cm^3
# Si number density = 22.094207 Si / 1000 Ang^3
#
#
#
# Elastic Constant Matrix: (Units=GPa)
#
#
# Indices 1 2 3 4 5 6 
#
# 1 134.5321 50.1539 54.9577 -5.4936 8.5733 14.5715
# 2 50.1539 115.9193 16.0743 9.3334 -7.0273 12.5585
# 3 54.9577 16.0743 106.6810 -1.0588 14.3252 -2.0825
# 4 -5.4936 9.3334 -1.0588 33.4862 6.2567 2.1890
# 5 8.5733 -7.0273 14.3252 6.2567 21.7141 -4.0093
# 6 14.5715 12.5585 -2.0825 2.1890 -4.0093 35.8366
#
#
#
# Elastic Compliance Matrix: (Units=1/GPa)
#
#
# Indices 1 2 3 4 5 6 
#
# 1 0.012229 -0.004807 -0.004913 0.004461 -0.005246 -0.004433
# 2 -0.004807 0.011739 -0.000343 -0.005363 0.007277 -0.001038
# 3 -0.004913 -0.000343 0.012879 0.000776 -0.006505 0.002091
# 4 0.004461 -0.005363 0.000776 0.035123 -0.014810 -0.003691
# 5 -0.005246 0.007277 -0.006505 -0.014810 0.060304 0.006856
# 6 -0.004433 -0.001038 0.002091 -0.003691 0.006856 0.031185
#
#
# Mechanical properties :
#
#
# Convention : Reuss Voigt Hill
#
# Bulk Modulus (GPa) = 59.80794 66.61158 63.20976
# Shear Modulus (GPa) = 26.43283 33.93712 30.18497
#
# Velocity S-wave (km/s) = 3.46261 3.92346 3.70022
# Velocity P-wave (km/s) = 6.56616 7.12313 6.85031
#
# Compressibility (1/GPa) = 0.01672019
#
# Stress axis : x y z
#
# Youngs Moduli (GPa) = 81.77392 85.18348 77.64793
#
# Poissons Ratio (x) = 0.40944 0.38151
# Poissons Ratio (y) = 0.39305 0.02666
# Poissons Ratio (z) = 0.40179 0.02925
#
# Static dielectric constant tensor:
#      x y z
#    x 4.196280 0.334240 0.028820 
#    y 0.334240 4.410080 -0.038100 
#    z 0.028820 -0.038100 3.800960 
# 
# 
# High freq. dielectric constant tensor:
#      x y z
#    x 1.877490 0.016720 0.008930 
#    y 0.016720 1.886210 0.000190 
#    z 0.008930 0.000190 1.872490 
# 
# From -- ./inp_files/260740.got.cif
#   From: 2010.06.25/outbox.cif.g09.slc.cpg/sg2_131_cif.got.tgz:260740.got - 2010.06.27 13:26:56.
