data_PCOD8031902
_publ_section_title
;
Structure prediction by ZEFSAII (Michael W. Deem and Ramdas Pophale) SiO2 
 PCOD8031902
Probable space group: P -1
;
_chemical_formula_sum "Si O2"
_cell_formula_units_Z 16
_cell_length_a 21.573556
_cell_length_b 12.754877
_cell_length_c 10.147449
_cell_angle_alpha 147.935772
_cell_angle_beta 37.680472
_cell_angle_gamma 145.538704
_cell_volume 797.834218
_symmetry_space_group_name_H-M "P -1"
_symmetry_group_IT_number 2
_symmetry_cell_setting 'triclinic'
loop_
_space_group_symop_operation_xyz
x,y,z
-x,-y,-z
loop_
_atom_site_type_symbol
_atom_site_label
_atom_site_fract_x
_atom_site_fract_y
_atom_site_fract_z
Si Si1 0.883953 0.826000 0.946595
Si Si2 0.839586 0.929186 0.674082
Si Si3 0.100032 0.720255 0.829243
Si Si4 0.238336 0.893402 0.527680
Si Si5 0.454839 0.161515 0.308764
Si Si6 0.052039 0.259277 0.529816
Si Si7 0.145991 0.461175 0.080638
Si Si8 0.661248 0.637282 0.477110
O O1 0.790300 0.903522 0.218238
O O2 0.896776 0.812906 0.755819
O O3 0.851441 0.594497 0.828017
O O4 0.000000 0.000000 0.000000
O O5 0.886059 0.755373 0.455182
O O6 0.709758 0.786218 0.686585
O O7 0.916402 0.089966 0.596863
O O8 0.844645 0.068170 0.942857
O O9 0.193962 0.765554 0.605534
O O10 0.074833 0.510028 0.738970
O O11 0.979923 0.679654 0.921934
O O12 0.184317 0.725643 0.312725
O O13 0.377009 0.019892 0.413276
O O14 0.558333 0.395787 0.433458
O O15 0.378960 0.222662 0.400579
O O16 0.500000 0.000000 0.000000
O O17 0.235802 0.403330 0.794899
#
# Coordination Sequence:
#
# PCOD8031902 Si02
#       8
#     2   2   2   2   2   2   2   2
#     4  12  20  35  59  93 133 164 201 252 314 377
#     4  11  24  42  60  90 133 174 207 246 311 385
#     4  12  24  38  62 101 134 167 205 250 316 389
#     4  12  23  38  65  93 127 163 208 266 315 361
#     4  11  25  45  67  94 119 160 219 272 313 360
#     4  11  23  38  59  93 137 172 202 243 312 391
#     4  12  22  37  65  99 130 162 205 257 321 379
#     4  11  25  43  68  92 122 167 214 261 314 369
#
# _framework density 20.054290999999999
#
# number of rings (size 3 to 8) (size 9 to 14) (size 15 to 20)
#    0.000    0.500    6.250    3.750    1.750    1.000 
#    0.000    0.625    0.000    1.500    0.000    0.000 
#    0.000    0.000    0.000    0.000    0.000    0.000 
#
# Total GULP energy -198299.938632 kJ/mol
# GULP energy per Si atom -12393.746165 kJ/mol
# Density = 2.000865 g / cm^3
# Si number density = 20.054291 Si / 1000 Ang^3
#
#
#
# Elastic Constant Matrix: (Units=GPa)
#
#
# Indices 1 2 3 4 5 6 
#
# 1 94.3196 62.4518 42.1435 5.8406 10.3244 8.3510
# 2 62.4518 127.0082 43.4750 -7.6281 4.9738 5.5299
# 3 42.1435 43.4750 112.5438 -1.4436 1.0108 9.4400
# 4 5.8406 -7.6281 -1.4436 39.8974 1.9457 -2.2854
# 5 10.3244 4.9738 1.0108 1.9457 27.9046 8.6837
# 6 8.3510 5.5299 9.4400 -2.2854 8.6837 37.3488
#
#
#
# Elastic Compliance Matrix: (Units=1/GPa)
#
#
# Indices 1 2 3 4 5 6 
#
# 1 0.018246 -0.007697 -0.003772 -0.004122 -0.004590 -0.001172
# 2 -0.007697 0.012499 -0.001947 0.003461 0.000292 0.000506
# 3 -0.003772 -0.001947 0.011217 0.000367 0.001977 -0.002140
# 4 -0.004122 0.003461 0.000367 0.026558 -0.001683 0.002333
# 5 -0.004590 0.000292 0.001977 -0.001683 0.040328 -0.008996
# 6 -0.001172 0.000506 -0.002140 0.002333 -0.008996 0.029737
#
#
# Mechanical properties :
#
#
# Convention : Reuss Voigt Hill
#
# Bulk Modulus (GPa) = 66.09906 70.00135 68.05021
# Shear Modulus (GPa) = 29.33228 33.41689 31.37458
#
# Velocity S-wave (km/s) = 3.82860 4.08649 3.95964
# Velocity P-wave (km/s) = 7.25092 7.56621 7.41024
#
# Compressibility (1/GPa) = 0.01512881
#
# Stress axis : x y z
#
# Youngs Moduli (GPa) = 54.80686 80.00553 89.15420
#
# Poissons Ratio (x) = 0.61583 0.33632
# Poissons Ratio (y) = 0.42187 0.17355
# Poissons Ratio (z) = 0.20675 0.15575
#
# Static dielectric constant tensor:
#      x y z
#    x 2.984470 0.331630 -0.088100 
#    y 0.331630 3.474080 0.145120 
#    z -0.088100 0.145120 3.605740 
# 
# 
# High freq. dielectric constant tensor:
#      x y z
#    x 1.758320 -0.016250 -0.002000 
#    y -0.016250 1.794070 0.013380 
#    z -0.002000 0.013380 1.793040 
# 
# From -- ./inp_files/346432.got.cif
#   From: 2010.06.25/outbox.cif.g09.slc.cpg/sg2_174_cif.got.tgz:346432.got - 2010.06.27 13:26:56.
