data_PCOD8031653
_publ_section_title
;
Structure prediction by ZEFSAII (Michael W. Deem and Ramdas Pophale) SiO2 
 PCOD8031653
Probable space group: P -1
;
_chemical_formula_sum "Si O2"
_cell_formula_units_Z 16
_cell_length_a 26.642321
_cell_length_b 21.552612
_cell_length_c 15.069540
_cell_angle_alpha 159.766460
_cell_angle_beta 18.170933
_cell_angle_gamma 159.374051
_cell_volume 850.512301
_symmetry_space_group_name_H-M "P -1"
_symmetry_group_IT_number 2
_symmetry_cell_setting 'triclinic'
loop_
_space_group_symop_operation_xyz
x,y,z
-x,-y,-z
loop_
_atom_site_type_symbol
_atom_site_label
_atom_site_fract_x
_atom_site_fract_y
_atom_site_fract_z
Si Si1 0.249461 0.212571 0.351203
Si Si2 0.947512 0.140524 0.477469
Si Si3 0.588492 0.458328 0.207596
Si Si4 0.241180 0.611893 0.882322
Si Si5 0.642679 0.791607 0.434023
Si Si6 0.022440 0.910052 0.202058
Si Si7 0.903091 0.465637 0.784578
Si Si8 0.114403 0.221167 0.130017
O O1 0.450822 0.290601 0.150587
O O2 0.210388 0.389795 0.609764
O O3 0.134497 0.118980 0.505530
O O4 0.207198 0.046454 0.123268
O O5 0.114494 0.239584 0.262099
O O6 0.775773 0.011931 0.533241
O O7 0.893814 0.312186 0.838592
O O8 0.997353 0.020893 0.306815
O O9 0.500000 0.500000 0.500000
O O10 0.670129 0.660995 0.290032
O O11 0.750000 0.399442 0.878476
O O12 0.441219 0.765314 0.730757
O O13 0.203823 0.606060 0.041516
O O14 0.693191 0.726143 0.165486
O O15 0.021412 0.700805 0.897790
O O16 0.033567 0.361383 0.407554
O O17 0.000000 0.000000 0.000000
#
# Coordination Sequence:
#
# PCOD8031653 Si02
#       8
#     2   2   2   2   2   2   2   2
#     4   9  19  31  49  80 109 127 167 218 252 295
#     4  10  18  31  50  76 104 138 169 202 256 307
#     4  11  16  31  55  80 102 129 170 214 258 297
#     4   9  18  30  52  75 104 134 164 209 257 296
#     4  10  17  31  50  76 107 130 171 215 253 291
#     4  10  18  32  52  76 108 134 168 207 258 303
#     4  10  18  33  55  78 101 136 166 210 261 300
#     4   9  21  35  47  79 107 133 168 216 249 303
#
# _framework density 18.812190999999999
#
# number of rings (size 3 to 8) (size 9 to 14) (size 15 to 20)
#    0.000    2.250    5.000    0.375    0.000    1.000 
#    0.000    0.000    0.000    6.000    0.000    0.000 
#    0.000    0.000    0.000    0.000    0.000    0.000 
#
# Total GULP energy -198251.648419 kJ/mol
# GULP energy per Si atom -12390.728026 kJ/mol
# Density = 1.876937 g / cm^3
# Si number density = 18.812191 Si / 1000 Ang^3
#
#
#
# Elastic Constant Matrix: (Units=GPa)
#
#
# Indices 1 2 3 4 5 6 
#
# 1 70.0633 38.4809 37.5799 12.0861 -8.3132 -1.7585
# 2 38.4809 72.4251 32.0114 8.7280 2.0186 0.7686
# 3 37.5799 32.0114 82.4983 10.8698 -4.7466 -3.5044
# 4 12.0861 8.7280 10.8698 27.3435 -10.6886 4.6289
# 5 -8.3132 2.0186 -4.7466 -10.6886 17.0075 2.1377
# 6 -1.7585 0.7686 -3.5044 4.6289 2.1377 38.5962
#
#
#
# Elastic Compliance Matrix: (Units=1/GPa)
#
#
# Indices 1 2 3 4 5 6 
#
# 1 0.025111 -0.010675 -0.006543 -0.000744 0.011218 0.000231
# 2 -0.010675 0.022157 -0.003685 -0.005816 -0.012548 0.000130
# 3 -0.006543 -0.003685 0.016994 -0.003025 -0.000131 0.001688
# 4 -0.000744 -0.005816 -0.003025 0.055246 0.035305 -0.008774
# 5 0.011218 -0.012548 -0.000131 0.035305 0.088979 -0.008413
# 6 0.000231 0.000130 0.001688 -0.008774 -0.008413 0.027589
#
#
# Mechanical properties :
#
#
# Convention : Reuss Voigt Hill
#
# Bulk Modulus (GPa) = 44.53081 49.01458 46.77269
# Shear Modulus (GPa) = 17.52124 24.38374 20.95249
#
# Velocity S-wave (km/s) = 3.05516 3.60414 3.34094
# Velocity P-wave (km/s) = 6.01398 6.59022 6.30868
#
# Compressibility (1/GPa) = 0.02245636
#
# Stress axis : x y z
#
# Youngs Moduli (GPa) = 39.82365 45.13186 58.84288
#
# Poissons Ratio (x) = 0.48180 0.38500
# Poissons Ratio (y) = 0.42513 0.21683
# Poissons Ratio (z) = 0.26056 0.16630
#
# Static dielectric constant tensor:
#      x y z
#    x 3.394680 -0.207000 0.027610 
#    y -0.207000 3.744630 0.084830 
#    z 0.027610 0.084830 3.625440 
# 
# 
# High freq. dielectric constant tensor:
#      x y z
#    x 1.707260 -0.022440 -0.005780 
#    y -0.022440 1.731940 0.011060 
#    z -0.005780 0.011060 1.711680 
# 
# From -- ./inp_files/200247.got.cif
#   From: 2010.06.25/outbox.cif.g09.slc.cpg/sg2_101_cif.got.tgz:200247.got - 2010.06.27 13:26:56.
