data_PCOD8031757
_publ_section_title
;
Structure prediction by ZEFSAII (Michael W. Deem and Ramdas Pophale) SiO2 
 PCOD8031757
Probable space group: P -1
;
_chemical_formula_sum "Si O2"
_cell_formula_units_Z 16
_cell_length_a 9.731140
_cell_length_b 20.843094
_cell_length_c 11.880944
_cell_angle_alpha 141.671356
_cell_angle_beta 50.818402
_cell_angle_gamma 149.713376
_cell_volume 745.643034
_symmetry_space_group_name_H-M "P -1"
_symmetry_group_IT_number 2
_symmetry_cell_setting 'triclinic'
loop_
_space_group_symop_operation_xyz
x,y,z
-x,-y,-z
loop_
_atom_site_type_symbol
_atom_site_label
_atom_site_fract_x
_atom_site_fract_y
_atom_site_fract_z
Si Si1 0.444054 0.292466 0.122926
Si Si2 0.892129 0.653897 0.620754
Si Si3 0.005515 0.352083 0.685720
Si Si4 0.592152 0.824032 0.241283
Si Si5 0.066229 0.178413 0.557581
Si Si6 0.477560 0.710145 0.675078
Si Si7 0.257682 0.310305 0.886757
Si Si8 0.227719 0.811639 0.878848
O O1 0.315183 0.346892 0.249229
O O2 0.383190 0.217630 0.174210
O O3 0.770708 0.456075 0.161718
O O4 0.316015 0.159384 0.912078
O O5 0.727806 0.476353 0.481941
O O6 0.999805 0.710260 0.515932
O O7 0.147543 0.771839 0.734937
O O8 0.717747 0.277813 0.749058
O O9 0.070151 0.296055 0.669980
O O10 0.607786 0.727619 0.174137
O O11 0.769559 0.994944 0.438201
O O12 0.287086 0.200054 0.416176
O O13 0.123120 0.210251 0.703900
O O14 0.294610 0.728115 0.772689
O O15 0.500000 0.500000 0.000000
O O16 0.019171 0.252800 0.007674
O O17 0.500000 0.000000 0.000000
#
# Coordination Sequence:
#
# PCOD8031757 Si02
#       8
#     2   2   2   2   2   2   2   2
#     4  11  22  46  69  97 132 176 234 276 330 405
#     4  11  22  46  71  95 135 176 230 277 332 404
#     4  11  24  43  70  99 132 177 225 279 337 410
#     4  12  27  42  68  99 137 182 218 281 344 396
#     4  12  25  45  67 102 143 171 222 284 348 400
#     4  11  24  43  72 100 132 180 227 278 336 404
#     4  12  28  47  70  99 142 183 229 277 338 410
#     4  12  28  45  70 103 138 178 230 284 338 405
#
# _framework density 21.457988
#
# number of rings (size 3 to 8) (size 9 to 14) (size 15 to 20)
#    0.000    0.500    3.750    4.500    8.750    1.500 
#    0.000    0.000    0.000    0.000    0.000    0.000 
#    0.000    0.000    0.000    0.000    0.000    0.000 
#
# Total GULP energy -198482.131958 kJ/mol
# GULP energy per Si atom -12405.133247 kJ/mol
# Density = 2.140915 g / cm^3
# Si number density = 21.457988 Si / 1000 Ang^3
#
#
#
# Elastic Constant Matrix: (Units=GPa)
#
#
# Indices 1 2 3 4 5 6 
#
# 1 103.2132 9.5325 32.1512 -9.6290 9.3632 13.6414
# 2 9.5325 47.3498 13.7328 -9.9432 -1.0213 -2.5074
# 3 32.1512 13.7328 86.6621 -18.3847 26.6251 20.7694
# 4 -9.6290 -9.9432 -18.3847 24.1061 7.3288 11.9933
# 5 9.3632 -1.0213 26.6251 7.3288 50.6104 -6.6279
# 6 13.6414 -2.5074 20.7694 11.9933 -6.6279 3.5957
#
#
#
# Elastic Compliance Matrix: (Units=1/GPa)
#
#
# Indices 1 2 3 4 5 6 
#
# 1 0.010722 -0.000831 -0.005680 -0.002507 0.001766 0.003171
# 2 -0.000831 0.023471 -0.001439 0.008582 0.000051 -0.000695
# 3 -0.005680 -0.001439 0.006034 -0.009614 0.002063 0.021559
# 4 -0.002507 0.008582 -0.009614 0.014279 0.008820 0.039654
# 5 0.001766 0.000051 0.002063 0.008820 0.014217 -0.021793
# 6 0.003171 -0.000695 0.021559 0.039654 -0.021793 -0.031368
#
#
# Mechanical properties :
#
#
# Convention : Reuss Voigt Hill
#
# Bulk Modulus (GPa) = 41.11040 38.67312 39.89176
# Shear Modulus (GPa) = 81.47995 27.78302 54.63148
#
# Velocity S-wave (km/s) = 6.16882 3.60219 5.05124
# Velocity P-wave (km/s) = 8.36297 5.94667 7.25610
#
# Compressibility (1/GPa) = 0.02432474
#
# Stress axis : x y z
#
# Youngs Moduli (GPa) = 93.26835 42.60640 165.71756
#
# Poissons Ratio (x) = 0.03543 0.94132
# Poissons Ratio (y) = 0.07755 0.23851
# Poissons Ratio (z) = 0.52979 0.06132
#
# Static dielectric constant tensor:
#      x y z
#    x 4.081640 -0.007460 0.219300 
#    y -0.007460 3.786230 -0.066370 
#    z 0.219300 -0.066370 4.022610 
# 
# 
# High freq. dielectric constant tensor:
#      x y z
#    x 1.860250 0.005630 0.006250 
#    y 0.005630 1.840860 -0.004450 
#    z 0.006250 -0.004450 1.856370 
# 
# From -- ./inp_files/155414.got.cif
#   From: 2010.06.25/outbox.cif.g09.slc.cpg/sg2_78_cif.got.tgz:155414.got - 2010.06.27 13:26:56.
