data_PCOD8031443
_publ_section_title
;
Structure prediction by ZEFSAII (Michael W. Deem and Ramdas Pophale) SiO2 
 PCOD8031443
Probable space group: P -1
;
_chemical_formula_sum "Si O2"
_cell_formula_units_Z 16
_cell_length_a 14.961558
_cell_length_b 27.632689
_cell_length_c 9.042123
_cell_angle_alpha 141.268039
_cell_angle_beta 48.195331
_cell_angle_gamma 159.714063
_cell_volume 773.545559
_symmetry_space_group_name_H-M "P -1"
_symmetry_group_IT_number 2
_symmetry_cell_setting 'triclinic'
loop_
_space_group_symop_operation_xyz
x,y,z
-x,-y,-z
loop_
_atom_site_type_symbol
_atom_site_label
_atom_site_fract_x
_atom_site_fract_y
_atom_site_fract_z
Si Si1 0.679811 0.811292 0.137617
Si Si2 0.501039 0.424997 0.418770
Si Si3 0.097812 0.926489 0.674984
Si Si4 0.839227 0.014560 0.913149
Si Si5 0.437176 0.979909 0.352946
Si Si6 0.913353 0.323266 0.182715
Si Si7 0.057713 0.759016 0.763499
Si Si8 0.623627 0.307768 0.537613
O O1 0.523776 0.772900 0.335380
O O2 0.901563 0.889428 0.166364
O O3 0.822719 0.946441 0.180051
O O4 0.479223 0.638047 0.859385
O O5 0.500000 0.500000 0.500000
O O6 0.758331 0.569791 0.584885
O O7 0.226280 0.267641 0.442776
O O8 0.240674 0.940052 0.460353
O O9 0.194286 0.979545 0.865476
O O10 0.580209 0.817397 0.673688
O O11 0.876397 0.111894 0.002981
O O12 0.500000 0.000000 0.500000
O O13 0.718675 0.157814 0.381148
O O14 0.287708 0.818485 0.064554
O O15 0.931465 0.262676 0.131615
O O16 0.808219 0.338628 0.419064
O O17 0.204949 0.514439 0.250281
#
# Coordination Sequence:
#
# PCOD8031443 Si02
#       8
#     2   2   2   2   2   2   2   2
#     4  11  25  42  70  95 135 173 230 270 329 399
#     4  11  22  44  67 101 137 172 221 278 329 391
#     4  11  24  42  72  99 132 177 226 272 334 392
#     4  11  22  44  65  96 135 177 210 275 340 390
#     4  12  23  45  72  98 132 175 226 276 328 400
#     4  11  27  43  68  95 138 175 222 275 337 395
#     4  12  24  42  71  97 137 178 218 274 339 396
#     4  11  25  46  63  97 134 175 222 278 331 394
#
# _framework density 20.683979000000001
#
# number of rings (size 3 to 8) (size 9 to 14) (size 15 to 20)
#    0.000    0.750    5.000    3.000    8.750    0.000 
#    0.000    2.500    0.000    0.000    0.000    0.000 
#    0.000    0.000    0.000    0.000    0.000    0.000 
#
# Total GULP energy -198476.682424 kJ/mol
# GULP energy per Si atom -12404.792652 kJ/mol
# Density = 2.063690 g / cm^3
# Si number density = 20.683979 Si / 1000 Ang^3
#
#
#
# Elastic Constant Matrix: (Units=GPa)
#
#
# Indices 1 2 3 4 5 6 
#
# 1 100.5696 44.5599 45.9573 9.6952 0.4227 -15.5286
# 2 44.5599 116.6475 55.2721 13.4404 2.1797 -2.6777
# 3 45.9573 55.2721 102.7590 16.4167 -0.8693 -1.3942
# 4 9.6952 13.4404 16.4167 38.0567 10.3954 -3.9500
# 5 0.4227 2.1797 -0.8693 10.3954 34.4554 6.1552
# 6 -15.5286 -2.6777 -1.3942 -3.9500 6.1552 39.0927
#
#
#
# Elastic Compliance Matrix: (Units=1/GPa)
#
#
# Indices 1 2 3 4 5 6 
#
# 1 0.014303 -0.003127 -0.004714 0.000396 -0.001204 0.005529
# 2 -0.003127 0.012287 -0.005005 -0.001361 -0.000336 -0.000663
# 3 -0.004714 -0.005005 0.015251 -0.004584 0.002597 -0.002543
# 4 0.000396 -0.001361 -0.004584 0.032013 -0.010550 0.004796
# 5 -0.001204 -0.000336 0.002597 -0.010550 0.033514 -0.006751
# 6 0.005529 -0.000663 -0.002543 0.004796 -0.006751 0.029188
#
#
# Mechanical properties :
#
#
# Convention : Reuss Voigt Hill
#
# Bulk Modulus (GPa) = 61.91574 67.95052 64.93313
# Shear Modulus (GPa) = 29.82766 33.93342 31.88054
#
# Velocity S-wave (km/s) = 3.80157 4.05478 3.93022
# Velocity P-wave (km/s) = 7.01915 7.40573 7.21503
#
# Compressibility (1/GPa) = 0.01615098
#
# Stress axis : x y z
#
# Youngs Moduli (GPa) = 69.91422 81.38985 65.56783
#
# Poissons Ratio (x) = 0.25448 0.30906
# Poissons Ratio (y) = 0.21860 0.32815
# Poissons Ratio (z) = 0.32955 0.40734
#
# Static dielectric constant tensor:
#      x y z
#    x 2.363380 -1.856270 -2.856330 
#    y -1.856270 0.933940 -3.987110 
#    z -2.856330 -3.987110 -1.808970 
# 
# 
# High freq. dielectric constant tensor:
#      x y z
#    x 1.811960 0.005970 -0.006210 
#    y 0.005970 1.816520 0.005400 
#    z -0.006210 0.005400 1.813380 
# 
# From -- ./inp_files/175374.got.cif
#   From: 2010.06.25/outbox.cif.g09.slc.cpg/sg2_88_cif.got.tgz:175374.got - 2010.06.27 13:26:56.
