data_PCOD8031329
_publ_section_title
;
Structure prediction by ZEFSAII (Michael W. Deem and Ramdas Pophale) SiO2 
 PCOD8031329
Probable space group: P -1
;
_chemical_formula_sum "Si O2"
_cell_formula_units_Z 14
_cell_length_a 13.325782
_cell_length_b 8.887865
_cell_length_c 19.178779
_cell_angle_alpha 138.970955
_cell_angle_beta 154.942600
_cell_angle_gamma 50.518010
_cell_volume 622.218210
_symmetry_space_group_name_H-M "P -1"
_symmetry_group_IT_number 2
_symmetry_cell_setting 'triclinic'
loop_
_space_group_symop_operation_xyz
x,y,z
-x,-y,-z
loop_
_atom_site_type_symbol
_atom_site_label
_atom_site_fract_x
_atom_site_fract_y
_atom_site_fract_z
Si Si1 0.095174 0.714763 0.314910
Si Si2 0.853267 0.207315 0.975228
Si Si3 0.564483 0.805241 0.019772
Si Si4 0.755091 0.471802 0.378650
Si Si5 0.299900 0.654185 0.926282
Si Si6 0.423722 0.077156 0.553508
Si Si7 0.112534 0.764659 0.493039
O O1 0.240507 0.741931 0.490211
O O2 0.247211 0.863784 0.403677
O O3 0.036669 0.447878 0.159435
O O4 0.845824 0.805181 0.209508
O O5 0.662254 0.154947 0.775311
O O6 0.721137 0.220354 0.970226
O O7 0.000000 0.000000 0.000000
O O8 0.457746 0.570276 0.827824
O O9 0.409089 0.844154 0.004438
O O10 0.500000 0.000000 0.000000
O O11 0.725641 0.714736 0.480841
O O12 0.000000 0.500000 0.500000
O O13 0.728346 0.255472 0.343650
O O14 0.064030 0.481756 0.693535
O O15 0.500000 0.500000 0.000000
O O16 0.500000 0.000000 0.500000
O O17 0.000000 0.000000 0.500000
#
# Coordination Sequence:
#
# PCOD8031329 Si02
#       7
#     2   2   2   2   2   2   2
#     4  11  26  47  72 103 143 190 246 288 357 440
#     4  11  27  50  75 103 146 191 241 294 359 431
#     4  12  23  41  69 110 143 184 233 295 359 418
#     4  12  24  42  72 110 149 183 231 301 357 410
#     4  11  22  43  70 102 143 182 234 293 350 418
#     4  12  29  51  73 104 146 187 242 306 360 425
#     4  11  23  38  68 106 144 183 234 284 355 421
#
# _framework density 22.500145
#
# number of rings (size 3 to 8) (size 9 to 14) (size 15 to 20)
#    0.000    0.571    5.714    2.571    6.000    1.143 
#    2.571    0.000    0.000    0.000    0.000    0.000 
#    0.000    0.000    0.000    0.000    0.000    0.000 
#
# Total GULP energy -173464.147106 kJ/mol
# GULP energy per Si atom -12390.296222 kJ/mol
# Density = 2.244893 g / cm^3
# Si number density = 22.500145 Si / 1000 Ang^3
#
#
#
# Elastic Constant Matrix: (Units=GPa)
#
#
# Indices 1 2 3 4 5 6 
#
# 1 206.2106 68.2460 54.7996 11.7083 -11.6980 11.2655
# 2 68.2460 150.5415 20.0804 12.1987 -5.2582 2.5948
# 3 54.7996 20.0804 79.4279 1.6828 -17.2168 2.9926
# 4 11.7083 12.1987 1.6828 33.4517 7.6321 -0.1882
# 5 -11.6980 -5.2582 -17.2168 7.6321 38.1698 4.6149
# 6 11.2655 2.5948 2.9926 -0.1882 4.6149 46.8336
#
#
#
# Elastic Compliance Matrix: (Units=1/GPa)
#
#
# Indices 1 2 3 4 5 6 
#
# 1 0.006887 -0.002440 -0.003961 -0.001427 0.000432 -0.001317
# 2 -0.002440 0.007969 -0.000130 -0.002210 0.000724 0.000074
# 3 -0.003961 -0.000130 0.016846 -0.000934 0.006647 -0.000775
# 4 -0.001427 -0.002210 -0.000934 0.033068 -0.007950 0.001442
# 5 0.000432 0.000724 0.006647 -0.007950 0.031466 -0.003701
# 6 -0.001317 0.000074 -0.000775 0.001442 -0.003701 0.022085
#
#
# Mechanical properties :
#
#
# Convention : Reuss Voigt Hill
#
# Bulk Modulus (GPa) = 53.65024 80.27023 66.96024
# Shear Modulus (GPa) = 36.33769 43.22796 39.78282
#
# Velocity S-wave (km/s) = 4.02306 4.38794 4.20946
# Velocity P-wave (km/s) = 6.74361 7.83740 7.31099
#
# Compressibility (1/GPa) = 0.01863925
#
# Stress axis : x y z
#
# Youngs Moduli (GPa) = 145.19591 125.47844 59.36257
#
# Poissons Ratio (x) = 0.30622 0.23514
# Poissons Ratio (y) = 0.35434 0.00772
# Poissons Ratio (z) = 0.57514 0.01631
#
# Static dielectric constant tensor:
#      x y z
#    x 4.445430 -0.047700 -1.532280 
#    y -0.047700 4.255540 0.695650 
#    z -1.532280 0.695650 7.407790 
# 
# 
# High freq. dielectric constant tensor:
#      x y z
#    x 1.890110 0.021380 -0.018100 
#    y 0.021380 1.889080 0.011900 
#    z -0.018100 0.011900 1.899610 
# 
# From -- ./inp_files/257872.got.cif
#   From: 2010.06.25/outbox.cif.g09.slc.cpg/sg2_129_cif.got.tgz:257872.got - 2010.06.27 13:26:56.
