data_PCOD8031606
_publ_section_title
;
Structure prediction by ZEFSAII (Michael W. Deem and Ramdas Pophale) SiO2 
 PCOD8031606
Probable space group: P -1
;
_chemical_formula_sum "Si O2"
_cell_formula_units_Z 16
_cell_length_a 8.976965
_cell_length_b 12.017285
_cell_length_c 9.411997
_cell_angle_alpha 60.216109
_cell_angle_beta 111.582722
_cell_angle_gamma 120.641135
_cell_volume 749.195735
_symmetry_space_group_name_H-M "P -1"
_symmetry_group_IT_number 2
_symmetry_cell_setting 'triclinic'
loop_
_space_group_symop_operation_xyz
x,y,z
-x,-y,-z
loop_
_atom_site_type_symbol
_atom_site_label
_atom_site_fract_x
_atom_site_fract_y
_atom_site_fract_z
Si Si1 0.468612 0.274309 0.518133
Si Si2 0.949994 0.048398 0.597057
Si Si3 0.505314 0.252052 0.055839
Si Si4 0.614270 0.034652 0.378936
Si Si5 0.253140 0.252977 0.197278
Si Si6 0.818632 0.477973 0.377521
Si Si7 0.715464 0.725896 0.277846
Si Si8 0.844528 0.501673 0.040718
O O1 0.325319 0.295772 0.353966
O O2 0.665732 0.344619 0.482015
O O3 0.439961 0.335526 0.620537
O O4 0.415987 0.108370 0.623131
O O5 0.811550 0.113071 0.460415
O O6 0.110093 0.160803 0.664830
O O7 0.864394 0.912765 0.755326
O O8 0.000000 0.000000 0.500000
O O9 0.570934 0.130538 0.190075
O O10 0.427875 0.293890 0.140990
O O11 0.667243 0.392941 0.973838
O O12 0.357000 0.201677 0.914317
O O13 0.500000 0.000000 0.500000
O O14 0.141988 0.340106 0.057310
O O15 0.762797 0.606775 0.298532
O O16 0.844338 0.454535 0.234467
O O17 0.000000 0.500000 0.500000
O O18 0.000000 0.500000 0.000000
#
# Coordination Sequence:
#
# PCOD8031606 Si02
#       8
#     2   2   2   2   2   2   2   2
#     4  11  24  46  72  97 138 187 229 278 351 420
#     4  11  24  45  72 103 136 184 233 280 345 419
#     4  12  25  46  72 102 142 183 229 291 347 413
#     4  11  22  44  74  99 131 190 232 276 345 418
#     4  11  22  47  72  93 135 192 228 274 354 417
#     4  12  28  45  69 103 141 182 235 293 342 413
#     4  12  27  45  71 107 141 181 232 288 351 410
#     4  12  28  45  70 103 139 184 234 290 350 409
#
# _framework density 21.356235999999999
#
# number of rings (size 3 to 8) (size 9 to 14) (size 15 to 20)
#    0.000    0.500    7.500    1.500    8.750    1.000 
#    2.250    0.000    0.000    0.000    0.000    0.000 
#    0.000    0.000    0.000    0.000    0.000    0.000 
#
# Total GULP energy -198391.471239 kJ/mol
# GULP energy per Si atom -12399.466952 kJ/mol
# Density = 2.130763 g / cm^3
# Si number density = 21.356236 Si / 1000 Ang^3
#
#
#
# Elastic Constant Matrix: (Units=GPa)
#
#
# Indices 1 2 3 4 5 6 
#
# 1 142.0026 40.1292 57.6633 -0.4857 -1.2962 1.3242
# 2 40.1292 89.8009 41.7320 2.6588 8.5901 13.5509
# 3 57.6633 41.7320 129.2117 1.5637 19.4803 1.2789
# 4 -0.4857 2.6588 1.5637 35.3609 -1.2287 2.8156
# 5 -1.2962 8.5901 19.4803 -1.2287 46.1137 3.9584
# 6 1.3242 13.5509 1.2789 2.8156 3.9584 33.2263
#
#
#
# Elastic Compliance Matrix: (Units=1/GPa)
#
#
# Indices 1 2 3 4 5 6 
#
# 1 0.009317 -0.002812 -0.003605 0.000530 0.002271 0.000599
# 2 -0.002812 0.014918 -0.003354 -0.000594 -0.000970 -0.005677
# 3 -0.003605 -0.003354 0.011071 -0.000568 -0.004310 0.001647
# 4 0.000530 -0.000594 -0.000568 0.028589 0.001328 -0.002338
# 5 0.002271 -0.000970 -0.004310 0.001328 0.024001 -0.002501
# 6 0.000599 -0.005677 0.001647 -0.002338 -0.002501 0.032821
#
#
# Mechanical properties :
#
#
# Convention : Reuss Voigt Hill
#
# Bulk Modulus (GPa) = 63.42642 71.11825 67.27233
# Shear Modulus (GPa) = 34.36115 37.70623 36.03369
#
# Velocity S-wave (km/s) = 4.01553 4.20644 4.11209
# Velocity P-wave (km/s) = 7.15982 7.54755 7.35624
#
# Compressibility (1/GPa) = 0.01576630
#
# Stress axis : x y z
#
# Youngs Moduli (GPa) = 107.32534 67.03426 90.32254
#
# Poissons Ratio (x) = 0.18849 0.32559
# Poissons Ratio (y) = 0.30178 0.30291
# Poissons Ratio (z) = 0.38688 0.22481
#
# Static dielectric constant tensor:
#      x y z
#    x 5.516040 1.465430 -0.065510 
#    y 1.465430 5.696850 -0.180090 
#    z -0.065510 -0.180090 3.991790 
# 
# 
# High freq. dielectric constant tensor:
#      x y z
#    x 1.855340 0.002270 -0.001420 
#    y 0.002270 1.831690 -0.003640 
#    z -0.001420 -0.003640 1.839180 
# 
# From -- ./inp_files/185269.got.cif
#   From: 2010.06.25/outbox.cif.g09.slc.cpg/sg2_93_cif.got.tgz:185269.got - 2010.06.27 13:26:56.
