data_PCOD8031842
_publ_section_title
;
Structure prediction by ZEFSAII (Michael W. Deem and Ramdas Pophale) SiO2 
 PCOD8031842
Probable space group: P -1
;
_chemical_formula_sum "Si O2"
_cell_formula_units_Z 16
_cell_length_a 8.593831
_cell_length_b 11.964665
_cell_length_c 14.999850
_cell_angle_alpha 120.172708
_cell_angle_beta 146.516410
_cell_angle_gamma 74.887237
_cell_volume 693.815686
_symmetry_space_group_name_H-M "P -1"
_symmetry_group_IT_number 2
_symmetry_cell_setting 'triclinic'
loop_
_space_group_symop_operation_xyz
x,y,z
-x,-y,-z
loop_
_atom_site_type_symbol
_atom_site_label
_atom_site_fract_x
_atom_site_fract_y
_atom_site_fract_z
Si Si1 0.855718 0.541124 0.686080
Si Si2 0.251222 0.194078 0.851532
Si Si3 0.228846 0.348753 0.738927
Si Si4 0.832941 0.971106 0.000395
Si Si5 0.239739 0.870152 0.283947
Si Si6 0.847043 0.228711 0.211315
Si Si7 0.188781 0.602990 0.055066
Si Si8 0.829489 0.116303 0.343573
O O1 0.500000 0.500000 0.500000
O O2 0.990720 0.423282 0.676360
O O3 0.929266 0.639054 0.674695
O O4 0.983051 0.601641 0.868956
O O5 0.374324 0.311666 0.882957
O O6 0.951073 0.210910 0.755772
O O7 0.170587 0.038195 0.716056
O O8 0.511833 0.233791 0.066703
O O9 0.514577 0.433505 0.847922
O O10 0.049023 0.198745 0.556854
O O11 0.796342 0.111371 0.067956
O O12 0.019697 0.924243 0.143615
O O13 0.494794 0.867644 0.787531
O O14 0.000000 0.000000 0.000000
O O15 0.328705 0.758776 0.223318
O O16 0.500000 0.000000 0.500000
O O17 0.967636 0.192384 0.347385
O O18 0.000000 0.500000 0.000000
#
# Coordination Sequence:
#
# PCOD8031842 Si02
#       8
#     2   2   2   2   2   2   2   2
#     4  12  30  50  76 105 147 202 251 304 367 451
#     4  11  22  47  71 105 145 192 240 307 371 441
#     4  12  28  47  76 105 148 199 247 302 370 442
#     4  11  24  40  68 105 146 184 238 307 370 430
#     4  12  26  43  75 107 147 193 248 304 373 436
#     4  11  23  46  71  99 149 187 249 298 373 436
#     4  12  29  50  74 112 153 196 252 306 375 447
#     4  11  24  44  73 109 142 195 240 306 376 436
#
# _framework density 23.060880000000001
#
# number of rings (size 3 to 8) (size 9 to 14) (size 15 to 20)
#    0.000    0.500    3.750    3.750   10.500    0.500 
#    0.000    0.000    0.000    0.000    0.000    0.000 
#    0.000    0.000    0.000    0.000    0.000    0.000 
#
# Total GULP energy -198271.118209 kJ/mol
# GULP energy per Si atom -12391.944888 kJ/mol
# Density = 2.300839 g / cm^3
# Si number density = 23.060880 Si / 1000 Ang^3
#
#
#
# Elastic Constant Matrix: (Units=GPa)
#
#
# Indices 1 2 3 4 5 6 
#
# 1 142.0610 42.2596 42.1615 -0.5702 18.3900 6.4049
# 2 42.2596 89.2948 15.6131 -2.9800 13.8922 9.2775
# 3 42.1615 15.6131 95.9845 2.8568 14.7818 -17.9644
# 4 -0.5702 -2.9800 2.8568 30.9431 -2.4801 0.9857
# 5 18.3900 13.8922 14.7818 -2.4801 35.3232 1.8058
# 6 6.4049 9.2775 -17.9644 0.9857 1.8058 40.0135
#
#
#
# Elastic Compliance Matrix: (Units=1/GPa)
#
#
# Indices 1 2 3 4 5 6 
#
# 1 0.009498 -0.003280 -0.003789 0.000129 -0.001939 -0.002376
# 2 -0.003280 0.013736 -0.000909 0.001194 -0.003079 -0.002958
# 3 -0.003789 -0.000909 0.014341 -0.002057 -0.004199 0.007496
# 4 0.000129 0.001194 -0.002057 0.032913 0.002745 -0.002156
# 5 -0.001939 -0.003079 -0.004199 0.002745 0.032603 -0.002400
# 6 -0.002376 -0.002958 0.007496 -0.002156 -0.002400 0.029585
#
#
# Mechanical properties :
#
#
# Convention : Reuss Voigt Hill
#
# Bulk Modulus (GPa) = 46.25057 58.60098 52.42578
# Shear Modulus (GPa) = 32.08477 36.40971 34.24724
#
# Velocity S-wave (km/s) = 3.73407 3.97779 3.85785
# Velocity P-wave (km/s) = 6.22016 6.82376 6.52894
#
# Compressibility (1/GPa) = 0.02162136
#
# Stress axis : x y z
#
# Youngs Moduli (GPa) = 105.28658 72.80048 69.72971
#
# Poissons Ratio (x) = 0.23876 0.26417
# Poissons Ratio (y) = 0.34530 0.06336
# Poissons Ratio (z) = 0.39888 0.06616
#
# Static dielectric constant tensor:
#      x y z
#    x 3.929060 -0.073340 -0.095010 
#    y -0.073340 4.039840 0.053350 
#    z -0.095010 0.053350 4.017700 
# 
# 
# High freq. dielectric constant tensor:
#      x y z
#    x 1.927230 0.004440 0.007600 
#    y 0.004440 1.908490 -0.000440 
#    z 0.007600 -0.000440 1.915040 
# 
# From -- ./inp_files/245441.got.cif
#   From: 2010.06.25/outbox.cif.g09.slc.cpg/sg2_123_cif.got.tgz:245441.got - 2010.06.27 13:26:56.
