data_PCOD8031043
_publ_section_title
;
Structure prediction by ZEFSAII (Michael W. Deem and Ramdas Pophale) SiO2 
 PCOD8031043
Probable space group: P -1
;
_chemical_formula_sum "Si O2"
_cell_formula_units_Z 14
_cell_length_a 9.175146
_cell_length_b 9.617107
_cell_length_c 21.490476
_cell_angle_alpha 43.313488
_cell_angle_beta 30.941037
_cell_angle_gamma 47.766681
_cell_volume 662.586144
_symmetry_space_group_name_H-M "P -1"
_symmetry_group_IT_number 2
_symmetry_cell_setting 'triclinic'
loop_
_space_group_symop_operation_xyz
x,y,z
-x,-y,-z
loop_
_atom_site_type_symbol
_atom_site_label
_atom_site_fract_x
_atom_site_fract_y
_atom_site_fract_z
Si Si1 0.723389 0.146467 0.894243
Si Si2 0.287786 0.029019 0.918684
Si Si3 0.676761 0.767313 0.349961
Si Si4 0.400545 0.559341 0.858891
Si Si5 0.137901 0.492983 0.851544
Si Si6 0.675468 0.913304 0.704112
Si Si7 0.216735 0.629416 0.638620
O O1 0.649984 0.371740 0.820589
O O2 0.069832 0.094151 0.770563
O O3 0.500000 0.000000 0.000000
O O4 0.683941 0.142363 0.983377
O O5 0.283018 0.257555 0.872308
O O6 0.561210 0.971791 0.795016
O O7 0.000000 0.000000 0.000000
O O8 0.539557 0.680681 0.490688
O O9 0.823145 0.582151 0.312443
O O10 0.400925 0.884317 0.375853
O O11 0.279228 0.608766 0.817897
O O12 0.512614 0.756099 0.778760
O O13 0.187373 0.496831 0.010358
O O14 0.164872 0.607110 0.738812
O O15 0.003483 0.818860 0.625421
#
# Coordination Sequence:
#
# PCOD8031043 Si02
#       7
#     2   2   2   2   2   2   2
#     4  12  23  41  66  98 133 170 216 271 337 383
#     4  12  21  37  66  95 131 167 212 284 322 375
#     4  11  24  43  68  98 134 172 221 273 319 392
#     4  11  24  38  68  96 135 170 217 275 333 384
#     4  11  22  42  60  99 134 170 216 273 327 387
#     4  12  23  42  69  98 128 172 224 272 326 384
#     4  11  24  44  70  92 134 180 220 262 327 397
#
# _framework density 21.129328000000001
#
# number of rings (size 3 to 8) (size 9 to 14) (size 15 to 20)
#    0.000    0.571    7.143    1.286    2.000    1.143 
#    0.000    1.429    3.143    0.000    0.000    0.000 
#    0.000    0.000    0.000    0.000    0.000    0.000 
#
# Total GULP energy -173443.898379 kJ/mol
# GULP energy per Si atom -12388.849884 kJ/mol
# Density = 2.108124 g / cm^3
# Si number density = 21.129328 Si / 1000 Ang^3
#
#
#
# Elastic Constant Matrix: (Units=GPa)
#
#
# Indices 1 2 3 4 5 6 
#
# 1 106.3887 13.6214 59.9195 6.8351 11.9729 -5.0106
# 2 13.6214 84.2123 14.3854 14.8805 -6.6200 -6.1335
# 3 59.9195 14.3854 131.2941 9.5671 6.2547 10.6789
# 4 6.8351 14.8805 9.5671 23.0931 2.7594 2.0834
# 5 11.9729 -6.6200 6.2547 2.7594 31.0972 -4.7599
# 6 -5.0106 -6.1335 10.6789 2.0834 -4.7599 41.9674
#
#
#
# Elastic Compliance Matrix: (Units=1/GPa)
#
#
# Indices 1 2 3 4 5 6 
#
# 1 0.013534 -0.001177 -0.006037 -0.000524 -0.003806 0.002574
# 2 -0.001177 0.014538 -0.000865 -0.009560 0.005068 0.003254
# 3 -0.006037 -0.000865 0.010910 -0.001799 -0.000443 -0.003584
# 4 -0.000524 -0.009560 -0.001799 0.051555 -0.006708 -0.004322
# 5 -0.003806 0.005068 -0.000443 -0.006708 0.036125 0.004829
# 6 0.002574 0.003254 -0.003584 -0.004322 0.004829 0.026285
#
#
# Mechanical properties :
#
#
# Convention : Reuss Voigt Hill
#
# Bulk Modulus (GPa) = 43.81625 55.30531 49.56078
# Shear Modulus (GPa) = 28.29433 34.82946 31.56190
#
# Velocity S-wave (km/s) = 3.66334 4.06445 3.86910
# Velocity P-wave (km/s) = 6.21897 6.94678 6.59293
#
# Compressibility (1/GPa) = 0.02282258
#
# Stress axis : x y z
#
# Youngs Moduli (GPa) = 73.88890 68.78723 91.65570
#
# Poissons Ratio (x) = 0.08096 0.55337
# Poissons Ratio (y) = 0.08697 0.07930
# Poissons Ratio (z) = 0.44610 0.05951
#
# Static dielectric constant tensor:
#      x y z
#    x 3.775370 -0.184950 -0.003550 
#    y -0.184950 4.584790 0.245670 
#    z -0.003550 0.245670 3.791460 
# 
# 
# High freq. dielectric constant tensor:
#      x y z
#    x 1.826110 -0.010860 0.004760 
#    y -0.010860 1.833560 0.005660 
#    z 0.004760 0.005660 1.821670 
# 
# From -- ./inp_files/185555.got.cif
#   From: 2010.06.25/outbox.cif.g09.slc.cpg/sg2_93_cif.got.tgz:185555.got - 2010.06.27 13:26:56.
