data_PCOD8031946
_publ_section_title
;
Structure prediction by ZEFSAII (Michael W. Deem and Ramdas Pophale) SiO2 
 PCOD8031946
Probable space group: P -1
;
_chemical_formula_sum "Si O2"
_cell_formula_units_Z 16
_cell_length_a 16.683431
_cell_length_b 26.711093
_cell_length_c 26.960434
_cell_angle_alpha 169.235235
_cell_angle_beta 21.064123
_cell_angle_gamma 158.730418
_cell_volume 785.787409
_symmetry_space_group_name_H-M "P -1"
_symmetry_group_IT_number 2
_symmetry_cell_setting 'triclinic'
loop_
_space_group_symop_operation_xyz
x,y,z
-x,-y,-z
loop_
_atom_site_type_symbol
_atom_site_label
_atom_site_fract_x
_atom_site_fract_y
_atom_site_fract_z
Si Si1 0.704113 0.384277 0.116709
Si Si2 0.598447 0.883062 0.615578
Si Si3 0.738929 0.138323 0.021286
Si Si4 0.911077 0.443637 0.395418
Si Si5 0.640763 0.045860 0.639229
Si Si6 0.112144 0.979150 0.862110
Si Si7 0.266577 0.395050 0.443202
Si Si8 0.079271 0.360844 0.954107
O O1 0.751101 0.666823 0.332693
O O2 0.514507 0.396351 0.279081
O O3 0.936341 0.359405 0.984820
O O4 0.613661 0.120873 0.878491
O O5 0.337066 0.720988 0.603853
O O6 0.687128 0.015381 0.640970
O O7 0.694857 0.362892 0.303780
O O8 0.916590 0.287184 0.023232
O O9 0.500000 0.000000 0.000000
O O10 0.838291 0.901003 0.759990
O O11 0.908401 0.552696 0.447058
O O12 0.981956 0.697210 0.638242
O O13 0.085238 0.241048 0.099813
O O14 0.375100 0.976503 0.712624
O O15 0.755188 0.347376 0.848311
O O16 0.757896 0.848246 0.347410
O O17 0.000000 0.000000 0.000000
#
# Coordination Sequence:
#
# PCOD8031946 Si02
#       8
#     2   2   2   2   2   2   2   2
#     4  11  23  39  64  96 136 173 213 256 320 400
#     4  11  23  39  64  96 136 173 213 256 320 400
#     4  12  24  42  70  95 129 171 222 270 320 375
#     4  11  23  40  69 100 128 162 216 278 327 373
#     4  12  27  42  63  94 136 178 215 262 325 386
#     4  12  24  42  70  95 129 171 222 270 320 375
#     4  11  23  40  69 100 128 162 216 278 327 373
#     4  12  27  42  63  94 136 178 215 262 325 386
#
# _framework density 20.361742
#
# number of rings (size 3 to 8) (size 9 to 14) (size 15 to 20)
#    0.000    0.500    2.500    7.500    3.500    3.000 
#    0.000    0.000    0.000   15.000    0.000    0.000 
#    0.000    0.000    0.000    0.000    0.000    0.000 
#
# Total GULP energy -198501.580949 kJ/mol
# GULP energy per Si atom -12406.348809 kJ/mol
# Density = 2.031540 g / cm^3
# Si number density = 20.361742 Si / 1000 Ang^3
#
#
#
# Elastic Constant Matrix: (Units=GPa)
#
#
# Indices 1 2 3 4 5 6 
#
# 1 79.6058 54.1486 51.2732 -3.1143 -4.7532 1.6965
# 2 54.1486 101.5441 58.7977 5.3605 2.1182 -6.7257
# 3 51.2732 58.7977 176.5699 16.7391 6.6043 8.2670
# 4 -3.1143 5.3605 16.7391 29.7444 1.5078 -9.9892
# 5 -4.7532 2.1182 6.6043 1.5078 58.7076 7.4977
# 6 1.6965 -6.7257 8.2670 -9.9892 7.4977 29.6278
#
#
#
# Elastic Compliance Matrix: (Units=1/GPa)
#
#
# Indices 1 2 3 4 5 6 
#
# 1 0.022241 -0.010198 -0.003631 0.005629 0.002603 -0.001336
# 2 -0.010198 0.017466 -0.003002 -0.000529 -0.001829 0.005671
# 3 -0.003631 -0.003002 0.008555 -0.006275 -0.000363 -0.004884
# 4 0.005629 -0.000529 -0.006275 0.043475 -0.002041 0.016483
# 5 0.002603 -0.001829 -0.000363 -0.002041 0.018137 -0.005741
# 6 -0.001336 0.005671 -0.004884 0.016483 -0.005741 0.043489
#
#
# Mechanical properties :
#
#
# Convention : Reuss Voigt Hill
#
# Bulk Modulus (GPa) = 68.49095 76.23986 72.36540
# Shear Modulus (GPa) = 26.05648 36.51598 31.28623
#
# Velocity S-wave (km/s) = 3.58114 4.23941 3.92410
# Velocity P-wave (km/s) = 7.12808 7.84139 7.49323
#
# Compressibility (1/GPa) = 0.01460047
#
# Stress axis : x y z
#
# Youngs Moduli (GPa) = 44.96115 57.25521 116.89435
#
# Poissons Ratio (x) = 0.58387 0.42447
# Poissons Ratio (y) = 0.45850 0.35089
# Poissons Ratio (z) = 0.16327 0.17187
#
# Static dielectric constant tensor:
#      x y z
#    x 3.948650 -0.086620 -0.230250 
#    y -0.086620 3.676820 0.107310 
#    z -0.230250 0.107310 3.976570 
# 
# 
# High freq. dielectric constant tensor:
#      x y z
#    x 1.802530 -0.003050 -0.004520 
#    y -0.003050 1.784600 0.011150 
#    z -0.004520 0.011150 1.822450 
# 
# From -- ./inp_files/477194.got.cif
#   From: 2010.06.25/outbox.cif.g09.slc.cpg/sg2_239_cif.got.tgz:477194.got - 2010.06.27 13:26:56.
