data_PCOD8031692
_publ_section_title
;
Structure prediction by ZEFSAII (Michael W. Deem and Ramdas Pophale) SiO2 
 PCOD8031692
Probable space group: P -1
;
_chemical_formula_sum "Si O2"
_cell_formula_units_Z 16
_cell_length_a 9.826667
_cell_length_b 13.457096
_cell_length_c 8.486451
_cell_angle_alpha 53.126978
_cell_angle_beta 96.586811
_cell_angle_gamma 66.637417
_cell_volume 722.905582
_symmetry_space_group_name_H-M "P -1"
_symmetry_group_IT_number 2
_symmetry_cell_setting 'triclinic'
loop_
_space_group_symop_operation_xyz
x,y,z
-x,-y,-z
loop_
_atom_site_type_symbol
_atom_site_label
_atom_site_fract_x
_atom_site_fract_y
_atom_site_fract_z
Si Si1 0.322676 0.605998 0.789435
Si Si2 0.813679 0.081256 0.684779
Si Si3 0.806557 0.104441 0.028533
Si Si4 0.047719 0.564917 0.804803
Si Si5 0.750808 0.683476 0.187615
Si Si6 0.477551 0.405934 0.710759
Si Si7 0.759418 0.841260 0.329906
Si Si8 0.571399 0.980822 0.700920
O O1 0.251900 0.782289 0.581097
O O2 0.186143 0.588132 0.870261
O O3 0.350518 0.529525 0.699704
O O4 0.500000 0.500000 0.000000
O O5 0.717148 0.006599 0.701328
O O6 0.786572 0.141185 0.803652
O O7 0.014867 0.949370 0.821672
O O8 0.774025 0.979409 0.179130
O O9 0.660886 0.266188 0.936359
O O10 0.098849 0.464700 0.746059
O O11 0.884293 0.733204 0.586059
O O12 0.000000 0.500000 0.000000
O O13 0.627862 0.658818 0.298343
O O14 0.815931 0.749434 0.259521
O O15 0.643939 0.808394 0.919401
O O16 0.500000 0.500000 0.500000
O O17 0.571176 0.904547 0.299974
O O18 0.500000 0.000000 0.500000
#
# Coordination Sequence:
#
# PCOD8031692 Si02
#       8
#     2   2   2   2   2   2   2   2
#     4  11  26  44  65  97 140 182 223 276 348 417
#     4  11  24  43  71 100 140 176 230 289 344 406
#     4  11  22  45  72 104 133 175 237 292 337 399
#     4  11  26  47  66  99 141 181 228 287 351 409
#     4  11  24  43  70 102 132 181 235 283 341 415
#     4  11  23  42  69 101 136 176 230 280 341 410
#     4  12  23  45  73  98 134 181 237 288 335 416
#     4  12  26  43  69 101 141 183 223 282 353 412
#
# _framework density 22.132905000000001
#
# number of rings (size 3 to 8) (size 9 to 14) (size 15 to 20)
#    0.000    0.750    5.000    2.250    5.250    0.000 
#    6.750    1.250    0.000    0.000    0.000    0.000 
#    0.000    0.000    0.000    0.000    0.000    0.000 
#
# Total GULP energy -198344.820960 kJ/mol
# GULP energy per Si atom -12396.551310 kJ/mol
# Density = 2.208253 g / cm^3
# Si number density = 22.132905 Si / 1000 Ang^3
#
#
#
# Elastic Constant Matrix: (Units=GPa)
#
#
# Indices 1 2 3 4 5 6 
#
# 1 176.9612 33.2750 65.7716 -11.5434 -10.8994 6.8861
# 2 33.2750 52.0454 9.4713 -12.2691 -3.8666 0.6035
# 3 65.7716 9.4713 142.3824 -15.8518 -13.3584 6.5504
# 4 -11.5434 -12.2691 -15.8518 40.1979 -0.2709 4.1074
# 5 -10.8994 -3.8666 -13.3584 -0.2709 44.3955 -0.7548
# 6 6.8861 0.6035 6.5504 4.1074 -0.7548 31.6554
#
#
#
# Elastic Compliance Matrix: (Units=1/GPa)
#
#
# Indices 1 2 3 4 5 6 
#
# 1 0.007715 -0.004367 -0.003216 -0.000292 0.000529 -0.000879
# 2 -0.004367 0.023402 0.001341 0.006486 0.001399 -0.000582
# 3 -0.003216 0.001341 0.009042 0.003225 0.002041 -0.001567
# 4 -0.000292 0.006486 0.003225 0.028504 0.001563 -0.004389
# 5 0.000529 0.001399 0.002041 0.001563 0.023397 -0.000209
# 6 -0.000879 -0.000582 -0.001567 -0.004389 -0.000209 0.032681
#
#
# Mechanical properties :
#
#
# Convention : Reuss Voigt Hill
#
# Bulk Modulus (GPa) = 36.13343 65.38055 50.75699
# Shear Modulus (GPa) = 34.14150 40.77449 37.45799
#
# Velocity S-wave (km/s) = 3.93181 4.29681 4.11836
# Velocity P-wave (km/s) = 6.08057 7.36348 6.75256
#
# Compressibility (1/GPa) = 0.02767521
#
# Stress axis : x y z
#
# Youngs Moduli (GPa) = 129.61706 42.73219 110.59108
#
# Poissons Ratio (x) = 0.18660 0.35564
# Poissons Ratio (y) = 0.56600 -0.14826
# Poissons Ratio (z) = 0.41682 -0.05729
#
# Static dielectric constant tensor:
#      x y z
#    x 3.865070 -0.087010 -0.149400 
#    y -0.087010 3.956090 -0.387280 
#    z -0.149400 -0.387280 3.991850 
# 
# 
# High freq. dielectric constant tensor:
#      x y z
#    x 1.885830 -0.004720 -0.004830 
#    y -0.004720 1.859930 -0.019040 
#    z -0.004830 -0.019040 1.881280 
# 
# From -- ./inp_files/205639.got.cif
#   From: 2010.06.25/outbox.cif.g09.slc.cpg/sg2_103_cif.got.tgz:205639.got - 2010.06.27 13:26:56.
