data_PCOD8031722
_publ_section_title
;
Structure prediction by ZEFSAII (Michael W. Deem and Ramdas Pophale) SiO2 
 PCOD8031722
Probable space group: P -1
;
_chemical_formula_sum "Si O2"
_cell_formula_units_Z 16
_cell_length_a 19.365637
_cell_length_b 17.106565
_cell_length_c 11.620143
_cell_angle_alpha 21.333352
_cell_angle_beta 38.696921
_cell_angle_gamma 30.801291
_cell_volume 713.114562
_symmetry_space_group_name_H-M "P -1"
_symmetry_group_IT_number 2
_symmetry_cell_setting 'triclinic'
loop_
_space_group_symop_operation_xyz
x,y,z
-x,-y,-z
loop_
_atom_site_type_symbol
_atom_site_label
_atom_site_fract_x
_atom_site_fract_y
_atom_site_fract_z
Si Si1 0.487215 0.700820 0.651218
Si Si2 0.805671 0.777561 0.657803
Si Si3 0.188417 0.636910 0.634302
Si Si4 0.534680 0.480943 0.640314
Si Si5 0.758754 0.071035 0.670799
Si Si6 0.329581 0.115680 0.770400
Si Si7 0.862953 0.541091 0.655745
Si Si8 0.071888 0.026714 0.629059
O O1 0.501164 0.565978 0.697944
O O2 0.599233 0.754752 0.451400
O O3 0.345336 0.974973 0.469609
O O4 0.500000 0.500000 0.000000
O O5 0.820369 0.667621 0.662930
O O6 0.909771 0.858233 0.434558
O O7 0.836111 0.570292 0.000991
O O8 0.341725 0.501879 0.577862
O O9 0.155853 0.837189 0.505406
O O10 0.084981 0.797283 0.444301
O O11 0.401109 0.686830 0.457487
O O12 0.568455 0.191594 0.976263
O O13 0.830774 0.957448 0.610812
O O14 0.768762 0.850862 0.042700
O O15 0.249138 0.264847 0.555998
O O16 0.000000 0.500000 0.500000
O O17 0.875571 0.271284 0.009526
#
# Coordination Sequence:
#
# PCOD8031722 Si02
#       8
#     2   2   2   2   2   2   2   2
#     4  12  26  43  69 104 146 186 230 286 353 416
#     4  12  26  44  72 104 137 185 237 284 347 419
#     4  11  24  43  73 106 139 182 236 290 345 416
#     4  11  24  45  70 104 145 180 231 294 347 406
#     4  11  22  45  74 101 139 182 232 292 347 402
#     4  11  26  42  72 104 138 185 234 285 348 417
#     4  12  28  48  70 100 145 188 228 287 353 421
#     4  12  26  46  74 103 141 184 235 290 347 415
#
# _framework density 22.436788
#
# number of rings (size 3 to 8) (size 9 to 14) (size 15 to 20)
#    0.000    0.500    2.500    6.750    3.500    3.500 
#    0.000    0.000    0.000    0.000    0.000    0.000 
#    0.000    0.000    0.000    0.000    0.000    0.000 
#
# Total GULP energy -198435.409799 kJ/mol
# GULP energy per Si atom -12402.213112 kJ/mol
# Density = 2.238572 g / cm^3
# Si number density = 22.436788 Si / 1000 Ang^3
#
#
#
# Elastic Constant Matrix: (Units=GPa)
#
#
# Indices 1 2 3 4 5 6 
#
# 1 56.0540 -22.8834 94.5714 -19.5298 -2.8829 -43.0966
# 2 -22.8834 38.3324 39.8021 5.4201 0.4132 -22.6730
# 3 94.5714 39.8021 132.6235 20.5698 -2.2369 27.9485
# 4 -19.5298 5.4201 20.5698 15.5963 -5.9203 -4.1641
# 5 -2.8829 0.4132 -2.2369 -5.9203 47.1068 -3.7728
# 6 -43.0966 -22.6730 27.9485 -4.1641 -3.7728 19.7980
#
#
#
# Elastic Compliance Matrix: (Units=1/GPa)
#
#
# Indices 1 2 3 4 5 6 
#
# 1 0.001850 -0.007277 0.003096 -0.001947 -0.000658 -0.009212
# 2 -0.007277 0.020001 0.003173 -0.022316 -0.003497 -0.002774
# 3 0.003096 0.003173 0.002612 0.001672 0.001076 0.007244
# 4 -0.001947 -0.022316 0.001672 0.065324 0.006998 -0.017084
# 5 -0.000658 -0.003497 0.001076 0.006998 0.022046 -0.001284
# 6 -0.009212 -0.002774 0.007244 -0.017084 -0.001284 0.013216
#
#
# Mechanical properties :
#
#
# Convention : Reuss Voigt Hill
#
# Bulk Modulus (GPa) = 44.54507 49.99889 47.27198
# Shear Modulus (GPa) = 37.16191 24.20156 30.68173
#
# Velocity S-wave (km/s) = 4.07417 3.28785 3.70195
# Velocity P-wave (km/s) = 6.48294 6.06185 6.27593
#
# Compressibility (1/GPa) = 0.02244917
#
# Stress axis : x y z
#
# Youngs Moduli (GPa) = 540.41973 49.99809 382.86369
#
# Poissons Ratio (x) = 0.36382 -1.18553
# Poissons Ratio (y) = 3.93246 -1.21492
# Poissons Ratio (z) = -1.67340 -0.15866
#
# Static dielectric constant tensor:
#      x y z
#    x 3.983130 -0.310520 0.127460 
#    y -0.310520 3.687060 0.144560 
#    z 0.127460 0.144560 4.069230 
# 
# 
# High freq. dielectric constant tensor:
#      x y z
#    x 1.911050 0.000230 -0.000470 
#    y 0.000230 1.880950 0.000320 
#    z -0.000470 0.000320 1.894340 
# 
# From -- ./inp_files/472304.got.cif
#   From: 2010.06.25/outbox.cif.g09.slc.cpg/sg2_237_cif.got.tgz:472304.got - 2010.06.27 13:26:56.
