data_PCOD8031310
_publ_section_title
;
Structure prediction by ZEFSAII (Michael W. Deem and Ramdas Pophale) SiO2 
 PCOD8031310
Probable space group: P -1
;
_chemical_formula_sum "Si O2"
_cell_formula_units_Z 14
_cell_length_a 10.505133
_cell_length_b 4.736610
_cell_length_c 14.410977
_cell_angle_alpha 98.557545
_cell_angle_beta 134.796083
_cell_angle_gamma 92.505381
_cell_volume 491.777274
_symmetry_space_group_name_H-M "P -1"
_symmetry_group_IT_number 2
_symmetry_cell_setting 'triclinic'
loop_
_space_group_symop_operation_xyz
x,y,z
-x,-y,-z
loop_
_atom_site_type_symbol
_atom_site_label
_atom_site_fract_x
_atom_site_fract_y
_atom_site_fract_z
Si Si1 0.359466 0.681696 0.589502
Si Si2 0.052241 0.858672 0.135997
Si Si3 0.907441 0.562113 0.712517
Si Si4 0.771653 0.046466 0.199214
Si Si5 0.709465 0.539563 0.838301
Si Si6 0.204544 0.178792 0.612256
Si Si7 0.541410 0.657127 0.933487
O O1 0.283814 0.586532 0.442018
O O2 0.573265 0.658704 0.703373
O O3 0.230054 0.489242 0.591220
O O4 0.338895 0.011277 0.615093
O O5 0.002717 0.684509 0.201274
O O6 0.228959 0.745233 0.182727
O O7 0.117446 0.206896 0.206929
O O8 0.886068 0.794494 0.972020
O O9 0.034994 0.728348 0.703995
O O10 0.760815 0.784462 0.256318
O O11 0.713328 0.927017 0.059335
O O12 0.629054 0.215688 0.181660
O O13 0.591513 0.450852 0.868042
O O14 0.000000 0.000000 0.500000
O O15 0.500000 0.500000 0.000000
#
# Coordination Sequence:
#
# PCOD8031310 Si02
#       7
#     2   2   2   2   2   2   2
#     4  12  27  44  76 106 148 186 244 298 359 430
#     4  11  28  49  76 100 147 192 248 297 353 426
#     4  12  26  48  72 107 140 196 238 299 359 426
#     4  11  24  38  71 102 146 179 237 290 366 427
#     4  11  25  49  73 108 143 192 245 299 358 422
#     4  12  25  43  68 110 147 190 227 291 369 435
#     4  11  22  43  69 106 141 184 231 299 357 435
#
# _framework density 28.468173
#
# number of rings (size 3 to 8) (size 9 to 14) (size 15 to 20)
#    0.000    0.571    4.286    3.000    0.000    6.857 
#    5.143    0.000    0.000    0.000    0.000    0.000 
#    0.000    0.000    0.000    0.000    0.000    0.000 
#
# Total GULP energy -173592.396030 kJ/mol
# GULP energy per Si atom -12399.456859 kJ/mol
# Density = 2.840338 g / cm^3
# Si number density = 28.468173 Si / 1000 Ang^3
#
#
#
# Elastic Constant Matrix: (Units=GPa)
#
#
# Indices 1 2 3 4 5 6 
#
# 1 68.1419 -24.7153 28.0299 2.3651 0.0399 -10.9535
# 2 -24.7153 63.2017 13.4950 9.4258 5.4739 -6.8134
# 3 28.0299 13.4950 196.0955 0.1337 -2.3792 -24.9113
# 4 2.3651 9.4258 0.1337 31.5737 -12.7276 -2.3153
# 5 0.0399 5.4739 -2.3792 -12.7276 46.7674 -5.3299
# 6 -10.9535 -6.8134 -24.9113 -2.3153 -5.3299 40.9906
#
#
#
# Elastic Compliance Matrix: (Units=1/GPa)
#
#
# Indices 1 2 3 4 5 6 
#
# 1 0.020558 0.010156 -0.003058 -0.005101 -0.002209 0.004748
# 2 0.010156 0.022533 -0.002579 -0.009154 -0.004842 0.003745
# 3 -0.003058 -0.002579 0.006076 0.001736 0.001397 0.002727
# 4 -0.005101 -0.009154 0.001736 0.039862 0.012242 0.002014
# 5 -0.002209 -0.004842 0.001397 0.012242 0.025752 0.003494
# 6 0.004748 0.003745 0.002727 0.002014 0.003494 0.028512
#
#
# Mechanical properties :
#
#
# Convention : Reuss Voigt Hill
#
# Bulk Modulus (GPa) = 17.18018 40.11760 28.64889
# Shear Modulus (GPa) = 32.54005 44.57498 38.55752
#
# Velocity S-wave (km/s) = 3.38454 3.96129 3.68422
# Velocity P-wave (km/s) = 4.61752 5.91989 5.30879
#
# Compressibility (1/GPa) = 0.05820660
#
# Stress axis : x y z
#
# Youngs Moduli (GPa) = 48.64210 44.37931 164.57483
#
# Poissons Ratio (x) = -0.45073 0.50322
# Poissons Ratio (y) = -0.49402 0.42446
# Poissons Ratio (z) = 0.14873 0.11446
#
# Static dielectric constant tensor:
#      x y z
#    x 5.124110 -0.118150 0.126910 
#    y -0.118150 5.195890 0.514810 
#    z 0.126910 0.514810 5.707710 
# 
# 
# High freq. dielectric constant tensor:
#      x y z
#    x 2.160110 0.001150 -0.001910 
#    y 0.001150 2.146810 0.003760 
#    z -0.001910 0.003760 2.178150 
# 
# From -- ./inp_files/511102.got.cif
#   From: 2010.06.25/outbox.cif.g09.slc.cpg/sg2_256_cif.got.tgz:511102.got - 2010.06.27 13:26:56.
