data_PCOD8031200
_publ_section_title
;
Structure prediction by ZEFSAII (Michael W. Deem and Ramdas Pophale) SiO2 
 PCOD8031200
Probable space group: P -1
;
_chemical_formula_sum "Si O2"
_cell_formula_units_Z 16
_cell_length_a 15.561315
_cell_length_b 9.409456
_cell_length_c 14.482067
_cell_angle_alpha 143.453664
_cell_angle_beta 37.457390
_cell_angle_gamma 140.793702
_cell_volume 710.742195
_symmetry_space_group_name_H-M "P -1"
_symmetry_group_IT_number 2
_symmetry_cell_setting 'triclinic'
loop_
_space_group_symop_operation_xyz
x,y,z
-x,-y,-z
loop_
_atom_site_type_symbol
_atom_site_label
_atom_site_fract_x
_atom_site_fract_y
_atom_site_fract_z
Si Si1 0.200465 0.958387 0.290939
Si Si2 0.849473 0.069059 0.164044
Si Si3 0.832560 0.385199 0.041086
Si Si4 0.340478 0.060746 0.920664
Si Si5 0.319676 0.841579 0.301099
Si Si6 0.184552 0.081879 0.690704
Si Si7 0.895930 0.617347 0.457372
Si Si8 0.854674 0.663028 0.719709
O O1 0.334261 0.936641 0.231088
O O2 0.058068 0.847106 0.424596
O O3 0.227516 0.256679 0.400922
O O4 0.176418 0.793519 0.132788
O O5 0.887442 0.373822 0.276106
O O6 0.735996 0.923918 0.104089
O O7 0.759288 0.981453 0.291487
O O8 0.000000 0.000000 0.000000
O O9 0.784887 0.617884 0.174573
O O10 0.716389 0.223416 0.134983
O O11 0.000000 0.500000 0.000000
O O12 0.521355 0.177114 0.815831
O O13 0.284286 0.241103 0.128039
O O14 0.186088 0.557785 0.281941
O O15 0.286903 0.042990 0.501184
O O16 0.004414 0.910238 0.745915
O O17 0.877599 0.534054 0.537239
#
# Coordination Sequence:
#
# PCOD8031200 Si02
#       8
#     2   2   2   2   2   2   2   2
#     4  11  24  41  71 104 137 181 231 289 345 406
#     4  12  24  43  71 102 134 182 237 289 344 408
#     4  12  24  46  71 103 140 180 240 287 338 411
#     4  12  28  46  69 102 146 186 224 291 356 409
#     4  12  28  46  67 106 147 182 227 287 357 415
#     4  12  24  43  75 101 135 184 236 288 342 412
#     4  11  22  42  72 102 131 178 243 289 328 408
#     4  12  22  48  71 102 138 184 235 287 336 419
#
# _framework density 22.511679000000001
#
# number of rings (size 3 to 8) (size 9 to 14) (size 15 to 20)
#    0.000    0.250    6.250    3.000    5.250    1.500 
#    0.000    0.000    0.000    0.000    0.000    0.000 
#    0.000    0.000    0.000    0.000    0.000    0.000 
#
# Total GULP energy -198416.017076 kJ/mol
# GULP energy per Si atom -12401.001067 kJ/mol
# Density = 2.246044 g / cm^3
# Si number density = 22.511679 Si / 1000 Ang^3
#
#
#
# Elastic Constant Matrix: (Units=GPa)
#
#
# Indices 1 2 3 4 5 6 
#
# 1 130.5632 21.6510 40.7392 -6.4930 6.9677 -8.2918
# 2 21.6510 68.5504 29.3469 11.7423 -1.5283 -16.2803
# 3 40.7392 29.3469 131.9951 17.2717 -3.1435 6.8678
# 4 -6.4930 11.7423 17.2717 40.4413 -7.1942 -6.4957
# 5 6.9677 -1.5283 -3.1435 -7.1942 35.4010 -3.5186
# 6 -8.2918 -16.2803 6.8678 -6.4957 -3.5186 31.5866
#
#
#
# Elastic Compliance Matrix: (Units=1/GPa)
#
#
# Indices 1 2 3 4 5 6 
#
# 1 0.009335 -0.001513 -0.003195 0.003572 -0.001165 0.002970
# 2 -0.001513 0.019707 -0.004118 -0.002309 0.001341 0.010330
# 3 -0.003195 -0.004118 0.010427 -0.004812 -0.000222 -0.006242
# 4 0.003572 -0.002309 -0.004812 0.030266 0.005681 0.007651
# 5 -0.001165 0.001341 -0.000222 0.005681 0.030163 0.004962
# 6 0.002970 0.010330 -0.006242 0.007651 0.004962 0.041246
#
#
# Mechanical properties :
#
#
# Convention : Reuss Voigt Hill
#
# Bulk Modulus (GPa) = 45.83431 57.17589 51.50510
# Shear Modulus (GPa) = 30.10794 37.44388 33.77591
#
# Velocity S-wave (km/s) = 3.66107 4.08279 3.87767
# Velocity P-wave (km/s) = 6.18673 6.90500 6.55571
#
# Compressibility (1/GPa) = 0.02181772
#
# Stress axis : x y z
#
# Youngs Moduli (GPa) = 107.12006 50.74226 95.90680
#
# Poissons Ratio (x) = 0.07680 0.30637
# Poissons Ratio (y) = 0.16212 0.39494
# Poissons Ratio (z) = 0.34220 0.20896
#
# Static dielectric constant tensor:
#      x y z
#    x 4.228530 -0.404360 0.013910 
#    y -0.404360 3.970290 0.154300 
#    z 0.013910 0.154300 4.182460 
# 
# 
# High freq. dielectric constant tensor:
#      x y z
#    x 1.884720 -0.033710 0.004370 
#    y -0.033710 1.869310 0.015910 
#    z 0.004370 0.015910 1.898810 
# 
# From -- ./inp_files/308519.got.cif
#   From: 2010.06.25/outbox.cif.g09.slc.cpg/sg2_155_cif.got.tgz:308519.got - 2010.06.27 13:26:56.
