data_PCOD8031324
_publ_section_title
;
Structure prediction by ZEFSAII (Michael W. Deem and Ramdas Pophale) SiO2 
 PCOD8031324
Probable space group: P -1
;
_chemical_formula_sum "Si O2"
_cell_formula_units_Z 16
_cell_length_a 20.994668
_cell_length_b 8.791366
_cell_length_c 24.871013
_cell_angle_alpha 30.616345
_cell_angle_beta 162.306536
_cell_angle_gamma 142.325377
_cell_volume 698.480876
_symmetry_space_group_name_H-M "P -1"
_symmetry_group_IT_number 2
_symmetry_cell_setting 'triclinic'
loop_
_space_group_symop_operation_xyz
x,y,z
-x,-y,-z
loop_
_atom_site_type_symbol
_atom_site_label
_atom_site_fract_x
_atom_site_fract_y
_atom_site_fract_z
Si Si1 0.909174 0.802549 0.031037
Si Si2 0.927252 0.809450 0.602948
Si Si3 0.724452 0.799537 0.230020
Si Si4 0.753174 0.602117 0.789989
Si Si5 0.533536 0.820001 0.653709
Si Si6 0.430723 0.633441 0.845365
Si Si7 0.154575 0.522973 0.463800
Si Si8 0.215254 0.049581 0.999334
O O1 0.670067 0.765725 0.834282
O O2 0.889671 0.977640 0.018484
O O3 0.063681 0.476198 0.262457
O O4 0.000000 0.000000 0.000000
O O5 0.948591 0.697020 0.592200
O O6 0.115150 0.977587 0.722178
O O7 0.705517 0.033505 0.360433
O O8 0.701177 0.585204 0.225655
O O9 0.815005 0.604930 0.413397
O O10 0.500000 0.000000 0.000000
O O11 0.707704 0.766739 0.761445
O O12 0.607648 0.838447 0.561191
O O13 0.663948 0.286007 0.818112
O O14 0.000000 0.500000 0.000000
O O15 0.376196 0.577985 0.599537
O O16 0.636013 0.694123 0.959000
O O17 0.500000 0.500000 0.000000
O O18 0.983790 0.837840 0.235281
#
# Coordination Sequence:
#
# PCOD8031324 Si02
#       8
#     2   2   2   2   2   2   2   2
#     4  11  26  46  68 101 141 188 240 296 353 423
#     4  11  25  44  69 100 141 186 235 296 358 425
#     4  12  24  44  71 101 136 183 235 293 363 430
#     4  11  23  42  66 101 134 186 238 293 351 423
#     4  11  24  41  70  96 140 184 238 293 357 418
#     4  12  26  45  70 105 144 184 234 298 361 432
#     4  11  22  43  70 100 135 183 236 295 357 425
#     4  11  24  44  68 100 141 183 239 290 360 425
#
# _framework density 22.906853999999999
#
# number of rings (size 3 to 8) (size 9 to 14) (size 15 to 20)
#    0.000    0.750    1.250    6.750    7.000    2.500 
#    4.500    0.000    0.000    0.000    0.000    0.000 
#    0.000    0.000    0.000    0.000    0.000    0.000 
#
# Total GULP energy -198353.658471 kJ/mol
# GULP energy per Si atom -12397.103654 kJ/mol
# Density = 2.285472 g / cm^3
# Si number density = 22.906854 Si / 1000 Ang^3
#
#
#
# Elastic Constant Matrix: (Units=GPa)
#
#
# Indices 1 2 3 4 5 6 
#
# 1 99.9806 45.3003 57.2036 -15.0595 -15.7716 7.1106
# 2 45.3003 124.2011 49.3526 -6.0320 -12.2183 -1.7679
# 3 57.2036 49.3526 169.2668 -21.5933 -13.6936 -13.5733
# 4 -15.0595 -6.0320 -21.5933 41.5179 -0.4404 4.1407
# 5 -15.7716 -12.2183 -13.6936 -0.4404 47.1657 4.0098
# 6 7.1106 -1.7679 -13.5733 4.1407 4.0098 36.8710
#
#
#
# Elastic Compliance Matrix: (Units=1/GPa)
#
#
# Indices 1 2 3 4 5 6 
#
# 1 0.015296 -0.003623 -0.003789 0.003619 0.003562 -0.005312
# 2 -0.003623 0.010106 -0.001708 -0.000780 0.000857 0.000549
# 3 -0.003789 -0.001708 0.008294 0.002358 0.000432 0.003390
# 4 0.003619 -0.000780 0.002358 0.026846 0.002209 -0.003122
# 5 0.003562 0.000857 0.000432 0.002209 0.023036 -0.003240
# 6 -0.005312 0.000549 0.003390 -0.003122 -0.003240 0.030124
#
#
# Mechanical properties :
#
#
# Convention : Reuss Voigt Hill
#
# Bulk Modulus (GPa) = 64.70325 77.46238 71.08282
# Shear Modulus (GPa) = 36.47115 41.21704 38.84409
#
# Velocity S-wave (km/s) = 3.99450 4.24646 4.12241
# Velocity P-wave (km/s) = 7.04147 7.61136 7.33196
#
# Compressibility (1/GPa) = 0.01545517
#
# Stress axis : x y z
#
# Youngs Moduli (GPa) = 65.37622 98.95237 120.56767
#
# Poissons Ratio (x) = 0.35848 0.45686
# Poissons Ratio (y) = 0.23684 0.20598
# Poissons Ratio (z) = 0.24772 0.16905
#
# Static dielectric constant tensor:
#      x y z
#    x 4.048970 -0.328080 0.025650 
#    y -0.328080 4.827850 -0.120340 
#    z 0.025650 -0.120340 4.528920 
# 
# 
# High freq. dielectric constant tensor:
#      x y z
#    x 1.887780 0.007600 -0.000910 
#    y 0.007600 1.914840 -0.001130 
#    z -0.000910 -0.001130 1.927930 
# 
# From -- ./inp_files/613573.got.cif
#   From: 2010.06.25/outbox.cif.g09.slc.cpg/sg2_307_cif.got.tgz:613573.got - 2010.06.27 13:26:56.
