data_PCOD8031340
_publ_section_title
;
Structure prediction by ZEFSAII (Michael W. Deem and Ramdas Pophale) SiO2 
 PCOD8031340
Probable space group: P -1
;
_chemical_formula_sum "Si O2"
_cell_formula_units_Z 16
_cell_length_a 13.077103
_cell_length_b 16.399412
_cell_length_c 9.359071
_cell_angle_alpha 140.445175
_cell_angle_beta 144.923075
_cell_angle_gamma 34.616904
_cell_volume 625.341271
_symmetry_space_group_name_H-M "P -1"
_symmetry_group_IT_number 2
_symmetry_cell_setting 'triclinic'
loop_
_space_group_symop_operation_xyz
x,y,z
-x,-y,-z
loop_
_atom_site_type_symbol
_atom_site_label
_atom_site_fract_x
_atom_site_fract_y
_atom_site_fract_z
Si Si1 0.178858 0.594359 0.147714
Si Si2 0.390424 0.458942 0.939894
Si Si3 0.381110 0.371664 0.337218
Si Si4 0.237462 0.905759 0.694042
Si Si5 0.914347 0.472262 0.546137
Si Si6 0.789207 0.850215 0.170213
Si Si7 0.879476 0.863403 0.608083
Si Si8 0.713040 0.135248 0.969016
O O1 0.345167 0.566345 0.172790
O O2 0.018389 0.561369 0.839752
O O3 0.303477 0.480960 0.262671
O O4 0.035948 0.760696 0.276929
O O5 0.171308 0.489591 0.662752
O O6 0.504727 0.287688 0.891411
O O7 0.500000 0.500000 0.000000
O O8 0.635023 0.261628 0.459263
O O9 0.294626 0.472470 0.517682
O O10 0.291940 0.262247 0.077023
O O11 0.336594 0.003011 0.877490
O O12 0.273201 0.892907 0.885368
O O13 0.000000 0.000000 0.500000
O O14 0.084891 0.296028 0.520403
O O15 0.784386 0.908321 0.402287
O O16 0.100728 0.848750 0.854316
O O17 0.718135 0.994739 0.707814
#
# Coordination Sequence:
#
# PCOD8031340 Si02
#       8
#     2   2   2   2   2   2   2   2
#     4  11  23  45  72  98 140 171 235 284 332 403
#     4  12  26  44  68  99 138 182 227 275 340 405
#     4  11  23  45  72  98 140 171 235 284 332 403
#     4  12  26  44  68  99 138 182 227 275 340 405
#     4  11  23  44  71 103 130 184 223 282 344 392
#     4  11  23  44  71 103 130 184 223 282 344 392
#     4  11  22  43  70  96 140 177 227 279 338 400
#     4  11  26  44  62  99 142 179 222 280 337 406
#
# _framework density 25.586027999999999
#
# number of rings (size 3 to 8) (size 9 to 14) (size 15 to 20)
#    0.000    0.750    6.250    1.500    3.500    1.000 
#    0.000    3.750    0.000    0.000    0.000    0.000 
#    0.000    0.000    0.000    0.000    0.000    0.000 
#
# Total GULP energy -198408.281411 kJ/mol
# GULP energy per Si atom -12400.517588 kJ/mol
# Density = 2.552779 g / cm^3
# Si number density = 25.586028 Si / 1000 Ang^3
#
#
#
# Elastic Constant Matrix: (Units=GPa)
#
#
# Indices 1 2 3 4 5 6 
#
# 1 72.8332 47.6440 24.3083 5.0208 -39.6666 7.1568
# 2 47.6440 174.9578 59.7778 9.9806 -44.2234 15.0828
# 3 24.3083 59.7778 90.8620 14.7214 -47.3149 3.2120
# 4 5.0208 9.9806 14.7214 45.2632 -6.4808 -14.2719
# 5 -39.6666 -44.2234 -47.3149 -6.4808 44.9503 -4.3405
# 6 7.1568 15.0828 3.2120 -14.2719 -4.3405 41.4802
#
#
#
# Elastic Compliance Matrix: (Units=1/GPa)
#
#
# Indices 1 2 3 4 5 6 
#
# 1 0.035073 -0.003693 0.016571 -0.002898 0.044112 -0.002373
# 2 -0.003693 0.008491 -0.004231 -0.000789 0.000300 -0.002363
# 3 0.016571 -0.004231 0.033842 -0.005839 0.045122 -0.001228
# 4 -0.002898 -0.000789 -0.005839 0.026993 -0.004617 0.010043
# 5 0.044112 0.000300 0.045122 -0.004617 0.108156 -0.001485
# 6 -0.002373 -0.002363 -0.001228 0.010043 -0.001485 0.028772
#
#
# Mechanical properties :
#
#
# Convention : Reuss Voigt Hill
#
# Bulk Modulus (GPa) = 10.55964 66.90148 38.73056
# Shear Modulus (GPa) = 19.56186 40.13359 29.84773
#
# Velocity S-wave (km/s) = 2.76805 3.96482 3.41920
# Velocity P-wave (km/s) = 3.78843 6.86762 5.54601
#
# Compressibility (1/GPa) = 0.09470021
#
# Stress axis : x y z
#
# Youngs Moduli (GPa) = 28.51233 117.76686 29.54884
#
# Poissons Ratio (x) = 0.43486 -0.48964
# Poissons Ratio (y) = 0.10528 0.12502
# Poissons Ratio (z) = -0.47247 0.49827
#
# Static dielectric constant tensor:
#      x y z
#    x 5.398030 -0.340480 -0.084700 
#    y -0.340480 5.390850 0.225830 
#    z -0.084700 0.225830 5.012240 
# 
# 
# High freq. dielectric constant tensor:
#      x y z
#    x 2.046190 -0.007750 0.004720 
#    y -0.007750 2.033630 0.008290 
#    z 0.004720 0.008290 2.040020 
# 
# From -- ./inp_files/318172.got.cif
#   From: 2010.06.25/outbox.cif.g09.slc.cpg/sg2_160_cif.got.tgz:318172.got - 2010.06.27 13:26:56.
