data_PCOD8031899
_publ_section_title
;
Structure prediction by ZEFSAII (Michael W. Deem and Ramdas Pophale) SiO2 
 PCOD8031899
Probable space group: P -1
;
_chemical_formula_sum "Si O2"
_cell_formula_units_Z 16
_cell_length_a 13.063991
_cell_length_b 12.477369
_cell_length_c 14.936688
_cell_angle_alpha 105.054726
_cell_angle_beta 19.011820
_cell_angle_gamma 103.403059
_cell_volume 765.193021
_symmetry_space_group_name_H-M "P -1"
_symmetry_group_IT_number 2
_symmetry_cell_setting 'triclinic'
loop_
_space_group_symop_operation_xyz
x,y,z
-x,-y,-z
loop_
_atom_site_type_symbol
_atom_site_label
_atom_site_fract_x
_atom_site_fract_y
_atom_site_fract_z
Si Si1 0.797047 0.110010 0.585725
Si Si2 0.900974 0.436644 0.483294
Si Si3 0.801736 0.325228 0.300760
Si Si4 0.840435 0.855611 0.528671
Si Si5 0.925595 0.632891 0.091109
Si Si6 0.890184 0.790160 0.810556
Si Si7 0.229150 0.731580 0.032043
Si Si8 0.214362 0.499341 0.067730
O O1 0.008389 0.160814 0.501087
O O2 0.958738 0.114810 0.354636
O O3 0.732150 0.983335 0.633203
O O4 0.469804 0.179279 0.865794
O O5 0.000000 0.500000 0.500000
O O6 0.081559 0.317900 0.299298
O O7 0.019099 0.513580 0.323096
O O8 0.527904 0.418670 0.791721
O O9 0.438411 0.346170 0.626689
O O10 0.936892 0.235131 0.242319
O O11 0.973567 0.442880 0.187817
O O12 0.872238 0.296422 0.132493
O O13 0.079879 0.820369 0.244224
O O14 0.541077 0.782003 0.746306
O O15 0.993416 0.694366 0.141402
O O16 0.000000 0.500000 0.000000
O O17 0.332621 0.618902 0.972067
#
# Coordination Sequence:
#
# PCOD8031899 Si02
#       8
#     2   2   2   2   2   2   2   2
#     4  11  24  46  69  93 124 173 215 269 328 369
#     4  11  24  37  55  92 133 171 205 253 301 398
#     4  11  23  42  61  95 131 166 220 249 303 398
#     4  11  26  44  67  97 127 161 227 271 312 387
#     4  12  24  40  67  92 133 176 208 258 321 375
#     4  11  23  40  69  91 125 173 214 257 321 382
#     4  12  25  40  67  95 129 172 205 276 320 367
#     4  11  23  38  58  89 135 169 209 249 309 378
#
# _framework density 20.909756999999999
#
# number of rings (size 3 to 8) (size 9 to 14) (size 15 to 20)
#    0.000    0.750    1.250    7.500    7.000    2.000 
#    0.000    0.000    0.000   15.000    0.000    0.000 
#    0.000    0.000    0.000    0.000    0.000    0.000 
#
# Total GULP energy -198334.465648 kJ/mol
# GULP energy per Si atom -12395.904103 kJ/mol
# Density = 2.086217 g / cm^3
# Si number density = 20.909757 Si / 1000 Ang^3
#
#
#
# Elastic Constant Matrix: (Units=GPa)
#
#
# Indices 1 2 3 4 5 6 
#
# 1 107.3808 36.9700 30.3444 0.6015 8.7392 -18.5311
# 2 36.9700 90.8354 23.5423 -3.1305 -4.8105 -14.1463
# 3 30.3444 23.5423 119.3487 2.0064 -5.2933 -11.3621
# 4 0.6015 -3.1305 2.0064 36.2719 -3.8142 3.6063
# 5 8.7392 -4.8105 -5.2933 -3.8142 42.8376 -5.1649
# 6 -18.5311 -14.1463 -11.3621 3.6063 -5.1649 35.3048
#
#
#
# Elastic Compliance Matrix: (Units=1/GPa)
#
#
# Indices 1 2 3 4 5 6 
#
# 1 0.012168 -0.004016 -0.002045 -0.001112 -0.002824 0.003820
# 2 -0.004016 0.013661 -0.001269 0.001279 0.002699 0.003222
# 3 -0.002045 -0.001269 0.009395 -0.000601 0.001591 0.001736
# 4 -0.001112 0.001279 -0.000601 0.028269 0.002477 -0.002790
# 5 -0.002824 0.002699 0.001591 0.002477 0.025065 0.003525
# 6 0.003820 0.003222 0.001736 -0.002790 0.003525 0.032980
#
#
# Mechanical properties :
#
#
# Convention : Reuss Voigt Hill
#
# Bulk Modulus (GPa) = 48.62346 55.47539 52.04943
# Shear Modulus (GPa) = 34.95216 37.99673 36.47444
#
# Velocity S-wave (km/s) = 4.09292 4.26746 4.18110
# Velocity P-wave (km/s) = 6.75577 7.13233 6.94660
#
# Compressibility (1/GPa) = 0.02056620
#
# Stress axis : x y z
#
# Youngs Moduli (GPa) = 82.18060 73.20182 106.44091
#
# Poissons Ratio (x) = 0.29394 0.21763
# Poissons Ratio (y) = 0.33000 0.13506
# Poissons Ratio (z) = 0.16802 0.09288
#
# Static dielectric constant tensor:
#      x y z
#    x 5.507980 -0.729110 -0.153570 
#    y -0.729110 3.825570 0.054270 
#    z -0.153570 0.054270 4.071060 
# 
# 
# High freq. dielectric constant tensor:
#      x y z
#    x 1.829240 -0.013110 0.012000 
#    y -0.013110 1.800400 -0.002630 
#    z 0.012000 -0.002630 1.838440 
# 
# From -- ./inp_files/519744.got.cif
#   From: 2010.06.25/outbox.cif.g09.slc.cpg/sg2_260_cif.got.tgz:519744.got - 2010.06.27 13:26:56.
