data_PCOD8031790
_publ_section_title
;
Structure prediction by ZEFSAII (Michael W. Deem and Ramdas Pophale) SiO2 
 PCOD8031790
Probable space group: P -1
;
_chemical_formula_sum "Si O2"
_cell_formula_units_Z 16
_cell_length_a 11.842090
_cell_length_b 8.749847
_cell_length_c 13.823890
_cell_angle_alpha 31.947655
_cell_angle_beta 108.605919
_cell_angle_gamma 109.693402
_cell_volume 712.026888
_symmetry_space_group_name_H-M "P -1"
_symmetry_group_IT_number 2
_symmetry_cell_setting 'triclinic'
loop_
_space_group_symop_operation_xyz
x,y,z
-x,-y,-z
loop_
_atom_site_type_symbol
_atom_site_label
_atom_site_fract_x
_atom_site_fract_y
_atom_site_fract_z
Si Si1 0.122416 0.498825 0.479526
Si Si2 0.235119 0.452314 0.807615
Si Si3 0.980116 0.651582 0.669817
Si Si4 0.714819 0.877684 0.177784
Si Si5 0.533502 0.319332 0.697522
Si Si6 0.409732 0.215726 0.116578
Si Si7 0.248576 0.502597 0.200522
Si Si8 0.291427 0.937649 0.407624
O O1 0.098514 0.474861 0.373951
O O2 0.194299 0.226289 0.664345
O O3 0.000000 0.500000 0.500000
O O4 0.199744 0.795408 0.376889
O O5 0.229272 0.174580 0.884501
O O6 0.107575 0.535617 0.761130
O O7 0.308761 0.712089 0.620995
O O8 0.292995 0.358937 0.972572
O O9 0.892168 0.505544 0.807010
O O10 0.000000 0.000000 0.500000
O O11 0.579179 0.711460 0.242800
O O12 0.713694 0.221107 0.006365
O O13 0.500000 0.500000 0.500000
O O14 0.654023 0.483849 0.692373
O O15 0.553353 0.996799 0.842521
O O16 0.404381 0.050548 0.308520
O O17 0.500000 0.500000 0.000000
O O18 0.246534 0.214498 0.293136
#
# Coordination Sequence:
#
# PCOD8031790 Si02
#       8
#     2   2   2   2   2   2   2   2
#     4  11  22  46  72  98 144 184 237 290 362 424
#     4  11  25  48  71 106 147 187 242 296 358 427
#     4  12  24  46  73 105 141 189 242 291 359 433
#     4  11  24  44  72 106 138 189 238 299 355 425
#     4  12  26  47  71 105 142 191 243 296 361 432
#     4  12  28  46  72 107 146 191 242 294 357 435
#     4  12  25  44  73 103 145 187 237 302 358 423
#     4  11  25  47  69 107 140 189 238 291 367 415
#
# _framework density 22.471063000000001
#
# number of rings (size 3 to 8) (size 9 to 14) (size 15 to 20)
#    0.000    0.500    5.000    4.125    3.500    4.000 
#    0.000    1.875    0.000    0.000    0.000    0.000 
#    0.000    0.000    0.000    0.000    0.000    0.000 
#
# Total GULP energy -198212.634330 kJ/mol
# GULP energy per Si atom -12388.289646 kJ/mol
# Density = 2.241992 g / cm^3
# Si number density = 22.471063 Si / 1000 Ang^3
#
#
#
# Elastic Constant Matrix: (Units=GPa)
#
#
# Indices 1 2 3 4 5 6 
#
# 1 112.1537 9.1189 27.4922 3.3289 7.1895 -0.5081
# 2 9.1189 104.6012 40.2236 -20.5001 13.8916 -2.2127
# 3 27.4922 40.2236 113.3469 -11.6382 9.4255 11.7136
# 4 3.3289 -20.5001 -11.6382 31.4421 4.5448 1.5130
# 5 7.1895 13.8916 9.4255 4.5448 44.7258 0.1801
# 6 -0.5081 -2.2127 11.7136 1.5130 0.1801 34.4076
#
#
#
# Elastic Compliance Matrix: (Units=1/GPa)
#
#
# Indices 1 2 3 4 5 6 
#
# 1 0.009666 -0.000124 -0.002553 -0.001989 -0.000779 0.001096
# 2 -0.000124 0.013058 -0.003662 0.007672 -0.004051 0.001768
# 3 -0.002553 -0.003662 0.011539 0.002523 -0.001123 -0.004307
# 4 -0.001989 0.007672 0.002523 0.038998 -0.006549 -0.002076
# 5 -0.000779 -0.004051 -0.001123 -0.006549 0.024643 0.000269
# 6 0.001096 0.001768 -0.004307 -0.002076 0.000269 0.030749
#
#
# Mechanical properties :
#
#
# Convention : Reuss Voigt Hill
#
# Bulk Modulus (GPa) = 46.32932 53.75236 50.04084
# Shear Modulus (GPa) = 33.66404 38.99957 36.33180
#
# Velocity S-wave (km/s) = 3.87474 4.17051 4.02534
# Velocity P-wave (km/s) = 6.37810 6.86757 6.62736
#
# Compressibility (1/GPa) = 0.02158460
#
# Stress axis : x y z
#
# Youngs Moduli (GPa) = 103.45262 76.58097 86.66411
#
# Poissons Ratio (x) = 0.00950 0.22127
# Poissons Ratio (y) = 0.01284 0.31737
# Poissons Ratio (z) = 0.26413 0.28044
#
# Static dielectric constant tensor:
#      x y z
#    x 4.130630 -0.176450 -0.020540 
#    y -0.176450 4.019260 -0.060340 
#    z -0.020540 -0.060340 4.259450 
# 
# 
# High freq. dielectric constant tensor:
#      x y z
#    x 1.895800 -0.008720 0.001970 
#    y -0.008720 1.887720 -0.011360 
#    z 0.001970 -0.011360 1.890720 
# 
# From -- ./inp_files/274929.got.cif
#   From: 2010.06.25/outbox.cif.g09.slc.cpg/sg2_138_cif.got.tgz:274929.got - 2010.06.27 13:26:56.
