data_PCOD8031655
_publ_section_title
;
Structure prediction by ZEFSAII (Michael W. Deem and Ramdas Pophale) SiO2 
 PCOD8031655
Probable space group: P -1
;
_chemical_formula_sum "Si O2"
_cell_formula_units_Z 14
_cell_length_a 15.312304
_cell_length_b 9.344292
_cell_length_c 10.363491
_cell_angle_alpha 110.457168
_cell_angle_beta 155.164981
_cell_angle_gamma 71.210002
_cell_volume 583.477840
_symmetry_space_group_name_H-M "P -1"
_symmetry_group_IT_number 2
_symmetry_cell_setting 'triclinic'
loop_
_space_group_symop_operation_xyz
x,y,z
-x,-y,-z
loop_
_atom_site_type_symbol
_atom_site_label
_atom_site_fract_x
_atom_site_fract_y
_atom_site_fract_z
Si Si1 0.047756 0.446969 0.730280
Si Si2 0.314315 0.216769 0.368057
Si Si3 0.103250 0.720146 0.283996
Si Si4 0.268443 0.007178 0.736481
Si Si5 0.037284 0.744892 0.674393
Si Si6 0.514279 0.466819 0.359379
Si Si7 0.631326 0.021223 0.846061
O O1 0.906563 0.350173 0.411533
O O2 0.997164 0.409707 0.799730
O O3 0.001833 0.627989 0.708242
O O4 0.286448 0.411279 0.995854
O O5 0.424946 0.379032 0.585329
O O6 0.399398 0.101351 0.558674
O O7 0.375692 0.139996 0.287903
O O8 0.063825 0.239970 0.040311
O O9 0.136791 0.866209 0.464193
O O10 0.318118 0.666116 0.490032
O O11 0.174189 0.161570 0.601712
O O12 0.264154 0.007277 0.885248
O O13 0.500000 0.000000 0.000000
O O14 0.223804 0.857700 0.996581
O O15 0.500000 0.500000 0.500000
#
# Coordination Sequence:
#
# PCOD8031655 Si02
#       7
#     2   2   2   2   2   2   2
#     4  11  24  43  73 106 143 188 236 296 352 427
#     4  11  24  43  70 106 143 190 232 287 360 432
#     4  12  25  46  75 105 142 192 242 293 363 420
#     4  12  26  45  71 106 140 187 244 302 345 427
#     4  11  22  45  69 104 142 185 239 291 362 410
#     4  12  26  43  69 102 145 186 238 293 359 432
#     4  11  23  45  73 102 145 188 237 292 358 422
#
# _framework density 23.994056
#
# number of rings (size 3 to 8) (size 9 to 14) (size 15 to 20)
#    0.000    0.571    5.714    2.571    2.000    1.143 
#    0.000    3.571    0.000    0.000    0.000    0.000 
#    0.000    0.000    0.000    0.000    0.000    0.000 
#
# Total GULP energy -173616.161533 kJ/mol
# GULP energy per Si atom -12401.154395 kJ/mol
# Density = 2.393944 g / cm^3
# Si number density = 23.994056 Si / 1000 Ang^3
#
#
#
# Elastic Constant Matrix: (Units=GPa)
#
#
# Indices 1 2 3 4 5 6 
#
# 1 50.0257 21.7553 22.4095 -13.4853 11.0183 -6.9447
# 2 21.7553 110.8408 34.9431 -24.4399 7.3394 -2.0826
# 3 22.4095 34.9431 118.0111 -21.9434 3.9391 7.3428
# 4 -13.4853 -24.4399 -21.9434 56.7736 -4.5684 -1.7205
# 5 11.0183 7.3394 3.9391 -4.5684 28.8192 4.2084
# 6 -6.9447 -2.0826 7.3428 -1.7205 4.2084 25.4458
#
#
#
# Elastic Compliance Matrix: (Units=1/GPa)
#
#
# Indices 1 2 3 4 5 6 
#
# 1 0.027574 -0.002472 -0.004187 0.003353 -0.010338 0.010468
# 2 -0.002472 0.011032 -0.002234 0.003238 -0.001235 0.001296
# 3 -0.004187 -0.002234 0.010548 0.002123 0.001723 -0.004511
# 4 0.003353 0.003238 0.002123 0.020731 0.000617 0.001867
# 5 -0.010338 -0.001235 0.001723 0.000617 0.040295 -0.010042
# 6 0.010468 0.001296 -0.004511 0.001867 -0.010042 0.045351
#
#
# Mechanical properties :
#
#
# Convention : Reuss Voigt Hill
#
# Bulk Modulus (GPa) = 31.88000 48.56592 40.22296
# Shear Modulus (GPa) = 27.20745 35.52569 31.36657
#
# Velocity S-wave (km/s) = 3.37103 3.85204 3.61953
# Velocity P-wave (km/s) = 5.33547 6.33001 5.85390
#
# Compressibility (1/GPa) = 0.03136763
#
# Stress axis : x y z
#
# Youngs Moduli (GPa) = 36.26585 90.64853 94.80160
#
# Poissons Ratio (x) = 0.22405 0.39695
# Poissons Ratio (y) = 0.08964 0.21183
# Poissons Ratio (z) = 0.15185 0.20255
#
# Static dielectric constant tensor:
#      x y z
#    x 4.242280 0.249820 -0.293560 
#    y 0.249820 4.766910 -0.154440 
#    z -0.293560 -0.154440 4.968810 
# 
# 
# High freq. dielectric constant tensor:
#      x y z
#    x 1.906680 -0.004470 -0.007440 
#    y -0.004470 1.972310 -0.003680 
#    z -0.007440 -0.003680 1.972780 
# 
# From -- ./inp_files/462319.got.cif
#   From: 2010.06.25/outbox.cif.g09.slc.cpg/sg2_232_cif.got.tgz:462319.got - 2010.06.27 13:26:56.
