data_PCOD8031798
_publ_section_title
;
Structure prediction by ZEFSAII (Michael W. Deem and Ramdas Pophale) SiO2 
 PCOD8031798
Probable space group: P -1
;
_chemical_formula_sum "Si O2"
_cell_formula_units_Z 16
_cell_length_a 10.652472
_cell_length_b 8.355355
_cell_length_c 9.260472
_cell_angle_alpha 93.383951
_cell_angle_beta 97.855797
_cell_angle_gamma 65.279262
_cell_volume 741.667062
_symmetry_space_group_name_H-M "P -1"
_symmetry_group_IT_number 2
_symmetry_cell_setting 'triclinic'
loop_
_space_group_symop_operation_xyz
x,y,z
-x,-y,-z
loop_
_atom_site_type_symbol
_atom_site_label
_atom_site_fract_x
_atom_site_fract_y
_atom_site_fract_z
Si Si1 0.367576 0.528193 0.071505
Si Si2 0.898120 0.384867 0.667649
Si Si3 0.141737 0.237691 0.209902
Si Si4 0.935670 0.208727 0.967205
Si Si5 0.574072 0.858391 0.876872
Si Si6 0.623078 0.370053 0.602810
Si Si7 0.601484 0.060641 0.429690
Si Si8 0.911437 0.882892 0.511066
O O1 0.224231 0.682618 0.996591
O O2 0.356381 0.341231 0.062947
O O3 0.401775 0.590076 0.231698
O O4 0.500000 0.500000 0.000000
O O5 0.864238 0.581839 0.717959
O O6 0.941126 0.248074 0.801203
O O7 0.760375 0.387606 0.572330
O O8 0.011446 0.311024 0.556374
O O9 0.296115 0.111591 0.168604
O O10 0.100826 0.129134 0.319104
O O11 0.030626 0.287991 0.067306
O O12 0.000000 0.000000 0.000000
O O13 0.465821 0.867438 0.733311
O O14 0.500000 0.000000 0.000000
O O15 0.500000 0.500000 0.500000
O O16 0.630357 0.182437 0.556548
O O17 0.500000 0.000000 0.500000
O O18 0.760867 0.929994 0.415349
O O19 0.000000 0.000000 0.500000
#
# Coordination Sequence:
#
# PCOD8031798 Si02
#       8
#     2   2   2   2   2   2   2   2
#     4  11  27  46  71 108 146 194 251 306 373 442
#     4  11  24  46  70 104 145 194 242 309 364 452
#     4  12  25  48  71 103 150 196 251 300 378 446
#     4  11  26  44  73 101 146 195 243 303 375 438
#     4  12  28  47  72 109 147 195 249 310 370 452
#     4  11  22  46  73  97 150 187 243 303 374 433
#     4  12  26  46  74 106 144 197 245 308 376 441
#     4  12  26  44  73 109 146 185 250 307 371 450
#
# _framework density 21.573025000000001
#
# number of rings (size 3 to 8) (size 9 to 14) (size 15 to 20)
#    0.000    0.500    6.250    1.500    7.000    2.000 
#    0.000    0.000    0.000    0.000    0.000    0.000 
#    0.000    0.000    0.000    0.000    0.000    0.000 
#
# Total GULP energy -198264.812124 kJ/mol
# GULP energy per Si atom -12391.550758 kJ/mol
# Density = 2.152392 g / cm^3
# Si number density = 21.573025 Si / 1000 Ang^3
#
#
#
# Elastic Constant Matrix: (Units=GPa)
#
#
# Indices 1 2 3 4 5 6 
#
# 1 178.9050 60.1819 61.3964 7.4381 7.4148 -23.8119
# 2 60.1819 127.9728 48.7149 13.0407 2.7984 -11.3477
# 3 61.3964 48.7149 93.0294 9.7098 9.6227 -16.5115
# 4 7.4381 13.0407 9.7098 47.3442 -6.4255 1.1655
# 5 7.4148 2.7984 9.6227 -6.4255 51.2109 1.9618
# 6 -23.8119 -11.3477 -16.5115 1.1655 1.9618 50.4978
#
#
#
# Elastic Compliance Matrix: (Units=1/GPa)
#
#
# Indices 1 2 3 4 5 6 
#
# 1 0.007846 -0.002101 -0.003672 -0.000007 -0.000410 0.002043
# 2 -0.002101 0.010476 -0.003926 -0.001719 0.000250 0.000110
# 3 -0.003672 -0.003926 0.016230 -0.002104 -0.002676 0.002846
# 4 -0.000007 -0.001719 -0.002104 0.022530 0.003383 -0.001729
# 5 -0.000410 0.000250 -0.002676 0.003383 0.020573 -0.001890
# 6 0.002043 0.000110 0.002846 -0.001729 -0.001890 0.021835
#
#
# Mechanical properties :
#
#
# Convention : Reuss Voigt Hill
#
# Bulk Modulus (GPa) = 65.99069 82.27705 74.13387
# Shear Modulus (GPa) = 40.34264 45.11818 42.73041
#
# Velocity S-wave (km/s) = 4.32910 4.57816 4.45537
# Velocity P-wave (km/s) = 7.45949 8.13436 7.80422
#
# Compressibility (1/GPa) = 0.01515365
#
# Stress axis : x y z
#
# Youngs Moduli (GPa) = 127.45943 95.45429 61.61395
#
# Poissons Ratio (x) = 0.20055 0.22624
# Poissons Ratio (y) = 0.26779 0.24191
# Poissons Ratio (z) = 0.46803 0.37477
#
# Static dielectric constant tensor:
#      x y z
#    x 4.519700 -0.078070 -0.109690 
#    y -0.078070 3.976840 0.051770 
#    z -0.109690 0.051770 3.948070 
# 
# 
# High freq. dielectric constant tensor:
#      x y z
#    x 1.864110 -0.010850 0.007610 
#    y -0.010850 1.857950 0.006750 
#    z 0.007610 0.006750 1.848740 
# 
# From -- ./inp_files/239161.got.cif
#   From: 2010.06.25/outbox.cif.g09.slc.cpg/sg2_120_cif.got.tgz:239161.got - 2010.06.27 13:26:56.
