data_PCOD8031789
_publ_section_title
;
Structure prediction by ZEFSAII (Michael W. Deem and Ramdas Pophale) SiO2 
 PCOD8031789
Probable space group: P -1
;
_chemical_formula_sum "Si O2"
_cell_formula_units_Z 16
_cell_length_a 11.973320
_cell_length_b 9.161951
_cell_length_c 17.833112
_cell_angle_alpha 151.622676
_cell_angle_beta 127.257931
_cell_angle_gamma 59.634290
_cell_volume 738.114032
_symmetry_space_group_name_H-M "P -1"
_symmetry_group_IT_number 2
_symmetry_cell_setting 'triclinic'
loop_
_space_group_symop_operation_xyz
x,y,z
-x,-y,-z
loop_
_atom_site_type_symbol
_atom_site_label
_atom_site_fract_x
_atom_site_fract_y
_atom_site_fract_z
Si Si1 0.037167 0.811874 0.500747
Si Si2 0.328039 0.868075 0.158558
Si Si3 0.585383 0.845257 0.530669
Si Si4 0.148333 0.389220 0.543084
Si Si5 0.279586 0.186183 0.855264
Si Si6 0.778950 0.965457 0.079538
Si Si7 0.546377 0.821453 0.798604
Si Si8 0.036291 0.099783 0.143724
O O1 0.054163 0.465202 0.325523
O O2 0.903584 0.836378 0.512603
O O3 0.180696 0.952716 0.659971
O O4 0.000000 0.000000 0.500000
O O5 0.421648 0.928123 0.298281
O O6 0.381993 0.069081 0.200683
O O7 0.177545 0.964516 0.165159
O O8 0.314627 0.504929 0.969168
O O9 0.748174 0.789631 0.549206
O O10 0.506922 0.532912 0.387743
O O11 0.500000 0.000000 0.500000
O O12 0.000000 0.500000 0.500000
O O13 0.241577 0.684624 0.745072
O O14 0.213117 0.243304 0.936395
O O15 0.422549 0.034432 0.861573
O O16 0.651179 0.851338 0.924016
O O17 0.921545 0.942510 0.081636
O O18 0.000000 0.000000 0.000000
#
# Coordination Sequence:
#
# PCOD8031789 Si02
#       8
#     2   2   2   2   2   2   2   2
#     4  11  25  43  72 100 134 184 236 282 339 420
#     4  12  27  44  70 102 144 178 229 293 347 410
#     4  12  27  46  70 107 140 180 234 292 357 408
#     4  11  22  46  72  98 135 187 232 285 342 414
#     4  12  25  45  70 104 135 186 237 274 344 422
#     4  11  23  42  75  94 136 183 231 278 342 418
#     4  12  25  47  71  96 142 189 225 280 350 425
#     4  11  23  46  69 103 141 175 231 294 353 393
#
# _framework density 21.676867000000001
#
# number of rings (size 3 to 8) (size 9 to 14) (size 15 to 20)
#    0.000    0.500    3.750    4.875    3.500    2.500 
#    4.500    0.000    0.000    0.000    0.000    0.000 
#    0.000    0.000    0.000    0.000    0.000    0.000 
#
# Total GULP energy -198384.555245 kJ/mol
# GULP energy per Si atom -12399.034703 kJ/mol
# Density = 2.162753 g / cm^3
# Si number density = 21.676867 Si / 1000 Ang^3
#
#
#
# Elastic Constant Matrix: (Units=GPa)
#
#
# Indices 1 2 3 4 5 6 
#
# 1 106.6409 47.8929 43.3783 -2.9390 8.6242 8.2452
# 2 47.8929 118.2366 40.4506 -5.6434 10.8689 10.9089
# 3 43.3783 40.4506 137.5945 -2.6223 4.4070 6.5975
# 4 -2.9390 -5.6434 -2.6223 45.7917 9.0843 -3.0915
# 5 8.6242 10.8689 4.4070 9.0843 31.7664 -4.2955
# 6 8.2452 10.9089 6.5975 -3.0915 -4.2955 32.2622
#
#
#
# Elastic Compliance Matrix: (Units=1/GPa)
#
#
# Indices 1 2 3 4 5 6 
#
# 1 0.012462 -0.003774 -0.002667 0.000486 -0.002076 -0.001593
# 2 -0.003774 0.011258 -0.001850 0.001523 -0.003381 -0.002768
# 3 -0.002667 -0.001850 0.008672 0.000052 0.000078 -0.000451
# 4 0.000486 0.001523 0.000052 0.023553 -0.007310 0.000634
# 5 -0.002076 -0.003381 0.000078 -0.007310 0.036058 0.005758
# 6 -0.001593 -0.002768 -0.000451 0.000634 0.005758 0.033259
#
#
# Mechanical properties :
#
#
# Convention : Reuss Voigt Hill
#
# Bulk Modulus (GPa) = 63.25043 69.54618 66.39831
# Shear Modulus (GPa) = 33.98716 37.34737 35.66727
#
# Velocity S-wave (km/s) = 3.96397 4.15530 4.06076
# Velocity P-wave (km/s) = 7.08469 7.42798 7.25836
#
# Compressibility (1/GPa) = 0.01581017
#
# Stress axis : x y z
#
# Youngs Moduli (GPa) = 80.24637 88.82494 115.30768
#
# Poissons Ratio (x) = 0.33525 0.30752
# Poissons Ratio (y) = 0.30287 0.21330
# Poissons Ratio (z) = 0.21401 0.16431
#
# Static dielectric constant tensor:
#      x y z
#    x 4.348080 0.235560 0.105860 
#    y 0.235560 3.827260 -0.168060 
#    z 0.105860 -0.168060 3.935460 
# 
# 
# High freq. dielectric constant tensor:
#      x y z
#    x 1.863080 0.015010 0.008550 
#    y 0.015010 1.853100 -0.010070 
#    z 0.008550 -0.010070 1.865480 
# 
# From -- ./inp_files/507355.got.cif
#   From: 2010.06.25/outbox.cif.g09.slc.cpg/sg2_254_cif.got.tgz:507355.got - 2010.06.27 13:26:56.
