data_PCOD8031719
_publ_section_title
;
Structure prediction by ZEFSAII (Michael W. Deem and Ramdas Pophale) SiO2 
 PCOD8031719
Probable space group: P -1
;
_chemical_formula_sum "Si O2"
_cell_formula_units_Z 12
_cell_length_a 12.103330
_cell_length_b 21.177932
_cell_length_c 18.056843
_cell_angle_alpha 160.466475
_cell_angle_beta 147.183084
_cell_angle_gamma 22.159024
_cell_volume 564.069512
_symmetry_space_group_name_H-M "P -1"
_symmetry_group_IT_number 2
_symmetry_cell_setting 'triclinic'
loop_
_space_group_symop_operation_xyz
x,y,z
-x,-y,-z
loop_
_atom_site_type_symbol
_atom_site_label
_atom_site_fract_x
_atom_site_fract_y
_atom_site_fract_z
Si Si1 0.550780 0.397370 0.094051
Si Si2 0.089468 0.234586 0.281680
Si Si3 0.700042 0.620058 0.931508
Si Si4 0.361290 0.761308 0.258260
Si Si5 0.817137 0.342189 0.539091
Si Si6 0.237047 0.139594 0.420501
O O1 0.387759 0.490569 0.184854
O O2 0.382052 0.677451 0.262471
O O3 0.897734 0.214569 0.105269
O O4 0.562460 0.191275 0.826985
O O5 0.027940 0.265296 0.368907
O O6 0.000000 0.500000 0.500000
O O7 0.442960 0.956593 0.158631
O O8 0.750550 0.525756 0.771923
O O9 0.000000 0.500000 0.000000
O O10 0.536907 0.838129 0.431070
O O11 0.500000 0.500000 0.000000
O O12 0.010754 0.030870 0.335047
O O13 0.500000 0.500000 0.500000
O O14 0.017010 0.314221 0.559520
#
# Coordination Sequence:
#
# PCOD8031719 Si02
#       6
#     2   2   2   2   2   2
#     4  11  23  46  73  99 134 184 235 274 335 417
#     4  11  22  45  74 100 131 182 239 270 330 422
#     4  11  26  44  68 102 144 178 218 292 352 393
#     4  12  26  43  74 100 130 186 242 269 329 421
#     4  12  25  45  67 103 145 175 219 292 356 390
#     4  11  23  45  74  97 137 185 226 281 335 412
#
# _framework density 21.273973999999999
#
# number of rings (size 3 to 8) (size 9 to 14) (size 15 to 20)
#    0.000    0.667    3.333    6.500    2.333    0.667 
#    3.000    1.667    0.000    0.000    0.000    0.000 
#    0.000    0.000    0.000    0.000    0.000    0.000 
#
# Total GULP energy -148790.480602 kJ/mol
# GULP energy per Si atom -12399.206717 kJ/mol
# Density = 2.122555 g / cm^3
# Si number density = 21.273974 Si / 1000 Ang^3
#
#
#
# Elastic Constant Matrix: (Units=GPa)
#
#
# Indices 1 2 3 4 5 6 
#
# 1 151.7501 57.6911 75.8733 17.7396 -9.5629 11.9312
# 2 57.6911 175.6490 74.2460 13.7365 9.9216 19.0527
# 3 75.8733 74.2460 127.0307 -4.4128 0.4744 1.9255
# 4 17.7396 13.7365 -4.4128 39.2082 4.9909 2.5435
# 5 -9.5629 9.9216 0.4744 4.9909 47.5575 -3.0220
# 6 11.9312 19.0527 1.9255 2.5435 -3.0220 31.2588
#
#
#
# Elastic Compliance Matrix: (Units=1/GPa)
#
#
# Indices 1 2 3 4 5 6 
#
# 1 0.011099 -0.000197 -0.006683 -0.005865 0.002767 -0.002960
# 2 -0.000197 0.008743 -0.005016 -0.002992 -0.001809 -0.004876
# 3 -0.006683 -0.005016 0.014956 0.006307 -0.000849 0.004092
# 4 -0.005865 -0.002992 0.006307 0.030339 -0.003748 0.000843
# 5 0.002767 -0.001809 -0.000849 -0.003748 0.022527 0.002582
# 6 -0.002960 -0.004876 0.004092 0.000843 0.002582 0.036022
#
#
# Mechanical properties :
#
#
# Convention : Reuss Voigt Hill
#
# Bulk Modulus (GPa) = 90.86115 96.67231 93.76673
# Shear Modulus (GPa) = 33.08051 40.04620 36.56336
#
# Velocity S-wave (km/s) = 3.94760 4.34337 4.15021
# Velocity P-wave (km/s) = 7.97375 8.40794 8.19372
#
# Compressibility (1/GPa) = 0.01100580
#
# Stress axis : x y z
#
# Youngs Moduli (GPa) = 90.09858 114.37570 66.86398
#
# Poissons Ratio (x) = 0.02253 0.44687
# Poissons Ratio (y) = 0.01775 0.33537
# Poissons Ratio (z) = 0.60216 0.57368
#
# Static dielectric constant tensor:
#      x y z
#    x 3.842120 0.690350 -0.094050 
#    y 0.690350 3.847430 0.085730 
#    z -0.094050 0.085730 3.913860 
# 
# 
# High freq. dielectric constant tensor:
#      x y z
#    x 1.844060 0.019520 -0.002820 
#    y 0.019520 1.847320 -0.007640 
#    z -0.002820 -0.007640 1.830930 
# 
# From -- ./inp_files/168994.got.cif
#   From: 2010.06.25/outbox.cif.g09.slc.cpg/sg2_85_cif.got.tgz:168994.got - 2010.06.27 13:26:56.
