data_PCOD8031548
_publ_section_title
;
Structure prediction by ZEFSAII (Michael W. Deem and Ramdas Pophale) SiO2 
 PCOD8031548
Probable space group: P -1
;
_chemical_formula_sum "Si O2"
_cell_formula_units_Z 16
_cell_length_a 8.884635
_cell_length_b 13.179064
_cell_length_c 8.661952
_cell_angle_alpha 92.032003
_cell_angle_beta 99.273412
_cell_angle_gamma 130.677120
_cell_volume 745.646948
_symmetry_space_group_name_H-M "P -1"
_symmetry_group_IT_number 2
_symmetry_cell_setting 'triclinic'
loop_
_space_group_symop_operation_xyz
x,y,z
-x,-y,-z
loop_
_atom_site_type_symbol
_atom_site_label
_atom_site_fract_x
_atom_site_fract_y
_atom_site_fract_z
Si Si1 0.162693 0.233060 0.846108
Si Si2 0.727997 0.955693 0.849101
Si Si3 0.584155 0.840151 0.134371
Si Si4 0.850181 0.396646 0.102197
Si Si5 0.690753 0.706860 0.786205
Si Si6 0.419591 0.969963 0.656400
Si Si7 0.993706 0.703765 0.661498
Si Si8 0.770568 0.540239 0.325443
O O1 0.304484 0.211084 0.784441
O O2 0.152230 0.326150 0.743188
O O3 0.259918 0.303097 0.031010
O O4 0.933325 0.091891 0.821351
O O5 0.690051 0.827321 0.767696
O O6 0.536312 0.940982 0.778706
O O7 0.739250 0.956426 0.037883
O O8 0.542356 0.899512 0.268060
O O9 0.374321 0.717034 0.009960
O O10 0.843685 0.474346 0.242337
O O11 0.934929 0.329392 0.181059
O O12 0.000000 0.500000 0.000000
O O13 0.853301 0.732810 0.697562
O O14 0.472022 0.563641 0.699872
O O15 0.181880 0.838526 0.611369
O O16 0.500000 0.000000 0.500000
O O17 0.871591 0.579987 0.513202
#
# Coordination Sequence:
#
# PCOD8031548 Si02
#       8
#     2   2   2   2   2   2   2   2
#     4  11  23  41  74 101 134 174 236 279 332 402
#     4  11  22  44  71  98 134 180 227 283 331 403
#     4  11  24  45  68 100 133 179 232 281 331 401
#     4  12  27  44  71 100 135 183 234 278 335 408
#     4  11  23  44  69  98 135 181 231 276 339 401
#     4  12  26  43  68 102 141 176 222 283 348 404
#     4  12  26  45  69 101 142 179 222 283 345 405
#     4  12  25  46  67 104 140 181 222 282 343 404
#
# _framework density 21.457875000000001
#
# number of rings (size 3 to 8) (size 9 to 14) (size 15 to 20)
#    0.000    0.500    3.750    6.000    7.000    1.000 
#    0.000    2.500    0.000    0.000    0.000    0.000 
#    0.000    0.000    0.000    0.000    0.000    0.000 
#
# Total GULP energy -198517.438053 kJ/mol
# GULP energy per Si atom -12407.339878 kJ/mol
# Density = 2.140904 g / cm^3
# Si number density = 21.457875 Si / 1000 Ang^3
#
#
#
# Elastic Constant Matrix: (Units=GPa)
#
#
# Indices 1 2 3 4 5 6 
#
# 1 116.5019 30.6163 29.8083 12.5052 -26.2079 7.7759
# 2 30.6163 101.0969 20.5526 0.4880 -7.2575 15.5702
# 3 29.8083 20.5526 61.1185 14.5681 -19.7486 2.2659
# 4 12.5052 0.4880 14.5681 30.7349 -1.7220 -5.9116
# 5 -26.2079 -7.2575 -19.7486 -1.7220 40.4271 7.8581
# 6 7.7759 15.5702 2.2659 -5.9116 7.8581 39.5678
#
#
#
# Elastic Compliance Matrix: (Units=1/GPa)
#
#
# Indices 1 2 3 4 5 6 
#
# 1 0.011829 -0.002209 -0.001642 -0.004260 0.006945 -0.003377
# 2 -0.002209 0.011765 -0.003093 0.001446 -0.000032 -0.003796
# 3 -0.001642 -0.003093 0.024326 -0.010911 0.010492 -0.003567
# 4 -0.004260 0.001446 -0.010911 0.040620 -0.007755 0.008502
# 5 0.006945 -0.000032 0.010492 -0.007755 0.036023 -0.010266
# 6 -0.003377 -0.003796 -0.003567 0.008502 -0.010266 0.030944
#
#
# Mechanical properties :
#
#
# Convention : Reuss Voigt Hill
#
# Bulk Modulus (GPa) = 29.38417 48.96352 39.17384
# Shear Modulus (GPa) = 27.66442 35.32863 31.49653
#
# Velocity S-wave (km/s) = 3.59450 4.06201 3.83538
# Velocity P-wave (km/s) = 5.56335 6.69835 6.15706
#
# Compressibility (1/GPa) = 0.03403193
#
# Stress axis : x y z
#
# Youngs Moduli (GPa) = 84.53661 84.99991 41.10880
#
# Poissons Ratio (x) = 0.18780 0.06748
# Poissons Ratio (y) = 0.18678 0.12714
# Poissons Ratio (z) = 0.13877 0.26289
#
# Static dielectric constant tensor:
#      x y z
#    x 4.376570 0.020380 -0.141890 
#    y 0.020380 3.930980 0.045380 
#    z -0.141890 0.045380 4.023060 
# 
# 
# High freq. dielectric constant tensor:
#      x y z
#    x 1.866390 0.004390 -0.000310 
#    y 0.004390 1.850680 0.006260 
#    z -0.000310 0.006260 1.832590 
# 
# From -- ./inp_files/184350.got.cif
#   From: 2010.06.25/outbox.cif.g09.slc.cpg/sg2_93_cif.got.tgz:184350.got - 2010.06.27 13:26:56.
