data_PCOD8031307
_publ_section_title
;
Structure prediction by ZEFSAII (Michael W. Deem and Ramdas Pophale) SiO2 
 PCOD8031307
Probable space group: P -1
;
_chemical_formula_sum "Si O2"
_cell_formula_units_Z 14
_cell_length_a 20.487541
_cell_length_b 29.505207
_cell_length_c 7.891759
_cell_angle_alpha 138.648200
_cell_angle_beta 41.535342
_cell_angle_gamma 168.930500
_cell_volume 602.493206
_symmetry_space_group_name_H-M "P -1"
_symmetry_group_IT_number 2
_symmetry_cell_setting 'triclinic'
loop_
_space_group_symop_operation_xyz
x,y,z
-x,-y,-z
loop_
_atom_site_type_symbol
_atom_site_label
_atom_site_fract_x
_atom_site_fract_y
_atom_site_fract_z
Si Si1 0.268850 0.052217 0.390886
Si Si2 0.244918 0.608492 0.907348
Si Si3 0.410386 0.159854 0.775584
Si Si4 0.744747 0.588982 0.029250
Si Si5 0.104894 0.753825 0.546911
Si Si6 0.374841 0.296583 0.255715
Si Si7 0.209459 0.333250 0.269088
O O1 0.433547 0.182325 0.256397
O O2 0.529874 0.222369 0.524733
O O3 0.072311 0.849404 0.189205
O O4 0.016690 0.945573 0.630624
O O5 0.050127 0.405354 0.726490
O O6 0.334363 0.695379 0.165754
O O7 0.000000 0.500000 0.000000
O O8 0.386679 0.223842 0.039499
O O9 0.045237 0.880298 0.719783
O O10 0.488325 0.402159 0.153015
O O11 0.517644 0.484285 0.041904
O O12 0.887218 0.610389 0.742827
O O13 0.030374 0.785064 0.731420
O O14 0.500000 0.000000 0.500000
O O15 0.616582 0.489434 0.469113
#
# Coordination Sequence:
#
# PCOD8031307 Si02
#       7
#     2   2   2   2   2   2   2
#     4  11  23  43  71 103 141 178 227 294 344 409
#     4  12  28  47  67 102 140 187 242 285 345 426
#     4  12  23  42  74 103 141 180 233 287 353 410
#     4  11  22  44  72 104 142 180 231 288 349 418
#     4  12  26  47  68  97 143 188 234 291 350 418
#     4  11  22  43  69 105 140 178 230 287 350 418
#     4  11  22  43  69 104 140 181 230 289 349 414
#
# _framework density 23.236777
#
# number of rings (size 3 to 8) (size 9 to 14) (size 15 to 20)
#    0.000    0.571    4.286    5.143    2.000    2.286 
#    0.000    2.143    0.000    0.000    0.000    0.000 
#    0.000    0.000    0.000    0.000    0.000    0.000 
#
# Total GULP energy -173452.435864 kJ/mol
# GULP energy per Si atom -12389.459705 kJ/mol
# Density = 2.318389 g / cm^3
# Si number density = 23.236777 Si / 1000 Ang^3
#
#
#
# Elastic Constant Matrix: (Units=GPa)
#
#
# Indices 1 2 3 4 5 6 
#
# 1 107.9211 33.5542 22.2035 -5.0844 7.2007 23.6783
# 2 33.5542 76.7618 3.3005 -3.6662 -2.2029 0.9188
# 3 22.2035 3.3005 50.1355 -2.6906 -2.7650 12.5994
# 4 -5.0844 -3.6662 -2.6906 42.1307 4.8549 -3.9064
# 5 7.2007 -2.2029 -2.7650 4.8549 44.5517 10.6717
# 6 23.6783 0.9188 12.5994 -3.9064 10.6717 27.8303
#
#
#
# Elastic Compliance Matrix: (Units=1/GPa)
#
#
# Indices 1 2 3 4 5 6 
#
# 1 0.014009 -0.005868 -0.003298 0.000075 -0.000351 -0.010087
# 2 -0.005868 0.015583 0.000641 0.000988 0.000677 0.004067
# 3 -0.003298 0.000641 0.024072 -0.000230 0.004443 -0.009849
# 4 0.000075 0.000988 -0.000230 0.024720 -0.003859 0.004958
# 5 -0.000351 0.000677 0.004443 -0.003859 0.026183 -0.012317
# 6 -0.010087 0.004067 -0.009849 0.004958 -0.012317 0.054258
#
#
# Mechanical properties :
#
#
# Convention : Reuss Voigt Hill
#
# Bulk Modulus (GPa) = 27.31174 39.21497 33.26336
# Shear Modulus (GPa) = 26.58466 34.61990 30.60228
#
# Velocity S-wave (km/s) = 3.38609 3.86408 3.63295
# Velocity P-wave (km/s) = 5.20256 6.06803 5.65189
#
# Compressibility (1/GPa) = 0.03661429
#
# Stress axis : x y z
#
# Youngs Moduli (GPa) = 71.38279 64.17451 41.54159
#
# Poissons Ratio (x) = 0.37655 0.13702
# Poissons Ratio (y) = 0.41884 -0.02663
# Poissons Ratio (z) = 0.23544 -0.04115
#
# Static dielectric constant tensor:
#      x y z
#    x 4.378110 0.107740 0.271810 
#    y 0.107740 4.040710 0.084440 
#    z 0.271810 0.084440 4.447160 
# 
# 
# High freq. dielectric constant tensor:
#      x y z
#    x 1.925500 -0.000780 0.006590 
#    y -0.000780 1.913580 0.013920 
#    z 0.006590 0.013920 1.925080 
# 
# From -- ./inp_files/244316.got.cif
#   From: 2010.06.25/outbox.cif.g09.slc.cpg/sg2_123_cif.got.tgz:244316.got - 2010.06.27 13:26:56.
