data_PCOD8031854
_publ_section_title
;
Structure prediction by ZEFSAII (Michael W. Deem and Ramdas Pophale) SiO2 
 PCOD8031854
Probable space group: P -1
;
_chemical_formula_sum "Si O2"
_cell_formula_units_Z 16
_cell_length_a 9.077044
_cell_length_b 8.837527
_cell_length_c 16.422007
_cell_angle_alpha 81.129552
_cell_angle_beta 35.398774
_cell_angle_gamma 71.217800
_cell_volume 708.244195
_symmetry_space_group_name_H-M "P -1"
_symmetry_group_IT_number 2
_symmetry_cell_setting 'triclinic'
loop_
_space_group_symop_operation_xyz
x,y,z
-x,-y,-z
loop_
_atom_site_type_symbol
_atom_site_label
_atom_site_fract_x
_atom_site_fract_y
_atom_site_fract_z
Si Si1 0.383164 0.175960 0.498850
Si Si2 0.235190 0.793410 0.806345
Si Si3 0.626667 0.643123 0.923328
Si Si4 0.391121 0.427807 0.776018
Si Si5 0.249014 0.456179 0.653834
Si Si6 0.442839 0.135558 0.208684
Si Si7 0.343816 0.189735 0.940446
Si Si8 0.994495 0.685083 0.488231
O O1 0.630454 0.215191 0.342247
O O2 0.250760 0.293151 0.623091
O O3 0.150506 0.206144 0.532909
O O4 0.500000 0.000000 0.500000
O O5 0.346246 0.611235 0.808523
O O6 0.327729 0.903485 0.820224
O O7 0.918053 0.864099 0.925773
O O8 0.485657 0.754050 0.901391
O O9 0.949509 0.586985 0.765819
O O10 0.500000 0.500000 0.000000
O O11 0.550593 0.758589 0.027773
O O12 0.273379 0.422834 0.740908
O O13 0.245464 0.346820 0.912588
O O14 0.703893 0.314963 0.646384
O O15 0.500000 0.500000 0.500000
O O16 0.149745 0.229196 0.371552
O O17 0.432933 0.967465 0.187822
O O18 0.000000 0.500000 0.500000
#
# Coordination Sequence:
#
# PCOD8031854 Si02
#       8
#     2   2   2   2   2   2   2   2
#     4  11  25  43  72 107 140 177 236 300 360 408
#     4  11  23  47  72 100 140 189 230 289 354 439
#     4  12  27  45  71 104 139 190 241 291 357 436
#     4  12  24  43  73  97 139 186 242 279 347 433
#     4  12  24  46  71 100 138 189 237 292 351 425
#     4  11  25  44  73  99 142 180 231 297 363 413
#     4  12  27  45  66 106 143 182 232 293 364 424
#     4  11  22  47  74  99 135 187 242 286 349 431
#
# _framework density 22.591078
#
# number of rings (size 3 to 8) (size 9 to 14) (size 15 to 20)
#    0.000    0.500    5.000    3.375    7.000    1.500 
#    4.500    0.000    0.000    0.000    0.000    0.000 
#    0.000    0.000    0.000    0.000    0.000    0.000 
#
# Total GULP energy -198403.092638 kJ/mol
# GULP energy per Si atom -12400.193290 kJ/mol
# Density = 2.253966 g / cm^3
# Si number density = 22.591078 Si / 1000 Ang^3
#
#
#
# Elastic Constant Matrix: (Units=GPa)
#
#
# Indices 1 2 3 4 5 6 
#
# 1 99.3152 18.8404 20.2564 8.0324 14.5705 4.3307
# 2 18.8404 110.8046 14.9605 17.0345 16.4992 1.7031
# 3 20.2564 14.9605 58.7057 15.5893 1.3091 14.6450
# 4 8.0324 17.0345 15.5893 41.4550 4.6050 13.0357
# 5 14.5705 16.4992 1.3091 4.6050 46.6877 5.3602
# 6 4.3307 1.7031 14.6450 13.0357 5.3602 41.9222
#
#
#
# Elastic Compliance Matrix: (Units=1/GPa)
#
#
# Indices 1 2 3 4 5 6 
#
# 1 0.011471 -0.000937 -0.003736 -0.000284 -0.003191 0.000655
# 2 -0.000937 0.010432 -0.001746 -0.003670 -0.003193 0.001833
# 3 -0.003736 -0.001746 0.021508 -0.005092 0.002345 -0.005773
# 4 -0.000284 -0.003670 -0.005092 0.029956 -0.000590 -0.007282
# 5 -0.003191 -0.003193 0.002345 -0.000590 0.023907 -0.003233
# 6 0.000655 0.001833 -0.005773 -0.007282 -0.003233 0.028406
#
#
# Mechanical properties :
#
#
# Convention : Reuss Voigt Hill
#
# Bulk Modulus (GPa) = 32.70988 41.88221 37.29605
# Shear Modulus (GPa) = 33.62239 40.33085 36.97662
#
# Velocity S-wave (km/s) = 3.86204 4.22981 4.05010
# Velocity P-wave (km/s) = 5.86495 6.51418 6.19808
#
# Compressibility (1/GPa) = 0.03057180
#
# Stress axis : x y z
#
# Youngs Moduli (GPa) = 87.17357 95.86296 46.49349
#
# Poissons Ratio (x) = 0.08985 0.17370
# Poissons Ratio (y) = 0.08171 0.08120
# Poissons Ratio (z) = 0.32568 0.16741
#
# Static dielectric constant tensor:
#      x y z
#    x 4.226430 -0.031050 0.079650 
#    y -0.031050 4.062410 0.079010 
#    z 0.079650 0.079010 4.354920 
# 
# 
# High freq. dielectric constant tensor:
#      x y z
#    x 1.893740 -0.001250 0.010170 
#    y -0.001250 1.882470 0.009420 
#    z 0.010170 0.009420 1.904170 
# 
# From -- ./inp_files/494791.got.cif
#   From: 2010.06.25/outbox.cif.g09.slc.cpg/sg2_248_cif.got.tgz:494791.got - 2010.06.27 13:26:56.
