data_PCOD8031238
_publ_section_title
;
Structure prediction by ZEFSAII (Michael W. Deem and Ramdas Pophale) SiO2 
 PCOD8031238
Probable space group: P -1
;
_chemical_formula_sum "Si O2"
_cell_formula_units_Z 12
_cell_length_a 11.720644
_cell_length_b 9.909754
_cell_length_c 9.374340
_cell_angle_alpha 135.087862
_cell_angle_beta 126.246443
_cell_angle_gamma 82.847029
_cell_volume 530.793532
_symmetry_space_group_name_H-M "P -1"
_symmetry_group_IT_number 2
_symmetry_cell_setting 'triclinic'
loop_
_space_group_symop_operation_xyz
x,y,z
-x,-y,-z
loop_
_atom_site_type_symbol
_atom_site_label
_atom_site_fract_x
_atom_site_fract_y
_atom_site_fract_z
Si Si1 0.677333 0.603082 0.781222
Si Si2 0.824323 0.916489 0.876502
Si Si3 0.175039 0.102924 0.633863
Si Si4 0.312006 0.810226 0.894076
Si Si5 0.672193 0.598555 0.281212
Si Si6 0.311686 0.810473 0.566158
O O1 0.500000 0.500000 0.500000
O O2 0.815465 0.793119 0.924592
O O3 0.726910 0.418473 0.708305
O O4 0.679956 0.719556 0.019462
O O5 0.679189 0.739003 0.530782
O O6 0.800229 0.123491 0.047145
O O7 0.000000 0.000000 0.000000
O O8 0.182027 0.229564 0.588788
O O9 0.210409 0.904582 0.480036
O O10 0.000000 0.000000 0.500000
O O11 0.496035 0.017520 0.182840
O O12 0.294483 0.595132 0.795952
O O13 0.252663 0.757541 0.647255
O O14 0.500000 0.500000 0.000000
#
# Coordination Sequence:
#
# PCOD8031238 Si02
#       6
#     2   2   2   2   2   2
#     4  12  22  44  76  98 128 191 237 264 328 429
#     4  12  26  43  70 105 139 175 228 286 339 400
#     4  12  27  45  67 104 147 172 219 296 347 387
#     4  11  23  43  73 101 133 182 236 274 331 414
#     4  12  26  44  69 106 139 176 225 289 342 394
#     4  11  22  42  75 100 129 186 237 270 329 419
#
# _framework density 22.607661
#
# number of rings (size 3 to 8) (size 9 to 14) (size 15 to 20)
#    0.000    0.333    6.667    3.000    0.000    4.667 
#    0.000    0.000    0.000    0.000    0.000    0.000 
#    0.000    0.000    0.000    0.000    0.000    0.000 
#
# Total GULP energy -148857.429865 kJ/mol
# GULP energy per Si atom -12404.785822 kJ/mol
# Density = 2.255620 g / cm^3
# Si number density = 22.607661 Si / 1000 Ang^3
#
#
#
# Elastic Constant Matrix: (Units=GPa)
#
#
# Indices 1 2 3 4 5 6 
#
# 1 114.2304 56.4491 3.6022 14.0498 -10.8788 -14.6831
# 2 56.4491 184.4610 22.6709 29.6882 -18.9102 -3.0437
# 3 3.6022 22.6709 45.9522 7.3875 -16.9523 -14.9131
# 4 14.0498 29.6882 7.3875 31.4755 -2.3951 -7.8092
# 5 -10.8788 -18.9102 -16.9523 -2.3951 34.6600 3.4632
# 6 -14.6831 -3.0437 -14.9131 -7.8092 3.4632 43.7190
#
#
#
# Elastic Compliance Matrix: (Units=1/GPa)
#
#
# Indices 1 2 3 4 5 6 
#
# 1 0.011257 -0.003258 0.003401 -0.001483 0.002895 0.004220
# 2 -0.003258 0.007841 -0.002941 -0.005798 0.001688 -0.002721
# 3 0.003401 -0.002941 0.031774 -0.002617 0.013802 0.010215
# 4 -0.001483 -0.005798 -0.002617 0.039675 -0.002717 0.005508
# 5 0.002895 0.001688 0.013802 -0.002717 0.037006 0.002381
# 6 0.004220 -0.002721 0.010215 0.005508 0.002381 0.028381
#
#
# Mechanical properties :
#
#
# Convention : Reuss Voigt Hill
#
# Bulk Modulus (GPa) = 22.08700 56.67645 39.38173
# Shear Modulus (GPa) = 28.30891 39.43233 33.87062
#
# Velocity S-wave (km/s) = 3.54246 4.18090 3.87485
# Velocity P-wave (km/s) = 5.15004 6.95920 6.12182
#
# Compressibility (1/GPa) = 0.04527550
#
# Stress axis : x y z
#
# Youngs Moduli (GPa) = 88.82979 127.53549 31.47260
#
# Poissons Ratio (x) = 0.41550 -0.10703
# Poissons Ratio (y) = 0.28940 0.09257
# Poissons Ratio (z) = -0.30209 0.37511
#
# Static dielectric constant tensor:
#      x y z
#    x 4.165510 0.006110 -0.354090 
#    y 0.006110 4.832010 0.280980 
#    z -0.354090 0.280980 4.258410 
# 
# 
# High freq. dielectric constant tensor:
#      x y z
#    x 1.895710 0.006360 -0.007650 
#    y 0.006360 1.902170 0.013860 
#    z -0.007650 0.013860 1.885160 
# 
# From -- ./inp_files/156372.got.cif
#   From: 2010.06.25/outbox.cif.g09.slc.cpg/sg2_79_cif.got.tgz:156372.got - 2010.06.27 13:26:56.
