data_PCOD8031240
_publ_section_title
;
Structure prediction by ZEFSAII (Michael W. Deem and Ramdas Pophale) SiO2 
 PCOD8031240
Probable space group: P -1
;
_chemical_formula_sum "Si O2"
_cell_formula_units_Z 12
_cell_length_a 9.082486
_cell_length_b 9.079696
_cell_length_c 9.027524
_cell_angle_alpha 96.830536
_cell_angle_beta 46.608718
_cell_angle_gamma 101.481878
_cell_volume 529.995429
_symmetry_space_group_name_H-M "P -1"
_symmetry_group_IT_number 2
_symmetry_cell_setting 'triclinic'
loop_
_space_group_symop_operation_xyz
x,y,z
-x,-y,-z
loop_
_atom_site_type_symbol
_atom_site_label
_atom_site_fract_x
_atom_site_fract_y
_atom_site_fract_z
Si Si1 0.995368 0.258898 0.152127
Si Si2 0.677165 0.081202 0.126708
Si Si3 0.982243 0.006613 0.687668
Si Si4 0.569861 0.747879 0.262133
Si Si5 0.818920 0.464269 0.503553
Si Si6 0.650766 0.745839 0.531142
O O1 0.866238 0.168496 0.100218
O O2 0.908137 0.406867 0.281762
O O3 0.987342 0.153672 0.289285
O O4 0.228864 0.310553 0.944882
O O5 0.497635 0.180674 0.245906
O O6 0.583184 0.926138 0.254476
O O7 0.763722 0.046449 0.900688
O O8 0.158036 0.134499 0.641778
O O9 0.000000 0.000000 0.500000
O O10 0.364023 0.659428 0.315988
O O11 0.531942 0.698500 0.454794
O O12 0.724864 0.612841 0.552755
O O13 0.000000 0.500000 0.500000
#
# Coordination Sequence:
#
# PCOD8031240 Si02
#       6
#     2   2   2   2   2   2
#     4  11  22  44  73  97 136 179 227 279 331 404
#     4  11  22  42  75 105 128 174 233 279 332 402
#     4  11  23  42  68 104 140 171 222 286 341 392
#     4  11  22  43  73 101 129 181 232 276 329 406
#     4  12  28  44  62 100 145 181 221 280 340 395
#     4  12  23  41  70 101 134 180 230 270 335 406
#
# _framework density 22.641705000000002
#
# number of rings (size 3 to 8) (size 9 to 14) (size 15 to 20)
#    0.000    0.667    5.000    4.000    0.000    3.333 
#    0.000    3.333    0.000    0.000    0.000    0.000 
#    0.000    0.000    0.000    0.000    0.000    0.000 
#
# Total GULP energy -148831.770827 kJ/mol
# GULP energy per Si atom -12402.647569 kJ/mol
# Density = 2.259017 g / cm^3
# Si number density = 22.641705 Si / 1000 Ang^3
#
#
#
# Elastic Constant Matrix: (Units=GPa)
#
#
# Indices 1 2 3 4 5 6 
#
# 1 100.9610 76.6674 52.0752 2.3399 -10.1469 -0.9036
# 2 76.6674 94.6519 69.5905 14.6361 -23.2547 -4.6123
# 3 52.0752 69.5905 142.4513 16.2399 -15.8291 -10.0135
# 4 2.3399 14.6361 16.2399 32.1009 0.0863 -21.3254
# 5 -10.1469 -23.2547 -15.8291 0.0863 49.1772 -1.2935
# 6 -0.9036 -4.6123 -10.0135 -21.3254 -1.2935 44.9789
#
#
#
# Elastic Compliance Matrix: (Units=1/GPa)
#
#
# Indices 1 2 3 4 5 6 
#
# 1 0.030306 -0.028833 0.001021 0.012988 -0.006975 0.003837
# 2 -0.028833 0.046236 -0.008925 -0.018696 0.012908 -0.006318
# 3 0.001021 -0.008925 0.011144 -0.000869 -0.000391 0.001163
# 4 0.012988 -0.018696 -0.000869 0.055243 -0.005902 0.024173
# 5 -0.006975 0.012908 -0.000391 -0.005902 0.024858 -0.000987
# 6 0.003837 -0.006318 0.001163 0.024173 -0.000987 0.033353
#
#
# Mechanical properties :
#
#
# Convention : Reuss Voigt Hill
#
# Bulk Modulus (GPa) = 70.36670 81.63671 76.00171
# Shear Modulus (GPa) = 17.89851 34.56680 26.23265
#
# Velocity S-wave (km/s) = 2.81465 3.91152 3.40751
# Velocity P-wave (km/s) = 6.45824 7.51892 7.00867
#
# Compressibility (1/GPa) = 0.01421127
#
# Stress axis : x y z
#
# Youngs Moduli (GPa) = 32.99721 21.62814 89.73046
#
# Poissons Ratio (x) = 0.62360 -0.09159
# Poissons Ratio (y) = 0.95140 0.80088
# Poissons Ratio (z) = -0.03368 0.19304
#
# Static dielectric constant tensor:
#      x y z
#    x 3.992380 0.159400 -0.362690 
#    y 0.159400 4.155200 0.070220 
#    z -0.362690 0.070220 4.130630 
# 
# 
# High freq. dielectric constant tensor:
#      x y z
#    x 1.885090 0.006450 -0.022750 
#    y 0.006450 1.892750 0.006790 
#    z -0.022750 0.006790 1.902780 
# 
# From -- ./inp_files/156430.got.cif
#   From: 2010.06.25/outbox.cif.g09.slc.cpg/sg2_79_cif.got.tgz:156430.got - 2010.06.27 13:26:56.
