data_PCOD8031145
_publ_section_title
;
Structure prediction by ZEFSAII (Michael W. Deem and Ramdas Pophale) SiO2 
 PCOD8031145
Probable space group: P -1
;
_chemical_formula_sum "Si O2"
_cell_formula_units_Z 14
_cell_length_a 6.642729
_cell_length_b 24.837604
_cell_length_c 16.006621
_cell_angle_alpha 17.967497
_cell_angle_beta 130.202102
_cell_angle_gamma 127.215320
_cell_volume 621.744955
_symmetry_space_group_name_H-M "P -1"
_symmetry_group_IT_number 2
_symmetry_cell_setting 'triclinic'
loop_
_space_group_symop_operation_xyz
x,y,z
-x,-y,-z
loop_
_atom_site_type_symbol
_atom_site_label
_atom_site_fract_x
_atom_site_fract_y
_atom_site_fract_z
Si Si1 0.851273 0.126913 0.598047
Si Si2 0.653570 0.402975 0.255604
Si Si3 0.927625 0.237156 0.812964
Si Si4 0.592190 0.717818 0.468224
Si Si5 0.015141 0.618200 0.208636
Si Si6 0.548707 0.196006 0.247378
Si Si7 0.192358 0.580412 0.143020
O O1 0.742197 0.207623 0.536555
O O2 0.674874 0.206518 0.357752
O O3 0.156173 0.175390 0.597493
O O4 0.846181 0.916289 0.910720
O O5 0.475667 0.393543 0.303781
O O6 0.894826 0.524521 0.155725
O O7 0.500000 0.500000 0.000000
O O8 0.662444 0.166616 0.801791
O O9 0.013513 0.411688 0.532510
O O10 0.884642 0.273156 0.846325
O O11 0.632231 0.584810 0.597504
O O12 0.237403 0.642492 0.159507
O O13 0.721695 0.688840 0.000196
O O14 0.500000 0.000000 0.500000
O O15 0.764914 0.261089 0.142841
#
# Coordination Sequence:
#
# PCOD8031145 Si02
#       7
#     2   2   2   2   2   2   2
#     4  11  25  42  70 101 133 175 222 277 338 389
#     4  11  22  42  69  98 135 174 222 277 332 394
#     4  11  23  47  66  99 138 178 221 276 331 401
#     4  11  23  44  67  99 136 174 222 276 329 403
#     4  11  24  46  71  94 138 180 224 274 333 397
#     4  12  24  46  68  99 135 172 226 282 326 397
#     4  11  22  42  71  97 127 181 224 269 337 391
#
# _framework density 22.51727
#
# number of rings (size 3 to 8) (size 9 to 14) (size 15 to 20)
#    0.000    0.857    4.286    3.000    0.000    4.000 
#    5.143    0.000    0.000    0.000    0.000    0.000 
#    0.000    0.000    0.000    0.000    0.000    0.000 
#
# Total GULP energy -173528.445921 kJ/mol
# GULP energy per Si atom -12394.888994 kJ/mol
# Density = 2.246602 g / cm^3
# Si number density = 22.517270 Si / 1000 Ang^3
#
#
#
# Elastic Constant Matrix: (Units=GPa)
#
#
# Indices 1 2 3 4 5 6 
#
# 1 106.6419 20.1040 33.4245 3.1455 -7.6723 -26.5626
# 2 20.1040 94.2323 25.1518 13.1719 -1.2105 -9.8764
# 3 33.4245 25.1518 117.1343 1.1416 9.3393 -9.7239
# 4 3.1455 13.1719 1.1416 45.8220 -0.0332 3.7007
# 5 -7.6723 -1.2105 9.3393 -0.0332 14.5198 2.7588
# 6 -26.5626 -9.8764 -9.7239 3.7007 2.7588 35.6641
#
#
#
# Elastic Compliance Matrix: (Units=1/GPa)
#
#
# Indices 1 2 3 4 5 6 
#
# 1 0.013271 -0.000746 -0.003540 -0.001269 0.007656 0.008252
# 2 -0.000746 0.012159 -0.002291 -0.003582 0.001622 0.002433
# 3 -0.003540 -0.002291 0.010780 0.000602 -0.009052 0.000306
# 4 -0.001269 -0.003582 0.000602 0.023260 -0.000515 -0.004147
# 5 0.007656 0.001622 -0.009052 -0.000515 0.079330 -0.002400
# 6 0.008252 0.002433 0.000306 -0.004147 -0.002400 0.035559
#
#
# Mechanical properties :
#
#
# Convention : Reuss Voigt Hill
#
# Bulk Modulus (GPa) = 43.36816 52.81879 48.09347
# Shear Modulus (GPa) = 25.61504 35.15638 30.38571
#
# Velocity S-wave (km/s) = 3.37645 3.95563 3.67746
# Velocity P-wave (km/s) = 5.87387 6.66112 6.27984
#
# Compressibility (1/GPa) = 0.02305839
#
# Stress axis : x y z
#
# Youngs Moduli (GPa) = 75.35264 82.24237 92.76039
#
# Poissons Ratio (x) = 0.06134 0.32835
# Poissons Ratio (y) = 0.05620 0.21247
# Poissons Ratio (z) = 0.26673 0.18838
#
# Static dielectric constant tensor:
#      x y z
#    x 4.210680 -0.223100 0.104450 
#    y -0.223100 4.248190 0.054820 
#    z 0.104450 0.054820 4.085040 
# 
# 
# High freq. dielectric constant tensor:
#      x y z
#    x 1.883270 -0.014240 0.010000 
#    y -0.014240 1.905120 0.003160 
#    z 0.010000 0.003160 1.885710 
# 
# From -- ./inp_files/68238.got.cif
#   From: 2010.06.25/outbox.cif.g09.slc.cpg/sg2_35_cif.got.tgz:68238.got - 2010.06.27 13:26:56.
