data_PCOD8031287
_publ_section_title
;
Structure prediction by ZEFSAII (Michael W. Deem and Ramdas Pophale) SiO2 
 PCOD8031287
Probable space group: P -1
;
_chemical_formula_sum "Si O2"
_cell_formula_units_Z 14
_cell_length_a 18.220376
_cell_length_b 8.792220
_cell_length_c 21.017901
_cell_angle_alpha 40.313888
_cell_angle_beta 160.305664
_cell_angle_gamma 128.622804
_cell_volume 662.840807
_symmetry_space_group_name_H-M "P -1"
_symmetry_group_IT_number 2
_symmetry_cell_setting 'triclinic'
loop_
_space_group_symop_operation_xyz
x,y,z
-x,-y,-z
loop_
_atom_site_type_symbol
_atom_site_label
_atom_site_fract_x
_atom_site_fract_y
_atom_site_fract_z
Si Si1 0.265738 0.706391 0.608124
Si Si2 0.955708 0.282846 0.161434
Si Si3 0.561940 0.152656 0.827090
Si Si4 0.877391 0.507076 0.558657
Si Si5 0.742332 0.705764 0.960813
Si Si6 0.273224 0.443602 0.819073
Si Si7 0.436372 0.269560 0.541600
O O1 0.208702 0.665225 0.502002
O O2 0.544358 0.656758 0.856669
O O3 0.216039 0.508816 0.676922
O O4 0.093948 0.999264 0.397688
O O5 0.160588 0.339033 0.273491
O O6 0.750907 0.279440 0.948194
O O7 0.827540 0.507007 0.036198
O O8 0.353662 0.256510 0.676835
O O9 0.452050 0.224217 0.644698
O O10 0.692704 0.845705 0.044457
O O11 0.038921 0.620900 0.614061
O O12 0.034581 0.325822 0.802288
O O13 0.619779 0.004795 0.740445
O O14 0.500000 0.500000 0.000000
O O15 0.500000 0.500000 0.500000
#
# Coordination Sequence:
#
# PCOD8031287 Si02
#       7
#     2   2   2   2   2   2   2
#     4  11  23  41  64  94 130 177 215 258 309 375
#     4  11  23  43  70  95 130 167 214 265 323 383
#     4  12  25  43  66  95 130 174 212 267 325 376
#     4  12  23  40  65  90 133 172 212 259 315 375
#     4  11  22  43  68  95 128 169 215 264 319 379
#     4  12  24  41  62  95 136 174 223 262 306 371
#     4  11  25  46  71  96 125 164 213 270 330 389
#
# _framework density 21.121209
#
# number of rings (size 3 to 8) (size 9 to 14) (size 15 to 20)
#    0.000    0.571    7.143    1.286    0.000    3.429 
#    0.000    0.714    0.000    0.000    0.000    0.000 
#    0.000    0.000    0.000    0.000    0.000    0.000 
#
# Total GULP energy -173561.808357 kJ/mol
# GULP energy per Si atom -12397.272026 kJ/mol
# Density = 2.107314 g / cm^3
# Si number density = 21.121209 Si / 1000 Ang^3
#
#
#
# Elastic Constant Matrix: (Units=GPa)
#
#
# Indices 1 2 3 4 5 6 
#
# 1 57.0937 43.5057 24.0644 -10.8468 13.5055 -8.4250
# 2 43.5057 128.9016 39.8761 7.3914 3.8483 -0.5961
# 3 24.0644 39.8761 83.7837 13.8376 21.4535 -6.2722
# 4 -10.8468 7.3914 13.8376 42.3763 -1.2033 4.8476
# 5 13.5055 3.8483 21.4535 -1.2033 28.1906 -1.5132
# 6 -8.4250 -0.5961 -6.2722 4.8476 -1.5132 41.2209
#
#
#
# Elastic Compliance Matrix: (Units=1/GPa)
#
#
# Indices 1 2 3 4 5 6 
#
# 1 0.031346 -0.009935 -0.002799 0.009872 -0.010880 0.004277
# 2 -0.009935 0.012410 -0.004276 -0.002917 0.006091 -0.001935
# 3 -0.002799 -0.004276 0.019473 -0.007006 -0.013050 0.002674
# 4 0.009872 -0.002917 -0.007006 0.029262 0.002118 -0.002454
# 5 -0.010880 0.006091 -0.013050 0.002118 0.049739 -0.002545
# 6 0.004277 -0.001935 0.002674 -0.002454 -0.002545 0.025708
#
#
# Mechanical properties :
#
#
# Convention : Reuss Voigt Hill
#
# Bulk Modulus (GPa) = 34.23548 53.85237 44.04393
# Shear Modulus (GPa) = 23.61893 33.17974 28.39933
#
# Velocity S-wave (km/s) = 3.34766 3.96778 3.67084
# Velocity P-wave (km/s) = 5.58450 6.82226 6.23418
#
# Compressibility (1/GPa) = 0.02920946
#
# Stress axis : x y z
#
# Youngs Moduli (GPa) = 31.90236 80.57861 51.35214
#
# Poissons Ratio (x) = 0.80056 0.14374
# Poissons Ratio (y) = 0.31695 0.21957
# Poissons Ratio (z) = 0.08930 0.34453
#
# Static dielectric constant tensor:
#      x y z
#    x 3.728690 -0.116770 0.221460 
#    y -0.116770 3.884860 0.218400 
#    z 0.221460 0.218400 4.138590 
# 
# 
# High freq. dielectric constant tensor:
#      x y z
#    x 1.806910 -0.016920 0.020240 
#    y -0.016920 1.829140 0.022870 
#    z 0.020240 0.022870 1.845160 
# 
# From -- ./inp_files/313610.got.cif
#   From: 2010.06.25/outbox.cif.g09.slc.cpg/sg2_157_cif.got.tgz:313610.got - 2010.06.27 13:26:56.
