data_PCOD8031325
_publ_section_title
;
Structure prediction by ZEFSAII (Michael W. Deem and Ramdas Pophale) SiO2 
 PCOD8031325
Probable space group: P -1
;
_chemical_formula_sum "Si O2"
_cell_formula_units_Z 16
_cell_length_a 19.330709
_cell_length_b 9.206017
_cell_length_c 9.481867
_cell_angle_alpha 106.194656
_cell_angle_beta 35.989863
_cell_angle_gamma 126.845506
_cell_volume 713.086483
_symmetry_space_group_name_H-M "P -1"
_symmetry_group_IT_number 2
_symmetry_cell_setting 'triclinic'
loop_
_space_group_symop_operation_xyz
x,y,z
-x,-y,-z
loop_
_atom_site_type_symbol
_atom_site_label
_atom_site_fract_x
_atom_site_fract_y
_atom_site_fract_z
Si Si1 0.367727 0.392554 0.570602
Si Si2 0.235860 0.974409 0.707874
Si Si3 0.965906 0.504545 0.397964
Si Si4 0.362316 0.816305 0.273409
Si Si5 0.033794 0.258293 0.105100
Si Si6 0.610293 0.486378 0.729363
Si Si7 0.137527 0.952732 0.163433
Si Si8 0.130555 0.074210 0.492652
O O1 0.500000 0.500000 0.500000
O O2 0.434055 0.543733 0.370735
O O3 0.334935 0.191401 0.528089
O O4 0.200244 0.320970 0.873037
O O5 0.310217 0.882324 0.504426
O O6 0.048975 0.832949 0.937158
O O7 0.254017 0.005136 0.857008
O O8 0.779930 0.337292 0.638372
O O9 0.000000 0.500000 0.500000
O O10 0.057662 0.457752 0.141237
O O11 0.021323 0.716126 0.320439
O O12 0.412120 0.703078 0.234279
O O13 0.500000 0.000000 0.000000
O O14 0.899034 0.082647 0.386774
O O15 0.782898 0.705885 0.525273
O O16 0.500000 0.500000 0.000000
O O17 0.042169 0.019422 0.292519
O O18 0.220882 0.074606 0.207399
#
# Coordination Sequence:
#
# PCOD8031325 Si02
#       8
#     2   2   2   2   2   2   2   2
#     4  12  27  45  68 106 141 179 232 296 350 414
#     4  11  24  45  72 101 140 180 227 295 345 416
#     4  11  24  41  70 104 138 180 232 287 341 411
#     4  11  27  48  70  99 143 190 230 285 358 424
#     4  11  23  43  72  98 140 182 227 281 351 412
#     4  12  27  45  74  98 137 192 238 280 358 429
#     4  11  23  39  70 105 135 170 233 291 342 393
#     4  11  22  43  70 101 137 181 232 286 334 418
#
# _framework density 22.437669
#
# number of rings (size 3 to 8) (size 9 to 14) (size 15 to 20)
#    0.000    0.750    5.000    1.875    5.250    3.000 
#    0.000    0.625    0.000    0.000    0.000    0.000 
#    0.000    0.000    0.000    0.000    0.000    0.000 
#
# Total GULP energy -198339.571380 kJ/mol
# GULP energy per Si atom -12396.223211 kJ/mol
# Density = 2.238660 g / cm^3
# Si number density = 22.437669 Si / 1000 Ang^3
#
#
#
# Elastic Constant Matrix: (Units=GPa)
#
#
# Indices 1 2 3 4 5 6 
#
# 1 129.6991 50.1929 55.5656 9.2833 12.2314 -2.2148
# 2 50.1929 121.0739 30.2010 5.8788 1.2430 -15.9701
# 3 55.5656 30.2010 107.2022 5.3102 13.9368 -9.5997
# 4 9.2833 5.8788 5.3102 29.1958 -2.1060 4.9705
# 5 12.2314 1.2430 13.9368 -2.1060 42.6987 0.8864
# 6 -2.2148 -15.9701 -9.5997 4.9705 0.8864 37.5107
#
#
#
# Elastic Compliance Matrix: (Units=1/GPa)
#
#
# Indices 1 2 3 4 5 6 
#
# 1 0.011426 -0.003689 -0.004738 -0.001838 -0.001672 -0.001826
# 2 -0.003689 0.010599 -0.000722 -0.001501 0.000821 0.004289
# 3 -0.004738 -0.000722 0.012691 -0.001360 -0.002892 0.002909
# 4 -0.001838 -0.001501 -0.001360 0.036623 0.002946 -0.006018
# 5 -0.001672 0.000821 -0.002892 0.002946 0.024995 -0.001470
# 6 -0.001826 0.004289 0.002909 -0.006018 -0.001470 0.029954
#
#
# Mechanical properties :
#
#
# Convention : Reuss Voigt Hill
#
# Bulk Modulus (GPa) = 60.90996 69.98825 65.44911
# Shear Modulus (GPa) = 33.32026 36.68208 35.00117
#
# Velocity S-wave (km/s) = 3.85777 4.04771 3.95388
# Velocity P-wave (km/s) = 6.85918 7.28733 7.07650
#
# Compressibility (1/GPa) = 0.01641768
#
# Stress axis : x y z
#
# Youngs Moduli (GPa) = 87.52125 94.34670 78.79444
#
# Poissons Ratio (x) = 0.34807 0.37333
# Poissons Ratio (y) = 0.32289 0.05689
# Poissons Ratio (z) = 0.41468 0.06812
#
# Static dielectric constant tensor:
#      x y z
#    x 4.308680 -0.394780 0.264770 
#    y -0.394780 -0.261010 0.117330 
#    z 0.264770 0.117330 3.925890 
# 
# 
# High freq. dielectric constant tensor:
#      x y z
#    x 1.890390 -0.004120 0.013900 
#    y -0.004120 1.897610 0.005490 
#    z 0.013900 0.005490 1.870360 
# 
# From -- ./inp_files/317927.got.cif
#   From: 2010.06.25/outbox.cif.g09.slc.cpg/sg2_159_cif.got.tgz:317927.got - 2010.06.27 13:26:56.
