data_PCOD8031092
_publ_section_title
;
Structure prediction by ZEFSAII (Michael W. Deem and Ramdas Pophale) SiO2 
 PCOD8031092
Probable space group: P -1
;
_chemical_formula_sum "Si O2"
_cell_formula_units_Z 14
_cell_length_a 15.488723
_cell_length_b 8.448765
_cell_length_c 20.969309
_cell_angle_alpha 35.614060
_cell_angle_beta 151.146568
_cell_angle_gamma 126.676831
_cell_volume 703.911674
_symmetry_space_group_name_H-M "P -1"
_symmetry_group_IT_number 2
_symmetry_cell_setting 'triclinic'
loop_
_space_group_symop_operation_xyz
x,y,z
-x,-y,-z
loop_
_atom_site_type_symbol
_atom_site_label
_atom_site_fract_x
_atom_site_fract_y
_atom_site_fract_z
Si Si1 0.141410 0.858170 0.954596
Si Si2 0.390009 0.315500 0.212446
Si Si3 0.239696 0.422066 0.829007
Si Si4 0.994180 0.776520 0.445502
Si Si5 0.825339 0.914985 0.628361
Si Si6 0.992843 0.759920 0.024921
Si Si7 0.630421 0.349151 0.039379
O O1 0.948166 0.940880 0.759937
O O2 0.197225 0.134853 0.905797
O O3 0.324597 0.584229 0.132668
O O4 0.101868 0.767047 0.028372
O O5 0.596817 0.060720 0.451169
O O6 0.233561 0.168742 0.158435
O O7 0.411288 0.430753 0.118758
O O8 0.262601 0.541715 0.873215
O O9 0.059203 0.678698 0.592120
O O10 0.432122 0.335464 0.939135
O O11 0.000000 0.500000 0.500000
O O12 0.771640 0.016226 0.219800
O O13 0.138389 0.911215 0.464914
O O14 0.894691 0.571305 0.764904
O O15 0.000000 0.000000 0.000000
#
# Coordination Sequence:
#
# PCOD8031092 Si02
#       7
#     2   2   2   2   2   2   2
#     4  11  24  41  66  92 127 167 210 261 311 374
#     4  11  22  42  67  92 126 163 214 262 306 375
#     4  11  24  39  62  97 129 169 209 254 323 371
#     4  12  22  40  65  94 130 166 210 258 314 374
#     4  11  23  41  67  96 122 167 214 260 311 369
#     4  11  25  46  67  91 128 166 208 263 317 371
#     4  11  23  40  62  94 133 168 206 261 312 377
#
# _framework density 19.888860000000001
#
# number of rings (size 3 to 8) (size 9 to 14) (size 15 to 20)
#    0.000    0.857    5.714    3.000    2.000    4.000 
#    0.000    1.429    0.000    0.000    0.000    0.000 
#    0.000    0.000    0.000    0.000    0.000    0.000 
#
# Total GULP energy -173674.909209 kJ/mol
# GULP energy per Si atom -12405.350658 kJ/mol
# Density = 1.984359 g / cm^3
# Si number density = 19.888860 Si / 1000 Ang^3
#
#
#
# Elastic Constant Matrix: (Units=GPa)
#
#
# Indices 1 2 3 4 5 6 
#
# 1 99.0805 34.0289 20.9334 -7.9109 -2.5895 4.0614
# 2 34.0289 111.9403 42.5987 -22.6337 -5.4722 8.0996
# 3 20.9334 42.5987 91.5176 1.4579 17.3693 1.4246
# 4 -7.9109 -22.6337 1.4579 26.7844 6.3836 -1.1216
# 5 -2.5895 -5.4722 17.3693 6.3836 20.1753 -6.9592
# 6 4.0614 8.0996 1.4246 -1.1216 -6.9592 27.1399
#
#
#
# Elastic Compliance Matrix: (Units=1/GPa)
#
#
# Indices 1 2 3 4 5 6 
#
# 1 0.011474 -0.002474 -0.001863 0.000909 0.002005 -0.000330
# 2 -0.002474 0.015434 -0.008046 0.011078 0.006729 -0.001630
# 3 -0.001863 -0.008046 0.018684 -0.004141 -0.018288 -0.003161
# 4 0.000909 0.011078 -0.004141 0.049482 -0.010287 -0.003818
# 5 0.002005 0.006729 -0.018288 -0.010287 0.076831 0.017928
# 6 -0.000330 -0.001630 -0.003161 -0.003818 0.017928 0.041987
#
#
# Mechanical properties :
#
#
# Convention : Reuss Voigt Hill
#
# Bulk Modulus (GPa) = 48.01507 55.29558 51.65532
# Shear Modulus (GPa) = 20.35821 28.48510 24.42165
#
# Velocity S-wave (km/s) = 3.20284 3.78857 3.50795
# Velocity P-wave (km/s) = 6.15400 6.85568 6.51429
#
# Compressibility (1/GPa) = 0.02082680
#
# Stress axis : x y z
#
# Youngs Moduli (GPa) = 87.15042 64.79153 53.52068
#
# Poissons Ratio (x) = 0.16027 0.09971
# Poissons Ratio (y) = 0.21558 0.43065
# Poissons Ratio (z) = 0.16236 0.52134
#
# Static dielectric constant tensor:
#      x y z
#    x 3.851240 0.177590 0.032230 
#    y 0.177590 3.738200 0.043130 
#    z 0.032230 0.043130 3.879340 
# 
# 
# High freq. dielectric constant tensor:
#      x y z
#    x 1.787470 0.005570 -0.001090 
#    y 0.005570 1.780680 -0.003800 
#    z -0.001090 -0.003800 1.780480 
# 
# From -- ./inp_files/251412.got.cif
#   From: 2010.06.25/outbox.cif.g09.slc.cpg/sg2_126_cif.got.tgz:251412.got - 2010.06.27 13:26:56.
