data_PCOD8031455
_publ_section_title
;
Structure prediction by ZEFSAII (Michael W. Deem and Ramdas Pophale) SiO2 
 PCOD8031455
Probable space group: P -1
;
_chemical_formula_sum "Si O2"
_cell_formula_units_Z 16
_cell_length_a 9.342452
_cell_length_b 15.646928
_cell_length_c 9.153280
_cell_angle_alpha 143.399851
_cell_angle_beta 67.243640
_cell_angle_gamma 116.242842
_cell_volume 714.274907
_symmetry_space_group_name_H-M "P -1"
_symmetry_group_IT_number 2
_symmetry_cell_setting 'triclinic'
loop_
_space_group_symop_operation_xyz
x,y,z
-x,-y,-z
loop_
_atom_site_type_symbol
_atom_site_label
_atom_site_fract_x
_atom_site_fract_y
_atom_site_fract_z
Si Si1 0.891584 0.787882 0.955934
Si Si2 0.398743 0.533517 0.882201
Si Si3 0.884000 0.126093 0.405596
Si Si4 0.231513 0.291844 0.409171
Si Si5 0.479003 0.853725 0.896115
Si Si6 0.264043 0.458054 0.131479
Si Si7 0.390863 0.857972 0.268475
Si Si8 0.803193 0.270463 0.352335
O O1 0.807433 0.687225 0.715591
O O2 0.808823 0.713582 0.034755
O O3 0.073388 0.775561 0.870236
O O4 0.877984 0.953374 0.167580
O O5 0.318311 0.453272 0.657056
O O6 0.558697 0.484152 0.792934
O O7 0.268283 0.476143 0.980748
O O8 0.444032 0.709965 0.089361
O O9 0.793751 0.159489 0.633387
O O10 0.786602 0.162525 0.352677
O O11 0.067494 0.219431 0.461379
O O12 0.350521 0.184842 0.221410
O O13 0.355637 0.736182 0.687027
O O14 0.408946 0.875879 0.113085
O O15 0.500000 0.000000 0.000000
O O16 0.150008 0.560167 0.377308
O O17 0.500000 0.000000 0.500000
#
# Coordination Sequence:
#
# PCOD8031455 Si02
#       8
#     2   2   2   2   2   2   2   2
#     4  11  24  43  71  98 136 180 224 280 338 402
#     4  11  25  43  68  98 137 181 222 281 341 405
#     4  11  24  48  70  98 140 185 222 274 344 407
#     4  11  24  44  70  99 137 178 228 279 336 403
#     4  12  25  41  71 102 134 173 230 283 330 400
#     4  11  23  42  66  99 140 172 225 280 342 394
#     4  12  26  45  69 100 138 183 226 274 344 410
#     4  11  22  44  67 101 134 174 229 278 337 398
#
# _framework density 22.400338000000001
#
# number of rings (size 3 to 8) (size 9 to 14) (size 15 to 20)
#    0.000    0.750    2.500    6.375    1.750    3.500 
#    0.000    1.875    0.000    0.000    0.000    0.000 
#    0.000    0.000    0.000    0.000    0.000    0.000 
#
# Total GULP energy -198381.538576 kJ/mol
# GULP energy per Si atom -12398.846161 kJ/mol
# Density = 2.234935 g / cm^3
# Si number density = 22.400338 Si / 1000 Ang^3
#
#
#
# Elastic Constant Matrix: (Units=GPa)
#
#
# Indices 1 2 3 4 5 6 
#
# 1 81.8986 19.1684 25.3655 -13.8038 -10.5780 1.4509
# 2 19.1684 141.0159 38.1424 -5.3137 -3.9671 -4.2758
# 3 25.3655 38.1424 106.0451 5.0138 -8.8557 -1.5151
# 4 -13.8038 -5.3137 5.0138 41.8406 9.9501 -7.7027
# 5 -10.5780 -3.9671 -8.8557 9.9501 34.0959 -2.1830
# 6 1.4509 -4.2758 -1.5151 -7.7027 -2.1830 23.4121
#
#
#
# Elastic Compliance Matrix: (Units=1/GPa)
#
#
# Indices 1 2 3 4 5 6 
#
# 1 0.014448 -0.000856 -0.003170 0.004588 0.002250 0.000462
# 2 -0.000856 0.008057 -0.002769 0.001492 -0.000367 0.001802
# 3 -0.003170 -0.002769 0.011568 -0.003510 0.002693 -0.000464
# 4 0.004588 0.001492 -0.003510 0.029376 -0.007328 0.008743
# 5 0.002250 -0.000367 0.002693 -0.007328 0.032862 0.000621
# 6 0.000462 0.001802 -0.000464 0.008743 0.000621 0.045918
#
#
# Mechanical properties :
#
#
# Convention : Reuss Voigt Hill
#
# Bulk Modulus (GPa) = 48.82033 54.92356 51.87194
# Shear Modulus (GPa) = 30.74132 36.28863 33.51497
#
# Velocity S-wave (km/s) = 3.70856 4.02929 3.87225
# Velocity P-wave (km/s) = 6.33874 6.79847 6.57263
#
# Compressibility (1/GPa) = 0.02048327
#
# Stress axis : x y z
#
# Youngs Moduli (GPa) = 69.21248 124.11301 86.44269
#
# Poissons Ratio (x) = 0.10627 0.27406
# Poissons Ratio (y) = 0.05926 0.23933
# Poissons Ratio (z) = 0.21943 0.34363
#
# Static dielectric constant tensor:
#      x y z
#    x 3.691460 0.046520 -0.247900 
#    y 0.046520 4.153970 -0.171760 
#    z -0.247900 -0.171760 4.035770 
# 
# 
# High freq. dielectric constant tensor:
#      x y z
#    x 1.879620 0.001990 -0.017570 
#    y 0.001990 1.889820 0.000640 
#    z -0.017570 0.000640 1.885470 
# 
# From -- ./inp_files/209213.got.cif
#   From: 2010.06.25/outbox.cif.g09.slc.cpg/sg2_105_cif.got.tgz:209213.got - 2010.06.27 13:26:56.
