data_PCOD8031651
_publ_section_title
;
Structure prediction by ZEFSAII (Michael W. Deem and Ramdas Pophale) SiO2 
 PCOD8031651
Probable space group: P -1
;
_chemical_formula_sum "Si O2"
_cell_formula_units_Z 16
_cell_length_a 15.283901
_cell_length_b 20.805014
_cell_length_c 8.929172
_cell_angle_alpha 58.397574
_cell_angle_beta 66.740876
_cell_angle_gamma 18.170881
_cell_volume 695.125654
_symmetry_space_group_name_H-M "P -1"
_symmetry_group_IT_number 2
_symmetry_cell_setting 'triclinic'
loop_
_space_group_symop_operation_xyz
x,y,z
-x,-y,-z
loop_
_atom_site_type_symbol
_atom_site_label
_atom_site_fract_x
_atom_site_fract_y
_atom_site_fract_z
Si Si1 0.318191 0.740071 0.538931
Si Si2 0.868003 0.920426 0.365012
Si Si3 0.159474 0.698564 0.744543
Si Si4 0.795384 0.614185 0.205550
Si Si5 0.247043 0.774260 0.206193
Si Si6 0.094209 0.614138 0.403044
Si Si7 0.785062 0.570457 0.935053
Si Si8 0.838630 0.835361 0.989798
O O1 0.359797 0.623808 0.710648
O O2 0.287601 0.777191 0.338805
O O3 0.578190 0.598240 0.600585
O O4 0.000000 0.000000 0.500000
O O5 0.892971 0.901352 0.551781
O O6 0.149360 0.759069 0.306935
O O7 0.909936 0.805114 0.411096
O O8 0.538060 0.202728 0.203292
O O9 0.435746 0.437521 0.824588
O O10 0.014408 0.781903 0.898549
O O11 0.872249 0.495687 0.425688
O O12 0.092546 0.441661 0.193253
O O13 0.722435 0.623827 0.089942
O O14 0.520141 0.876156 0.126230
O O15 0.000000 0.000000 0.000000
O O16 0.906734 0.751217 0.209055
O O17 0.038448 0.315459 0.036504
#
# Coordination Sequence:
#
# PCOD8031651 Si02
#       8
#     2   2   2   2   2   2   2   2
#     4  11  24  40  62  99 141 179 227 280 337 412
#     4  11  22  45  69 101 138 187 235 286 351 423
#     4  11  23  44  64  99 139 183 231 274 343 416
#     4  11  27  51  72 105 138 183 236 299 353 419
#     4  11  23  39  66  96 139 187 229 276 345 413
#     4  12  25  45  71 102 146 181 235 292 348 417
#     4  11  26  49  76 101 139 183 236 292 364 414
#     4  12  27  46  73 104 141 184 239 289 351 420
#
# _framework density 23.017422
#
# number of rings (size 3 to 8) (size 9 to 14) (size 15 to 20)
#    0.000    0.750    3.750    3.375    8.750    2.500 
#    2.250    0.000    0.000    0.000    0.000    0.000 
#    0.000    0.000    0.000    0.000    0.000    0.000 
#
# Total GULP energy -198341.221782 kJ/mol
# GULP energy per Si atom -12396.326361 kJ/mol
# Density = 2.296503 g / cm^3
# Si number density = 23.017422 Si / 1000 Ang^3
#
#
#
# Elastic Constant Matrix: (Units=GPa)
#
#
# Indices 1 2 3 4 5 6 
#
# 1 43.5783 9.1054 11.9531 1.2006 -2.2017 2.7473
# 2 9.1054 105.7881 22.9446 -1.1286 -3.3337 2.5934
# 3 11.9531 22.9446 121.6136 1.9428 -16.6192 -7.5729
# 4 1.2006 -1.1286 1.9428 30.4160 -5.8989 -9.4792
# 5 -2.2017 -3.3337 -16.6192 -5.8989 22.3220 -2.4539
# 6 2.7473 2.5934 -7.5729 -9.4792 -2.4539 40.4588
#
#
#
# Elastic Compliance Matrix: (Units=1/GPa)
#
#
# Indices 1 2 3 4 5 6 
#
# 1 0.024064 -0.001556 -0.002219 -0.001636 -0.000201 -0.002345
# 2 -0.001556 0.009997 -0.001788 0.000297 -0.000001 -0.000800
# 3 -0.002219 -0.001788 0.010001 0.001839 0.007780 0.003040
# 4 -0.001636 0.000297 0.001839 0.038446 0.012534 0.010204
# 5 -0.000201 -0.000001 0.007780 0.012534 0.054733 0.007726
# 6 -0.002345 -0.000800 0.003040 0.010204 0.007726 0.028355
#
#
# Mechanical properties :
#
#
# Convention : Reuss Voigt Hill
#
# Bulk Modulus (GPa) = 30.36169 39.88735 35.12452
# Shear Modulus (GPa) = 26.63791 33.77117 30.20454
#
# Velocity S-wave (km/s) = 3.40559 3.83456 3.62642
# Velocity P-wave (km/s) = 5.35569 6.08046 5.72955
#
# Compressibility (1/GPa) = 0.03293624
#
# Stress axis : x y z
#
# Youngs Moduli (GPa) = 41.55631 100.02644 99.98648
#
# Poissons Ratio (x) = 0.15567 0.22186
# Poissons Ratio (y) = 0.06467 0.17877
# Poissons Ratio (z) = 0.09221 0.17884
#
# Static dielectric constant tensor:
#      x y z
#    x 4.233520 -0.189460 -0.130090 
#    y -0.189460 4.273970 -0.003550 
#    z -0.130090 -0.003550 4.105260 
# 
# 
# High freq. dielectric constant tensor:
#      x y z
#    x 1.898550 -0.001300 -0.011650 
#    y -0.001300 1.925400 -0.001610 
#    z -0.011650 -0.001610 1.907520 
# 
# From -- ./inp_files/224296.got.cif
#   From: 2010.06.25/outbox.cif.g09.slc.cpg/sg2_113_cif.got.tgz:224296.got - 2010.06.27 13:26:56.
