data_PCOD8031662
_publ_section_title
;
Structure prediction by ZEFSAII (Michael W. Deem and Ramdas Pophale) SiO2 
 PCOD8031662
Probable space group: P -1
;
_chemical_formula_sum "Si O2"
_cell_formula_units_Z 14
_cell_length_a 9.328367
_cell_length_b 11.080275
_cell_length_c 11.544123
_cell_angle_alpha 42.488563
_cell_angle_beta 51.690877
_cell_angle_gamma 62.279796
_cell_volume 632.335088
_symmetry_space_group_name_H-M "P -1"
_symmetry_group_IT_number 2
_symmetry_cell_setting 'triclinic'
loop_
_space_group_symop_operation_xyz
x,y,z
-x,-y,-z
loop_
_atom_site_type_symbol
_atom_site_label
_atom_site_fract_x
_atom_site_fract_y
_atom_site_fract_z
Si Si1 0.316163 0.585872 0.480531
Si Si2 0.648795 0.462298 0.772848
Si Si3 0.301856 0.976068 0.168112
Si Si4 0.707061 0.733367 0.846333
Si Si5 0.978523 0.026089 0.127960
Si Si6 0.937617 0.430065 0.846575
Si Si7 0.655500 0.854908 0.538480
O O1 0.500000 0.500000 0.500000
O O2 0.314924 0.584355 0.344090
O O3 0.149010 0.477236 0.692456
O O4 0.298524 0.795243 0.375152
O O5 0.836404 0.443557 0.763974
O O6 0.573320 0.664796 0.677873
O O7 0.500748 0.331176 0.994254
O O8 0.240517 0.143405 0.159387
O O9 0.166056 0.963902 0.136982
O O10 0.500000 0.000000 0.000000
O O11 0.844447 0.562769 0.893310
O O12 0.726833 0.850568 0.637607
O O13 0.822169 0.896280 0.341466
O O14 0.926981 0.229838 0.042036
O O15 0.000000 0.000000 0.000000
O O16 0.500000 0.000000 0.500000
#
# Coordination Sequence:
#
# PCOD8031662 Si02
#       7
#     2   2   2   2   2   2   2
#     4  12  26  44  69 101 138 183 228 285 348 410
#     4  11  22  45  69  99 139 180 229 280 343 411
#     4  12  26  46  71 101 142 181 230 286 348 414
#     4  11  25  45  71 101 142 182 226 289 351 403
#     4  12  26  45  74 105 138 184 234 281 339 414
#     4  11  24  45  70 101 138 180 235 281 343 407
#     4  11  24  41  71 104 135 181 230 285 337 405
#
# _framework density 22.140160000000002
#
# number of rings (size 3 to 8) (size 9 to 14) (size 15 to 20)
#    0.000    0.571    1.429    8.143    4.000    2.857 
#    0.000    0.000    0.000    0.000    0.000    0.000 
#    0.000    0.000    0.000    0.000    0.000    0.000 
#
# Total GULP energy -173698.163927 kJ/mol
# GULP energy per Si atom -12407.011709 kJ/mol
# Density = 2.208977 g / cm^3
# Si number density = 22.140160 Si / 1000 Ang^3
#
#
#
# Elastic Constant Matrix: (Units=GPa)
#
#
# Indices 1 2 3 4 5 6 
#
# 1 113.2430 44.6735 26.8289 -0.4094 -11.1893 -8.0380
# 2 44.6735 113.8829 18.8730 -8.3615 7.8582 2.5095
# 3 26.8289 18.8730 93.2689 -0.4609 -3.4814 9.3801
# 4 -0.4094 -8.3615 -0.4609 49.9282 -6.3361 7.1155
# 5 -11.1893 7.8582 -3.4814 -6.3361 30.6442 0.5091
# 6 -8.0380 2.5095 9.3801 7.1155 0.5091 39.8948
#
#
#
# Elastic Compliance Matrix: (Units=1/GPa)
#
#
# Indices 1 2 3 4 5 6 
#
# 1 0.012095 -0.004775 -0.002664 -0.000553 0.005167 0.003397
# 2 -0.004775 0.011253 -0.000891 0.001519 -0.004389 -0.001675
# 3 -0.002664 -0.000891 0.012044 0.000527 0.000790 -0.003417
# 4 -0.000553 0.001519 0.000527 0.021384 0.003959 -0.004195
# 5 0.005167 -0.004389 0.000790 0.003959 0.036554 -0.000041
# 6 0.003397 -0.001675 -0.003417 -0.004195 -0.000041 0.027408
#
#
# Mechanical properties :
#
#
# Convention : Reuss Voigt Hill
#
# Bulk Modulus (GPa) = 53.38807 55.68285 54.53546
# Shear Modulus (GPa) = 34.80842 39.42804 37.11823
#
# Velocity S-wave (km/s) = 3.96938 4.22458 4.09896
# Velocity P-wave (km/s) = 6.72116 7.00006 6.86203
#
# Compressibility (1/GPa) = 0.01873077
#
# Stress axis : x y z
#
# Youngs Moduli (GPa) = 82.67730 88.86437 83.02769
#
# Poissons Ratio (x) = 0.42434 0.22122
# Poissons Ratio (y) = 0.39480 0.07400
# Poissons Ratio (z) = 0.22029 0.07921
#
# Static dielectric constant tensor:
#      x y z
#    x 3.926250 0.001350 -0.060830 
#    y 0.001350 4.287020 -0.205120 
#    z -0.060830 -0.205120 4.217720 
# 
# 
# High freq. dielectric constant tensor:
#      x y z
#    x 1.868010 -0.004130 -0.004890 
#    y -0.004130 1.887910 -0.009200 
#    z -0.004890 -0.009200 1.883470 
# 
# From -- ./inp_files/177579.got.cif
#   From: 2010.06.25/outbox.cif.g09.slc.cpg/sg2_89_cif.got.tgz:177579.got - 2010.06.27 13:26:56.
