data_PCOD8031778
_publ_section_title
;
Structure prediction by ZEFSAII (Michael W. Deem and Ramdas Pophale) SiO2 
 PCOD8031778
Probable space group: P -1
;
_chemical_formula_sum "Si O2"
_cell_formula_units_Z 16
_cell_length_a 18.810247
_cell_length_b 9.261890
_cell_length_c 12.430613
_cell_angle_alpha 63.278777
_cell_angle_beta 130.548305
_cell_angle_gamma 150.217299
_cell_volume 778.809706
_symmetry_space_group_name_H-M "P -1"
_symmetry_group_IT_number 2
_symmetry_cell_setting 'triclinic'
loop_
_space_group_symop_operation_xyz
x,y,z
-x,-y,-z
loop_
_atom_site_type_symbol
_atom_site_label
_atom_site_fract_x
_atom_site_fract_y
_atom_site_fract_z
Si Si1 0.459282 0.220542 0.619734
Si Si2 0.327610 0.822514 0.439028
Si Si3 0.423375 0.894615 0.078246
Si Si4 0.511887 0.675457 0.879963
Si Si5 0.983286 0.796972 0.098682
Si Si6 0.769580 0.821019 0.599017
Si Si7 0.839297 0.197556 0.878073
Si Si8 0.193613 0.302606 0.545039
O O1 0.478655 0.103204 0.760948
O O2 0.649435 0.572341 0.659959
O O3 0.323397 0.156713 0.551906
O O4 0.373046 0.039831 0.484394
O O5 0.212550 0.716969 0.263839
O O6 0.225396 0.540164 0.502108
O O7 0.500000 0.000000 0.500000
O O8 0.469258 0.134540 0.094962
O O9 0.214507 0.560403 0.983506
O O10 0.500000 0.000000 0.000000
O O11 0.336174 0.420656 0.719512
O O12 0.681210 0.901758 0.895401
O O13 0.500000 0.500000 0.000000
O O14 0.110571 0.873808 0.126731
O O15 0.044716 0.875510 0.258320
O O16 0.000000 0.000000 0.000000
O O17 0.798292 0.740780 0.556377
O O18 0.000000 0.500000 0.000000
O O19 0.000000 0.000000 0.500000
#
# Coordination Sequence:
#
# PCOD8031778 Si02
#       8
#     2   2   2   2   2   2   2   2
#     4  11  22  46  72 102 135 185 236 288 350 417
#     4  12  22  46  75 100 136 184 241 294 350 416
#     4  12  28  48  71 102 149 191 230 290 362 427
#     4  12  29  49  71 103 145 192 238 298 362 421
#     4  12  27  44  73 109 141 184 234 291 355 428
#     4  11  25  43  74 105 138 180 236 290 349 420
#     4  12  26  47  74 106 138 186 247 299 350 424
#     4  12  29  45  72 104 143 186 234 295 358 421
#
# _framework density 20.544170999999999
#
# number of rings (size 3 to 8) (size 9 to 14) (size 15 to 20)
#    0.000    0.250    7.500    0.000   10.500    0.000 
#    0.000    1.250    0.000    0.000    0.000    0.000 
#    0.000    0.000    0.000    0.000    0.000    0.000 
#
# Total GULP energy -198440.201619 kJ/mol
# GULP energy per Si atom -12402.512601 kJ/mol
# Density = 2.049741 g / cm^3
# Si number density = 20.544171 Si / 1000 Ang^3
#
#
#
# Elastic Constant Matrix: (Units=GPa)
#
#
# Indices 1 2 3 4 5 6 
#
# 1 108.9851 32.2940 38.8842 1.6172 3.5005 -1.1177
# 2 32.2940 116.9382 60.2566 -0.7836 11.4721 6.1101
# 3 38.8842 60.2566 166.7391 -1.6619 8.7424 -1.7647
# 4 1.6172 -0.7836 -1.6619 46.6057 -9.5669 2.0041
# 5 3.5005 11.4721 8.7424 -9.5669 35.5533 1.2056
# 6 -1.1177 6.1101 -1.7647 2.0041 1.2056 40.1753
#
#
#
# Elastic Compliance Matrix: (Units=1/GPa)
#
#
# Indices 1 2 3 4 5 6 
#
# 1 0.010393 -0.002023 -0.001686 -0.000501 -0.000109 0.000551
# 2 -0.002023 0.011252 -0.003481 -0.000320 -0.002600 -0.001826
# 3 -0.001686 -0.003481 0.007690 0.000115 -0.000599 0.000832
# 4 -0.000501 -0.000320 0.000115 0.022823 0.006309 -0.001288
# 5 -0.000109 -0.002600 -0.000599 0.006309 0.030851 -0.000874
# 6 0.000551 -0.001826 0.000832 -0.001288 -0.000874 0.025311
#
#
# Mechanical properties :
#
#
# Convention : Reuss Voigt Hill
#
# Bulk Modulus (GPa) = 66.86422 72.83687 69.85054
# Shear Modulus (GPa) = 39.15883 41.88203 40.52043
#
# Velocity S-wave (km/s) = 4.37060 4.52002 4.44594
# Velocity P-wave (km/s) = 7.62147 7.92285 7.77362
#
# Compressibility (1/GPa) = 0.01495568
#
# Stress axis : x y z
#
# Youngs Moduli (GPa) = 96.21737 88.87241 130.04116
#
# Poissons Ratio (x) = 0.17977 0.21927
# Poissons Ratio (y) = 0.19462 0.45265
# Poissons Ratio (z) = 0.16224 0.30935
#
# Static dielectric constant tensor:
#      x y z
#    x 3.937950 -0.034420 0.135720 
#    y -0.034420 6.832290 1.345900 
#    z 0.135720 1.345900 4.444370 
# 
# 
# High freq. dielectric constant tensor:
#      x y z
#    x 1.812840 -0.012340 0.003270 
#    y -0.012340 1.807040 0.008680 
#    z 0.003270 0.008680 1.823490 
# 
# From -- ./inp_files/207089.got.cif
#   From: 2010.06.25/outbox.cif.g09.slc.cpg/sg2_104_cif.got.tgz:207089.got - 2010.06.27 13:26:56.
