data_PCOD8031378
_publ_section_title
;
Structure prediction by ZEFSAII (Michael W. Deem and Ramdas Pophale) SiO2 
 PCOD8031378
Probable space group: P -1
;
_chemical_formula_sum "Si O2"
_cell_formula_units_Z 14
_cell_length_a 11.370706
_cell_length_b 11.628428
_cell_length_c 18.618789
_cell_angle_alpha 157.082080
_cell_angle_beta 138.707363
_cell_angle_gamma 50.303393
_cell_volume 618.864468
_symmetry_space_group_name_H-M "P -1"
_symmetry_group_IT_number 2
_symmetry_cell_setting 'triclinic'
loop_
_space_group_symop_operation_xyz
x,y,z
-x,-y,-z
loop_
_atom_site_type_symbol
_atom_site_label
_atom_site_fract_x
_atom_site_fract_y
_atom_site_fract_z
Si Si1 0.323855 0.793161 0.945281
Si Si2 0.176802 0.879713 0.531063
Si Si3 0.473366 0.831307 0.190019
Si Si4 0.198763 0.782838 0.155939
Si Si5 0.280985 0.186865 0.897285
Si Si6 0.081814 0.213739 0.094821
Si Si7 0.049722 0.276077 0.452662
O O1 0.174863 0.475402 0.685963
O O2 0.357393 0.885322 0.097702
O O3 0.501268 0.786329 0.971948
O O4 0.230039 0.068718 0.035680
O O5 0.153273 0.537687 0.350647
O O6 0.332422 0.937018 0.574450
O O7 0.277707 0.108686 0.767941
O O8 0.000000 0.000000 0.500000
O O9 0.383905 0.880912 0.253170
O O10 0.500000 0.500000 0.000000
O O11 0.171337 0.057657 0.350524
O O12 0.211521 0.501763 0.053124
O O13 0.045945 0.703125 0.978766
O O14 0.143389 0.920125 0.721469
O O15 0.000000 0.000000 0.000000
O O16 0.000000 0.500000 0.500000
#
# Coordination Sequence:
#
# PCOD8031378 Si02
#       7
#     2   2   2   2   2   2   2
#     4  11  25  46  71 101 142 180 232 290 345 407
#     4  11  23  40  72 104 136 181 226 288 358 404
#     4  11  22  43  72 106 139 172 233 295 342 419
#     4  12  24  46  68 105 138 182 234 283 346 421
#     4  11  26  45  72  99 138 183 239 282 346 423
#     4  12  23  40  71 104 141 178 230 294 350 409
#     4  12  28  47  71  98 143 192 229 288 352 411
#
# _framework density 22.622078999999999
#
# number of rings (size 3 to 8) (size 9 to 14) (size 15 to 20)
#    0.000    0.571    7.143    1.286    2.000    4.571 
#    2.571    0.000    0.000    0.000    0.000    0.000 
#    0.000    0.000    0.000    0.000    0.000    0.000 
#
# Total GULP energy -173433.157169 kJ/mol
# GULP energy per Si atom -12388.082655 kJ/mol
# Density = 2.257059 g / cm^3
# Si number density = 22.622079 Si / 1000 Ang^3
#
#
#
# Elastic Constant Matrix: (Units=GPa)
#
#
# Indices 1 2 3 4 5 6 
#
# 1 108.8789 38.9333 52.3214 12.9753 19.3491 -28.0410
# 2 38.9333 95.9593 47.6504 20.4970 18.9463 -28.9116
# 3 52.3214 47.6504 134.9241 22.4050 17.4004 -21.1631
# 4 12.9753 20.4970 22.4050 42.4827 -4.4461 -7.0644
# 5 19.3491 18.9463 17.4004 -4.4461 49.3185 5.8675
# 6 -28.0410 -28.9116 -21.1631 -7.0644 5.8675 38.1217
#
#
#
# Elastic Compliance Matrix: (Units=1/GPa)
#
#
# Indices 1 2 3 4 5 6 
#
# 1 0.014315 0.000123 -0.003035 -0.001868 -0.005891 0.009499
# 2 0.000123 0.018474 -0.002402 -0.006424 -0.008408 0.012872
# 3 -0.003035 -0.002402 0.010503 -0.003427 -0.002075 0.001461
# 4 -0.001868 -0.006424 -0.003427 0.029153 0.007502 -0.003901
# 5 -0.005891 -0.008408 -0.002075 0.007502 0.029003 -0.014936
# 6 0.009499 0.012872 0.001461 -0.003901 -0.014936 0.045367
#
#
# Mechanical properties :
#
#
# Convention : Reuss Voigt Hill
#
# Bulk Modulus (GPa) = 30.61472 68.61918 49.61695
# Shear Modulus (GPa) = 29.70348 39.37506 34.53927
#
# Velocity S-wave (km/s) = 3.62751 4.17653 3.91166
# Velocity P-wave (km/s) = 5.57742 7.32506 6.51015
#
# Compressibility (1/GPa) = 0.03266403
#
# Stress axis : x y z
#
# Youngs Moduli (GPa) = 69.85871 54.12888 95.21508
#
# Poissons Ratio (x) = -0.00666 0.28894
# Poissons Ratio (y) = -0.00860 0.22872
# Poissons Ratio (z) = 0.21200 0.13003
#
# Static dielectric constant tensor:
#      x y z
#    x 3.688700 1.747610 -1.041590 
#    y 1.747610 -44.114270 21.435910 
#    z -1.041590 21.435910 -5.417110 
# 
# 
# High freq. dielectric constant tensor:
#      x y z
#    x 1.894130 -0.026100 0.008500 
#    y -0.026100 1.893940 0.007370 
#    z 0.008500 0.007370 1.893560 
# 
# From -- ./inp_files/314527.got.cif
#   From: 2010.06.25/outbox.cif.g09.slc.cpg/sg2_158_cif.got.tgz:314527.got - 2010.06.27 13:26:56.
