data_PCOD8031126
_publ_section_title
;
Structure prediction by ZEFSAII (Michael W. Deem and Ramdas Pophale) SiO2 
 PCOD8031126
Probable space group: P -1
;
_chemical_formula_sum "Si O2"
_cell_formula_units_Z 16
_cell_length_a 6.702124
_cell_length_b 16.917129
_cell_length_c 9.490245
_cell_angle_alpha 83.148431
_cell_angle_beta 108.559516
_cell_angle_gamma 135.730069
_cell_volume 702.378917
_symmetry_space_group_name_H-M "P -1"
_symmetry_group_IT_number 2
_symmetry_cell_setting 'triclinic'
loop_
_space_group_symop_operation_xyz
x,y,z
-x,-y,-z
loop_
_atom_site_type_symbol
_atom_site_label
_atom_site_fract_x
_atom_site_fract_y
_atom_site_fract_z
Si Si1 0.695255 0.395792 0.307702
Si Si2 0.631376 0.839001 0.816752
Si Si3 0.307437 0.892596 0.583163
Si Si4 0.176513 0.411407 0.871451
Si Si5 0.651157 0.458657 0.561517
Si Si6 0.544786 0.214609 0.901094
Si Si7 0.229356 0.279754 0.713584
Si Si8 0.701425 0.009764 0.157328
O O1 0.461833 0.279565 0.192659
O O2 0.814888 0.509887 0.242237
O O3 0.544740 0.371992 0.429539
O O4 0.994593 0.424821 0.389692
O O5 0.486261 0.859439 0.664998
O O6 0.991824 0.936739 0.860829
O O7 0.509048 0.832024 0.942899
O O8 0.235071 0.920206 0.705203
O O9 0.999385 0.787703 0.454775
O O10 0.500000 0.000000 0.500000
O O11 0.119601 0.314989 0.793207
O O12 0.891574 0.339623 0.930740
O O13 0.500000 0.500000 0.000000
O O14 0.500000 0.500000 0.500000
O O15 0.556173 0.394248 0.701582
O O16 0.288574 0.211745 0.816170
O O17 0.477526 0.119426 0.807689
O O18 0.500000 0.000000 0.000000
#
# Coordination Sequence:
#
# PCOD8031126 Si02
#       8
#     2   2   2   2   2   2   2   2
#     4  11  25  42  69 106 145 191 247 291 372 446
#     4  12  28  47  78 108 151 199 252 308 381 448
#     4  12  28  48  79 113 149 193 254 321 380 439
#     4  12  28  45  72 110 154 200 248 303 374 454
#     4  11  22  42  68  99 145 191 234 302 364 433
#     4  12  28  48  77 107 153 198 256 308 375 454
#     4  12  26  45  75 109 148 194 253 313 375 436
#     4  12  28  51  78 109 149 199 255 310 386 452
#
# _framework density 22.779726
#
# number of rings (size 3 to 8) (size 9 to 14) (size 15 to 20)
#    0.000    0.250    3.750    4.125    8.750    6.000 
#    0.000    0.000    0.000    0.000    0.000    0.000 
#    0.000    0.000    0.000    0.000    0.000    0.000 
#
# Total GULP energy -198392.488736 kJ/mol
# GULP energy per Si atom -12399.530546 kJ/mol
# Density = 2.272788 g / cm^3
# Si number density = 22.779726 Si / 1000 Ang^3
#
#
#
# Elastic Constant Matrix: (Units=GPa)
#
#
# Indices 1 2 3 4 5 6 
#
# 1 117.4281 34.1116 37.8191 -3.7202 24.0093 7.9737
# 2 34.1116 95.5776 23.0177 -2.6221 15.5645 2.5624
# 3 37.8191 23.0177 103.8508 2.0580 15.2310 11.8513
# 4 -3.7202 -2.6221 2.0580 46.0720 1.2086 -0.6534
# 5 24.0093 15.5645 15.2310 1.2086 38.2227 -10.8249
# 6 7.9737 2.5624 11.8513 -0.6534 -10.8249 42.1416
#
#
#
# Elastic Compliance Matrix: (Units=1/GPa)
#
#
# Indices 1 2 3 4 5 6 
#
# 1 0.011479 -0.002409 -0.002441 0.001018 -0.006108 -0.002892
# 2 -0.002409 0.012184 -0.001290 0.000629 -0.003159 -0.000724
# 3 -0.002441 -0.001290 0.011782 -0.000753 -0.003668 -0.003727
# 4 0.001018 0.000629 -0.000753 0.021891 -0.001291 -0.000011
# 5 -0.006108 -0.003159 -0.003668 -0.001291 0.036082 0.011628
# 6 -0.002892 -0.000724 -0.003727 -0.000011 0.011628 0.028356
#
#
# Mechanical properties :
#
#
# Convention : Reuss Voigt Hill
#
# Bulk Modulus (GPa) = 43.16492 56.30592 49.73542
# Shear Modulus (GPa) = 35.26723 40.08111 37.67417
#
# Velocity S-wave (km/s) = 3.93897 4.19920 4.07116
# Velocity P-wave (km/s) = 6.29899 6.94854 6.63172
#
# Compressibility (1/GPa) = 0.02316696
#
# Stress axis : x y z
#
# Youngs Moduli (GPa) = 87.11360 82.07327 84.87398
#
# Poissons Ratio (x) = 0.19771 0.20715
# Poissons Ratio (y) = 0.20985 0.10947
# Poissons Ratio (z) = 0.21261 0.10585
#
# Static dielectric constant tensor:
#      x y z
#    x 4.395360 -0.054830 0.190390 
#    y -0.054830 4.300210 0.256270 
#    z 0.190390 0.256270 4.458520 
# 
# 
# High freq. dielectric constant tensor:
#      x y z
#    x 1.917150 -0.003970 0.001250 
#    y -0.003970 1.911570 -0.002430 
#    z 0.001250 -0.002430 1.897670 
# 
# From -- ./inp_files/139081.got.cif
#   From: 2010.06.25/outbox.cif.g09.slc.cpg/sg2_70_cif.got.tgz:139081.got - 2010.06.27 13:26:56.
