data_PCOD8031504
_publ_section_title
;
Structure prediction by ZEFSAII (Michael W. Deem and Ramdas Pophale) SiO2 
 PCOD8031504
Probable space group: P -1
;
_chemical_formula_sum "Si O2"
_cell_formula_units_Z 16
_cell_length_a 13.654232
_cell_length_b 10.756971
_cell_length_c 9.420455
_cell_angle_alpha 61.315866
_cell_angle_beta 118.507439
_cell_angle_gamma 69.287571
_cell_volume 698.301305
_symmetry_space_group_name_H-M "P -1"
_symmetry_group_IT_number 2
_symmetry_cell_setting 'triclinic'
loop_
_space_group_symop_operation_xyz
x,y,z
-x,-y,-z
loop_
_atom_site_type_symbol
_atom_site_label
_atom_site_fract_x
_atom_site_fract_y
_atom_site_fract_z
Si Si1 0.231198 0.861822 0.465824
Si Si2 0.832211 0.355936 0.280194
Si Si3 0.586945 0.125087 0.924736
Si Si4 0.900747 0.671539 0.459024
Si Si5 0.691027 0.268488 0.735795
Si Si6 0.713290 0.718872 0.536837
Si Si7 0.121157 0.687693 0.980120
Si Si8 0.477533 0.807392 0.838216
O O1 0.179566 0.763044 0.555323
O O2 0.266938 0.802670 0.358408
O O3 0.400765 0.760852 0.708854
O O4 0.082945 0.120766 0.246531
O O5 0.010784 0.264695 0.477979
O O6 0.830423 0.300226 0.148249
O O7 0.679470 0.615556 0.054533
O O8 0.710141 0.109459 0.929561
O O9 0.411721 0.262364 0.649084
O O10 0.549490 0.219584 0.004444
O O11 0.703569 0.873933 0.161370
O O12 0.881959 0.596841 0.629617
O O13 0.000000 0.500000 0.500000
O O14 0.500000 0.500000 0.500000
O O15 0.818260 0.264913 0.881252
O O16 0.790601 0.551997 0.810712
O O17 0.607049 0.958520 0.383939
#
# Coordination Sequence:
#
# PCOD8031504 Si02
#       8
#     2   2   2   2   2   2   2   2
#     4  12  27  45  72 101 138 178 229 286 338 402
#     4  12  25  46  72 100 135 182 231 282 337 403
#     4  11  22  44  69  98 137 179 227 275 336 402
#     4  11  24  40  70 100 134 181 224 275 337 406
#     4  12  24  43  70 102 134 177 227 280 339 395
#     4  11  25  44  69 100 143 179 223 281 339 408
#     4  12  26  45  69 102 143 177 225 282 343 402
#     4  11  24  46  71 100 136 181 230 277 340 407
#
# _framework density 22.912747
#
# number of rings (size 3 to 8) (size 9 to 14) (size 15 to 20)
#    0.000    0.500    1.250    8.625    3.500    2.500 
#    0.000    0.000    0.000    0.000    0.000    0.000 
#    0.000    0.000    0.000    0.000    0.000    0.000 
#
# Total GULP energy -198428.208003 kJ/mol
# GULP energy per Si atom -12401.763000 kJ/mol
# Density = 2.286060 g / cm^3
# Si number density = 22.912747 Si / 1000 Ang^3
#
#
#
# Elastic Constant Matrix: (Units=GPa)
#
#
# Indices 1 2 3 4 5 6 
#
# 1 103.7519 26.8274 26.7316 5.2856 -13.9796 -5.9531
# 2 26.8274 123.7992 32.7890 4.7520 -11.6455 -28.5870
# 3 26.7316 32.7890 89.1925 -5.9940 -2.1914 -9.5074
# 4 5.2856 4.7520 -5.9940 40.8874 -4.8348 2.7360
# 5 -13.9796 -11.6455 -2.1914 -4.8348 38.0029 3.0464
# 6 -5.9531 -28.5870 -9.5074 2.7360 3.0464 45.0338
#
#
#
# Elastic Compliance Matrix: (Units=1/GPa)
#
#
# Indices 1 2 3 4 5 6 
#
# 1 0.011248 -0.001325 -0.002901 -0.001315 0.003406 -0.000117
# 2 -0.001325 0.010796 -0.002996 -0.001695 0.001950 0.006017
# 3 -0.002901 -0.002996 0.013379 0.002545 -0.000926 0.000447
# 4 -0.001315 -0.001695 0.002545 0.025669 0.002606 -0.002448
# 5 0.003406 0.001950 -0.000926 0.002606 0.028490 -0.000593
# 6 -0.000117 0.006017 0.000447 -0.002448 -0.000593 0.026292
#
#
# Mechanical properties :
#
#
# Convention : Reuss Voigt Hill
#
# Bulk Modulus (GPa) = 47.67062 54.38219 51.02641
# Shear Modulus (GPa) = 36.41338 40.14451 38.27895
#
# Velocity S-wave (km/s) = 3.99083 4.19030 4.09178
# Velocity P-wave (km/s) = 6.48738 6.87004 6.68145
#
# Compressibility (1/GPa) = 0.02097728
#
# Stress axis : x y z
#
# Youngs Moduli (GPa) = 88.90707 92.62513 74.74617
#
# Poissons Ratio (x) = 0.12275 0.21684
# Poissons Ratio (y) = 0.11783 0.22397
# Poissons Ratio (z) = 0.25792 0.27754
#
# Static dielectric constant tensor:
#      x y z
#    x 9.303440 -1.864130 -1.388440 
#    y -1.864130 4.779180 0.538830 
#    z -1.388440 0.538830 5.015540 
# 
# 
# High freq. dielectric constant tensor:
#      x y z
#    x 1.908960 -0.006390 0.002680 
#    y -0.006390 1.904740 -0.002010 
#    z 0.002680 -0.002010 1.918740 
# 
# From -- ./inp_files/208316.got.cif
#   From: 2010.06.25/outbox.cif.g09.slc.cpg/sg2_105_cif.got.tgz:208316.got - 2010.06.27 13:26:56.
