data_PCOD8031047
_publ_section_title
;
Structure prediction by ZEFSAII (Michael W. Deem and Ramdas Pophale) SiO2 
 PCOD8031047
Probable space group: P -1
;
_chemical_formula_sum "Si O2"
_cell_formula_units_Z 16
_cell_length_a 9.061891
_cell_length_b 15.653231
_cell_length_c 15.248280
_cell_angle_alpha 152.260025
_cell_angle_beta 74.490771
_cell_angle_gamma 87.190699
_cell_volume 747.865326
_symmetry_space_group_name_H-M "P -1"
_symmetry_group_IT_number 2
_symmetry_cell_setting 'triclinic'
loop_
_space_group_symop_operation_xyz
x,y,z
-x,-y,-z
loop_
_atom_site_type_symbol
_atom_site_label
_atom_site_fract_x
_atom_site_fract_y
_atom_site_fract_z
Si Si1 0.567296 0.934264 0.741894
Si Si2 0.980037 0.767432 0.491187
Si Si3 0.548434 0.547273 0.442454
Si Si4 0.322397 0.053749 0.722063
Si Si5 0.383391 0.437051 0.222150
Si Si6 0.140912 0.498546 0.044231
Si Si7 0.607286 0.525853 0.157344
Si Si8 0.900407 0.235811 0.988190
O O1 0.476771 0.009467 0.727592
O O2 0.804267 0.768710 0.550880
O O3 0.514062 0.792586 0.675726
O O4 0.470195 0.190480 0.033364
O O5 0.161220 0.573518 0.349252
O O6 0.022391 0.697303 0.318581
O O7 0.923479 0.021982 0.743651
O O8 0.500000 0.500000 0.500000
O O9 0.395778 0.590371 0.431389
O O10 0.777033 0.318675 0.174109
O O11 0.112714 0.167452 0.905908
O O12 0.415607 0.804261 0.435092
O O13 0.291013 0.233820 0.818696
O O14 0.519828 0.391347 0.074208
O O15 0.273323 0.554067 0.025319
O O16 0.000000 0.500000 0.000000
O O17 0.762575 0.467215 0.156523
#
# Coordination Sequence:
#
# PCOD8031047 Si02
#       8
#     2   2   2   2   2   2   2   2
#     4  12  23  44  76  96 137 188 226 274 358 414
#     4  12  24  43  70  99 141 192 229 285 339 414
#     4  11  25  49  78 106 139 172 225 295 350 424
#     4  12  22  43  70  94 139 192 229 282 346 407
#     4  11  24  46  69 101 141 184 231 274 363 413
#     4  12  25  39  64 105 139 185 251 284 330 393
#     4  11  22  42  62  95 141 183 230 289 327 396
#     4  11  22  45  69  95 139 182 226 281 362 413
#
# _framework density 21.394224999999999
#
# number of rings (size 3 to 8) (size 9 to 14) (size 15 to 20)
#    0.000    0.500    8.750    1.875    0.000    1.500 
#    0.000    3.125    0.000    0.000    0.000    0.000 
#    0.000    0.000    0.000    0.000    0.000    0.000 
#
# Total GULP energy -198371.945299 kJ/mol
# GULP energy per Si atom -12398.246581 kJ/mol
# Density = 2.134553 g / cm^3
# Si number density = 21.394225 Si / 1000 Ang^3
#
#
#
# Elastic Constant Matrix: (Units=GPa)
#
#
# Indices 1 2 3 4 5 6 
#
# 1 131.4536 51.9112 34.8818 4.9531 -19.8162 5.0431
# 2 51.9112 136.4351 50.2910 1.9546 -5.3762 24.1609
# 3 34.8818 50.2910 109.7808 8.6333 -7.3559 14.2624
# 4 4.9531 1.9546 8.6333 32.0827 3.1966 3.1737
# 5 -19.8162 -5.3762 -7.3559 3.1966 40.8469 10.2063
# 6 5.0431 24.1609 14.2624 3.1737 10.2063 26.7769
#
#
#
# Elastic Compliance Matrix: (Units=1/GPa)
#
#
# Indices 1 2 3 4 5 6 
#
# 1 0.009871 -0.003116 -0.001349 -0.001412 0.004185 0.000244
# 2 -0.003116 0.011195 -0.003024 0.001319 0.001468 -0.008620
# 3 -0.001349 -0.003024 0.011776 -0.002620 0.002230 -0.003829
# 4 -0.001412 0.001319 -0.002620 0.032531 -0.002966 -0.002254
# 5 0.004185 0.001468 0.002230 -0.002966 0.031031 -0.014777
# 6 0.000244 -0.008620 -0.003829 -0.002254 -0.014777 0.053016
#
#
# Mechanical properties :
#
#
# Convention : Reuss Voigt Hill
#
# Bulk Modulus (GPa) = 55.98050 72.42640 64.20345
# Shear Modulus (GPa) = 29.35093 35.98032 32.66562
#
# Velocity S-wave (km/s) = 3.70795 4.10540 3.91172
# Velocity P-wave (km/s) = 6.67494 7.50993 7.10471
#
# Compressibility (1/GPa) = 0.01786336
#
# Stress axis : x y z
#
# Youngs Moduli (GPa) = 101.31104 89.32368 84.91959
#
# Poissons Ratio (x) = 0.27837 0.11454
# Poissons Ratio (y) = 0.31572 0.25679
# Poissons Ratio (z) = 0.13665 0.27011
#
# Static dielectric constant tensor:
#      x y z
#    x 4.033690 0.116150 -0.104560 
#    y 0.116150 3.658660 0.250550 
#    z -0.104560 0.250550 4.172120 
# 
# 
# High freq. dielectric constant tensor:
#      x y z
#    x 1.852910 0.010440 -0.005900 
#    y 0.010440 1.810890 0.022660 
#    z -0.005900 0.022660 1.842780 
# 
# From -- ./inp_files/505749.got.cif
#   From: 2010.06.25/outbox.cif.g09.slc.cpg/sg2_253_cif.got.tgz:505749.got - 2010.06.27 13:26:56.
