data_PCOD8031169
_publ_section_title
;
Structure prediction by ZEFSAII (Michael W. Deem and Ramdas Pophale) SiO2 
 PCOD8031169
Probable space group: P -1
;
_chemical_formula_sum "Si O2"
_cell_formula_units_Z 16
_cell_length_a 8.490317
_cell_length_b 12.910012
_cell_length_c 15.761282
_cell_angle_alpha 151.751619
_cell_angle_beta 72.744903
_cell_angle_gamma 99.793506
_cell_volume 764.800813
_symmetry_space_group_name_H-M "P -1"
_symmetry_group_IT_number 2
_symmetry_cell_setting 'triclinic'
loop_
_space_group_symop_operation_xyz
x,y,z
-x,-y,-z
loop_
_atom_site_type_symbol
_atom_site_label
_atom_site_fract_x
_atom_site_fract_y
_atom_site_fract_z
Si Si1 0.660940 0.532200 0.549611
Si Si2 0.482064 0.427912 0.215198
Si Si3 0.371243 0.178576 0.599264
Si Si4 0.087903 0.913956 0.835653
Si Si5 0.818335 0.546831 0.025086
Si Si6 0.683199 0.778951 0.051828
Si Si7 0.235349 0.006424 0.168482
Si Si8 0.688008 0.102379 0.739111
O O1 0.500000 0.500000 0.500000
O O2 0.626535 0.517681 0.643904
O O3 0.688017 0.778126 0.704578
O O4 0.827449 0.349685 0.364557
O O5 0.552986 0.645700 0.340551
O O6 0.354088 0.395935 0.138073
O O7 0.633926 0.211447 0.044330
O O8 0.500000 0.000000 0.500000
O O9 0.260805 0.062405 0.467484
O O10 0.263985 0.287936 0.771786
O O11 0.239659 0.035924 0.876404
O O12 0.945550 0.968313 0.826621
O O13 0.000000 0.000000 0.000000
O O14 0.723816 0.342261 0.882831
O O15 0.815503 0.658005 0.013033
O O16 0.000000 0.500000 0.000000
O O17 0.509835 0.888044 0.205142
O O18 0.204124 0.987189 0.259959
#
# Coordination Sequence:
#
# PCOD8031169 Si02
#       8
#     2   2   2   2   2   2   2   2
#     4  12  24  43  68 100 132 180 237 275 341 422
#     4  11  23  43  69 100 129 185 231 278 339 411
#     4  12  23  41  73  99 138 184 230 276 337 413
#     4  12  26  44  67 101 138 180 224 289 353 397
#     4  12  25  45  68 103 142 176 223 289 344 396
#     4  11  22  42  70  94 134 180 227 275 335 411
#     4  11  23  43  66  96 142 173 225 293 340 399
#     4  11  23  45  70 102 134 182 231 272 336 413
#
# _framework density 20.920480999999999
#
# number of rings (size 3 to 8) (size 9 to 14) (size 15 to 20)
#    0.000    0.500    3.750    7.125    0.000    0.500 
#    2.250    0.000    0.000    0.000    0.000    0.000 
#    0.000    0.000    0.000    0.000    0.000    0.000 
#
# Total GULP energy -198393.755229 kJ/mol
# GULP energy per Si atom -12399.609702 kJ/mol
# Density = 2.087286 g / cm^3
# Si number density = 20.920481 Si / 1000 Ang^3
#
#
#
# Elastic Constant Matrix: (Units=GPa)
#
#
# Indices 1 2 3 4 5 6 
#
# 1 117.6950 24.3144 51.2577 -6.1595 -14.0524 -23.3879
# 2 24.3144 107.7868 58.6623 -2.7274 -5.8329 -12.0481
# 3 51.2577 58.6623 159.5283 -5.5384 -1.0903 -5.3550
# 4 -6.1595 -2.7274 -5.5384 45.0127 -1.0542 14.2925
# 5 -14.0524 -5.8329 -1.0903 -1.0542 50.3054 8.6834
# 6 -23.3879 -12.0481 -5.3550 14.2925 8.6834 50.9017
#
#
#
# Elastic Compliance Matrix: (Units=1/GPa)
#
#
# Indices 1 2 3 4 5 6 
#
# 1 0.011124 -0.000047 -0.003402 -0.000252 0.002259 0.004428
# 2 -0.000047 0.011927 -0.004304 -0.000541 0.000859 0.002354
# 3 -0.003402 -0.004304 0.008911 0.000900 -0.000937 -0.001737
# 4 -0.000252 -0.000541 0.000900 0.024633 0.001671 -0.007351
# 5 0.002259 0.000859 -0.000937 0.001671 0.021130 -0.002931
# 6 0.004428 0.002354 -0.001737 -0.007351 -0.002931 0.024619
#
#
# Mechanical properties :
#
#
# Convention : Reuss Voigt Hill
#
# Bulk Modulus (GPa) = 60.77177 72.60879 66.69028
# Shear Modulus (GPa) = 40.54026 45.96234 43.25130
#
# Velocity S-wave (km/s) = 4.40685 4.69230 4.55182
# Velocity P-wave (km/s) = 7.41659 8.00870 7.71833
#
# Compressibility (1/GPa) = 0.01645501
#
# Stress axis : x y z
#
# Youngs Moduli (GPa) = 89.89538 83.84475 112.22355
#
# Poissons Ratio (x) = 0.00397 0.38173
# Poissons Ratio (y) = 0.00426 0.48306
# Poissons Ratio (z) = 0.30578 0.36091
#
# Static dielectric constant tensor:
#      x y z
#    x 3.761850 -0.149510 0.251960 
#    y -0.149510 4.042220 0.046760 
#    z 0.251960 0.046760 3.733250 
# 
# 
# High freq. dielectric constant tensor:
#      x y z
#    x 1.820300 -0.008960 0.013960 
#    y -0.008960 1.839030 0.000060 
#    z 0.013960 0.000060 1.830980 
# 
# From -- ./inp_files/188940.got.cif
#   From: 2010.06.25/outbox.cif.g09.slc.cpg/sg2_95_cif.got.tgz:188940.got - 2010.06.27 13:26:56.
