data_PCOD8031801
_publ_section_title
;
Structure prediction by ZEFSAII (Michael W. Deem and Ramdas Pophale) SiO2 
 PCOD8031801
Probable space group: P -1
;
_chemical_formula_sum "Si O2"
_cell_formula_units_Z 14
_cell_length_a 19.180609
_cell_length_b 9.715859
_cell_length_c 9.819148
_cell_angle_alpha 127.084942
_cell_angle_beta 26.607529
_cell_angle_gamma 124.786430
_cell_volume 651.263640
_symmetry_space_group_name_H-M "P -1"
_symmetry_group_IT_number 2
_symmetry_cell_setting 'triclinic'
loop_
_space_group_symop_operation_xyz
x,y,z
-x,-y,-z
loop_
_atom_site_type_symbol
_atom_site_label
_atom_site_fract_x
_atom_site_fract_y
_atom_site_fract_z
Si Si1 0.670431 0.613047 0.887777
Si Si2 0.286469 0.274779 0.422039
Si Si3 0.622297 0.217273 0.772780
Si Si4 0.599011 0.164602 0.489938
Si Si5 0.032158 0.347812 0.455823
Si Si6 0.105284 0.952137 0.662084
Si Si7 0.127004 0.589573 0.940983
O O1 0.728107 0.706546 0.703758
O O2 0.667906 0.408593 0.748232
O O3 0.784523 0.661246 0.843153
O O4 0.500113 0.668612 0.254800
O O5 0.252108 0.449681 0.664275
O O6 0.154133 0.129327 0.607990
O O7 0.455155 0.217121 0.140167
O O8 0.612931 0.101320 0.584021
O O9 0.747752 0.151467 0.615670
O O10 0.774303 0.228250 0.167072
O O11 0.500000 0.000000 0.500000
O O12 0.986177 0.164087 0.359600
O O13 0.000000 0.500000 0.500000
O O14 0.951966 0.374953 0.756953
O O15 0.000000 0.000000 0.000000
O O16 0.000000 0.500000 0.000000
#
# Coordination Sequence:
#
# PCOD8031801 Si02
#       7
#     2   2   2   2   2   2   2
#     4  11  22  46  73  99 140 187 232 283 357 428
#     4  11  23  44  70 100 135 188 232 288 351 421
#     4  11  22  48  69  98 142 188 229 282 364 425
#     4  11  25  42  74 106 137 181 245 298 346 422
#     4  12  26  44  70 103 144 184 236 294 356 422
#     4  12  29  44  68 102 146 187 234 295 359 417
#     4  12  24  45  75 107 141 187 239 294 358 423
#
# _framework density 21.496670999999999
#
# number of rings (size 3 to 8) (size 9 to 14) (size 15 to 20)
#    0.000    0.571    5.714    2.143    8.000    0.571 
#    0.000    1.429    0.000    0.000    0.000    0.000 
#    0.000    0.000    0.000    0.000    0.000    0.000 
#
# Total GULP energy -173543.618534 kJ/mol
# GULP energy per Si atom -12395.972752 kJ/mol
# Density = 2.144774 g / cm^3
# Si number density = 21.496671 Si / 1000 Ang^3
#
#
#
# Elastic Constant Matrix: (Units=GPa)
#
#
# Indices 1 2 3 4 5 6 
#
# 1 109.0538 25.6562 40.7462 -4.7605 0.4871 25.8123
# 2 25.6562 113.5546 27.4286 -21.5556 11.6654 19.4118
# 3 40.7462 27.4286 100.2405 -12.8422 10.7301 11.1214
# 4 -4.7605 -21.5556 -12.8422 39.3390 1.8711 -2.4607
# 5 0.4871 11.6654 10.7301 1.8711 37.5435 3.0661
# 6 25.8123 19.4118 11.1214 -2.4607 3.0661 40.1344
#
#
#
# Elastic Compliance Matrix: (Units=1/GPa)
#
#
# Indices 1 2 3 4 5 6 
#
# 1 0.012577 -0.001044 -0.004443 -0.001007 0.002018 -0.006569
# 2 -0.001044 0.011394 -0.001201 0.005629 -0.003144 -0.003922
# 3 -0.004443 -0.001201 0.012848 0.003183 -0.003427 0.000335
# 4 -0.001007 0.005629 0.003183 0.029562 -0.004051 -0.000835
# 5 0.002018 -0.003144 -0.003427 -0.004051 0.028873 -0.001281
# 6 -0.006569 -0.003922 0.000335 -0.000835 -0.001281 0.030992
#
#
# Mechanical properties :
#
#
# Convention : Reuss Voigt Hill
#
# Bulk Modulus (GPa) = 42.65461 56.72343 49.68902
# Shear Modulus (GPa) = 33.91306 38.67122 36.29214
#
# Velocity S-wave (km/s) = 3.97621 4.24599 4.11331
# Velocity P-wave (km/s) = 6.40045 7.10509 6.76196
#
# Compressibility (1/GPa) = 0.02344413
#
# Stress axis : x y z
#
# Youngs Moduli (GPa) = 79.50844 87.76424 77.83319
#
# Poissons Ratio (x) = 0.09163 0.34582
# Poissons Ratio (y) = 0.08301 0.09344
# Poissons Ratio (z) = 0.35326 0.10536
#
# Static dielectric constant tensor:
#      x y z
#    x 3.997140 0.155650 -0.226180 
#    y 0.155650 3.945220 0.015340 
#    z -0.226180 0.015340 4.196040 
# 
# 
# High freq. dielectric constant tensor:
#      x y z
#    x 1.843620 0.005600 -0.013400 
#    y 0.005600 1.848530 -0.003630 
#    z -0.013400 -0.003630 1.853530 
# 
# From -- ./inp_files/156749.got.cif
#   From: 2010.06.25/outbox.cif.g09.slc.cpg/sg2_79_cif.got.tgz:156749.got - 2010.06.27 13:26:56.
