data_PCOD8031363
_publ_section_title
;
Structure prediction by ZEFSAII (Michael W. Deem and Ramdas Pophale) SiO2 
 PCOD8031363
Probable space group: P -1
;
_chemical_formula_sum "Si O2"
_cell_formula_units_Z 16
_cell_length_a 8.672992
_cell_length_b 16.000104
_cell_length_c 8.982845
_cell_angle_alpha 47.238322
_cell_angle_beta 95.424223
_cell_angle_gamma 65.695868
_cell_volume 691.645138
_symmetry_space_group_name_H-M "P -1"
_symmetry_group_IT_number 2
_symmetry_cell_setting 'triclinic'
loop_
_space_group_symop_operation_xyz
x,y,z
-x,-y,-z
loop_
_atom_site_type_symbol
_atom_site_label
_atom_site_fract_x
_atom_site_fract_y
_atom_site_fract_z
Si Si1 0.105936 0.439066 0.922287
Si Si2 0.892467 0.107929 0.219791
Si Si3 0.518791 0.380918 0.990373
Si Si4 0.166614 0.188275 0.055415
Si Si5 0.167490 0.278297 0.625493
Si Si6 0.383163 0.681407 0.600312
Si Si7 0.581473 0.093736 0.744288
Si Si8 0.941258 0.902509 0.225914
O O1 0.299070 0.430671 0.940772
O O2 0.936268 0.556960 0.641805
O O3 0.177940 0.275813 0.084518
O O4 0.000000 0.500000 0.000000
O O5 0.000849 0.172901 0.103730
O O6 0.879299 0.020338 0.200240
O O7 0.652337 0.242904 0.058604
O O8 0.000000 0.000000 0.500000
O O9 0.502249 0.514403 0.750924
O O10 0.653389 0.328642 0.216625
O O11 0.385082 0.018083 0.247993
O O12 0.104198 0.286780 0.780382
O O13 0.413840 0.150172 0.787555
O O14 0.091661 0.212716 0.589150
O O15 0.497009 0.748952 0.522825
O O16 0.181613 0.796822 0.343917
O O17 0.810091 0.990614 0.959224
#
# Coordination Sequence:
#
# PCOD8031363 Si02
#       8
#     2   2   2   2   2   2   2   2
#     4  12  28  47  73 103 146 193 235 288 362 426
#     4  12  26  44  71 106 142 182 239 302 346 423
#     4  11  26  43  69 102 142 185 232 290 358 420
#     4  11  26  46  71 105 142 184 240 296 352 420
#     4  11  26  47  72 103 148 190 235 295 351 426
#     4  11  22  45  69  98 141 182 238 292 351 417
#     4  11  24  45  74 104 140 189 237 293 352 421
#     4  11  22  43  71  97 138 184 231 286 357 406
#
# _framework density 23.13325
#
# number of rings (size 3 to 8) (size 9 to 14) (size 15 to 20)
#    0.000    0.750    3.750    3.000   12.250    0.000 
#    0.000    3.125    0.000    0.000    0.000    0.000 
#    0.000    0.000    0.000    0.000    0.000    0.000 
#
# Total GULP energy -198212.916411 kJ/mol
# GULP energy per Si atom -12388.307276 kJ/mol
# Density = 2.308060 g / cm^3
# Si number density = 23.133250 Si / 1000 Ang^3
#
#
#
# Elastic Constant Matrix: (Units=GPa)
#
#
# Indices 1 2 3 4 5 6 
#
# 1 73.6673 46.4899 28.8811 -7.4916 -9.8347 -9.5253
# 2 46.4899 148.6266 49.0370 -27.6550 -17.5724 10.9966
# 3 28.8811 49.0370 75.2076 -11.6024 -3.6834 -14.8133
# 4 -7.4916 -27.6550 -11.6024 33.7629 -1.6198 -3.5562
# 5 -9.8347 -17.5724 -3.6834 -1.6198 32.7960 -4.4398
# 6 -9.5253 10.9966 -14.8133 -3.5562 -4.4398 42.5507
#
#
#
# Elastic Compliance Matrix: (Units=1/GPa)
#
#
# Indices 1 2 3 4 5 6 
#
# 1 0.018893 -0.004931 -0.002961 -0.000199 0.003331 0.004804
# 2 -0.004931 0.012364 -0.006020 0.006588 0.004062 -0.005421
# 3 -0.002961 -0.006020 0.020253 0.002190 -0.000640 0.008060
# 4 -0.000199 0.006588 0.002190 0.036285 0.005869 0.002660
# 5 0.003331 0.004062 -0.000640 0.005869 0.034365 0.003549
# 6 0.004804 -0.005421 0.008060 0.002660 0.003549 0.029376
#
#
# Mechanical properties :
#
#
# Convention : Reuss Voigt Hill
#
# Bulk Modulus (GPa) = 42.22167 60.70195 51.46181
# Shear Modulus (GPa) = 26.70109 33.36148 30.03128
#
# Velocity S-wave (km/s) = 3.40108 3.80168 3.60695
# Velocity P-wave (km/s) = 5.80640 6.75036 6.29610
#
# Compressibility (1/GPa) = 0.02368452
#
# Stress axis : x y z
#
# Youngs Moduli (GPa) = 52.92914 80.87816 49.37470
#
# Poissons Ratio (x) = 0.39883 0.14622
# Poissons Ratio (y) = 0.26100 0.29726
# Poissons Ratio (z) = 0.15675 0.48693
#
# Static dielectric constant tensor:
#      x y z
#    x 4.041190 -0.198080 -0.519130 
#    y -0.198080 3.570040 -1.107720 
#    z -0.519130 -1.107720 3.710040 
# 
# 
# High freq. dielectric constant tensor:
#      x y z
#    x 1.910850 0.006260 -0.015230 
#    y 0.006260 1.915240 -0.025020 
#    z -0.015230 -0.025020 1.920470 
# 
# From -- ./inp_files/205636.got.cif
#   From: 2010.06.25/outbox.cif.g09.slc.cpg/sg2_103_cif.got.tgz:205636.got - 2010.06.27 13:26:56.
