data_PCOD8031035
_publ_section_title
;
Structure prediction by ZEFSAII (Michael W. Deem and Ramdas Pophale) SiO2 
 PCOD8031035
Probable space group: P -1
;
_chemical_formula_sum "Si O2"
_cell_formula_units_Z 16
_cell_length_a 15.006783
_cell_length_b 9.084484
_cell_length_c 9.129528
_cell_angle_alpha 75.591283
_cell_angle_beta 93.920606
_cell_angle_gamma 141.635855
_cell_volume 731.366775
_symmetry_space_group_name_H-M "P -1"
_symmetry_group_IT_number 2
_symmetry_cell_setting 'triclinic'
loop_
_space_group_symop_operation_xyz
x,y,z
-x,-y,-z
loop_
_atom_site_type_symbol
_atom_site_label
_atom_site_fract_x
_atom_site_fract_y
_atom_site_fract_z
Si Si1 0.910910 0.715971 0.378217
Si Si2 0.509008 0.438957 0.360434
Si Si3 0.393038 0.747791 0.638030
Si Si4 0.963139 0.063667 0.115443
Si Si5 0.758383 0.839849 0.743733
Si Si6 0.807773 0.577183 0.720555
Si Si7 0.425042 0.984467 0.125699
Si Si8 0.309480 0.148611 0.963120
O O1 0.779218 0.437962 0.356530
O O2 0.909887 0.712828 0.554678
O O3 0.891450 0.862459 0.283735
O O4 0.072128 0.874022 0.306235
O O5 0.500000 0.500000 0.500000
O O6 0.599740 0.408126 0.395472
O O7 0.341688 0.176261 0.354347
O O8 0.575464 0.643914 0.197085
O O9 0.500000 0.000000 0.500000
O O10 0.444448 0.802987 0.797862
O O11 0.105234 0.334403 0.138790
O O12 0.855573 0.057626 0.067832
O O13 0.000000 0.000000 0.000000
O O14 0.735073 0.644856 0.712960
O O15 0.690832 0.739227 0.924884
O O16 0.691025 0.287346 0.748942
O O17 0.500000 0.000000 0.000000
O O18 0.342268 0.022435 0.050338
#
# Coordination Sequence:
#
# PCOD8031035 Si02
#       8
#     2   2   2   2   2   2   2   2
#     4  11  23  43  73 104 139 181 234 289 354 418
#     4  12  27  43  72 103 140 182 245 293 342 423
#     4  12  26  48  71 103 139 185 234 287 365 421
#     4  11  22  41  74 104 136 180 238 293 349 418
#     4  11  23  43  73 102 136 184 240 291 342 414
#     4  11  24  44  69 104 144 185 233 290 358 417
#     4  12  29  45  68 100 150 188 232 295 358 420
#     4  12  25  45  70 105 136 191 236 289 350 418
#
# _framework density 21.876849
#
# number of rings (size 3 to 8) (size 9 to 14) (size 15 to 20)
#    0.000    0.500    6.250    3.375    7.000    0.500 
#    0.000    2.500    0.000    0.000    0.000    0.000 
#    0.000    0.000    0.000    0.000    0.000    0.000 
#
# Total GULP energy -198303.158683 kJ/mol
# GULP energy per Si atom -12393.947418 kJ/mol
# Density = 2.182706 g / cm^3
# Si number density = 21.876849 Si / 1000 Ang^3
#
#
#
# Elastic Constant Matrix: (Units=GPa)
#
#
# Indices 1 2 3 4 5 6 
#
# 1 93.0060 31.9390 39.0847 2.3523 -7.0831 20.3546
# 2 31.9390 115.6121 41.9319 4.9032 -6.2545 18.7397
# 3 39.0847 41.9319 143.6367 9.7051 -21.8616 4.4170
# 4 2.3523 4.9032 9.7051 44.9030 -1.4029 7.3666
# 5 -7.0831 -6.2545 -21.8616 -1.4029 31.8583 6.2805
# 6 20.3546 18.7397 4.4170 7.3666 6.2805 37.0616
#
#
#
# Elastic Compliance Matrix: (Units=1/GPa)
#
#
# Indices 1 2 3 4 5 6 
#
# 1 0.014291 -0.001628 -0.002919 0.001339 0.002362 -0.007344
# 2 -0.001628 0.010744 -0.002422 0.000197 0.000972 -0.004454
# 3 -0.002919 -0.002422 0.009288 -0.001634 0.004939 0.001208
# 4 0.001339 0.000197 -0.001634 0.023482 0.001340 -0.005534
# 5 0.002362 0.000972 0.004939 0.001340 0.037321 -0.008968
# 6 -0.007344 -0.004454 0.001208 -0.005534 -0.008968 0.035743
#
#
# Mechanical properties :
#
#
# Convention : Reuss Voigt Hill
#
# Bulk Modulus (GPa) = 49.05329 64.24066 56.64698
# Shear Modulus (GPa) = 32.98133 38.71785 35.84959
#
# Velocity S-wave (km/s) = 3.88698 4.21147 4.05248
# Velocity P-wave (km/s) = 6.52809 7.28540 6.91712
#
# Compressibility (1/GPa) = 0.02038599
#
# Stress axis : x y z
#
# Youngs Moduli (GPa) = 69.97516 93.07610 107.66379
#
# Poissons Ratio (x) = 0.15153 0.31422
# Poissons Ratio (y) = 0.11392 0.26075
# Poissons Ratio (z) = 0.20422 0.22542
#
# Static dielectric constant tensor:
#      x y z
#    x 4.160020 0.281290 0.037040 
#    y 0.281290 4.483110 0.233280 
#    z 0.037040 0.233280 4.079680 
# 
# 
# High freq. dielectric constant tensor:
#      x y z
#    x 1.850610 0.029420 -0.000660 
#    y 0.029420 1.854810 0.014280 
#    z -0.000660 0.014280 1.877020 
# 
# From -- ./inp_files/298263.got.cif
#   From: 2010.06.25/outbox.cif.g09.slc.cpg/sg2_150_cif.got.tgz:298263.got - 2010.06.27 13:26:56.
