data_PCOD8031675
_publ_section_title
;
Structure prediction by ZEFSAII (Michael W. Deem and Ramdas Pophale) SiO2 
 PCOD8031675
Probable space group: P -1
;
_chemical_formula_sum "Si O2"
_cell_formula_units_Z 16
_cell_length_a 9.262101
_cell_length_b 11.971895
_cell_length_c 11.611936
_cell_angle_alpha 93.312328
_cell_angle_beta 124.211843
_cell_angle_gamma 50.381236
_cell_volume 723.038184
_symmetry_space_group_name_H-M "P -1"
_symmetry_group_IT_number 2
_symmetry_cell_setting 'triclinic'
loop_
_space_group_symop_operation_xyz
x,y,z
-x,-y,-z
loop_
_atom_site_type_symbol
_atom_site_label
_atom_site_fract_x
_atom_site_fract_y
_atom_site_fract_z
Si Si1 0.882360 0.308747 0.386368
Si Si2 0.673839 0.504026 0.908991
Si Si3 0.570572 0.993468 0.403288
Si Si4 0.856905 0.521265 0.225233
Si Si5 0.896092 0.187089 0.866498
Si Si6 0.269524 0.683860 0.443055
Si Si7 0.343645 0.330991 0.294006
Si Si8 0.576584 0.146970 0.822386
O O1 0.630455 0.372813 0.221922
O O2 0.924683 0.412546 0.359271
O O3 0.872444 0.318587 0.521017
O O4 0.128899 0.115010 0.461261
O O5 0.832056 0.321778 0.927399
O O6 0.743015 0.574617 0.860297
O O7 0.750632 0.493919 0.072839
O O8 0.536031 0.900798 0.304390
O O9 0.500000 0.000000 0.500000
O O10 0.393920 0.175972 0.285819
O O11 0.642247 0.711790 0.177287
O O12 0.117678 0.457923 0.293997
O O13 0.913148 0.211667 0.741461
O O14 0.665931 0.206041 0.782724
O O15 0.174461 0.007716 0.005044
O O16 0.500000 0.500000 0.500000
O O17 0.387599 0.744483 0.546208
#
# Coordination Sequence:
#
# PCOD8031675 Si02
#       8
#     2   2   2   2   2   2   2   2
#     4  11  25  41  74 100 135 186 233 279 343 417
#     4  11  24  45  71 100 138 184 227 281 351 411
#     4  12  26  46  67 104 143 177 227 292 341 406
#     4  12  24  44  70 105 137 181 235 286 338 419
#     4  11  23  45  70 101 141 182 226 286 347 409
#     4  11  22  45  71 102 138 181 228 283 339 411
#     4  11  25  44  71 100 141 186 223 284 356 401
#     4  11  27  41  71 105 134 183 234 286 345 402
#
# _framework density 22.128844999999998
#
# number of rings (size 3 to 8) (size 9 to 14) (size 15 to 20)
#    0.000    0.750    5.000    2.250    1.750    5.500 
#    0.000    1.875    0.000    0.000    0.000    0.000 
#    0.000    0.000    0.000    0.000    0.000    0.000 
#
# Total GULP energy -198413.277676 kJ/mol
# GULP energy per Si atom -12400.829855 kJ/mol
# Density = 2.207848 g / cm^3
# Si number density = 22.128845 Si / 1000 Ang^3
#
#
#
# Elastic Constant Matrix: (Units=GPa)
#
#
# Indices 1 2 3 4 5 6 
#
# 1 124.0943 52.3893 28.9121 -12.2489 -23.2881 -15.0922
# 2 52.3893 149.6226 36.7473 -6.7597 -7.5467 -5.4729
# 3 28.9121 36.7473 69.3395 0.9153 -17.8133 -7.6470
# 4 -12.2489 -6.7597 0.9153 43.8196 -4.4755 3.8121
# 5 -23.2881 -7.5467 -17.8133 -4.4755 38.7592 -4.1104
# 6 -15.0922 -5.4729 -7.6470 3.8121 -4.1104 43.2504
#
#
#
# Elastic Compliance Matrix: (Units=1/GPa)
#
#
# Indices 1 2 3 4 5 6 
#
# 1 0.011696 -0.003211 -0.001077 0.003144 0.006677 0.003842
# 2 -0.003211 0.008640 -0.003886 0.000385 -0.002089 -0.000947
# 3 -0.001077 -0.003886 0.019295 -0.000806 0.007726 0.003349
# 4 0.003144 0.000385 -0.000806 0.024280 0.004320 -0.000726
# 5 0.006677 -0.002089 0.007726 0.004320 0.034123 0.006294
# 6 0.003842 -0.000947 0.003349 -0.000726 0.006294 0.025596
#
#
# Mechanical properties :
#
#
# Convention : Reuss Voigt Hill
#
# Bulk Modulus (GPa) = 42.95196 64.35041 53.65118
# Shear Modulus (GPa) = 33.84330 40.16634 37.00482
#
# Velocity S-wave (km/s) = 3.91496 4.26504 4.09374
# Velocity P-wave (km/s) = 6.31570 7.30733 6.82953
#
# Compressibility (1/GPa) = 0.02328183
#
# Stress axis : x y z
#
# Youngs Moduli (GPa) = 85.50081 115.74525 51.82634
#
# Poissons Ratio (x) = 0.37169 0.05583
# Poissons Ratio (y) = 0.27456 0.20139
# Poissons Ratio (z) = 0.09211 0.44978
#
# Static dielectric constant tensor:
#      x y z
#    x 4.244450 -0.025540 -0.238340 
#    y -0.025540 4.085610 -0.225220 
#    z -0.238340 -0.225220 3.579600 
# 
# 
# High freq. dielectric constant tensor:
#      x y z
#    x 1.883070 -0.005330 -0.003840 
#    y -0.005330 1.870970 -0.008860 
#    z -0.003840 -0.008860 1.875890 
# 
# From -- ./inp_files/392624.got.cif
#   From: 2010.06.25/outbox.cif.g09.slc.cpg/sg2_197_cif.got.tgz:392624.got - 2010.06.27 13:26:56.
