data_PCOD8031041
_publ_section_title
;
Structure prediction by ZEFSAII (Michael W. Deem and Ramdas Pophale) SiO2 
 PCOD8031041
Probable space group: P -1
;
_chemical_formula_sum "Si O2"
_cell_formula_units_Z 12
_cell_length_a 5.456079
_cell_length_b 9.684562
_cell_length_c 19.069960
_cell_angle_alpha 38.977609
_cell_angle_beta 84.837330
_cell_angle_gamma 64.535932
_cell_volume 516.625385
_symmetry_space_group_name_H-M "P -1"
_symmetry_group_IT_number 2
_symmetry_cell_setting 'triclinic'
loop_
_space_group_symop_operation_xyz
x,y,z
-x,-y,-z
loop_
_atom_site_type_symbol
_atom_site_label
_atom_site_fract_x
_atom_site_fract_y
_atom_site_fract_z
Si Si1 0.224103 0.643593 0.898753
Si Si2 0.691310 0.534497 0.425564
Si Si3 0.215850 0.445817 0.229292
Si Si4 0.155848 0.224011 0.013728
Si Si5 0.412362 0.388448 0.760684
Si Si6 0.283702 0.054555 0.655699
O O1 0.931902 0.778766 0.902418
O O2 0.178507 0.880231 0.760165
O O3 0.500000 0.500000 0.000000
O O4 0.265020 0.421360 0.930953
O O5 0.500000 0.500000 0.500000
O O6 0.564777 0.560635 0.341385
O O7 0.665568 0.805203 0.336784
O O8 0.035719 0.277017 0.521316
O O9 0.429737 0.487414 0.254901
O O10 0.933152 0.483004 0.261594
O O11 0.408718 0.139063 0.318574
O O12 0.116567 0.648764 0.085595
O O13 0.413962 0.925095 0.101686
#
# Coordination Sequence:
#
# PCOD8031041 Si02
#       6
#     2   2   2   2   2   2
#     4  11  22  41  77 110 142 189 250 305 354 435
#     4  11  28  50  79 101 143 197 255 315 352 445
#     4  12  28  47  74 113 155 195 235 311 373 447
#     4  11  25  43  73 112 151 194 240 302 369 440
#     4  12  29  48  75 111 153 196 245 298 380 440
#     4  11  26  48  76 108 143 193 254 304 369 430
#
# _framework density 23.22766
#
# number of rings (size 3 to 8) (size 9 to 14) (size 15 to 20)
#    0.000    0.667    1.667    4.000   16.333    1.333 
#    0.000    0.000    0.000    0.000    0.000    0.000 
#    0.000    0.000    0.000    0.000    0.000    0.000 
#
# Total GULP energy -148835.933736 kJ/mol
# GULP energy per Si atom -12402.994478 kJ/mol
# Density = 2.317479 g / cm^3
# Si number density = 23.227660 Si / 1000 Ang^3
#
#
#
# Elastic Constant Matrix: (Units=GPa)
#
#
# Indices 1 2 3 4 5 6 
#
# 1 133.0064 58.6384 46.5824 -7.9669 0.0218 5.4262
# 2 58.6384 119.6568 72.5392 -13.2685 13.3890 -0.7293
# 3 46.5824 72.5392 116.5529 -15.1473 3.7614 8.9725
# 4 -7.9669 -13.2685 -15.1473 45.4146 -0.4780 9.8982
# 5 0.0218 13.3890 3.7614 -0.4780 41.0112 0.7898
# 6 5.4262 -0.7293 8.9725 9.8982 0.7898 46.8842
#
#
#
# Elastic Compliance Matrix: (Units=1/GPa)
#
#
# Indices 1 2 3 4 5 6 
#
# 1 0.009881 -0.004229 -0.001240 0.000333 0.001514 -0.001068
# 2 -0.004229 0.015995 -0.008207 0.000657 -0.004503 0.002246
# 3 -0.001240 -0.008207 0.014810 0.003101 0.001425 -0.003497
# 4 0.000333 0.000657 0.003101 0.024569 -0.000101 -0.005807
# 5 0.001514 -0.004503 0.001425 -0.000101 0.025739 -0.000930
# 6 -0.001068 0.002246 -0.003497 -0.005807 -0.000930 0.023399
#
#
# Mechanical properties :
#
#
# Convention : Reuss Voigt Hill
#
# Bulk Modulus (GPa) = 75.00354 80.52623 77.76489
# Shear Modulus (GPa) = 34.20234 39.42573 36.81404
#
# Velocity S-wave (km/s) = 3.84146 4.12437 3.98543
# Velocity P-wave (km/s) = 7.21363 7.57787 7.39799
#
# Compressibility (1/GPa) = 0.01333270
#
# Stress axis : x y z
#
# Youngs Moduli (GPa) = 101.20919 62.51776 67.52366
#
# Poissons Ratio (x) = 0.26439 0.08375
# Poissons Ratio (y) = 0.42802 0.55417
# Poissons Ratio (z) = 0.12553 0.51309
#
# Static dielectric constant tensor:
#      x y z
#    x 4.333810 -0.008190 0.036930 
#    y -0.008190 4.555750 -0.018430 
#    z 0.036930 -0.018430 4.236770 
# 
# 
# High freq. dielectric constant tensor:
#      x y z
#    x 1.925630 0.001860 0.007300 
#    y 0.001860 1.931410 -0.004060 
#    z 0.007300 -0.004060 1.922350 
# 
# From -- ./inp_files/24386.got.cif
#   From: 2010.06.25/outbox.cif.g09.slc.cpg/sg2_13_cif.got.tgz:24386.got - 2010.06.27 13:26:56.
