data_PCOD8031749
_publ_section_title
;
Structure prediction by ZEFSAII (Michael W. Deem and Ramdas Pophale) SiO2 
 PCOD8031749
Probable space group: P -1
;
_chemical_formula_sum "Si O2"
_cell_formula_units_Z 16
_cell_length_a 16.170996
_cell_length_b 11.737559
_cell_length_c 5.260982
_cell_angle_alpha 79.185623
_cell_angle_beta 124.127420
_cell_angle_gamma 132.115054
_cell_volume 583.538852
_symmetry_space_group_name_H-M "P -1"
_symmetry_group_IT_number 2
_symmetry_cell_setting 'triclinic'
loop_
_space_group_symop_operation_xyz
x,y,z
-x,-y,-z
loop_
_atom_site_type_symbol
_atom_site_label
_atom_site_fract_x
_atom_site_fract_y
_atom_site_fract_z
Si Si1 0.810412 0.322600 0.854742
Si Si2 0.839518 0.726527 0.177589
Si Si3 0.617525 0.265246 0.183310
Si Si4 0.058645 0.355289 0.200831
Si Si5 0.113868 0.940149 0.312738
Si Si6 0.369133 0.579944 0.349973
Si Si7 0.322479 0.973260 0.957925
Si Si8 0.325181 0.200548 0.208428
O O1 0.737318 0.267346 0.469421
O O2 0.843958 0.489492 0.894686
O O3 0.951603 0.365393 0.113475
O O4 0.695977 0.171882 0.903780
O O5 0.845856 0.621104 0.421516
O O6 0.995845 0.899339 0.310979
O O7 0.755988 0.614403 0.826249
O O8 0.748708 0.761574 0.115723
O O9 0.621012 0.368930 0.362780
O O10 0.646262 0.329326 0.920870
O O11 0.464026 0.085208 0.996591
O O12 0.974544 0.181366 0.020214
O O13 0.189659 0.892540 0.589586
O O14 0.228798 0.123160 0.331459
O O15 0.517633 0.637512 0.520061
O O16 0.322036 0.070397 0.136604
#
# Coordination Sequence:
#
# PCOD8031749 Si02
#       8
#     2   2   2   2   2   2   2   2
#     4  11  22  46  67  99 142 186 233 296 355 421
#     4  12  25  45  71 102 141 188 234 299 357 425
#     4  11  24  46  76 104 145 188 242 294 362 425
#     4  11  25  42  68 100 140 181 240 287 362 426
#     4  12  23  44  68 103 139 184 239 293 355 430
#     4  11  25  49  73 110 142 186 245 297 357 432
#     4  11  24  45  68 103 140 186 236 295 357 430
#     4  11  25  47  70 100 143 185 236 297 359 425
#
# _framework density 27.418907999999998
#
# number of rings (size 3 to 8) (size 9 to 14) (size 15 to 20)
#    0.000    0.750    5.000    1.875    0.000    4.500 
#    0.000    4.375    0.000    0.000    0.000    0.000 
#    0.000    0.000    0.000    0.000    0.000    0.000 
#
# Total GULP energy -198241.637848 kJ/mol
# GULP energy per Si atom -12390.102366 kJ/mol
# Density = 2.735650 g / cm^3
# Si number density = 27.418908 Si / 1000 Ang^3
#
#
#
# Elastic Constant Matrix: (Units=GPa)
#
#
# Indices 1 2 3 4 5 6 
#
# 1 50.8747 23.1751 27.7879 -3.5685 15.9632 6.7276
# 2 23.1751 99.6768 18.9729 2.4050 17.5985 31.3649
# 3 27.7879 18.9729 129.0381 6.2825 40.1849 3.6914
# 4 -3.5685 2.4050 6.2825 44.7284 1.1854 9.5123
# 5 15.9632 17.5985 40.1849 1.1854 43.7094 1.4963
# 6 6.7276 31.3649 3.6914 9.5123 1.4963 41.8976
#
#
#
# Elastic Compliance Matrix: (Units=1/GPa)
#
#
# Indices 1 2 3 4 5 6 
#
# 1 0.025224 -0.004119 -0.003612 0.003110 -0.004277 -0.001202
# 2 -0.004119 0.015092 0.000331 0.001227 -0.004540 -0.010782
# 3 -0.003612 0.000331 0.011456 -0.001676 -0.009302 0.000036
# 4 0.003110 0.001227 -0.001676 0.024224 -0.000515 -0.006751
# 5 -0.004277 -0.004540 -0.009302 -0.000515 0.034705 0.003782
# 6 -0.001202 -0.010782 0.000036 -0.006751 0.003782 0.033527
#
#
# Mechanical properties :
#
#
# Convention : Reuss Voigt Hill
#
# Bulk Modulus (GPa) = 27.04716 46.60683 36.82700
# Shear Modulus (GPa) = 29.17963 40.04398 34.61180
#
# Velocity S-wave (km/s) = 3.26577 3.82573 3.55679
# Velocity P-wave (km/s) = 4.90980 6.04565 5.50709
#
# Compressibility (1/GPa) = 0.03697246
#
# Stress axis : x y z
#
# Youngs Moduli (GPa) = 39.64464 66.26062 87.28812
#
# Poissons Ratio (x) = 0.27293 0.31524
# Poissons Ratio (y) = 0.16330 -0.02886
# Poissons Ratio (z) = 0.14318 -0.02191
#
# Static dielectric constant tensor:
#      x y z
#    x 5.040430 0.373470 0.739400 
#    y 0.373470 5.317850 0.278650 
#    z 0.739400 0.278650 5.327100 
# 
# 
# High freq. dielectric constant tensor:
#      x y z
#    x 2.098180 0.017480 0.031110 
#    y 0.017480 2.117920 0.013760 
#    z 0.031110 0.013760 2.111200 
# 
# From -- ./inp_files/119392.got.cif
#   From: 2010.06.25/outbox.cif.g09.slc.cpg/sg2_60_cif.got.tgz:119392.got - 2010.06.27 13:26:56.
