data_PCOD8031457
_publ_section_title
;
Structure prediction by ZEFSAII (Michael W. Deem and Ramdas Pophale) SiO2 
 PCOD8031457
Probable space group: P -1
;
_chemical_formula_sum "Si O2"
_cell_formula_units_Z 12
_cell_length_a 11.927376
_cell_length_b 14.975528
_cell_length_c 6.712741
_cell_angle_alpha 73.819961
_cell_angle_beta 96.143784
_cell_angle_gamma 153.078964
_cell_volume 493.018042
_symmetry_space_group_name_H-M "P -1"
_symmetry_group_IT_number 2
_symmetry_cell_setting 'triclinic'
loop_
_space_group_symop_operation_xyz
x,y,z
-x,-y,-z
loop_
_atom_site_type_symbol
_atom_site_label
_atom_site_fract_x
_atom_site_fract_y
_atom_site_fract_z
Si Si1 0.066150 0.691302 0.904756
Si Si2 0.202882 0.361526 0.891982
Si Si3 0.291225 0.064268 0.141584
Si Si4 0.265690 0.675875 0.197585
Si Si5 0.485681 0.093433 0.519478
Si Si6 0.785863 0.808153 0.740002
O O1 0.984484 0.570025 0.770284
O O2 0.237861 0.907463 0.736476
O O3 0.820416 0.554856 0.056083
O O4 0.243138 0.760479 0.041025
O O5 0.498717 0.577911 0.727484
O O6 0.134454 0.228249 0.117345
O O7 0.990421 0.196431 0.776583
O O8 0.238155 0.133181 0.126976
O O9 0.449507 0.139481 0.310015
O O10 0.471152 0.182097 0.909475
O O11 0.269699 0.690563 0.430150
O O12 0.500000 0.000000 0.500000
O O13 0.000000 0.000000 0.500000
#
# Coordination Sequence:
#
# PCOD8031457 Si02
#       6
#     2   2   2   2   2   2
#     4  11  22  44  67 101 139 184 226 280 352 413
#     4  11  24  46  74  99 141 186 232 292 352 412
#     4  12  24  45  70 101 141 181 227 292 349 414
#     4  11  24  42  69 100 146 178 221 286 347 416
#     4  12  24  40  67 104 140 183 227 275 346 425
#     4  11  26  47  71 105 134 182 245 292 349 410
#
# _framework density 24.339880000000001
#
# number of rings (size 3 to 8) (size 9 to 14) (size 15 to 20)
#    0.000    0.667    5.000    3.000    0.000    2.667 
#    0.000    0.000    0.000    0.000    0.000    0.000 
#    0.000    0.000    0.000    0.000    0.000    0.000 
#
# Total GULP energy -148791.874419 kJ/mol
# GULP energy per Si atom -12399.322868 kJ/mol
# Density = 2.428448 g / cm^3
# Si number density = 24.339880 Si / 1000 Ang^3
#
#
#
# Elastic Constant Matrix: (Units=GPa)
#
#
# Indices 1 2 3 4 5 6 
#
# 1 130.7573 23.1621 28.1245 14.0848 -12.0265 -8.7087
# 2 23.1621 112.8432 28.2170 32.9463 11.7904 -1.5564
# 3 28.1245 28.2170 69.4881 16.8452 8.9516 -2.4737
# 4 14.0848 32.9463 16.8452 56.8846 -4.4949 -3.8042
# 5 -12.0265 11.7904 8.9516 -4.4949 24.6125 0.6904
# 6 -8.7087 -1.5564 -2.4737 -3.8042 0.6904 35.0929
#
#
#
# Elastic Compliance Matrix: (Units=1/GPa)
#
#
# Indices 1 2 3 4 5 6 
#
# 1 0.009577 -0.001825 -0.004127 0.000599 0.007110 0.001930
# 2 -0.001825 0.012445 -0.001706 -0.006883 -0.007472 -0.000620
# 3 -0.004127 -0.001706 0.018938 -0.004303 -0.008872 -0.000057
# 4 0.000599 -0.006883 -0.004303 0.023562 0.009404 0.001909
# 5 0.007110 -0.007472 -0.008872 0.009404 0.052605 0.000792
# 6 0.001930 -0.000620 -0.000057 0.001909 0.000792 0.029135
#
#
# Mechanical properties :
#
#
# Convention : Reuss Voigt Hill
#
# Bulk Modulus (GPa) = 38.99644 52.45510 45.72577
# Shear Modulus (GPa) = 29.39001 38.89032 34.14016
#
# Velocity S-wave (km/s) = 3.47866 4.00159 3.74925
# Velocity P-wave (km/s) = 5.67372 6.55348 6.12941
#
# Compressibility (1/GPa) = 0.02564337
#
# Stress axis : x y z
#
# Youngs Moduli (GPa) = 104.41973 80.35609 52.80340
#
# Poissons Ratio (x) = 0.14662 0.21795
# Poissons Ratio (y) = 0.19053 0.09008
# Poissons Ratio (z) = 0.43099 0.13708
#
# Static dielectric constant tensor:
#      x y z
#    x 4.656420 -0.061870 -0.169920 
#    y -0.061870 4.675210 -0.086280 
#    z -0.169920 -0.086280 4.158560 
# 
# 
# High freq. dielectric constant tensor:
#      x y z
#    x 1.976220 0.000460 -0.012470 
#    y 0.000460 1.991030 -0.001720 
#    z -0.012470 -0.001720 1.940150 
# 
# From -- ./inp_files/77635.got.cif
#   From: 2010.06.25/outbox.cif.g09.slc.cpg/sg2_39_cif.got.tgz:77635.got - 2010.06.27 13:26:56.
