data_PCOD8031031
_publ_section_title
;
Structure prediction by ZEFSAII (Michael W. Deem and Ramdas Pophale) SiO2 
 PCOD8031031
Probable space group: P -1
;
_chemical_formula_sum "Si O2"
_cell_formula_units_Z 16
_cell_length_a 11.430056
_cell_length_b 9.778457
_cell_length_c 17.646724
_cell_angle_alpha 139.982946
_cell_angle_beta 125.950025
_cell_angle_gamma 85.517094
_cell_volume 719.252059
_symmetry_space_group_name_H-M "P -1"
_symmetry_group_IT_number 2
_symmetry_cell_setting 'triclinic'
loop_
_space_group_symop_operation_xyz
x,y,z
-x,-y,-z
loop_
_atom_site_type_symbol
_atom_site_label
_atom_site_fract_x
_atom_site_fract_y
_atom_site_fract_z
Si Si1 0.428788 0.637982 0.991571
Si Si2 0.234037 0.182057 0.463984
Si Si3 0.472981 0.219566 0.078186
Si Si4 0.507299 0.681015 0.512204
Si Si5 0.290433 0.775234 0.560908
Si Si6 0.021933 0.895400 0.778160
Si Si7 0.027493 0.662877 0.283231
Si Si8 0.898693 0.729753 0.902260
O O1 0.599163 0.993875 0.229230
O O2 0.500000 0.500000 0.000000
O O3 0.438419 0.601770 0.891132
O O4 0.196862 0.465299 0.851195
O O5 0.411172 0.529315 0.705679
O O6 0.288497 0.129471 0.380662
O O7 0.034047 0.110795 0.333333
O O8 0.176414 0.951635 0.407386
O O9 0.500000 0.000000 0.000000
O O10 0.230546 0.985178 0.896217
O O11 0.500000 0.500000 0.500000
O O12 0.476523 0.880249 0.623323
O O13 0.340172 0.496714 0.303222
O O14 0.157533 0.435214 0.393283
O O15 0.141297 0.776399 0.456647
O O16 0.053840 0.150391 0.943471
O O17 0.006077 0.403582 0.131702
O O18 0.000000 0.000000 0.000000
#
# Coordination Sequence:
#
# PCOD8031031 Si02
#       8
#     2   2   2   2   2   2   2   2
#     4  12  28  49  70 100 145 194 238 283 352 429
#     4  12  26  45  69 107 143 184 234 297 354 414
#     4  12  28  45  72 102 144 187 240 297 338 424
#     4  11  22  41  73 105 143 178 229 292 359 422
#     4  11  25  43  75 103 135 191 235 290 357 418
#     4  12  24  44  70 108 136 181 238 293 352 420
#     4  11  27  46  71 105 144 188 235 295 355 419
#     4  11  22  42  72 104 142 180 231 293 354 424
#
# _framework density 22.245331
#
# number of rings (size 3 to 8) (size 9 to 14) (size 15 to 20)
#    0.000    0.500    5.000    3.000    3.500    8.500 
#    2.250    0.000    0.000    0.000    0.000    0.000 
#    0.000    0.000    0.000    0.000    0.000    0.000 
#
# Total GULP energy -198332.330594 kJ/mol
# GULP energy per Si atom -12395.770662 kJ/mol
# Density = 2.219470 g / cm^3
# Si number density = 22.245331 Si / 1000 Ang^3
#
#
#
# Elastic Constant Matrix: (Units=GPa)
#
#
# Indices 1 2 3 4 5 6 
#
# 1 110.4509 22.4602 39.2780 -6.8022 1.1132 -13.0356
# 2 22.4602 106.9799 22.9535 -15.0927 -3.4108 -6.1178
# 3 39.2780 22.9535 88.3345 -13.6533 -0.0025 -11.7242
# 4 -6.8022 -15.0927 -13.6533 38.4392 -4.4814 4.7950
# 5 1.1132 -3.4108 -0.0025 -4.4814 25.1521 -3.7356
# 6 -13.0356 -6.1178 -11.7242 4.7950 -3.7356 39.2805
#
#
#
# Elastic Compliance Matrix: (Units=1/GPa)
#
#
# Indices 1 2 3 4 5 6 
#
# 1 0.011117 -0.001346 -0.004371 -0.000437 -0.000428 0.002188
# 2 -0.001346 0.010559 -0.001527 0.003558 0.002202 0.000517
# 3 -0.004371 -0.001527 0.014524 0.003613 0.000973 0.002298
# 4 -0.000437 0.003558 0.003613 0.029459 0.005516 -0.001584
# 5 -0.000428 0.002202 0.000973 0.005516 0.041619 0.003776
# 6 0.002188 0.000517 0.002298 -0.001584 0.003776 0.027503
#
#
# Mechanical properties :
#
#
# Convention : Reuss Voigt Hill
#
# Bulk Modulus (GPa) = 46.05342 52.79430 49.42386
# Shear Modulus (GPa) = 31.94737 35.31259 33.62998
#
# Velocity S-wave (km/s) = 3.79375 3.98856 3.89238
# Velocity P-wave (km/s) = 6.31962 6.70789 6.51664
#
# Compressibility (1/GPa) = 0.02171391
#
# Stress axis : x y z
#
# Youngs Moduli (GPa) = 89.94834 94.70153 68.85076
#
# Poissons Ratio (x) = 0.12751 0.30092
# Poissons Ratio (y) = 0.12111 0.10510
# Poissons Ratio (z) = 0.39313 0.14457
#
# Static dielectric constant tensor:
#      x y z
#    x 4.158650 -0.115440 0.342830 
#    y -0.115440 4.027580 -0.159180 
#    z 0.342830 -0.159180 3.731280 
# 
# 
# High freq. dielectric constant tensor:
#      x y z
#    x 1.883250 -0.009260 0.001580 
#    y -0.009260 1.881220 -0.021690 
#    z 0.001580 -0.021690 1.882650 
# 
# From -- ./inp_files/515592.got.cif
#   From: 2010.06.25/outbox.cif.g09.slc.cpg/sg2_258_cif.got.tgz:515592.got - 2010.06.27 13:26:56.
