data_PCOD8031278
_publ_section_title
;
Structure prediction by ZEFSAII (Michael W. Deem and Ramdas Pophale) SiO2 
 PCOD8031278
Probable space group: P -1
;
_chemical_formula_sum "Si O2"
_cell_formula_units_Z 16
_cell_length_a 9.466638
_cell_length_b 9.923942
_cell_length_c 11.966176
_cell_angle_alpha 99.388838
_cell_angle_beta 82.209959
_cell_angle_gamma 46.904937
_cell_volume 760.816073
_symmetry_space_group_name_H-M "P -1"
_symmetry_group_IT_number 2
_symmetry_cell_setting 'triclinic'
loop_
_space_group_symop_operation_xyz
x,y,z
-x,-y,-z
loop_
_atom_site_type_symbol
_atom_site_label
_atom_site_fract_x
_atom_site_fract_y
_atom_site_fract_z
Si Si1 0.337489 0.508392 0.898887
Si Si2 0.824324 0.805005 0.273394
Si Si3 0.017034 0.616339 0.593473
Si Si4 0.444842 0.731519 0.939352
Si Si5 0.189963 0.343981 0.166330
Si Si6 0.602231 0.705183 0.353541
Si Si7 0.135273 0.154527 0.968350
Si Si8 0.132042 0.043679 0.501247
O O1 0.431964 0.590226 0.866822
O O2 0.326938 0.419998 0.782025
O O3 0.479007 0.335181 0.950790
O O4 0.109622 0.688423 0.996029
O O5 0.640090 0.841925 0.351903
O O6 0.762887 0.910567 0.175010
O O7 0.014381 0.575585 0.197869
O O8 0.886545 0.881142 0.362803
O O9 0.254223 0.456935 0.586623
O O10 0.000000 0.500000 0.500000
O O11 0.858171 0.712153 0.726518
O O12 0.958085 0.793221 0.559556
O O13 0.597113 0.722035 0.849887
O O14 0.222620 0.958748 0.993330
O O15 0.204400 0.239542 0.041452
O O16 0.366972 0.841269 0.425271
O O17 0.000000 0.000000 0.500000
#
# Coordination Sequence:
#
# PCOD8031278 Si02
#       8
#     2   2   2   2   2   2   2   2
#     4  11  24  44  63 101 146 178 220 288 345 408
#     4  11  23  45  69  99 142 177 229 293 331 411
#     4  11  24  45  73  97 136 182 235 286 339 410
#     4  11  26  38  66 101 140 183 223 277 351 407
#     4  11  22  43  68 100 133 178 233 277 336 406
#     4  11  25  44  74  97 137 185 233 281 349 406
#     4  12  23  43  70 100 134 182 231 277 343 409
#     4  12  29  46  71 106 139 182 234 290 349 410
#
# _framework density 21.030051
#
# number of rings (size 3 to 8) (size 9 to 14) (size 15 to 20)
#    0.000    0.750    6.250    2.250    5.250    1.500 
#    0.000    0.000    0.000    0.000    0.000    0.000 
#    0.000    0.000    0.000    0.000    0.000    0.000 
#
# Total GULP energy -198466.127322 kJ/mol
# GULP energy per Si atom -12404.132958 kJ/mol
# Density = 2.098219 g / cm^3
# Si number density = 21.030051 Si / 1000 Ang^3
#
#
#
# Elastic Constant Matrix: (Units=GPa)
#
#
# Indices 1 2 3 4 5 6 
#
# 1 141.8919 50.2689 58.8432 -6.5404 5.4948 10.9512
# 2 50.2689 128.2756 56.0032 -7.5602 -6.1573 -3.4458
# 3 58.8432 56.0032 117.1735 -11.4933 9.0453 4.6116
# 4 -6.5404 -7.5602 -11.4933 20.8572 3.7440 4.2277
# 5 5.4948 -6.1573 9.0453 3.7440 30.3764 3.4750
# 6 10.9512 -3.4458 4.6116 4.2277 3.4750 30.9346
#
#
#
# Elastic Compliance Matrix: (Units=1/GPa)
#
#
# Indices 1 2 3 4 5 6 
#
# 1 0.009629 -0.002357 -0.003397 0.001119 -0.000979 -0.003208
# 2 -0.002357 0.010873 -0.004431 -0.000383 0.003729 0.002340
# 3 -0.003397 -0.004431 0.013366 0.005871 -0.004810 -0.001545
# 4 0.001119 -0.000383 0.005871 0.054393 -0.007832 -0.007868
# 5 -0.000979 0.003729 -0.004810 -0.007832 0.036427 -0.001543
# 6 -0.003208 0.002340 -0.001545 -0.007868 -0.001543 0.035201
#
#
# Mechanical properties :
#
#
# Convention : Reuss Voigt Hill
#
# Bulk Modulus (GPa) = 74.08691 79.73020 76.90856
# Shear Modulus (GPa) = 27.06235 31.24869 29.15552
#
# Velocity S-wave (km/s) = 3.59115 3.85893 3.72744
# Velocity P-wave (km/s) = 7.24574 7.60591 7.42801
#
# Compressibility (1/GPa) = 0.01349766
#
# Stress axis : x y z
#
# Youngs Moduli (GPa) = 103.85685 91.97014 74.81709
#
# Poissons Ratio (x) = 0.21681 0.25416
# Poissons Ratio (y) = 0.24483 0.33148
# Poissons Ratio (z) = 0.35281 0.40747
#
# Static dielectric constant tensor:
#      x y z
#    x 3.962660 -0.068580 0.030400 
#    y -0.068580 3.600850 0.173510 
#    z 0.030400 0.173510 3.599980 
# 
# 
# High freq. dielectric constant tensor:
#      x y z
#    x 1.829450 -0.004570 0.009120 
#    y -0.004570 1.831870 -0.003600 
#    z 0.009120 -0.003600 1.821990 
# 
# From -- ./inp_files/307454.got.cif
#   From: 2010.06.25/outbox.cif.g09.slc.cpg/sg2_154_cif.got.tgz:307454.got - 2010.06.27 13:26:56.
