data_PCOD8031223
_publ_section_title
;
Structure prediction by ZEFSAII (Michael W. Deem and Ramdas Pophale) SiO2 
 PCOD8031223
Probable space group: P -1
;
_chemical_formula_sum "Si O2"
_cell_formula_units_Z 16
_cell_length_a 9.458489
_cell_length_b 11.225522
_cell_length_c 16.722720
_cell_angle_alpha 33.719090
_cell_angle_beta 129.609329
_cell_angle_gamma 130.415290
_cell_volume 729.864113
_symmetry_space_group_name_H-M "P -1"
_symmetry_group_IT_number 2
_symmetry_cell_setting 'triclinic'
loop_
_space_group_symop_operation_xyz
x,y,z
-x,-y,-z
loop_
_atom_site_type_symbol
_atom_site_label
_atom_site_fract_x
_atom_site_fract_y
_atom_site_fract_z
Si Si1 0.962542 0.720184 0.329724
Si Si2 0.848832 0.114575 0.849056
Si Si3 0.407166 0.477222 0.105723
Si Si4 0.530764 0.198390 0.189716
Si Si5 0.830096 0.373511 0.852437
Si Si6 0.978070 0.840529 0.820647
Si Si7 0.546528 0.760945 0.140636
Si Si8 0.090047 0.858428 0.670615
O O1 0.748421 0.742708 0.256438
O O2 0.000000 0.500000 0.500000
O O3 0.030212 0.710707 0.268840
O O4 0.089073 0.946028 0.291969
O O5 0.779714 0.232475 0.832047
O O6 0.669954 0.943418 0.838246
O O7 0.000000 0.000000 0.000000
O O8 0.505611 0.283436 0.223498
O O9 0.208052 0.369593 0.140275
O O10 0.542687 0.677014 0.094475
O O11 0.367329 0.585058 0.948164
O O12 0.688971 0.063324 0.321673
O O13 0.626949 0.417287 0.777410
O O14 0.990643 0.597832 0.765688
O O15 0.886796 0.226683 0.026346
O O16 0.080232 0.904533 0.736184
O O17 0.500000 0.000000 0.000000
O O18 0.000000 0.000000 0.500000
#
# Coordination Sequence:
#
# PCOD8031223 Si02
#       8
#     2   2   2   2   2   2   2   2
#     4  12  29  46  69 105 150 189 231 300 365 421
#     4  12  24  46  71 107 142 182 242 296 356 428
#     4  11  22  42  73 103 135 180 243 296 340 414
#     4  11  24  41  71 105 141 180 236 297 353 414
#     4  12  24  44  74 103 138 183 244 299 342 422
#     4  12  23  49  73 101 138 188 243 291 349 428
#     4  12  24  43  71 106 136 189 245 291 347 426
#     4  12  29  46  68 104 148 188 230 295 365 421
#
# _framework density 21.921887999999999
#
# number of rings (size 3 to 8) (size 9 to 14) (size 15 to 20)
#    0.000    0.250    6.250    2.625    7.000    1.000 
#    0.000    2.500    0.000    0.000    0.000    0.000 
#    0.000    0.000    0.000    0.000    0.000    0.000 
#
# Total GULP energy -198286.627260 kJ/mol
# GULP energy per Si atom -12392.914204 kJ/mol
# Density = 2.187199 g / cm^3
# Si number density = 21.921888 Si / 1000 Ang^3
#
#
#
# Elastic Constant Matrix: (Units=GPa)
#
#
# Indices 1 2 3 4 5 6 
#
# 1 136.3328 48.1738 52.9592 17.4179 6.1715 -3.1626
# 2 48.1738 121.4666 45.4355 -1.6293 10.2969 -13.1947
# 3 52.9592 45.4355 137.6051 4.5172 5.5240 4.1695
# 4 17.4179 -1.6293 4.5172 21.7558 1.3557 2.0965
# 5 6.1715 10.2969 5.5240 1.3557 32.4790 4.7800
# 6 -3.1626 -13.1947 4.1695 2.0965 4.7800 52.2798
#
#
#
# Elastic Compliance Matrix: (Units=1/GPa)
#
#
# Indices 1 2 3 4 5 6 
#
# 1 0.010610 -0.003224 -0.002752 -0.008187 -0.000242 0.000398
# 2 -0.003224 0.011079 -0.002509 0.003841 -0.003064 0.002927
# 3 -0.002752 -0.002509 0.009194 0.000257 -0.000029 -0.001541
# 4 -0.008187 0.003841 0.000257 0.053006 -0.001695 -0.001517
# 5 -0.000242 -0.003064 -0.000029 -0.001695 0.032424 -0.003682
# 6 0.000398 0.002927 -0.001541 -0.001517 -0.003682 0.020411
#
#
# Mechanical properties :
#
#
# Convention : Reuss Voigt Hill
#
# Bulk Modulus (GPa) = 71.88036 76.50462 74.19249
# Shear Modulus (GPa) = 31.57895 37.89199 34.73547
#
# Velocity S-wave (km/s) = 3.79954 4.16203 3.98491
# Velocity P-wave (km/s) = 7.21867 7.62045 7.42228
#
# Compressibility (1/GPa) = 0.01391201
#
# Stress axis : x y z
#
# Youngs Moduli (GPa) = 94.25357 90.25813 108.76309
#
# Poissons Ratio (x) = 0.29102 0.29934
# Poissons Ratio (y) = 0.30391 0.27290
# Poissons Ratio (z) = 0.25940 0.22647
#
# Static dielectric constant tensor:
#      x y z
#    x 4.338870 0.078910 0.052350 
#    y 0.078910 3.850460 -0.110070 
#    z 0.052350 -0.110070 3.645020 
# 
# 
# High freq. dielectric constant tensor:
#      x y z
#    x 1.890090 -0.001330 0.000980 
#    y -0.001330 1.875400 -0.008760 
#    z 0.000980 -0.008760 1.819190 
# 
# From -- ./inp_files/559599.got.cif
#   From: 2010.06.25/outbox.cif.g09.slc.cpg/sg2_280_cif.got.tgz:559599.got - 2010.06.27 13:26:56.
