data_PCOD8031846
_publ_section_title
;
Structure prediction by ZEFSAII (Michael W. Deem and Ramdas Pophale) SiO2 
 PCOD8031846
Probable space group: P -1
;
_chemical_formula_sum "Si O2"
_cell_formula_units_Z 14
_cell_length_a 11.520964
_cell_length_b 8.914915
_cell_length_c 9.504886
_cell_angle_alpha 52.696633
_cell_angle_beta 61.298689
_cell_angle_gamma 55.249935
_cell_volume 624.314921
_symmetry_space_group_name_H-M "P -1"
_symmetry_group_IT_number 2
_symmetry_cell_setting 'triclinic'
loop_
_space_group_symop_operation_xyz
x,y,z
-x,-y,-z
loop_
_atom_site_type_symbol
_atom_site_label
_atom_site_fract_x
_atom_site_fract_y
_atom_site_fract_z
Si Si1 0.920090 0.847548 0.909426
Si Si2 0.307017 0.100746 0.775757
Si Si3 0.404487 0.676636 0.856593
Si Si4 0.814198 0.878739 0.648916
Si Si5 0.149745 0.556850 0.120683
Si Si6 0.961520 0.820077 0.307225
Si Si7 0.467796 0.707036 0.485494
O O1 0.907805 0.876470 0.733231
O O2 0.759246 0.897671 0.032382
O O3 0.984703 0.998860 0.856667
O O4 0.023904 0.621953 0.036951
O O5 0.186178 0.154274 0.695994
O O6 0.390256 0.249401 0.643473
O O7 0.420576 0.875132 0.798591
O O8 0.460248 0.645770 0.684030
O O9 0.500000 0.500000 0.000000
O O10 0.244644 0.683076 0.952113
O O11 0.761607 0.690378 0.797904
O O12 0.933607 0.817485 0.490977
O O13 0.679084 0.098078 0.584276
O O14 0.085276 0.614829 0.284480
O O15 0.500000 0.500000 0.500000
#
# Coordination Sequence:
#
# PCOD8031846 Si02
#       7
#     2   2   2   2   2   2   2
#     4  11  23  45  72 105 148 185 228 290 355 418
#     4  11  23  48  72  97 143 186 238 288 346 419
#     4  12  25  45  76 101 139 186 242 289 351 420
#     4  12  26  44  72 106 149 185 234 289 358 412
#     4  11  23  45  72 107 142 183 237 287 352 424
#     4  11  22  47  72 104 140 188 234 290 347 422
#     4  12  30  49  69 103 146 188 239 296 351 415
#
# _framework density 22.424581
#
# number of rings (size 3 to 8) (size 9 to 14) (size 15 to 20)
#    0.000    0.571    4.286    3.429    6.000    0.571 
#   10.286    0.000    0.000    0.000    0.000    0.000 
#    0.000    0.000    0.000    0.000    0.000    0.000 
#
# Total GULP energy -173547.446722 kJ/mol
# GULP energy per Si atom -12396.246194 kJ/mol
# Density = 2.237354 g / cm^3
# Si number density = 22.424581 Si / 1000 Ang^3
#
#
#
# Elastic Constant Matrix: (Units=GPa)
#
#
# Indices 1 2 3 4 5 6 
#
# 1 112.8601 51.4267 65.2805 -0.9720 -11.1126 11.9162
# 2 51.4267 138.7384 52.1318 -20.7173 -1.9395 13.3061
# 3 65.2805 52.1318 144.3937 11.7834 6.1750 8.6018
# 4 -0.9720 -20.7173 11.7834 31.7687 -0.9022 -3.3611
# 5 -11.1126 -1.9395 6.1750 -0.9022 47.5169 -8.0006
# 6 11.9162 13.3061 8.6018 -3.3611 -8.0006 26.1214
#
#
#
# Elastic Compliance Matrix: (Units=1/GPa)
#
#
# Indices 1 2 3 4 5 6 
#
# 1 0.013739 -0.002814 -0.005259 0.000423 0.003455 -0.001989
# 2 -0.002814 0.010825 -0.003150 0.007910 -0.000024 -0.002183
# 3 -0.005259 -0.003150 0.011208 -0.006624 -0.003196 -0.001518
# 4 0.000423 0.007910 -0.006624 0.039592 0.002687 0.003876
# 5 0.003455 -0.000024 -0.003196 0.002687 0.023503 0.007033
# 6 -0.001989 -0.002183 -0.001518 0.003876 0.007033 0.043455
#
#
# Mechanical properties :
#
#
# Convention : Reuss Voigt Hill
#
# Bulk Modulus (GPa) = 75.04865 81.51890 78.28378
# Shear Modulus (GPa) = 29.54906 36.22495 32.88700
#
# Velocity S-wave (km/s) = 3.63396 4.02358 3.83372
# Velocity P-wave (km/s) = 7.15174 7.61689 7.38798
#
# Compressibility (1/GPa) = 0.01332469
#
# Stress axis : x y z
#
# Youngs Moduli (GPa) = 72.78773 92.37984 89.22015
#
# Poissons Ratio (x) = 0.25997 0.46921
# Poissons Ratio (y) = 0.20483 0.28108
# Poissons Ratio (z) = 0.38279 0.29103
#
# Static dielectric constant tensor:
#      x y z
#    x 3.527270 0.401130 0.113250 
#    y 0.401130 3.849260 -0.099070 
#    z 0.113250 -0.099070 4.030690 
# 
# 
# High freq. dielectric constant tensor:
#      x y z
#    x 1.878540 0.008010 -0.004070 
#    y 0.008010 1.890520 0.000900 
#    z -0.004070 0.000900 1.897630 
# 
# From -- ./inp_files/202123.got.cif
#   From: 2010.06.25/outbox.cif.g09.slc.cpg/sg2_102_cif.got.tgz:202123.got - 2010.06.27 13:26:56.
