data_PCOD8031758
_publ_section_title
;
Structure prediction by ZEFSAII (Michael W. Deem and Ramdas Pophale) SiO2 
 PCOD8031758
Probable space group: P -1
;
_chemical_formula_sum "Si O2"
_cell_formula_units_Z 16
_cell_length_a 9.010951
_cell_length_b 17.349679
_cell_length_c 9.809126
_cell_angle_alpha 145.493048
_cell_angle_beta 115.441211
_cell_angle_gamma 71.753928
_cell_volume 781.996607
_symmetry_space_group_name_H-M "P -1"
_symmetry_group_IT_number 2
_symmetry_cell_setting 'triclinic'
loop_
_space_group_symop_operation_xyz
x,y,z
-x,-y,-z
loop_
_atom_site_type_symbol
_atom_site_label
_atom_site_fract_x
_atom_site_fract_y
_atom_site_fract_z
Si Si1 0.397173 0.288850 0.676578
Si Si2 0.960816 0.889467 0.081783
Si Si3 0.932306 0.799980 0.444764
Si Si4 0.680607 0.472153 0.485848
Si Si5 0.358870 0.056646 0.116255
Si Si6 0.970751 0.672795 0.993189
Si Si7 0.701060 0.451742 0.146587
Si Si8 0.166942 0.797860 0.784980
O O1 0.260497 0.228991 0.641777
O O2 0.438948 0.175941 0.417906
O O3 0.333859 0.418813 0.767322
O O4 0.563646 0.327651 0.883185
O O5 0.772988 0.883908 0.949319
O O6 0.966304 0.815090 0.119572
O O7 0.064379 0.807769 0.896678
O O8 0.037824 0.042546 0.354432
O O9 0.039201 0.762394 0.561639
O O10 0.987044 0.705635 0.206938
O O11 0.500000 0.500000 0.500000
O O12 0.804209 0.579656 0.768211
O O13 0.702521 0.492982 0.364326
O O14 0.710377 0.319685 0.322194
O O15 0.500000 0.000000 0.000000
O O16 0.271658 0.939929 0.007036
O O17 0.121407 0.590653 0.886328
#
# Coordination Sequence:
#
# PCOD8031758 Si02
#       8
#     2   2   2   2   2   2   2   2
#     4  11  23  44  66  95 138 172 219 278 325 394
#     4  11  22  46  69  97 135 178 221 272 329 395
#     4  11  23  44  67 101 130 177 224 269 328 393
#     4  12  27  45  67  98 133 174 222 274 335 400
#     4  11  24  41  71 100 130 178 224 273 326 390
#     4  12  26  43  70  97 136 173 220 277 336 392
#     4  11  26  42  68  98 132 175 222 273 335 392
#     4  11  23  44  73  95 134 177 225 267 329 396
#
# _framework density 20.460446000000001
#
# number of rings (size 3 to 8) (size 9 to 14) (size 15 to 20)
#    0.000    0.750    3.750    3.750    7.000    3.000 
#    0.000    1.250    0.000    0.000    0.000    0.000 
#    0.000    0.000    0.000    0.000    0.000    0.000 
#
# Total GULP energy -198528.954744 kJ/mol
# GULP energy per Si atom -12408.059672 kJ/mol
# Density = 2.041388 g / cm^3
# Si number density = 20.460446 Si / 1000 Ang^3
#
#
#
# Elastic Constant Matrix: (Units=GPa)
#
#
# Indices 1 2 3 4 5 6 
#
# 1 133.1274 2.3292 40.4610 0.4427 -13.4545 -14.0451
# 2 2.3292 41.5705 8.5758 4.0128 -1.8340 -10.9598
# 3 40.4610 8.5758 113.9372 -9.9142 -2.5619 -3.4966
# 4 0.4427 4.0128 -9.9142 25.1892 2.5607 -8.7305
# 5 -13.4545 -1.8340 -2.5619 2.5607 41.5943 -2.4795
# 6 -14.0451 -10.9598 -3.4966 -8.7305 -2.4795 26.6367
#
#
#
# Elastic Compliance Matrix: (Units=1/GPa)
#
#
# Indices 1 2 3 4 5 6 
#
# 1 0.009370 0.001746 -0.003230 -0.000141 0.003245 0.005491
# 2 0.001746 0.027820 -0.002437 -0.001597 0.002440 0.011751
# 3 -0.003230 -0.002437 0.010504 0.004709 -0.000787 0.000143
# 4 -0.000141 -0.001597 0.004709 0.047267 -0.001829 0.015209
# 5 0.003245 0.002440 -0.000787 -0.001829 0.025525 0.004388
# 6 0.005491 0.011751 0.000143 0.015209 0.004388 0.050685
#
#
# Mechanical properties :
#
#
# Convention : Reuss Voigt Hill
#
# Bulk Modulus (GPa) = 25.09313 43.48526 34.28919
# Shear Modulus (GPa) = 26.00134 34.50199 30.25167
#
# Velocity S-wave (km/s) = 3.56871 4.11089 3.84936
# Velocity P-wave (km/s) = 5.41034 6.62057 6.04581
#
# Compressibility (1/GPa) = 0.03985155
#
# Stress axis : x y z
#
# Youngs Moduli (GPa) = 106.71887 35.94483 95.20563
#
# Poissons Ratio (x) = -0.06275 0.30749
# Poissons Ratio (y) = -0.18630 0.23205
# Poissons Ratio (z) = 0.34467 0.08761
#
# Static dielectric constant tensor:
#      x y z
#    x 3.883800 -0.008820 0.107380 
#    y -0.008820 3.895660 -0.003350 
#    z 0.107380 -0.003350 3.930610 
# 
# 
# High freq. dielectric constant tensor:
#      x y z
#    x 1.809750 0.002950 -0.000160 
#    y 0.002950 1.803950 0.004340 
#    z -0.000160 0.004340 1.816230 
# 
# From -- ./inp_files/209556.got.cif
#   From: 2010.06.25/outbox.cif.g09.slc.cpg/sg2_105_cif.got.tgz:209556.got - 2010.06.27 13:26:56.
