data_PCOD8031028
_publ_section_title
;
Structure prediction by ZEFSAII (Michael W. Deem and Ramdas Pophale) SiO2 
 PCOD8031028
Probable space group: P -1
;
_chemical_formula_sum "Si O2"
_cell_formula_units_Z 16
_cell_length_a 16.804564
_cell_length_b 11.289631
_cell_length_c 13.631143
_cell_angle_alpha 125.904418
_cell_angle_beta 147.651205
_cell_angle_gamma 32.477688
_cell_volume 667.455587
_symmetry_space_group_name_H-M "P -1"
_symmetry_group_IT_number 2
_symmetry_cell_setting 'triclinic'
loop_
_space_group_symop_operation_xyz
x,y,z
-x,-y,-z
loop_
_atom_site_type_symbol
_atom_site_label
_atom_site_fract_x
_atom_site_fract_y
_atom_site_fract_z
Si Si1 0.844175 0.847797 0.483701
Si Si2 0.360990 0.258876 0.473004
Si Si3 0.071762 0.479503 0.712007
Si Si4 0.207071 0.908160 0.074253
Si Si5 0.721585 0.423742 0.917607
Si Si6 0.067800 0.196805 0.901500
Si Si7 0.139846 0.882739 0.486119
Si Si8 0.684811 0.708007 0.781720
O O1 0.772738 0.779179 0.296065
O O2 0.014412 0.639920 0.643118
O O3 0.957872 0.902708 0.576929
O O4 0.600200 0.101434 0.406354
O O5 0.570931 0.216988 0.682900
O O6 0.238955 0.361770 0.288413
O O7 0.162826 0.416064 0.431427
O O8 0.500000 0.000000 0.500000
O O9 0.221344 0.452016 0.937014
O O10 0.246199 0.701911 0.011292
O O11 0.927448 0.181119 0.945365
O O12 0.244823 0.946220 0.024371
O O13 0.440729 0.645631 0.691066
O O14 0.942031 0.208576 0.687510
O O15 0.854253 0.440097 0.869254
O O16 0.244191 0.191708 0.047716
O O17 0.000000 0.000000 0.500000
#
# Coordination Sequence:
#
# PCOD8031028 Si02
#       8
#     2   2   2   2   2   2   2   2
#     4  11  25  45  69 101 139 178 233 280 351 406
#     4  12  20  41  71 106 140 169 229 275 353 407
#     4  11  24  43  71 105 136 182 223 289 340 421
#     4  11  22  41  73 104 132 176 227 296 334 414
#     4  11  24  43  67 101 136 179 232 279 350 401
#     4  11  24  43  68 100 138 176 236 279 349 397
#     4  12  30  49  63  98 144 196 227 285 343 411
#     4  11  23  42  73 105 134 182 224 292 336 418
#
# _framework density 23.971632
#
# number of rings (size 3 to 8) (size 9 to 14) (size 15 to 20)
#    0.000    0.750    3.750    2.250    5.250    5.500 
#    0.000    1.250    0.000    0.000    0.000    0.000 
#    0.000    0.000    0.000    0.000    0.000    0.000 
#
# Total GULP energy -198245.243361 kJ/mol
# GULP energy per Si atom -12390.327710 kJ/mol
# Density = 2.391707 g / cm^3
# Si number density = 23.971632 Si / 1000 Ang^3
#
#
#
# Elastic Constant Matrix: (Units=GPa)
#
#
# Indices 1 2 3 4 5 6 
#
# 1 92.1917 33.3773 21.1641 -2.1219 10.9629 10.5783
# 2 33.3773 85.0138 22.3563 18.0141 4.0952 9.2558
# 3 21.1641 22.3563 114.9473 14.7409 8.3615 -6.5254
# 4 -2.1219 18.0141 14.7409 39.4133 4.4552 -1.4408
# 5 10.9629 4.0952 8.3615 4.4552 23.6524 0.1967
# 6 10.5783 9.2558 -6.5254 -1.4408 0.1967 38.9458
#
#
#
# Elastic Compliance Matrix: (Units=1/GPa)
#
#
# Indices 1 2 3 4 5 6 
#
# 1 0.014408 -0.005554 -0.001886 0.004586 -0.005891 -0.002710
# 2 -0.005554 0.016125 -0.001448 -0.007426 0.001716 -0.002850
# 3 -0.001886 -0.001448 0.009971 -0.002868 -0.001880 0.002430
# 4 0.004586 -0.007426 -0.002868 0.030766 -0.005631 0.001205
# 5 -0.005891 0.001716 -0.001880 -0.005631 0.046434 0.000434
# 6 -0.002710 -0.002850 0.002430 0.001205 0.000434 0.027540
#
#
# Mechanical properties :
#
#
# Convention : Reuss Voigt Hill
#
# Bulk Modulus (GPa) = 43.99796 49.54978 46.77387
# Shear Modulus (GPa) = 29.30920 34.75262 32.03091
#
# Velocity S-wave (km/s) = 3.50045 3.81168 3.65937
# Velocity P-wave (km/s) = 5.89335 6.33142 6.11631
#
# Compressibility (1/GPa) = 0.02272833
#
# Stress axis : x y z
#
# Youngs Moduli (GPa) = 69.40785 62.01537 100.29078
#
# Poissons Ratio (x) = 0.34441 0.18915
# Poissons Ratio (y) = 0.38546 0.14522
# Poissons Ratio (z) = 0.13091 0.08980
#
# Static dielectric constant tensor:
#      x y z
#    x 4.004240 0.363420 0.110520 
#    y 0.363420 4.514520 0.100640 
#    z 0.110520 0.100640 3.896320 
# 
# 
# High freq. dielectric constant tensor:
#      x y z
#    x 1.953860 0.026240 0.001230 
#    y 0.026240 1.953700 0.004030 
#    z 0.001230 0.004030 1.946460 
# 
# From -- ./inp_files/538470.got.cif
#   From: 2010.06.25/outbox.cif.g09.slc.cpg/sg2_270_cif.got.tgz:538470.got - 2010.06.27 13:26:56.
