data_PCOD8031783
_publ_section_title
;
Structure prediction by ZEFSAII (Michael W. Deem and Ramdas Pophale) SiO2 
 PCOD8031783
Probable space group: P -1
;
_chemical_formula_sum "Si O2"
_cell_formula_units_Z 16
_cell_length_a 12.206758
_cell_length_b 15.787100
_cell_length_c 9.284224
_cell_angle_alpha 100.382590
_cell_angle_beta 71.395829
_cell_angle_gamma 153.212877
_cell_volume 740.939830
_symmetry_space_group_name_H-M "P -1"
_symmetry_group_IT_number 2
_symmetry_cell_setting 'triclinic'
loop_
_space_group_symop_operation_xyz
x,y,z
-x,-y,-z
loop_
_atom_site_type_symbol
_atom_site_label
_atom_site_fract_x
_atom_site_fract_y
_atom_site_fract_z
Si Si1 0.895931 0.417368 0.673808
Si Si2 0.381375 0.988315 0.659745
Si Si3 0.760639 0.814354 0.646794
Si Si4 0.169705 0.051130 0.038151
Si Si5 0.305110 0.545814 0.165216
Si Si6 0.836271 0.564150 0.304944
Si Si7 0.101313 0.287335 0.399249
Si Si8 0.979284 0.244354 0.005351
O O1 0.602368 0.189726 0.706340
O O2 0.908518 0.519868 0.772332
O O3 0.000000 0.500000 0.500000
O O4 0.081648 0.477546 0.701973
O O5 0.500000 0.000000 0.500000
O O6 0.224019 0.847734 0.823443
O O7 0.174161 0.905824 0.628092
O O8 0.793242 0.893183 0.798329
O O9 0.476497 0.642874 0.644899
O O10 0.767448 0.718068 0.651302
O O11 0.000000 0.000000 0.500000
O O12 0.432060 0.226518 0.891475
O O13 0.052892 0.878314 0.037680
O O14 0.000000 0.000000 0.000000
O O15 0.291981 0.482517 0.298994
O O16 0.262342 0.451239 0.021584
O O17 0.933924 0.698435 0.422225
O O18 0.013012 0.704297 0.135433
#
# Coordination Sequence:
#
# PCOD8031783 Si02
#       8
#     2   2   2   2   2   2   2   2
#     4  12  24  45  76 105 143 192 245 294 359 443
#     4  11  22  46  72 108 139 190 247 287 356 435
#     4  12  29  48  70 109 145 192 242 299 374 432
#     4  12  26  45  76 103 145 194 245 297 356 438
#     4  11  24  47  71 107 142 186 245 297 355 438
#     4  12  26  47  72 107 151 190 237 313 366 423
#     4  11  25  45  76 101 144 193 239 300 359 438
#     4  11  25  47  69 109 145 185 244 299 368 418
#
# _framework density 21.594196
#
# number of rings (size 3 to 8) (size 9 to 14) (size 15 to 20)
#    0.000    0.500    5.000    3.375    5.250    2.000 
#    0.000    0.000    0.000    0.000    0.000    0.000 
#    0.000    0.000    0.000    0.000    0.000    0.000 
#
# Total GULP energy -198258.808554 kJ/mol
# GULP energy per Si atom -12391.175535 kJ/mol
# Density = 2.154505 g / cm^3
# Si number density = 21.594196 Si / 1000 Ang^3
#
#
#
# Elastic Constant Matrix: (Units=GPa)
#
#
# Indices 1 2 3 4 5 6 
#
# 1 170.5538 68.2380 71.5082 -9.5358 6.7540 -11.5304
# 2 68.2380 114.0300 38.9304 0.8001 3.1352 1.2636
# 3 71.5082 38.9304 136.7914 0.6153 7.3150 -3.8466
# 4 -9.5358 0.8001 0.6153 37.0049 -4.3164 -1.1935
# 5 6.7540 3.1352 7.3150 -4.3164 34.1891 6.2581
# 6 -11.5304 1.2636 -3.8466 -1.1935 6.2581 43.8713
#
#
#
# Elastic Compliance Matrix: (Units=1/GPa)
#
#
# Indices 1 2 3 4 5 6 
#
# 1 0.009512 -0.004489 -0.003592 0.002592 -0.000830 0.002503
# 2 -0.004489 0.011847 -0.001074 -0.001431 0.000156 -0.001677
# 3 -0.003592 -0.001074 0.009577 -0.001223 -0.001413 0.000095
# 4 0.002592 -0.001431 -0.001223 0.028153 0.003268 0.000915
# 5 -0.000830 0.000156 -0.001413 0.003268 0.030969 -0.004675
# 6 0.002503 -0.001677 0.000095 0.000915 -0.004675 0.024200
#
#
# Mechanical properties :
#
#
# Convention : Reuss Voigt Hill
#
# Bulk Modulus (GPa) = 79.19700 86.52535 82.86118
# Shear Modulus (GPa) = 36.55535 39.19298 37.87417
#
# Velocity S-wave (km/s) = 4.11887 4.26488 4.19251
# Velocity P-wave (km/s) = 7.70551 8.02546 7.86711
#
# Compressibility (1/GPa) = 0.01262674
#
# Stress axis : x y z
#
# Youngs Moduli (GPa) = 105.12608 84.40925 104.41196
#
# Poissons Ratio (x) = 0.37893 0.37504
# Poissons Ratio (y) = 0.47194 0.11213
# Poissons Ratio (z) = 0.37760 0.09065
#
# Static dielectric constant tensor:
#      x y z
#    x 3.766600 -0.020080 -0.076190 
#    y -0.020080 3.789250 -0.056700 
#    z -0.076190 -0.056700 4.157610 
# 
# 
# High freq. dielectric constant tensor:
#      x y z
#    x 1.840610 -0.006200 -0.004510 
#    y -0.006200 1.864960 0.001740 
#    z -0.004510 0.001740 1.868710 
# 
# From -- ./inp_files/273370.got.cif
#   From: 2010.06.25/outbox.cif.g09.slc.cpg/sg2_137_cif.got.tgz:273370.got - 2010.06.27 13:26:56.
