data_PCOD8031023
_publ_section_title
;
Structure prediction by ZEFSAII (Michael W. Deem and Ramdas Pophale) SiO2 
 PCOD8031023
Probable space group: P -1
;
_chemical_formula_sum "Si O2"
_cell_formula_units_Z 14
_cell_length_a 8.118114
_cell_length_b 13.050211
_cell_length_c 13.996581
_cell_angle_alpha 38.488924
_cell_angle_beta 95.819209
_cell_angle_gamma 124.140029
_cell_volume 576.534502
_symmetry_space_group_name_H-M "P -1"
_symmetry_group_IT_number 2
_symmetry_cell_setting 'triclinic'
loop_
_space_group_symop_operation_xyz
x,y,z
-x,-y,-z
loop_
_atom_site_type_symbol
_atom_site_label
_atom_site_fract_x
_atom_site_fract_y
_atom_site_fract_z
Si Si1 0.748619 0.643879 0.027106
Si Si2 0.050882 0.660540 0.795924
Si Si3 0.166172 0.106578 0.836467
Si Si4 0.401586 0.235165 0.458884
Si Si5 0.546301 0.295211 0.098963
Si Si6 0.219784 0.742567 0.538357
Si Si7 0.749918 0.591494 0.539242
O O1 0.493984 0.418264 0.242834
O O2 0.740147 0.512693 0.035482
O O3 0.715748 0.803719 0.864779
O O4 0.025565 0.857140 0.945003
O O5 0.184069 0.684849 0.691898
O O6 0.739809 0.451417 0.903552
O O7 0.187750 0.938759 0.627091
O O8 0.000000 0.500000 0.000000
O O9 0.464475 0.280651 0.749930
O O10 0.174811 0.290693 0.648982
O O11 0.000000 0.000000 0.000000
O O12 0.668602 0.344742 0.432900
O O13 0.267481 0.251937 0.515328
O O14 0.467566 0.055123 0.307623
O O15 0.958367 0.614478 0.568374
#
# Coordination Sequence:
#
# PCOD8031023 Si02
#       7
#     2   2   2   2   2   2   2
#     4  11  22  41  72  99 142 184 226 295 351 403
#     4  12  24  39  65 104 150 189 222 287 364 406
#     4  11  23  46  73  99 143 182 235 295 343 409
#     4  12  24  44  69 104 142 183 233 287 347 427
#     4  11  23  41  68 107 142 179 233 291 349 427
#     4  12  25  45  69 106 147 179 236 291 342 426
#     4  11  26  45  74 101 132 195 233 282 357 407
#
# _framework density 24.283021999999999
#
# number of rings (size 3 to 8) (size 9 to 14) (size 15 to 20)
#    0.000    0.571    5.714    3.000    2.000    1.143 
#    0.000    3.571    0.000    0.000    0.000    0.000 
#    0.000    0.000    0.000    0.000    0.000    0.000 
#
# Total GULP energy -173436.942446 kJ/mol
# GULP energy per Si atom -12388.353032 kJ/mol
# Density = 2.422775 g / cm^3
# Si number density = 24.283022 Si / 1000 Ang^3
#
#
#
# Elastic Constant Matrix: (Units=GPa)
#
#
# Indices 1 2 3 4 5 6 
#
# 1 115.1272 17.7741 9.0832 13.0848 -12.5185 18.9662
# 2 17.7741 65.4804 17.0983 -10.6035 -10.7254 7.3458
# 3 9.0832 17.0983 134.0609 6.7912 -17.3273 3.4465
# 4 13.0848 -10.6035 6.7912 40.5486 4.2992 -0.7573
# 5 -12.5185 -10.7254 -17.3273 4.2992 38.9288 0.6741
# 6 18.9662 7.3458 3.4465 -0.7573 0.6741 31.4950
#
#
#
# Elastic Compliance Matrix: (Units=1/GPa)
#
#
# Indices 1 2 3 4 5 6 
#
# 1 0.011033 -0.002589 0.000465 -0.004823 0.003683 -0.006286
# 2 -0.002589 0.018108 -0.002008 0.005578 0.002688 -0.002368
# 3 0.000465 -0.002008 0.008292 -0.002459 0.003573 -0.000854
# 4 -0.004823 0.005578 -0.002459 0.028595 -0.004313 0.002652
# 5 0.003683 0.002688 0.003573 -0.004313 0.029748 -0.003976
# 6 -0.006286 -0.002368 -0.000854 0.002652 -0.003976 0.036331
#
#
# Mechanical properties :
#
#
# Convention : Reuss Voigt Hill
#
# Bulk Modulus (GPa) = 34.28363 44.73106 39.50734
# Shear Modulus (GPa) = 33.31186 40.24200 36.77693
#
# Velocity S-wave (km/s) = 3.70782 4.07530 3.89590
# Velocity P-wave (km/s) = 5.69909 6.37219 6.04501
#
# Compressibility (1/GPa) = 0.02916844
#
# Stress axis : x y z
#
# Youngs Moduli (GPa) = 90.63492 55.22419 120.59307
#
# Poissons Ratio (x) = 0.14296 -0.05603
# Poissons Ratio (y) = 0.23463 0.24220
# Poissons Ratio (z) = -0.04211 0.11091
#
# Static dielectric constant tensor:
#      x y z
#    x 4.740260 0.156730 -0.455710 
#    y 0.156730 4.256720 0.000210 
#    z -0.455710 0.000210 4.957510 
# 
# 
# High freq. dielectric constant tensor:
#      x y z
#    x 1.965370 0.017020 -0.014650 
#    y 0.017020 1.936280 0.002170 
#    z -0.014650 0.002170 2.000550 
# 
# From -- ./inp_files/505279.got.cif
#   From: 2010.06.25/outbox.cif.g09.slc.cpg/sg2_253_cif.got.tgz:505279.got - 2010.06.27 13:26:56.
