data_PCOD8031596
_publ_section_title
;
Structure prediction by ZEFSAII (Michael W. Deem and Ramdas Pophale) SiO2 
 PCOD8031596
Probable space group: P -1
;
_chemical_formula_sum "Si O2"
_cell_formula_units_Z 16
_cell_length_a 9.355335
_cell_length_b 9.378617
_cell_length_c 11.767767
_cell_angle_alpha 80.188894
_cell_angle_beta 80.693255
_cell_angle_gamma 45.661622
_cell_volume 726.340644
_symmetry_space_group_name_H-M "P -1"
_symmetry_group_IT_number 2
_symmetry_cell_setting 'triclinic'
loop_
_space_group_symop_operation_xyz
x,y,z
-x,-y,-z
loop_
_atom_site_type_symbol
_atom_site_label
_atom_site_fract_x
_atom_site_fract_y
_atom_site_fract_z
Si Si1 0.934662 0.417964 0.373282
Si Si2 0.718754 0.800143 0.788454
Si Si3 0.449921 0.795828 0.187516
Si Si4 0.378711 0.853336 0.729930
Si Si5 0.593460 0.450276 0.372490
Si Si6 0.271878 0.170789 0.551039
Si Si7 0.797669 0.711331 0.036850
Si Si8 0.196248 0.961712 0.974143
O O1 0.820123 0.349407 0.369747
O O2 0.771020 0.646242 0.406907
O O3 0.047672 0.390738 0.246303
O O4 0.112817 0.260809 0.459114
O O5 0.592696 0.782231 0.727315
O O6 0.665883 0.005826 0.747842
O O7 0.662135 0.812570 0.926065
O O8 0.464357 0.643636 0.282200
O O9 0.673126 0.704362 0.145044
O O10 0.333336 0.832855 0.082755
O O11 0.408066 0.705816 0.658670
O O12 0.302437 0.841986 0.860079
O O13 0.230477 0.073800 0.662350
O O14 0.500000 0.500000 0.500000
O O15 0.500000 0.000000 0.500000
O O16 0.850157 0.835368 0.057737
O O17 0.000000 0.500000 0.000000
O O18 0.000000 0.000000 0.000000
#
# Coordination Sequence:
#
# PCOD8031596 Si02
#       8
#     2   2   2   2   2   2   2   2
#     4  11  26  45  75 107 135 194 251 283 371 436
#     4  11  22  44  74 102 136 186 246 293 354 438
#     4  11  24  49  72  98 149 193 238 300 357 429
#     4  12  25  45  70 102 148 186 234 305 364 415
#     4  12  30  46  68 107 150 189 241 300 366 424
#     4  11  24  46  76 101 139 187 248 308 342 425
#     4  11  23  42  73 104 138 190 243 291 354 437
#     4  11  26  45  69 108 145 185 236 295 378 427
#
# _framework density 22.028231000000002
#
# number of rings (size 3 to 8) (size 9 to 14) (size 15 to 20)
#    0.000    0.750    3.750    3.000   10.500    3.000 
#    0.000    0.000    0.000    0.000    0.000    0.000 
#    0.000    0.000    0.000    0.000    0.000    0.000 
#
# Total GULP energy -198427.462765 kJ/mol
# GULP energy per Si atom -12401.716423 kJ/mol
# Density = 2.197809 g / cm^3
# Si number density = 22.028231 Si / 1000 Ang^3
#
#
#
# Elastic Constant Matrix: (Units=GPa)
#
#
# Indices 1 2 3 4 5 6 
#
# 1 131.9107 51.6766 58.6129 8.3875 5.7132 10.6258
# 2 51.6766 116.5466 47.6180 9.8621 4.0220 -1.4585
# 3 58.6129 47.6180 130.7864 12.6506 -7.5717 6.7699
# 4 8.3875 9.8621 12.6506 42.1155 5.1336 -3.0463
# 5 5.7132 4.0220 -7.5717 5.1336 34.0901 9.8444
# 6 10.6258 -1.4585 6.7699 -3.0463 9.8444 34.6519
#
#
#
# Elastic Compliance Matrix: (Units=1/GPa)
#
#
# Indices 1 2 3 4 5 6 
#
# 1 0.010701 -0.003248 -0.003550 -0.000292 -0.001482 -0.002329
# 2 -0.003248 0.011352 -0.002860 -0.000717 -0.002060 0.002555
# 3 -0.003550 -0.002860 0.010938 -0.002657 0.004539 -0.002692
# 4 -0.000292 -0.000717 -0.002657 0.025774 -0.005620 0.004441
# 5 -0.001482 -0.002060 0.004539 -0.005620 0.034830 -0.010908
# 6 -0.002329 0.002555 -0.002692 0.004441 -0.010908 0.033695
#
#
# Mechanical properties :
#
#
# Convention : Reuss Voigt Hill
#
# Bulk Modulus (GPa) = 73.12561 77.22873 75.17717
# Shear Modulus (GPa) = 33.07636 36.92726 35.00181
#
# Velocity S-wave (km/s) = 3.87918 4.09878 3.99049
# Velocity P-wave (km/s) = 7.30291 7.58519 7.44539
#
# Compressibility (1/GPa) = 0.01367510
#
# Stress axis : x y z
#
# Youngs Moduli (GPa) = 93.44871 88.08646 91.42769
#
# Poissons Ratio (x) = 0.28606 0.32460
# Poissons Ratio (y) = 0.30348 0.26149
# Poissons Ratio (z) = 0.33178 0.25194
#
# Static dielectric constant tensor:
#      x y z
#    x 3.997450 -0.006190 0.117630 
#    y -0.006190 3.976890 -0.050340 
#    z 0.117630 -0.050340 4.440950 
# 
# 
# High freq. dielectric constant tensor:
#      x y z
#    x 1.865650 -0.002290 0.009630 
#    y -0.002290 1.864270 0.004590 
#    z 0.009630 0.004590 1.891030 
# 
# From -- ./inp_files/381952.got.cif
#   From: 2010.06.25/outbox.cif.g09.slc.cpg/sg2_191_cif.got.tgz:381952.got - 2010.06.27 13:26:56.
