data_PCOD8031701
_publ_section_title
;
Structure prediction by ZEFSAII (Michael W. Deem and Ramdas Pophale) SiO2 
 PCOD8031701
Probable space group: P -1
;
_chemical_formula_sum "Si O2"
_cell_formula_units_Z 16
_cell_length_a 9.110969
_cell_length_b 9.508862
_cell_length_c 15.576182
_cell_angle_alpha 35.452254
_cell_angle_beta 98.362410
_cell_angle_gamma 90.413797
_cell_volume 759.696402
_symmetry_space_group_name_H-M "P -1"
_symmetry_group_IT_number 2
_symmetry_cell_setting 'triclinic'
loop_
_space_group_symop_operation_xyz
x,y,z
-x,-y,-z
loop_
_atom_site_type_symbol
_atom_site_label
_atom_site_fract_x
_atom_site_fract_y
_atom_site_fract_z
Si Si1 0.867710 0.694880 0.149389
Si Si2 0.455838 0.287857 0.847537
Si Si3 0.398762 0.504179 0.406530
Si Si4 0.078204 0.734293 0.891686
Si Si5 0.892654 0.113790 0.817804
Si Si6 0.415513 0.493089 0.084785
Si Si7 0.113938 0.822279 0.659596
Si Si8 0.571032 0.024370 0.402156
O O1 0.723994 0.649873 0.213641
O O2 0.919032 0.452872 0.216539
O O3 0.001828 0.722273 0.209968
O O4 0.825974 0.938264 0.965751
O O5 0.531297 0.396088 0.720715
O O6 0.501112 0.391978 0.889508
O O7 0.500000 0.000000 0.000000
O O8 0.500000 0.500000 0.500000
O O9 0.244058 0.684425 0.330966
O O10 0.374897 0.230076 0.517858
O O11 0.084345 0.872571 0.732833
O O12 0.244187 0.637668 0.993112
O O13 0.985284 0.948334 0.835247
O O14 0.000000 0.500000 0.000000
O O15 0.435039 0.200079 0.251388
O O16 0.500000 0.500000 0.000000
O O17 0.284744 0.844577 0.639902
O O18 0.000000 0.000000 0.500000
O O19 0.500000 0.000000 0.500000
#
# Coordination Sequence:
#
# PCOD8031701 Si02
#       8
#     2   2   2   2   2   2   2   2
#     4  11  22  45  73 102 137 186 234 296 364 424
#     4  12  24  45  74 104 138 187 238 297 364 426
#     4  12  29  46  71 107 149 195 238 301 366 432
#     4  12  27  45  74 108 141 194 241 300 360 429
#     4  11  26  45  70 106 146 183 242 294 360 441
#     4  12  26  47  77 108 142 185 254 302 355 439
#     4  12  26  46  71 105 145 186 236 293 367 433
#     4  12  26  47  74 107 144 194 243 303 364 427
#
# _framework density 21.061046000000001
#
# number of rings (size 3 to 8) (size 9 to 14) (size 15 to 20)
#    0.000    0.250    6.250    1.500    7.000    2.000 
#    0.000    1.875    0.000    0.000    0.000    0.000 
#    0.000    0.000    0.000    0.000    0.000    0.000 
#
# Total GULP energy -198400.775004 kJ/mol
# GULP energy per Si atom -12400.048438 kJ/mol
# Density = 2.101311 g / cm^3
# Si number density = 21.061046 Si / 1000 Ang^3
#
#
#
# Elastic Constant Matrix: (Units=GPa)
#
#
# Indices 1 2 3 4 5 6 
#
# 1 135.5742 69.0481 61.6863 1.3196 14.0716 -4.3433
# 2 69.0481 144.8684 65.6703 -6.5813 3.9552 -2.3055
# 3 61.6863 65.6703 141.9417 3.4515 20.9292 0.0332
# 4 1.3196 -6.5813 3.4515 45.6639 -6.1400 -3.2179
# 5 14.0716 3.9552 20.9292 -6.1400 47.2024 -3.4633
# 6 -4.3433 -2.3055 0.0332 -3.2179 -3.4633 39.8302
#
#
#
# Elastic Compliance Matrix: (Units=1/GPa)
#
#
# Indices 1 2 3 4 5 6 
#
# 1 0.010776 -0.003951 -0.002568 -0.000879 -0.001804 0.000721
# 2 -0.003951 0.010410 -0.003473 0.002207 0.002173 0.000542
# 3 -0.002568 -0.003473 0.010380 -0.001797 -0.003851 -0.000970
# 4 -0.000879 0.002207 -0.001797 0.023080 0.004041 0.002250
# 5 -0.001804 0.002173 -0.003851 0.004041 0.023946 0.002341
# 6 0.000721 0.000542 -0.000970 0.002250 0.002341 0.025603
#
#
# Mechanical properties :
#
#
# Convention : Reuss Voigt Hill
#
# Bulk Modulus (GPa) = 86.34801 90.57708 88.46255
# Shear Modulus (GPa) = 39.05057 41.60457 40.32757
#
# Velocity S-wave (km/s) = 4.31067 4.44940 4.38058
# Velocity P-wave (km/s) = 8.11565 8.33646 8.22679
#
# Compressibility (1/GPa) = 0.01158104
#
# Stress axis : x y z
#
# Youngs Moduli (GPa) = 92.80263 96.06039 96.34180
#
# Poissons Ratio (x) = 0.37955 0.24738
# Poissons Ratio (y) = 0.36668 0.33463
# Poissons Ratio (z) = 0.23829 0.33365
#
# Static dielectric constant tensor:
#      x y z
#    x 3.914250 0.157890 0.044750 
#    y 0.157890 3.504060 -0.495760 
#    z 0.044750 -0.495760 3.548250 
# 
# 
# High freq. dielectric constant tensor:
#      x y z
#    x 1.836270 -0.003130 0.001770 
#    y -0.003130 1.839000 -0.009200 
#    z 0.001770 -0.009200 1.836430 
# 
# From -- ./inp_files/188545.got.cif
#   From: 2010.06.25/outbox.cif.g09.slc.cpg/sg2_95_cif.got.tgz:188545.got - 2010.06.27 13:26:56.
