data_PCOD8031527
_publ_section_title
;
Structure prediction by ZEFSAII (Michael W. Deem and Ramdas Pophale) SiO2 
 PCOD8031527
Probable space group: P -1
;
_chemical_formula_sum "Si O2"
_cell_formula_units_Z 16
_cell_length_a 8.506701
_cell_length_b 15.103859
_cell_length_c 13.531550
_cell_angle_alpha 125.664722
_cell_angle_beta 137.571199
_cell_angle_gamma 85.235198
_cell_volume 737.297552
_symmetry_space_group_name_H-M "P -1"
_symmetry_group_IT_number 2
_symmetry_cell_setting 'triclinic'
loop_
_space_group_symop_operation_xyz
x,y,z
-x,-y,-z
loop_
_atom_site_type_symbol
_atom_site_label
_atom_site_fract_x
_atom_site_fract_y
_atom_site_fract_z
Si Si1 0.950416 0.300756 0.319256
Si Si2 0.745584 0.820936 0.878747
Si Si3 0.668177 0.102258 0.884274
Si Si4 0.574713 0.391523 0.250613
Si Si5 0.882657 0.884738 0.670046
Si Si6 0.688962 0.631608 0.101544
Si Si7 0.633358 0.208254 0.480381
Si Si8 0.226949 0.116401 0.601732
O O1 0.254612 0.452683 0.522105
O O2 0.052813 0.225075 0.378860
O O3 0.781050 0.344162 0.331174
O O4 0.706296 0.190221 0.054254
O O5 0.708597 0.723280 0.887052
O O6 0.453806 0.741731 0.621116
O O7 0.007200 0.850797 0.952451
O O8 0.843546 0.971649 0.055233
O O9 0.543163 0.144772 0.769199
O O10 0.426673 0.933817 0.673875
O O11 0.480310 0.389740 0.093183
O O12 0.564811 0.816663 0.531999
O O13 0.890037 0.934114 0.595784
O O14 0.724041 0.745078 0.260606
O O15 0.013560 0.673660 0.254086
O O16 0.500000 0.500000 0.000000
O O17 0.000000 0.000000 0.500000
#
# Coordination Sequence:
#
# PCOD8031527 Si02
#       8
#     2   2   2   2   2   2   2   2
#     4  11  23  46  66  95 138 175 228 271 329 403
#     4  11  24  42  71 103 131 174 223 281 335 390
#     4  11  22  44  70  99 138 169 225 278 330 400
#     4  11  27  42  67  99 135 179 222 276 332 390
#     4  11  24  44  70 100 136 175 223 273 339 401
#     4  12  27  47  65  96 142 178 223 274 335 399
#     4  11  24  44  71 100 136 174 220 284 337 391
#     4  12  25  42  68 101 134 181 221 272 332 394
#
# _framework density 21.700870999999999
#
# number of rings (size 3 to 8) (size 9 to 14) (size 15 to 20)
#    0.000    0.750    5.000    2.250    7.000    2.000 
#    2.250    1.250    0.000    0.000    0.000    0.000 
#    0.000    0.000    0.000    0.000    0.000    0.000 
#
# Total GULP energy -198322.324196 kJ/mol
# GULP energy per Si atom -12395.145262 kJ/mol
# Density = 2.165148 g / cm^3
# Si number density = 21.700871 Si / 1000 Ang^3
#
#
#
# Elastic Constant Matrix: (Units=GPa)
#
#
# Indices 1 2 3 4 5 6 
#
# 1 61.0151 50.1421 35.0799 -4.1057 -5.6371 15.5427
# 2 50.1421 125.4917 41.4040 -5.1621 6.5518 6.9070
# 3 35.0799 41.4040 87.7350 -0.2220 12.9120 0.6458
# 4 -4.1057 -5.1621 -0.2220 42.5127 -1.3120 6.0139
# 5 -5.6371 6.5518 12.9120 -1.3120 30.1182 2.7337
# 6 15.5427 6.9070 0.6458 6.0139 2.7337 39.3824
#
#
#
# Elastic Compliance Matrix: (Units=1/GPa)
#
#
# Indices 1 2 3 4 5 6 
#
# 1 0.038151 -0.011009 -0.012349 0.004884 0.016386 -0.014807
# 2 -0.011009 0.012796 -0.000971 -0.000003 -0.004650 0.002440
# 3 -0.012349 -0.000971 0.018302 -0.002368 -0.010580 0.005840
# 4 0.004884 -0.000003 -0.002368 0.024932 0.003555 -0.005942
# 5 0.016386 -0.004650 -0.010580 0.003555 0.042787 -0.008991
# 6 -0.014807 0.002440 0.005840 -0.005942 -0.008991 0.032243
#
#
# Mechanical properties :
#
#
# Convention : Reuss Voigt Hill
#
# Bulk Modulus (GPa) = 48.56436 58.61041 53.58739
# Shear Modulus (GPa) = 22.24873 32.24371 27.24622
#
# Velocity S-wave (km/s) = 3.20542 3.85882 3.54720
# Velocity P-wave (km/s) = 6.01059 6.84989 6.44392
#
# Compressibility (1/GPa) = 0.02059123
#
# Stress axis : x y z
#
# Youngs Moduli (GPa) = 26.21176 78.14925 54.63992
#
# Poissons Ratio (x) = 0.86035 0.67475
# Poissons Ratio (y) = 0.28857 0.05303
# Poissons Ratio (z) = 0.32369 0.07585
#
# Static dielectric constant tensor:
#      x y z
#    x 3.757970 -0.081070 0.121580 
#    y -0.081070 4.076270 -0.048240 
#    z 0.121580 -0.048240 3.935030 
# 
# 
# High freq. dielectric constant tensor:
#      x y z
#    x 1.841440 -0.007100 0.000700 
#    y -0.007100 1.867270 -0.004610 
#    z 0.000700 -0.004610 1.854620 
# 
# From -- ./inp_files/188666.got.cif
#   From: 2010.06.25/outbox.cif.g09.slc.cpg/sg2_95_cif.got.tgz:188666.got - 2010.06.27 13:26:56.
