data_PCOD8031598
_publ_section_title
;
Structure prediction by ZEFSAII (Michael W. Deem and Ramdas Pophale) SiO2 
 PCOD8031598
Probable space group: P -1
;
_chemical_formula_sum "Si O2"
_cell_formula_units_Z 14
_cell_length_a 9.361859
_cell_length_b 8.975547
_cell_length_c 9.327425
_cell_angle_alpha 93.454443
_cell_angle_beta 88.719952
_cell_angle_gamma 57.128041
_cell_volume 655.657477
_symmetry_space_group_name_H-M "P -1"
_symmetry_group_IT_number 2
_symmetry_cell_setting 'triclinic'
loop_
_space_group_symop_operation_xyz
x,y,z
-x,-y,-z
loop_
_atom_site_type_symbol
_atom_site_label
_atom_site_fract_x
_atom_site_fract_y
_atom_site_fract_z
Si Si1 0.828086 0.138898 0.595216
Si Si2 0.488226 0.176560 0.550262
Si Si3 0.652374 0.832026 0.161614
Si Si4 0.031727 0.597605 0.129195
Si Si5 0.154197 0.847502 0.078101
Si Si6 0.286185 0.462894 0.340194
Si Si7 0.483617 0.780144 0.907745
O O1 0.674027 0.140928 0.521920
O O2 0.850240 0.080164 0.757811
O O3 0.779126 0.339974 0.595316
O O4 0.000000 0.000000 0.500000
O O5 0.434172 0.220931 0.718959
O O6 0.341564 0.339370 0.470208
O O7 0.500000 0.000000 0.500000
O O8 0.846788 0.756588 0.193933
O O9 0.566208 0.042784 0.167129
O O10 0.633065 0.746389 0.011689
O O11 0.141468 0.675752 0.074600
O O12 0.130586 0.471251 0.257211
O O13 0.000000 0.500000 0.000000
O O14 0.329029 0.792862 0.995218
O O15 0.000000 0.000000 0.000000
O O16 0.444182 0.379676 0.218553
#
# Coordination Sequence:
#
# PCOD8031598 Si02
#       7
#     2   2   2   2   2   2   2
#     4  11  28  50  67 101 145 185 230 292 347 418
#     4  12  26  46  71 101 136 190 233 282 356 417
#     4  11  23  43  70 102 144 177 230 297 347 408
#     4  11  24  43  66 105 141 171 227 296 344 405
#     4  11  24  43  74 101 133 184 232 278 352 411
#     4  11  26  45  73 100 139 185 238 284 348 420
#     4  11  22  44  74 103 137 184 235 290 344 417
#
# _framework density 21.352613000000002
#
# number of rings (size 3 to 8) (size 9 to 14) (size 15 to 20)
#    0.000    0.857    5.714    0.429    6.000    5.143 
#    2.571    0.000    0.000    0.000    0.000    0.000 
#    0.000    0.000    0.000    0.000    0.000    0.000 
#
# Total GULP energy -173597.585295 kJ/mol
# GULP energy per Si atom -12399.827521 kJ/mol
# Density = 2.130401 g / cm^3
# Si number density = 21.352613 Si / 1000 Ang^3
#
#
#
# Elastic Constant Matrix: (Units=GPa)
#
#
# Indices 1 2 3 4 5 6 
#
# 1 137.1752 54.0677 49.3349 -8.8741 6.8687 -12.2857
# 2 54.0677 129.5711 73.1732 -4.1062 7.8319 -9.7532
# 3 49.3349 73.1732 124.9271 -6.3165 -0.6394 -12.1461
# 4 -8.8741 -4.1062 -6.3165 45.4542 -7.1515 11.4306
# 5 6.8687 7.8319 -0.6394 -7.1515 44.1681 0.8539
# 6 -12.2857 -9.7532 -12.1461 11.4306 0.8539 35.5725
#
#
#
# Elastic Compliance Matrix: (Units=1/GPa)
#
#
# Indices 1 2 3 4 5 6 
#
# 1 0.009239 -0.002542 -0.001970 0.000752 -0.000924 0.001601
# 2 -0.002542 0.012481 -0.006288 -0.000735 -0.002041 0.000682
# 3 -0.001970 -0.006288 0.012670 0.000651 0.001678 0.001672
# 4 0.000752 -0.000735 0.000651 0.024788 0.004187 -0.007785
# 5 -0.000924 -0.002041 0.001678 0.004187 0.023892 -0.002225
# 6 0.001601 0.000682 0.001672 -0.007785 -0.002225 0.031978
#
#
# Mechanical properties :
#
#
# Convention : Reuss Voigt Hill
#
# Bulk Modulus (GPa) = 78.19357 82.75835 80.47596
# Shear Modulus (GPa) = 35.48353 39.37881 37.43117
#
# Velocity S-wave (km/s) = 4.08093 4.29909 4.19143
# Velocity P-wave (km/s) = 7.67495 7.96775 7.82272
#
# Compressibility (1/GPa) = 0.01278878
#
# Stress axis : x y z
#
# Youngs Moduli (GPa) = 108.23677 80.12215 78.92767
#
# Poissons Ratio (x) = 0.20369 0.15553
# Poissons Ratio (y) = 0.27516 0.49628
# Poissons Ratio (z) = 0.21328 0.50379
#
# Static dielectric constant tensor:
#      x y z
#    x 4.280840 -0.288360 -0.013820 
#    y -0.288360 3.935850 -0.192340 
#    z -0.013820 -0.192340 4.242150 
# 
# 
# High freq. dielectric constant tensor:
#      x y z
#    x 1.843910 -0.016640 0.012670 
#    y -0.016640 1.843470 -0.002920 
#    z 0.012670 -0.002920 1.843530 
# 
# From -- ./inp_files/158584.got.cif
#   From: 2010.06.25/outbox.cif.g09.slc.cpg/sg2_80_cif.got.tgz:158584.got - 2010.06.27 13:26:56.
