data_PCOD8031874
_publ_section_title
;
Structure prediction by ZEFSAII (Michael W. Deem and Ramdas Pophale) SiO2 
 PCOD8031874
Probable space group: P -1
;
_chemical_formula_sum "Si O2"
_cell_formula_units_Z 14
_cell_length_a 8.178707
_cell_length_b 12.957284
_cell_length_c 8.812962
_cell_angle_alpha 61.360401
_cell_angle_beta 128.991764
_cell_angle_gamma 115.957110
_cell_volume 624.270127
_symmetry_space_group_name_H-M "P -1"
_symmetry_group_IT_number 2
_symmetry_cell_setting 'triclinic'
loop_
_space_group_symop_operation_xyz
x,y,z
-x,-y,-z
loop_
_atom_site_type_symbol
_atom_site_label
_atom_site_fract_x
_atom_site_fract_y
_atom_site_fract_z
Si Si1 0.267773 0.523360 0.819936
Si Si2 0.597414 0.904539 0.028472
Si Si3 0.285856 0.106636 0.234610
Si Si4 0.948706 0.125469 0.581479
Si Si5 0.977418 0.285362 0.915938
Si Si6 0.190501 0.726192 0.856594
Si Si7 0.697454 0.272395 0.509634
O O1 0.195661 0.612399 0.836797
O O2 0.278928 0.587053 0.616995
O O3 0.105093 0.397483 0.816975
O O4 0.500000 0.500000 0.000000
O O5 0.807582 0.887611 0.253133
O O6 0.647572 0.942499 0.854241
O O7 0.430343 0.778546 0.018375
O O8 0.500000 0.000000 0.000000
O O9 0.478854 0.197817 0.363967
O O10 0.216545 0.997080 0.386351
O O11 0.087245 0.170863 0.041964
O O12 0.900101 0.165869 0.354405
O O13 0.905073 0.229535 0.592783
O O14 0.734039 0.257386 0.722202
O O15 0.965217 0.317565 0.062395
#
# Coordination Sequence:
#
# PCOD8031874 Si02
#       7
#     2   2   2   2   2   2   2
#     4  11  22  49  73  97 137 180 233 290 341 400
#     4  12  25  42  67 103 142 180 229 282 337 408
#     4  12  24  45  70 103 141 182 231 282 339 418
#     4  11  25  44  69  97 142 185 223 276 348 404
#     4  12  25  44  74 100 138 183 232 280 348 404
#     4  11  27  46  66 107 143 177 229 292 332 412
#     4  11  24  43  74  99 132 184 230 279 344 410
#
# _framework density 22.426189999999998
#
# number of rings (size 3 to 8) (size 9 to 14) (size 15 to 20)
#    0.000    0.571    5.714    2.571    2.000    3.429 
#    0.000    0.714    0.000    0.000    0.000    0.000 
#    0.000    0.000    0.000    0.000    0.000    0.000 
#
# Total GULP energy -173568.662502 kJ/mol
# GULP energy per Si atom -12397.761607 kJ/mol
# Density = 2.237515 g / cm^3
# Si number density = 22.426190 Si / 1000 Ang^3
#
#
#
# Elastic Constant Matrix: (Units=GPa)
#
#
# Indices 1 2 3 4 5 6 
#
# 1 66.6816 12.3418 59.8413 -0.6368 4.6439 1.0189
# 2 12.3418 65.5433 35.4195 -13.7011 -13.8531 3.0778
# 3 59.8413 35.4195 159.5824 -8.5137 -8.7964 0.3369
# 4 -0.6368 -13.7011 -8.5137 39.5708 -1.7056 -0.8528
# 5 4.6439 -13.8531 -8.7964 -1.7056 32.0859 -1.7936
# 6 1.0189 3.0778 0.3369 -0.8528 -1.7936 34.1774
#
#
#
# Elastic Compliance Matrix: (Units=1/GPa)
#
#
# Indices 1 2 3 4 5 6 
#
# 1 0.023947 -0.001453 -0.009157 -0.002400 -0.006782 -0.000909
# 2 -0.001453 0.020502 -0.003176 0.006733 0.008484 -0.001158
# 3 -0.009157 -0.003176 0.010630 0.001182 0.002967 0.000639
# 4 -0.002400 0.006733 0.001182 0.028047 0.005093 0.000421
# 5 -0.006782 0.008484 0.002967 0.005093 0.036978 0.001476
# 6 -0.000909 -0.001158 0.000639 0.000421 0.001476 0.029472
#
#
# Mechanical properties :
#
#
# Convention : Reuss Voigt Hill
#
# Bulk Modulus (GPa) = 36.35539 56.33473 46.34506
# Shear Modulus (GPa) = 26.83594 33.44713 30.14154
#
# Velocity S-wave (km/s) = 3.46299 3.86610 3.67008
# Velocity P-wave (km/s) = 5.67768 6.71592 6.21850
#
# Compressibility (1/GPa) = 0.02750624
#
# Stress axis : x y z
#
# Youngs Moduli (GPa) = 41.75952 48.77523 94.07021
#
# Poissons Ratio (x) = 0.07087 0.86141
# Poissons Ratio (y) = 0.06068 0.29879
# Poissons Ratio (z) = 0.38240 0.15492
#
# Static dielectric constant tensor:
#      x y z
#    x 4.073030 0.020860 -0.026740 
#    y 0.020860 4.125570 -0.071940 
#    z -0.026740 -0.071940 4.526380 
# 
# 
# High freq. dielectric constant tensor:
#      x y z
#    x 1.875250 0.004260 0.003620 
#    y 0.004260 1.882140 -0.001970 
#    z 0.003620 -0.001970 1.905450 
# 
# From -- ./inp_files/185505.got.cif
#   From: 2010.06.25/outbox.cif.g09.slc.cpg/sg2_93_cif.got.tgz:185505.got - 2010.06.27 13:26:56.
