data_PCOD8031695
_publ_section_title
;
Structure prediction by ZEFSAII (Michael W. Deem and Ramdas Pophale) SiO2 
 PCOD8031695
Probable space group: P -1
;
_chemical_formula_sum "Si O2"
_cell_formula_units_Z 16
_cell_length_a 15.009395
_cell_length_b 11.803429
_cell_length_c 9.039012
_cell_angle_alpha 106.558157
_cell_angle_beta 97.449349
_cell_angle_gamma 27.528162
_cell_volume 681.511524
_symmetry_space_group_name_H-M "P -1"
_symmetry_group_IT_number 2
_symmetry_cell_setting 'triclinic'
loop_
_space_group_symop_operation_xyz
x,y,z
-x,-y,-z
loop_
_atom_site_type_symbol
_atom_site_label
_atom_site_fract_x
_atom_site_fract_y
_atom_site_fract_z
Si Si1 0.995584 0.017680 0.830788
Si Si2 0.302745 0.792406 0.626856
Si Si3 0.332620 0.410026 0.044316
Si Si4 0.714453 0.948109 0.765793
Si Si5 0.711309 0.698078 0.531344
Si Si6 0.852595 0.562123 0.187919
Si Si7 0.576354 0.087046 0.254499
Si Si8 0.912234 0.888566 0.585340
O O1 0.794570 0.322324 0.847360
O O2 0.996473 0.885099 0.716546
O O3 0.199158 0.842252 0.755522
O O4 0.000000 0.000000 0.000000
O O5 0.500000 0.500000 0.500000
O O6 0.355577 0.858915 0.722586
O O7 0.147397 0.977856 0.527940
O O8 0.414257 0.251041 0.151326
O O9 0.180273 0.504878 0.959151
O O10 0.528397 0.212412 0.919033
O O11 0.668994 0.873802 0.661721
O O12 0.732190 0.025415 0.669881
O O13 0.914023 0.706942 0.820353
O O14 0.715717 0.702565 0.356606
O O15 0.536187 0.811726 0.578752
O O16 0.921044 0.404027 0.528315
O O17 0.776549 0.771198 0.168552
#
# Coordination Sequence:
#
# PCOD8031695 Si02
#       8
#     2   2   2   2   2   2   2   2
#     4  12  28  50  73 104 147 192 240 305 363 427
#     4  12  27  46  74 107 139 191 251 298 357 422
#     4  12  28  45  69 106 149 185 238 290 365 434
#     4  11  25  43  75 108 142 188 242 290 362 426
#     4  11  22  45  72 106 141 186 242 294 353 427
#     4  11  24  44  71 107 146 188 240 290 360 426
#     4  12  25  43  71 104 146 186 232 297 361 425
#     4  11  24  46  74  99 143 189 246 300 353 422
#
# _framework density 23.477225000000001
#
# number of rings (size 3 to 8) (size 9 to 14) (size 15 to 20)
#    0.000    0.500    1.250    7.875    7.000    1.000 
#    0.000    0.000    0.000    0.000    0.000    0.000 
#    0.000    0.000    0.000    0.000    0.000    0.000 
#
# Total GULP energy -198476.355663 kJ/mol
# GULP energy per Si atom -12404.772229 kJ/mol
# Density = 2.342379 g / cm^3
# Si number density = 23.477225 Si / 1000 Ang^3
#
#
#
# Elastic Constant Matrix: (Units=GPa)
#
#
# Indices 1 2 3 4 5 6 
#
# 1 130.4025 10.5387 44.9549 8.5039 -13.5121 -1.8665
# 2 10.5387 112.3058 30.7510 -1.4383 -15.4033 2.3734
# 3 44.9549 30.7510 87.5381 4.1897 -4.1282 -4.3174
# 4 8.5039 -1.4383 4.1897 47.5840 -13.8672 -0.9151
# 5 -13.5121 -15.4033 -4.1282 -13.8672 29.2877 -5.1735
# 6 -1.8665 2.3734 -4.3174 -0.9151 -5.1735 32.7046
#
#
#
# Elastic Compliance Matrix: (Units=1/GPa)
#
#
# Indices 1 2 3 4 5 6 
#
# 1 0.009846 0.001112 -0.005212 0.000057 0.004509 0.000508
# 2 0.001112 0.010923 -0.004212 0.002486 0.006817 -0.000137
# 3 -0.005212 -0.004212 0.015592 -0.001348 -0.002780 0.001589
# 4 0.000057 0.002486 -0.001348 0.025183 0.013507 0.002486
# 5 0.004509 0.006817 -0.002780 0.013507 0.047089 0.007222
# 6 0.000508 -0.000137 0.001589 0.002486 0.007222 0.032038
#
#
# Mechanical properties :
#
#
# Convention : Reuss Voigt Hill
#
# Bulk Modulus (GPa) = 50.66964 55.85951 53.26457
# Shear Modulus (GPa) = 30.51114 38.18205 34.34659
#
# Velocity S-wave (km/s) = 3.60892 4.03717 3.82904
# Velocity P-wave (km/s) = 6.24460 6.75103 6.50275
#
# Compressibility (1/GPa) = 0.01973569
#
# Stress axis : x y z
#
# Youngs Moduli (GPa) = 101.56049 91.54965 64.13644
#
# Poissons Ratio (x) = -0.10177 0.33428
# Poissons Ratio (y) = -0.11290 0.27016
# Poissons Ratio (z) = 0.52934 0.38563
#
# Static dielectric constant tensor:
#      x y z
#    x 4.192190 0.115040 -0.065060 
#    y 0.115040 4.467690 0.014520 
#    z -0.065060 0.014520 4.307300 
# 
# 
# High freq. dielectric constant tensor:
#      x y z
#    x 1.931280 0.002820 -0.003290 
#    y 0.002820 1.947250 0.000450 
#    z -0.003290 0.000450 1.934070 
# 
# From -- ./inp_files/307723.got.cif
#   From: 2010.06.25/outbox.cif.g09.slc.cpg/sg2_154_cif.got.tgz:307723.got - 2010.06.27 13:26:56.
