data_PCOD8031236
_publ_section_title
;
Structure prediction by ZEFSAII (Michael W. Deem and Ramdas Pophale) SiO2 
 PCOD8031236
Probable space group: P -1
;
_chemical_formula_sum "Si O2"
_cell_formula_units_Z 14
_cell_length_a 7.774993
_cell_length_b 9.495267
_cell_length_c 9.603363
_cell_angle_alpha 96.565785
_cell_angle_beta 120.010249
_cell_angle_gamma 113.540626
_cell_volume 516.903959
_symmetry_space_group_name_H-M "P -1"
_symmetry_group_IT_number 2
_symmetry_cell_setting 'triclinic'
loop_
_space_group_symop_operation_xyz
x,y,z
-x,-y,-z
loop_
_atom_site_type_symbol
_atom_site_label
_atom_site_fract_x
_atom_site_fract_y
_atom_site_fract_z
Si Si1 0.186912 0.806698 0.186869
Si Si2 0.915534 0.263125 0.285588
Si Si3 0.699536 0.558170 0.884354
Si Si4 0.500570 0.720014 0.998016
Si Si5 0.199734 0.115185 0.332005
Si Si6 0.713212 0.962623 0.339594
Si Si7 0.698198 0.388613 0.594473
O O1 0.437679 0.887358 0.228792
O O2 0.186956 0.714416 0.318217
O O3 0.124771 0.945305 0.205831
O O4 0.981803 0.669123 0.990032
O O5 0.677488 0.225353 0.115500
O O6 0.031301 0.181337 0.228782
O O7 0.111435 0.460312 0.409603
O O8 0.848171 0.163629 0.394836
O O9 0.593961 0.672384 0.893408
O O10 0.606507 0.455559 0.691845
O O11 0.643394 0.436212 0.976767
O O12 0.724201 0.871489 0.191014
O O13 0.186113 0.082472 0.491281
O O14 0.460530 0.258927 0.402803
#
# Coordination Sequence:
#
# PCOD8031236 Si02
#       7
#     2   2   2   2   2   2   2
#     4  11  22  44  72  97 130 184 224 264 336 410
#     4  12  25  42  68 105 136 171 226 286 324 389
#     4  11  22  42  74  97 132 179 224 274 338 396
#     4  11  23  42  69 104 132 171 230 279 329 393
#     4  11  25  46  69  96 139 184 217 267 347 402
#     4  11  23  44  69  97 141 176 220 274 339 396
#     4  11  22  45  71  98 132 178 227 274 328 399
#
# _framework density 27.084334999999999
#
# number of rings (size 3 to 8) (size 9 to 14) (size 15 to 20)
#    0.000    0.857    4.286    5.143    0.000    1.143 
#    0.000    7.857    0.000    0.000    0.000    0.000 
#    0.000    0.000    0.000    0.000    0.000    0.000 
#
# Total GULP energy -173565.321251 kJ/mol
# GULP energy per Si atom -12397.522947 kJ/mol
# Density = 2.702269 g / cm^3
# Si number density = 27.084335 Si / 1000 Ang^3
#
#
#
# Elastic Constant Matrix: (Units=GPa)
#
#
# Indices 1 2 3 4 5 6 
#
# 1 56.2732 25.8501 6.4614 -7.5098 7.3503 -13.0990
# 2 25.8501 152.5977 10.7076 9.2051 18.2208 7.8554
# 3 6.4614 10.7076 51.0284 1.4246 1.8627 -4.2892
# 4 -7.5098 9.2051 1.4246 34.3635 -7.1901 9.9782
# 5 7.3503 18.2208 1.8627 -7.1901 28.5450 -3.2144
# 6 -13.0990 7.8554 -4.2892 9.9782 -3.2144 58.7445
#
#
#
# Elastic Compliance Matrix: (Units=1/GPa)
#
#
# Indices 1 2 3 4 5 6 
#
# 1 0.021490 -0.003838 -0.001612 0.004218 -0.001421 0.004393
# 2 -0.003838 0.008216 -0.001088 -0.003604 -0.005286 -0.001711
# 3 -0.001612 -0.001088 0.020208 -0.001411 -0.000398 0.001479
# 4 0.004218 -0.003604 -0.001411 0.034180 0.009469 -0.003968
# 5 -0.001421 -0.005286 -0.000398 0.009469 0.041297 0.001012
# 6 0.004393 -0.001711 0.001479 -0.003968 0.001012 0.019069
#
#
# Mechanical properties :
#
#
# Convention : Reuss Voigt Hill
#
# Bulk Modulus (GPa) = 27.14720 38.43749 32.79235
# Shear Modulus (GPa) = 29.44359 38.78929 34.11644
#
# Velocity S-wave (km/s) = 3.30071 3.78850 3.55299
# Velocity P-wave (km/s) = 4.95694 5.77578 5.38195
#
# Compressibility (1/GPa) = 0.03683620
#
# Stress axis : x y z
#
# Youngs Moduli (GPa) = 46.53342 121.70876 49.48603
#
# Poissons Ratio (x) = 0.46714 0.07979
# Poissons Ratio (y) = 0.17860 0.05386
# Poissons Ratio (z) = 0.07503 0.13246
#
# Static dielectric constant tensor:
#      x y z
#    x 5.106280 0.069890 0.123930 
#    y 0.069890 5.436480 0.291010 
#    z 0.123930 0.291010 4.494150 
# 
# 
# High freq. dielectric constant tensor:
#      x y z
#    x 2.096200 0.004950 0.021040 
#    y 0.004950 2.114580 0.009780 
#    z 0.021040 0.009780 2.063320 
# 
# From -- ./inp_files/379706.got.cif
#   From: 2010.06.25/outbox.cif.g09.slc.cpg/sg2_190_cif.got.tgz:379706.got - 2010.06.27 13:26:56.
