data_PCOD8031785
_publ_section_title
;
Structure prediction by ZEFSAII (Michael W. Deem and Ramdas Pophale) SiO2 
 PCOD8031785
Probable space group: P -1
;
_chemical_formula_sum "Si O2"
_cell_formula_units_Z 12
_cell_length_a 12.001108
_cell_length_b 7.985622
_cell_length_c 5.117925
_cell_angle_alpha 111.492569
_cell_angle_beta 99.203184
_cell_angle_gamma 88.940358
_cell_volume 450.072947
_symmetry_space_group_name_H-M "P -1"
_symmetry_group_IT_number 2
_symmetry_cell_setting 'triclinic'
loop_
_space_group_symop_operation_xyz
x,y,z
-x,-y,-z
loop_
_atom_site_type_symbol
_atom_site_label
_atom_site_fract_x
_atom_site_fract_y
_atom_site_fract_z
Si Si1 0.292367 0.195955 0.910199
Si Si2 0.242760 0.784323 0.768009
Si Si3 0.962783 0.384801 0.667885
Si Si4 0.182692 0.295204 0.445968
Si Si5 0.517056 0.379923 0.186026
Si Si6 0.085771 0.927143 0.197625
O O1 0.221033 0.294816 0.163388
O O2 0.423749 0.213646 0.048748
O O3 0.275901 0.332101 0.729282
O O4 0.257683 0.981983 0.752722
O O5 0.171381 0.630182 0.480269
O O6 0.362089 0.704733 0.820362
O O7 0.172517 0.794413 0.015238
O O8 0.979142 0.178345 0.651650
O O9 0.062287 0.402859 0.478212
O O10 0.000000 0.500000 0.000000
O O11 0.157606 0.094635 0.431517
O O12 0.500000 0.500000 0.500000
O O13 0.500000 0.500000 0.000000
O O14 0.000000 0.000000 0.000000
#
# Coordination Sequence:
#
# PCOD8031785 Si02
#       6
#     2   2   2   2   2   2
#     4  11  25  47  78 103 144 198 254 299 367 451
#     4  11  26  47  74 106 148 199 251 303 367 461
#     4  12  26  40  70 112 157 189 243 312 385 440
#     4  11  23  44  73 109 146 195 247 300 369 454
#     4  12  30  51  75 107 149 195 252 318 379 432
#     4  11  22  46  72 110 149 197 249 303 368 461
#
# _framework density 26.662344999999998
#
# number of rings (size 3 to 8) (size 9 to 14) (size 15 to 20)
#    0.000    0.667    3.333    4.000    7.000    0.667 
#    0.000    4.167    0.000    0.000    0.000    0.000 
#    0.000    0.000    0.000    0.000    0.000    0.000 
#
# Total GULP energy -148698.830942 kJ/mol
# GULP energy per Si atom -12391.569245 kJ/mol
# Density = 2.660166 g / cm^3
# Si number density = 26.662345 Si / 1000 Ang^3
#
#
#
# Elastic Constant Matrix: (Units=GPa)
#
#
# Indices 1 2 3 4 5 6 
#
# 1 175.2308 55.2636 51.7632 -3.0710 16.7211 -37.6641
# 2 55.2636 84.0855 4.7526 -12.3541 10.2372 -19.7004
# 3 51.7632 4.7526 78.8979 -2.6463 9.1419 -20.6613
# 4 -3.0710 -12.3541 -2.6463 55.1591 4.6432 14.4312
# 5 16.7211 10.2372 9.1419 4.6432 54.4672 6.1241
# 6 -37.6641 -19.7004 -20.6613 14.4312 6.1241 58.8547
#
#
#
# Elastic Compliance Matrix: (Units=1/GPa)
#
#
# Indices 1 2 3 4 5 6 
#
# 1 0.009702 -0.005434 -0.005122 -0.001631 -0.001310 0.003128
# 2 -0.005434 0.016728 0.003750 0.003076 -0.002701 0.002965
# 3 -0.005122 0.003750 0.017208 0.000506 -0.002531 0.004158
# 4 -0.001631 0.003076 0.000506 0.020074 -0.001354 -0.004618
# 5 -0.001310 -0.002701 -0.002531 -0.001354 0.020306 -0.004412
# 6 0.003128 0.002965 0.004158 -0.004618 -0.004412 0.023036
#
#
# Mechanical properties :
#
#
# Convention : Reuss Voigt Hill
#
# Bulk Modulus (GPa) = 33.30415 62.41923 47.86169
# Shear Modulus (GPa) = 38.26271 48.79185 43.52728
#
# Velocity S-wave (km/s) = 3.79236 4.28248 4.04485
# Velocity P-wave (km/s) = 5.62976 6.92204 6.30908
#
# Compressibility (1/GPa) = 0.03002629
#
# Stress axis : x y z
#
# Youngs Moduli (GPa) = 103.06630 59.78109 58.11164
#
# Poissons Ratio (x) = 0.32488 0.29764
# Poissons Ratio (y) = 0.56011 -0.21794
# Poissons Ratio (z) = 0.52790 -0.22420
#
# Static dielectric constant tensor:
#      x y z
#    x 5.362300 0.221560 0.527780 
#    y 0.221560 5.895520 0.397190 
#    z 0.527780 0.397190 4.796810 
# 
# 
# High freq. dielectric constant tensor:
#      x y z
#    x 2.078340 0.010290 0.014340 
#    y 0.010290 2.117510 -0.000090 
#    z 0.014340 -0.000090 2.084940 
# 
# From -- ./inp_files/30339.got.cif
#   From: 2010.06.25/outbox.cif.g09.slc.cpg/sg2_16_cif.got.tgz:30339.got - 2010.06.27 13:26:56.
