data_PCOD8031493
_publ_section_title
;
Structure prediction by ZEFSAII (Michael W. Deem and Ramdas Pophale) SiO2 
 PCOD8031493
Probable space group: P -1
;
_chemical_formula_sum "Si O2"
_cell_formula_units_Z 16
_cell_length_a 8.337175
_cell_length_b 11.788772
_cell_length_c 8.532410
_cell_angle_alpha 114.078148
_cell_angle_beta 110.399759
_cell_angle_gamma 80.541232
_cell_volume 717.382617
_symmetry_space_group_name_H-M "P -1"
_symmetry_group_IT_number 2
_symmetry_cell_setting 'triclinic'
loop_
_space_group_symop_operation_xyz
x,y,z
-x,-y,-z
loop_
_atom_site_type_symbol
_atom_site_label
_atom_site_fract_x
_atom_site_fract_y
_atom_site_fract_z
Si Si1 0.810240 0.033032 0.515469
Si Si2 0.824613 0.208659 0.108202
Si Si3 0.042102 0.626958 0.504106
Si Si4 0.288224 0.204510 0.479364
Si Si5 0.165779 0.519169 0.169744
Si Si6 0.689329 0.988272 0.117982
Si Si7 0.200023 0.247445 0.132857
Si Si8 0.345215 0.741526 0.232303
O O1 0.687021 0.027770 0.320438
O O2 0.786028 0.168204 0.662992
O O3 0.753871 0.936766 0.574123
O O4 0.000000 0.000000 0.500000
O O5 0.815338 0.304251 0.304741
O O6 0.813858 0.071382 0.100729
O O7 0.001359 0.232154 0.093429
O O8 0.672618 0.232002 0.944990
O O9 0.122705 0.603759 0.351256
O O10 0.000000 0.500000 0.500000
O O11 0.868523 0.707780 0.468141
O O12 0.313178 0.214844 0.306608
O O13 0.459266 0.241516 0.646257
O O14 0.244476 0.385782 0.171552
O O15 0.302411 0.597197 0.163305
O O16 0.000000 0.500000 0.000000
O O17 0.500000 0.000000 0.000000
O O18 0.753317 0.845557 0.044757
#
# Coordination Sequence:
#
# PCOD8031493 Si02
#       8
#     2   2   2   2   2   2   2   2
#     4  12  24  42  70 101 129 175 223 272 321 399
#     4  11  22  44  69  93 128 176 216 264 324 389
#     4  11  22  46  68  94 129 172 226 259 324 395
#     4  11  24  42  68 101 132 172 215 280 330 380
#     4  12  24  45  69  97 131 175 225 263 318 405
#     4  12  25  42  64 100 133 165 217 276 328 380
#     4  11  23  44  67  92 132 178 215 261 328 391
#     4  12  24  43  67 102 137 171 216 276 332 379
#
# _framework density 22.3033
#
# number of rings (size 3 to 8) (size 9 to 14) (size 15 to 20)
#    0.000    0.500    3.750    6.750    1.750    0.500 
#    2.250    1.250    0.000    0.000    0.000    0.000 
#    0.000    0.000    0.000    0.000    0.000    0.000 
#
# Total GULP energy -198458.239517 kJ/mol
# GULP energy per Si atom -12403.639970 kJ/mol
# Density = 2.225254 g / cm^3
# Si number density = 22.303300 Si / 1000 Ang^3
#
#
#
# Elastic Constant Matrix: (Units=GPa)
#
#
# Indices 1 2 3 4 5 6 
#
# 1 37.5910 32.7490 23.9798 3.9303 13.3984 11.1391
# 2 32.7490 159.1794 47.3042 5.5163 2.2358 25.1913
# 3 23.9798 47.3042 162.2383 -10.5339 6.8500 -4.5369
# 4 3.9303 5.5163 -10.5339 44.3355 -4.4051 4.0539
# 5 13.3984 2.2358 6.8500 -4.4051 41.4986 -0.8498
# 6 11.1391 25.1913 -4.5369 4.0539 -0.8498 23.4953
#
#
#
# Elastic Compliance Matrix: (Units=1/GPa)
#
#
# Indices 1 2 3 4 5 6 
#
# 1 0.044538 -0.004484 -0.005453 -0.004521 -0.014068 -0.017090
# 2 -0.004484 0.009160 -0.002309 -0.000446 0.001124 -0.008024
# 3 -0.005453 -0.002309 0.007919 0.002174 0.000937 0.006249
# 4 -0.004521 -0.000446 0.002174 0.023979 0.003651 -0.000964
# 5 -0.014068 0.001124 0.000937 0.003651 0.028936 0.006062
# 6 -0.017090 -0.008024 0.006249 -0.000964 0.006062 0.060860
#
#
# Mechanical properties :
#
#
# Convention : Reuss Voigt Hill
#
# Bulk Modulus (GPa) = 26.93520 63.00829 44.97175
# Shear Modulus (GPa) = 23.55611 38.86427 31.21019
#
# Velocity S-wave (km/s) = 3.25340 4.17890 3.74485
# Velocity P-wave (km/s) = 5.12014 7.18305 6.23747
#
# Compressibility (1/GPa) = 0.03712613
#
# Stress axis : x y z
#
# Youngs Moduli (GPa) = 22.45276 109.16542 126.27266
#
# Poissons Ratio (x) = 0.48946 0.68858
# Poissons Ratio (y) = 0.10067 0.29156
# Poissons Ratio (z) = 0.12244 0.25206
#
# Static dielectric constant tensor:
#      x y z
#    x 3.551330 0.724380 0.149640 
#    y 0.724380 17.582730 2.241170 
#    z 0.149640 2.241170 4.876810 
# 
# 
# High freq. dielectric constant tensor:
#      x y z
#    x 1.858460 0.013720 0.003270 
#    y 0.013720 1.892990 -0.003560 
#    z 0.003270 -0.003560 1.899150 
# 
# From -- ./inp_files/190367.got.cif
#   From: 2010.06.25/outbox.cif.g09.slc.cpg/sg2_96_cif.got.tgz:190367.got - 2010.06.27 13:26:56.
