data_PCOD8031870
_publ_section_title
;
Structure prediction by ZEFSAII (Michael W. Deem and Ramdas Pophale) SiO2 
 PCOD8031870
Probable space group: P -1
;
_chemical_formula_sum "Si O2"
_cell_formula_units_Z 14
_cell_length_a 9.687025
_cell_length_b 9.541756
_cell_length_c 18.778739
_cell_angle_alpha 151.535364
_cell_angle_beta 123.371335
_cell_angle_gamma 66.761401
_cell_volume 673.388400
_symmetry_space_group_name_H-M "P -1"
_symmetry_group_IT_number 2
_symmetry_cell_setting 'triclinic'
loop_
_space_group_symop_operation_xyz
x,y,z
-x,-y,-z
loop_
_atom_site_type_symbol
_atom_site_label
_atom_site_fract_x
_atom_site_fract_y
_atom_site_fract_z
Si Si1 0.320029 0.295253 0.333166
Si Si2 0.574392 0.355844 0.246299
Si Si3 0.303409 0.790418 0.923633
Si Si4 0.228010 0.376250 0.183848
Si Si5 0.671583 0.390697 0.002346
Si Si6 0.140093 0.327243 0.437249
Si Si7 0.000264 0.663627 0.147640
O O1 0.500000 0.500000 0.500000
O O2 0.252655 0.412156 0.292403
O O3 0.167354 0.300733 0.348408
O O4 0.346624 0.955011 0.181686
O O5 0.702248 0.404373 0.236852
O O6 0.413255 0.512388 0.260759
O O7 0.676569 0.495143 0.405929
O O8 0.496933 0.998262 0.079152
O O9 0.262153 0.567217 0.878653
O O10 0.173536 0.016866 0.987609
O O11 0.090048 0.532017 0.180083
O O12 0.500000 0.500000 0.000000
O O13 0.804481 0.621068 0.094589
O O14 0.000000 0.500000 0.500000
O O15 0.092400 0.006942 0.318764
O O16 0.000000 0.500000 0.000000
#
# Coordination Sequence:
#
# PCOD8031870 Si02
#       7
#     2   2   2   2   2   2   2
#     4  11  22  48  72  99 131 185 218 273 344 398
#     4   9  19  39  66  97 126 176 218 265 344 387
#     4   8  19  38  69  93 126 178 220 270 335 402
#     4   9  21  41  71  92 133 168 233 264 331 407
#     4  11  25  42  68  97 135 177 225 276 335 402
#     4  12  27  42  68 101 141 175 221 283 334 403
#     4  12  28  43  64 104 132 178 228 281 335 384
#
# _framework density 20.790379000000001
#
# number of rings (size 3 to 8) (size 9 to 14) (size 15 to 20)
#    0.857    0.857    2.857    0.000    8.000    4.000 
#    2.571    1.429    0.000    0.000    0.000    0.000 
#    0.000    0.000    0.000    0.000    0.000    0.000 
#
# Total GULP energy -173449.652381 kJ/mol
# GULP energy per Si atom -12389.260884 kJ/mol
# Density = 2.074306 g / cm^3
# Si number density = 20.790379 Si / 1000 Ang^3
#
#
#
# Elastic Constant Matrix: (Units=GPa)
#
#
# Indices 1 2 3 4 5 6 
#
# 1 139.6349 56.0749 20.6260 -5.8745 -22.3540 9.6345
# 2 56.0749 117.6151 35.1254 -3.2745 -12.8552 2.5107
# 3 20.6260 35.1254 60.7361 -10.3919 -9.5894 4.9480
# 4 -5.8745 -3.2745 -10.3919 24.7241 1.7320 -1.6608
# 5 -22.3540 -12.8552 -9.5894 1.7320 34.6803 -4.1587
# 6 9.6345 2.5107 4.9480 -1.6608 -4.1587 41.6883
#
#
#
# Elastic Compliance Matrix: (Units=1/GPa)
#
#
# Indices 1 2 3 4 5 6 
#
# 1 0.009665 -0.004092 0.000158 0.001405 0.004507 -0.001501
# 2 -0.004092 0.012221 -0.005998 -0.001845 0.000433 0.000891
# 3 0.000158 -0.005998 0.021929 0.008117 0.003342 -0.001621
# 4 0.001405 -0.001845 0.008117 0.043964 0.000343 0.000609
# 5 0.004507 0.000433 0.003342 0.000343 0.033029 0.001844
# 6 -0.001501 0.000891 -0.001621 0.000609 0.001844 0.024681
#
#
# Mechanical properties :
#
#
# Convention : Reuss Voigt Hill
#
# Bulk Modulus (GPa) = 41.75090 60.18210 50.96650
# Shear Modulus (GPa) = 28.84547 33.96251 31.40399
#
# Velocity S-wave (km/s) = 3.72888 4.04613 3.89074
# Velocity P-wave (km/s) = 6.21811 7.13009 6.68965
#
# Compressibility (1/GPa) = 0.02395158
#
# Stress axis : x y z
#
# Youngs Moduli (GPa) = 103.46123 81.82350 45.60255
#
# Poissons Ratio (x) = 0.33479 -0.00721
# Poissons Ratio (y) = 0.42332 0.27354
# Poissons Ratio (z) = -0.01635 0.49081
#
# Static dielectric constant tensor:
#      x y z
#    x 4.039540 0.122270 -0.154370 
#    y 0.122270 3.527720 -0.245600 
#    z -0.154370 -0.245600 3.676760 
# 
# 
# High freq. dielectric constant tensor:
#      x y z
#    x 1.832730 0.014820 -0.006740 
#    y 0.014820 1.796800 -0.014390 
#    z -0.006740 -0.014390 1.796880 
# 
# From -- ./inp_files/557727.got.cif
#   From: 2010.06.25/outbox.cif.g09.slc.cpg/sg2_279_cif.got.tgz:557727.got - 2010.06.27 13:26:56.
