data_PCOD8031518
_publ_section_title
;
Structure prediction by ZEFSAII (Michael W. Deem and Ramdas Pophale) SiO2 
 PCOD8031518
Probable space group: P -1
;
_chemical_formula_sum "Si O2"
_cell_formula_units_Z 12
_cell_length_a 9.407340
_cell_length_b 8.999345
_cell_length_c 9.628246
_cell_angle_alpha 59.616876
_cell_angle_beta 100.178883
_cell_angle_gamma 128.740616
_cell_volume 536.503108
_symmetry_space_group_name_H-M "P -1"
_symmetry_group_IT_number 2
_symmetry_cell_setting 'triclinic'
loop_
_space_group_symop_operation_xyz
x,y,z
-x,-y,-z
loop_
_atom_site_type_symbol
_atom_site_label
_atom_site_fract_x
_atom_site_fract_y
_atom_site_fract_z
Si Si1 0.462830 0.050207 0.817571
Si Si2 0.196605 0.561199 0.955702
Si Si3 0.145938 0.307646 0.307253
Si Si4 0.129908 0.603919 0.342175
Si Si5 0.931089 0.765454 0.150821
Si Si6 0.800805 0.846261 0.348988
O O1 0.647792 0.243341 0.673020
O O2 0.343811 0.135616 0.756945
O O3 0.345356 0.820038 0.821302
O O4 0.500000 0.000000 0.000000
O O5 0.276259 0.503770 0.125041
O O6 0.198268 0.432879 0.886584
O O7 0.000000 0.500000 0.000000
O O8 0.044879 0.386300 0.336578
O O9 0.263010 0.281074 0.451955
O O10 0.997980 0.086874 0.298198
O O11 0.000000 0.500000 0.500000
O O12 0.110175 0.777040 0.187732
O O13 0.829802 0.711998 0.307844
O O14 0.000000 0.000000 0.000000
#
# Coordination Sequence:
#
# PCOD8031518 Si02
#       6
#     2   2   2   2   2   2
#     4  12  24  45  72 103 138 185 236 280 348 423
#     4  12  21  42  71 101 137 186 228 284 350 408
#     4  11  22  44  70  97 143 182 227 276 360 405
#     4  12  25  45  69  99 141 185 227 286 351 407
#     4  12  22  41  70 102 134 178 238 285 337 409
#     4  11  24  42  71 104 134 184 231 287 345 412
#
# _framework density 22.367065
#
# number of rings (size 3 to 8) (size 9 to 14) (size 15 to 20)
#    0.000    0.333    8.333    1.000    0.000    0.667 
#    0.000    8.333    0.000    0.000    0.000    0.000 
#    0.000    0.000    0.000    0.000    0.000    0.000 
#
# Total GULP energy -148658.010586 kJ/mol
# GULP energy per Si atom -12388.167549 kJ/mol
# Density = 2.231616 g / cm^3
# Si number density = 22.367065 Si / 1000 Ang^3
#
#
#
# Elastic Constant Matrix: (Units=GPa)
#
#
# Indices 1 2 3 4 5 6 
#
# 1 92.2281 46.5237 46.5540 14.3124 17.7463 -14.2152
# 2 46.5237 124.3914 37.4111 6.5042 -17.9484 -25.2187
# 3 46.5540 37.4111 102.4981 13.3797 4.7081 2.2214
# 4 14.3124 6.5042 13.3797 39.0178 -5.1450 -5.1045
# 5 17.7463 -17.9484 4.7081 -5.1450 48.8835 -2.5414
# 6 -14.2152 -25.2187 2.2214 -5.1045 -2.5414 39.7360
#
#
#
# Elastic Compliance Matrix: (Units=1/GPa)
#
#
# Indices 1 2 3 4 5 6 
#
# 1 0.019870 -0.006421 -0.005602 -0.005278 -0.009480 0.002062
# 2 -0.006421 0.014033 -0.003190 0.003249 0.008536 0.007751
# 3 -0.005602 -0.003190 0.014028 -0.003057 -0.001085 -0.005275
# 4 -0.005278 0.003249 -0.003057 0.029561 0.006753 0.004574
# 5 -0.009480 0.008536 -0.001085 0.006753 0.028094 0.004751
# 6 0.002062 0.007751 -0.005275 0.004574 0.004751 0.032009
#
#
# Mechanical properties :
#
#
# Convention : Reuss Voigt Hill
#
# Bulk Modulus (GPa) = 57.12157 64.45502 60.78830
# Shear Modulus (GPa) = 28.75954 38.10272 33.43113
#
# Velocity S-wave (km/s) = 3.58969 4.13185 3.87028
# Velocity P-wave (km/s) = 6.54025 7.18626 6.87085
#
# Compressibility (1/GPa) = 0.01750652
#
# Stress axis : x y z
#
# Youngs Moduli (GPa) = 50.32706 71.26082 71.28590
#
# Poissons Ratio (x) = 0.45754 0.39932
# Poissons Ratio (y) = 0.32313 0.22740
# Poissons Ratio (z) = 0.28192 0.22732
#
# Static dielectric constant tensor:
#      x y z
#    x 4.121460 -0.300770 0.387710 
#    y -0.300770 4.321280 0.036190 
#    z 0.387710 0.036190 4.590010 
# 
# 
# High freq. dielectric constant tensor:
#      x y z
#    x 1.856320 -0.031290 0.025970 
#    y -0.031290 1.886560 -0.000050 
#    z 0.025970 -0.000050 1.897340 
# 
# From -- ./inp_files/151831.got.cif
#   From: 2010.06.25/outbox.cif.g09.slc.cpg/sg2_76_cif.got.tgz:151831.got - 2010.06.27 13:26:56.
