data_PCOD8031268
_publ_section_title
;
Structure prediction by ZEFSAII (Michael W. Deem and Ramdas Pophale) SiO2 
 PCOD8031268
Probable space group: P -1
;
_chemical_formula_sum "Si O2"
_cell_formula_units_Z 14
_cell_length_a 12.058335
_cell_length_b 15.281058
_cell_length_c 20.549262
_cell_angle_alpha 19.404174
_cell_angle_beta 35.289722
_cell_angle_gamma 47.414666
_cell_volume 635.339832
_symmetry_space_group_name_H-M "P -1"
_symmetry_group_IT_number 2
_symmetry_cell_setting 'triclinic'
loop_
_space_group_symop_operation_xyz
x,y,z
-x,-y,-z
loop_
_atom_site_type_symbol
_atom_site_label
_atom_site_fract_x
_atom_site_fract_y
_atom_site_fract_z
Si Si1 0.840069 0.684021 0.622939
Si Si2 0.854025 0.659308 0.960647
Si Si3 0.790028 0.773901 0.301538
Si Si4 0.409762 0.669529 0.801843
Si Si5 0.113069 0.712319 0.356477
Si Si6 0.097565 0.703910 0.032164
Si Si7 0.312701 0.385998 0.782428
O O1 0.587879 0.608400 0.796095
O O2 0.879275 0.431156 0.815755
O O3 0.921860 0.724073 0.481525
O O4 0.985436 0.992087 0.375282
O O5 0.681202 0.554610 0.058228
O O6 0.733712 0.595050 0.132488
O O7 0.000000 0.500000 0.000000
O O8 0.772402 0.447783 0.547269
O O9 0.554822 0.666792 0.454055
O O10 0.805988 0.940485 0.246451
O O11 0.000000 0.000000 0.000000
O O12 0.500000 0.000000 0.500000
O O13 0.225598 0.622230 0.974851
O O14 0.000000 0.500000 0.500000
O O15 0.288253 0.054960 0.012188
O O16 0.849949 0.564570 0.222236
#
# Coordination Sequence:
#
# PCOD8031268 Si02
#       7
#     2   2   2   2   2   2   2
#     4  11  26  43  66 103 139 178 229 286 345 410
#     4  11  22  43  67 100 133 177 233 278 342 415
#     4  12  26  47  70 101 142 182 231 291 352 408
#     4  12  23  42  72  97 135 181 228 283 340 413
#     4  11  23  47  70 103 135 182 241 280 339 415
#     4  12  25  45  67 105 140 179 231 284 355 411
#     4  11  25  44  74 100 140 185 231 287 344 415
#
# _framework density 22.035450999999998
#
# number of rings (size 3 to 8) (size 9 to 14) (size 15 to 20)
#    0.000    0.571    5.714    2.571    2.000    2.286 
#    0.000    0.000    0.000    0.000    0.000    0.000 
#    0.000    0.000    0.000    0.000    0.000    0.000 
#
# Total GULP energy -173577.127007 kJ/mol
# GULP energy per Si atom -12398.366215 kJ/mol
# Density = 2.198530 g / cm^3
# Si number density = 22.035451 Si / 1000 Ang^3
#
#
#
# Elastic Constant Matrix: (Units=GPa)
#
#
# Indices 1 2 3 4 5 6 
#
# 1 136.6211 46.6998 60.9612 5.4971 -31.3872 -10.4437
# 2 46.6998 100.9449 48.6199 -11.9570 -21.4692 -3.3508
# 3 60.9612 48.6199 121.8582 4.2939 -30.8680 -6.6957
# 4 5.4971 -11.9570 4.2939 30.1712 -3.7315 -9.7895
# 5 -31.3872 -21.4692 -30.8680 -3.7315 43.6670 -3.1995
# 6 -10.4437 -3.3508 -6.6957 -9.7895 -3.1995 45.7415
#
#
#
# Elastic Compliance Matrix: (Units=1/GPa)
#
#
# Indices 1 2 3 4 5 6 
#
# 1 0.010802 -0.002725 -0.003091 -0.001503 0.004242 0.001789
# 2 -0.002725 0.014727 -0.003835 0.007887 0.003379 0.001820
# 3 -0.003091 -0.003835 0.012577 -0.001918 0.004676 0.000771
# 4 -0.001503 0.007887 -0.001918 0.040422 0.005555 0.008993
# 5 0.004242 0.003379 0.004676 0.005555 0.031781 0.005312
# 6 0.001789 0.001820 0.000771 0.008993 0.005312 0.024813
#
#
# Mechanical properties :
#
#
# Convention : Reuss Voigt Hill
#
# Bulk Modulus (GPa) = 53.17702 74.66509 63.92106
# Shear Modulus (GPa) = 31.11562 37.45882 34.28722
#
# Velocity S-wave (km/s) = 3.76183 4.12750 3.94890
# Velocity P-wave (km/s) = 6.56151 7.52812 7.06137
#
# Compressibility (1/GPa) = 0.01880512
#
# Stress axis : x y z
#
# Youngs Moduli (GPa) = 92.57598 67.90105 79.51043
#
# Poissons Ratio (x) = 0.18503 0.24574
# Poissons Ratio (y) = 0.25227 0.30492
# Poissons Ratio (z) = 0.28612 0.26039
#
# Static dielectric constant tensor:
#      x y z
#    x 4.110120 -0.032200 -0.141400 
#    y -0.032200 4.351600 -0.411410 
#    z -0.141400 -0.411410 4.027210 
# 
# 
# High freq. dielectric constant tensor:
#      x y z
#    x 1.870020 0.000470 -0.013770 
#    y 0.000470 1.883850 -0.010460 
#    z -0.013770 -0.010460 1.858460 
# 
# From -- ./inp_files/89049.got.cif
#   From: 2010.06.25/outbox.cif.g09.slc.cpg/sg2_45_cif.got.tgz:89049.got - 2010.06.27 13:26:56.
