data_PCOD8031386
_publ_section_title
;
Structure prediction by ZEFSAII (Michael W. Deem and Ramdas Pophale) SiO2 
 PCOD8031386
Probable space group: P -1
;
_chemical_formula_sum "Si O2"
_cell_formula_units_Z 16
_cell_length_a 16.724398
_cell_length_b 20.179396
_cell_length_c 8.424889
_cell_angle_alpha 133.005959
_cell_angle_beta 43.693680
_cell_angle_gamma 159.079663
_cell_volume 701.083303
_symmetry_space_group_name_H-M "P -1"
_symmetry_group_IT_number 2
_symmetry_cell_setting 'triclinic'
loop_
_space_group_symop_operation_xyz
x,y,z
-x,-y,-z
loop_
_atom_site_type_symbol
_atom_site_label
_atom_site_fract_x
_atom_site_fract_y
_atom_site_fract_z
Si Si1 0.365760 0.997242 0.243923
Si Si2 0.169014 0.081070 0.249009
Si Si3 0.931482 0.656113 0.469235
Si Si4 0.371848 0.736265 0.426064
Si Si5 0.192413 0.279312 0.998014
Si Si6 0.575978 0.674257 0.006598
Si Si7 0.581270 0.294697 0.211545
Si Si8 0.125206 0.620634 0.288488
O O1 0.433794 0.072133 0.448395
O O2 0.409760 0.110032 0.248297
O O3 0.082306 0.787078 0.310636
O O4 0.500000 0.000000 0.000000
O O5 0.426170 0.233422 0.196806
O O6 0.233120 0.195028 0.199617
O O7 0.000000 0.000000 0.500000
O O8 0.038670 0.904540 0.072385
O O9 0.105174 0.710361 0.410427
O O10 0.872492 0.702609 0.731884
O O11 0.684918 0.440630 0.420809
O O12 0.443227 0.679732 0.219608
O O13 0.334486 0.753185 0.333578
O O14 0.128925 0.585556 0.623568
O O15 0.381311 0.460872 0.910596
O O16 0.297225 0.259735 0.897953
O O17 0.808099 0.397126 0.984590
#
# Coordination Sequence:
#
# PCOD8031386 Si02
#       8
#     2   2   2   2   2   2   2   2
#     4  12  25  40  69 104 141 185 236 276 349 427
#     4  12  30  47  71 104 143 184 237 299 354 410
#     4  12  25  44  75 103 142 187 233 287 352 418
#     4  11  23  43  73 104 139 188 227 294 346 416
#     4  11  27  47  78 103 133 190 244 288 349 426
#     4  11  24  50  75 101 141 182 240 293 353 417
#     4  12  26  48  66 104 149 185 225 293 354 412
#     4  11  22  43  72  99 142 185 226 279 359 410
#
# _framework density 22.821823999999999
#
# number of rings (size 3 to 8) (size 9 to 14) (size 15 to 20)
#    0.000    0.500    5.000    2.250    7.000    3.000 
#    0.000    0.000    0.000    0.000    0.000    0.000 
#    0.000    0.000    0.000    0.000    0.000    0.000 
#
# Total GULP energy -198396.003080 kJ/mol
# GULP energy per Si atom -12399.750193 kJ/mol
# Density = 2.276988 g / cm^3
# Si number density = 22.821824 Si / 1000 Ang^3
#
#
#
# Elastic Constant Matrix: (Units=GPa)
#
#
# Indices 1 2 3 4 5 6 
#
# 1 112.9898 47.9176 33.7615 17.6110 -2.8913 5.4369
# 2 47.9176 112.6039 42.6089 -7.1510 2.6582 -29.4583
# 3 33.7615 42.6089 93.6274 -2.7494 4.1604 -6.2330
# 4 17.6110 -7.1510 -2.7494 41.1591 -0.6720 5.4255
# 5 -2.8913 2.6582 4.1604 -0.6720 27.2334 -7.7156
# 6 5.4369 -29.4583 -6.2330 5.4255 -7.7156 37.8256
#
#
#
# Elastic Compliance Matrix: (Units=1/GPa)
#
#
# Indices 1 2 3 4 5 6 
#
# 1 0.014059 -0.007363 -0.002402 -0.006508 0.000396 -0.007137
# 2 -0.007363 0.017488 -0.004360 0.004112 0.002193 0.013817
# 3 -0.002402 -0.004360 0.013574 0.001334 -0.002287 -0.001472
# 4 -0.006508 0.004112 0.001334 0.027842 -0.000537 0.000255
# 5 0.000396 0.002193 -0.002287 -0.000537 0.039552 0.009419
# 6 -0.007137 0.013817 -0.001472 0.000255 0.009419 0.039866
#
#
# Mechanical properties :
#
#
# Convention : Reuss Voigt Hill
#
# Bulk Modulus (GPa) = 59.28064 63.08857 61.18460
# Shear Modulus (GPa) = 26.84481 34.23916 30.54198
#
# Velocity S-wave (km/s) = 3.43341 3.87755 3.66222
# Velocity P-wave (km/s) = 6.46139 6.91022 6.68957
#
# Compressibility (1/GPa) = 0.01686891
#
# Stress axis : x y z
#
# Youngs Moduli (GPa) = 71.13016 57.18200 73.66967
#
# Poissons Ratio (x) = 0.42104 0.17698
# Poissons Ratio (y) = 0.52375 0.32123
# Poissons Ratio (z) = 0.17088 0.24933
#
# Static dielectric constant tensor:
#      x y z
#    x 4.271680 -0.049240 0.081560 
#    y -0.049240 4.304050 -0.159600 
#    z 0.081560 -0.159600 4.067650 
# 
# 
# High freq. dielectric constant tensor:
#      x y z
#    x 1.899610 -0.005550 0.000200 
#    y -0.005550 1.911630 -0.013640 
#    z 0.000200 -0.013640 1.902970 
# 
# From -- ./inp_files/338181.got.cif
#   From: 2010.06.25/outbox.cif.g09.slc.cpg/sg2_170_cif.got.tgz:338181.got - 2010.06.27 13:26:56.
