data_PCOD8031416
_publ_section_title
;
Structure prediction by ZEFSAII (Michael W. Deem and Ramdas Pophale) SiO2 
 PCOD8031416
Probable space group: P -1
;
_chemical_formula_sum "Si O2"
_cell_formula_units_Z 14
_cell_length_a 13.162923
_cell_length_b 22.988762
_cell_length_c 15.392733
_cell_angle_alpha 160.632996
_cell_angle_beta 36.623567
_cell_angle_gamma 155.158078
_cell_volume 599.072707
_symmetry_space_group_name_H-M "P -1"
_symmetry_group_IT_number 2
_symmetry_cell_setting 'triclinic'
loop_
_space_group_symop_operation_xyz
x,y,z
-x,-y,-z
loop_
_atom_site_type_symbol
_atom_site_label
_atom_site_fract_x
_atom_site_fract_y
_atom_site_fract_z
Si Si1 0.662541 0.874417 0.319717
Si Si2 0.950487 0.550928 0.513878
Si Si3 0.306024 0.150905 0.065493
Si Si4 0.920469 0.477532 0.782565
Si Si5 0.869780 0.654110 0.440573
Si Si6 0.577213 0.563070 0.782897
Si Si7 0.001451 0.867518 0.390051
O O1 0.394289 0.772036 0.358134
O O2 0.633569 0.682106 0.007742
O O3 0.899935 0.181647 0.557015
O O4 0.746525 0.888220 0.379621
O O5 0.959016 0.398965 0.222933
O O6 0.000000 0.500000 0.500000
O O7 0.674285 0.437816 0.541575
O O8 0.176850 0.863353 0.768608
O O9 0.614185 0.362621 0.165954
O O10 0.191912 0.194725 0.277327
O O11 0.267322 0.200404 0.063761
O O12 0.025568 0.367183 0.577842
O O13 0.027752 0.696359 0.088500
O O14 0.266430 0.322693 0.638030
O O15 0.000000 0.000000 0.500000
#
# Coordination Sequence:
#
# PCOD8031416 Si02
#       7
#     2   2   2   2   2   2   2
#     4  11  24  45  72 100 142 184 230 290 359 413
#     4  12  27  45  73 106 145 185 236 296 357 419
#     4  11  23  44  74 107 143 184 239 297 354 415
#     4  11  27  44  69 107 141 185 236 295 353 421
#     4  11  22  43  74 107 139 184 240 296 350 417
#     4  11  23  48  77 101 138 192 237 287 356 421
#     4  11  28  47  70 102 147 189 236 287 356 429
#
# _framework density 23.369450000000001
#
# number of rings (size 3 to 8) (size 9 to 14) (size 15 to 20)
#    0.000    0.857    4.286    1.714    6.000    2.857 
#    0.000    1.429    0.000    0.000    0.000    0.000 
#    0.000    0.000    0.000    0.000    0.000    0.000 
#
# Total GULP energy -173603.311258 kJ/mol
# GULP energy per Si atom -12400.236518 kJ/mol
# Density = 2.331626 g / cm^3
# Si number density = 23.369450 Si / 1000 Ang^3
#
#
#
# Elastic Constant Matrix: (Units=GPa)
#
#
# Indices 1 2 3 4 5 6 
#
# 1 147.2389 34.7571 29.2430 -9.0131 6.3732 -0.4321
# 2 34.7571 89.3889 29.2641 -27.8586 -0.5176 3.0376
# 3 29.2430 29.2641 58.5504 -8.1152 5.8361 7.4879
# 4 -9.0131 -27.8586 -8.1152 31.3585 -4.0488 -1.0634
# 5 6.3732 -0.5176 5.8361 -4.0488 41.8537 5.9451
# 6 -0.4321 3.0376 7.4879 -1.0634 5.9451 44.0506
#
#
#
# Elastic Compliance Matrix: (Units=1/GPa)
#
#
# Indices 1 2 3 4 5 6 
#
# 1 0.007931 -0.002397 -0.002866 -0.000695 -0.001026 0.000852
# 2 -0.002397 0.018858 -0.006441 0.014770 0.002964 -0.000272
# 3 -0.002866 -0.006441 0.022194 -0.001219 -0.002421 -0.003059
# 4 -0.000695 0.014770 -0.001219 0.045113 0.004878 -0.000387
# 5 -0.001026 0.002964 -0.002421 0.004878 0.025336 -0.003105
# 6 0.000852 -0.000272 -0.003059 -0.000387 -0.003105 0.023658
#
#
# Mechanical properties :
#
#
# Convention : Reuss Voigt Hill
#
# Bulk Modulus (GPa) = 39.10324 53.52295 46.31309
# Shear Modulus (GPa) = 28.56765 36.91348 32.74057
#
# Velocity S-wave (km/s) = 3.50013 3.97868 3.74705
# Velocity P-wave (km/s) = 5.75356 6.63771 6.21139
#
# Compressibility (1/GPa) = 0.02557333
#
# Stress axis : x y z
#
# Youngs Moduli (GPa) = 126.08526 53.02887 45.05743
#
# Poissons Ratio (x) = 0.12712 0.12914
# Poissons Ratio (y) = 0.30224 0.29023
# Poissons Ratio (z) = 0.36138 0.34158
#
# Static dielectric constant tensor:
#      x y z
#    x 4.329370 0.057330 0.306220 
#    y 0.057330 4.666480 -0.186310 
#    z 0.306220 -0.186310 4.253840 
# 
# 
# High freq. dielectric constant tensor:
#      x y z
#    x 1.936540 0.004980 0.014470 
#    y 0.004980 1.940200 -0.010910 
#    z 0.014470 -0.010910 1.902400 
# 
# From -- ./inp_files/256159.got.cif
#   From: 2010.06.25/outbox.cif.g09.slc.cpg/sg2_129_cif.got.tgz:256159.got - 2010.06.27 13:26:56.
