data_PCOD8031369
_publ_section_title
;
Structure prediction by ZEFSAII (Michael W. Deem and Ramdas Pophale) SiO2 
 PCOD8031369
Probable space group: P -1
;
_chemical_formula_sum "Si O2"
_cell_formula_units_Z 14
_cell_length_a 8.905313
_cell_length_b 9.015519
_cell_length_c 21.618062
_cell_angle_alpha 48.932926
_cell_angle_beta 29.355643
_cell_angle_gamma 51.823597
_cell_volume 636.615838
_symmetry_space_group_name_H-M "P -1"
_symmetry_group_IT_number 2
_symmetry_cell_setting 'triclinic'
loop_
_space_group_symop_operation_xyz
x,y,z
-x,-y,-z
loop_
_atom_site_type_symbol
_atom_site_label
_atom_site_fract_x
_atom_site_fract_y
_atom_site_fract_z
Si Si1 0.274040 0.058578 0.166188
Si Si2 0.321298 0.140086 0.575856
Si Si3 0.500334 0.458610 0.640576
Si Si4 0.759544 0.181374 0.517700
Si Si5 0.323874 0.449789 0.967281
Si Si6 0.888099 0.638504 0.758672
Si Si7 0.332444 0.326684 0.863523
O O1 0.214521 0.147167 0.232143
O O2 0.596769 0.912887 0.089797
O O3 0.266866 0.233613 0.070928
O O4 0.017505 0.919464 0.276414
O O5 0.303688 0.363673 0.495387
O O6 0.496600 0.115292 0.585315
O O7 0.500000 0.000000 0.500000
O O8 0.604271 0.273653 0.610025
O O9 0.547962 0.396913 0.712023
O O10 0.133241 0.518684 0.749016
O O11 0.946027 0.339070 0.372537
O O12 0.000000 0.000000 0.500000
O O13 0.599231 0.518653 0.889253
O O14 0.418754 0.435397 0.865360
O O15 0.029158 0.614311 0.036602
#
# Coordination Sequence:
#
# PCOD8031369 Si02
#       7
#     2   2   2   2   2   2   2
#     4  12  24  45  71 103 137 182 230 282 347 407
#     4  11  22  43  71  99 143 177 222 286 347 409
#     4  11  24  45  70 102 138 183 226 283 356 407
#     4  11  25  44  68 109 138 180 231 281 348 419
#     4  11  26  49  67  99 140 182 235 285 337 406
#     4  11  23  46  70  97 142 181 223 289 345 405
#     4  11  26  45  70 102 133 183 237 279 345 406
#
# _framework density 21.991285999999999
#
# number of rings (size 3 to 8) (size 9 to 14) (size 15 to 20)
#    0.000    0.857    4.286    3.429    4.000    4.571 
#    2.571    0.000    0.000    0.000    0.000    0.000 
#    0.000    0.000    0.000    0.000    0.000    0.000 
#
# Total GULP energy -173638.816446 kJ/mol
# GULP energy per Si atom -12402.772603 kJ/mol
# Density = 2.194123 g / cm^3
# Si number density = 21.991286 Si / 1000 Ang^3
#
#
#
# Elastic Constant Matrix: (Units=GPa)
#
#
# Indices 1 2 3 4 5 6 
#
# 1 101.3616 55.1101 75.7531 -11.4025 8.3736 7.4715
# 2 55.1101 152.8429 49.9927 18.5216 -5.4181 -6.7636
# 3 75.7531 49.9927 103.2562 -2.0981 -4.4473 7.1889
# 4 -11.4025 18.5216 -2.0981 32.0343 13.6699 3.5959
# 5 8.3736 -5.4181 -4.4473 13.6699 48.1516 2.1689
# 6 7.4715 -6.7636 7.1889 3.5959 2.1689 40.1736
#
#
#
# Elastic Compliance Matrix: (Units=1/GPa)
#
#
# Indices 1 2 3 4 5 6 
#
# 1 0.035065 -0.009506 -0.020915 0.023915 -0.015633 -0.005676
# 2 -0.009506 0.011693 0.001021 -0.013419 0.006675 0.004395
# 3 -0.020915 0.001021 0.024706 -0.010239 0.008937 0.000075
# 4 0.023915 -0.013419 -0.010239 0.057413 -0.022517 -0.008798
# 5 -0.015633 0.006675 0.008937 -0.022517 0.031331 0.002756
# 6 -0.005676 0.004395 0.000075 -0.008798 0.002756 0.027313
#
#
# Mechanical properties :
#
#
# Convention : Reuss Voigt Hill
#
# Bulk Modulus (GPa) = 78.95629 79.90802 79.43216
# Shear Modulus (GPa) = 19.95668 35.84557 27.90112
#
# Velocity S-wave (km/s) = 3.01571 4.04169 3.56580
# Velocity P-wave (km/s) = 6.93595 7.62860 7.29050
#
# Compressibility (1/GPa) = 0.01266523
#
# Stress axis : x y z
#
# Youngs Moduli (GPa) = 28.51847 85.51915 40.47583
#
# Poissons Ratio (x) = 0.81292 0.84656
# Poissons Ratio (y) = 0.27109 -0.04133
# Poissons Ratio (z) = 0.59647 -0.08733
#
# Static dielectric constant tensor:
#      x y z
#    x 4.159420 0.569140 0.811040 
#    y 0.569140 3.421860 -0.553840 
#    z 0.811040 -0.553840 3.271630 
# 
# 
# High freq. dielectric constant tensor:
#      x y z
#    x 1.871040 -0.002510 0.013270 
#    y -0.002510 1.873370 0.015200 
#    z 0.013270 0.015200 1.862280 
# 
# From -- ./inp_files/223297.got.cif
#   From: 2010.06.25/outbox.cif.g09.slc.cpg/sg2_112_cif.got.tgz:223297.got - 2010.06.27 13:26:56.
