data_PCOD8031322
_publ_section_title
;
Structure prediction by ZEFSAII (Michael W. Deem and Ramdas Pophale) SiO2 
 PCOD8031322
Probable space group: P -1
;
_chemical_formula_sum "Si O2"
_cell_formula_units_Z 16
_cell_length_a 8.846928
_cell_length_b 14.119041
_cell_length_c 12.170527
_cell_angle_alpha 127.198159
_cell_angle_beta 73.996195
_cell_angle_gamma 139.629337
_cell_volume 732.256851
_symmetry_space_group_name_H-M "P -1"
_symmetry_group_IT_number 2
_symmetry_cell_setting 'triclinic'
loop_
_space_group_symop_operation_xyz
x,y,z
-x,-y,-z
loop_
_atom_site_type_symbol
_atom_site_label
_atom_site_fract_x
_atom_site_fract_y
_atom_site_fract_z
Si Si1 0.735528 0.064433 0.831448
Si Si2 0.585146 0.725096 0.651704
Si Si3 0.022632 0.871925 0.396348
Si Si4 0.969000 0.769792 0.904472
Si Si5 0.453107 0.568482 0.802890
Si Si6 0.107734 0.434698 0.415791
Si Si7 0.577461 0.880599 0.078889
Si Si8 0.903125 0.105254 0.364065
O O1 0.564112 0.078342 0.872584
O O2 0.811865 0.070700 0.698770
O O3 0.581845 0.864286 0.775234
O O4 0.970276 0.226146 0.978443
O O5 0.481784 0.589438 0.680074
O O6 0.402763 0.595610 0.494148
O O7 0.863441 0.848113 0.652415
O O8 0.756007 0.650651 0.280301
O O9 0.163300 0.910959 0.506450
O O10 0.000000 0.000000 0.500000
O O11 0.711355 0.689235 0.895628
O O12 0.937939 0.628656 0.745144
O O13 0.183341 0.976901 0.950505
O O14 0.390839 0.663989 0.929205
O O15 0.000000 0.500000 0.500000
O O16 0.957995 0.262812 0.407756
O O17 0.671610 0.912790 0.207942
#
# Coordination Sequence:
#
# PCOD8031322 Si02
#       8
#     2   2   2   2   2   2   2   2
#     4  12  27  43  69 102 151 184 224 292 356 419
#     4  12  20  41  73 101 132 183 239 292 342 406
#     4  12  28  47  69 101 144 190 235 284 350 426
#     4  11  23  42  69 108 134 177 235 291 346 413
#     4  12  24  43  75 102 135 186 236 291 346 418
#     4  11  23  37  67 109 137 170 232 296 347 397
#     4  11  24  43  71 107 137 178 236 297 355 400
#     4  11  22  43  69  98 136 180 234 286 343 413
#
# _framework density 21.850256000000002
#
# number of rings (size 3 to 8) (size 9 to 14) (size 15 to 20)
#    0.000    0.500    6.250    4.125    1.750    1.500 
#    0.000    0.000    0.000    0.000    0.000    0.000 
#    0.000    0.000    0.000    0.000    0.000    0.000 
#
# Total GULP energy -198414.248949 kJ/mol
# GULP energy per Si atom -12400.890559 kJ/mol
# Density = 2.180052 g / cm^3
# Si number density = 21.850256 Si / 1000 Ang^3
#
#
#
# Elastic Constant Matrix: (Units=GPa)
#
#
# Indices 1 2 3 4 5 6 
#
# 1 96.5806 27.5245 38.5774 3.6730 -6.1008 -8.2591
# 2 27.5245 59.8043 24.5993 11.4932 -0.8838 -5.3933
# 3 38.5774 24.5993 130.3087 5.2460 12.3752 -15.0993
# 4 3.6730 11.4932 5.2460 41.6971 -12.1771 0.2545
# 5 -6.1008 -0.8838 12.3752 -12.1771 49.9225 5.0645
# 6 -8.2591 -5.3933 -15.0993 0.2545 5.0645 17.9432
#
#
#
# Elastic Compliance Matrix: (Units=1/GPa)
#
#
# Indices 1 2 3 4 5 6 
#
# 1 0.013215 -0.004894 -0.003133 0.001300 0.002495 0.001253
# 2 -0.004894 0.021043 -0.001810 -0.005583 -0.001447 0.003037
# 3 -0.003133 -0.001810 0.010336 -0.001807 -0.004222 0.007929
# 4 0.001300 -0.005583 -0.001807 0.027960 0.007857 -0.005214
# 5 0.002495 -0.001447 -0.004222 0.007857 0.024268 -0.009800
# 6 0.001253 0.003037 0.007929 -0.005214 -0.009800 0.066733
#
#
# Mechanical properties :
#
#
# Convention : Reuss Voigt Hill
#
# Bulk Modulus (GPa) = 40.12468 52.01068 46.06768
# Shear Modulus (GPa) = 26.10493 34.97871 30.54182
#
# Velocity S-wave (km/s) = 3.46022 4.00539 3.74274
# Velocity P-wave (km/s) = 5.86238 6.72650 6.30925
#
# Compressibility (1/GPa) = 0.02492232
#
# Stress axis : x y z
#
# Youngs Moduli (GPa) = 75.67009 47.52130 96.75353
#
# Poissons Ratio (x) = 0.23255 0.30309
# Poissons Ratio (y) = 0.37030 0.17509
# Poissons Ratio (z) = 0.23704 0.08600
#
# Static dielectric constant tensor:
#      x y z
#    x 3.956020 -0.152640 0.152870 
#    y -0.152640 3.787860 -0.000230 
#    z 0.152870 -0.000230 4.537550 
# 
# 
# High freq. dielectric constant tensor:
#      x y z
#    x 1.862540 -0.010990 0.002110 
#    y -0.010990 1.819060 0.006180 
#    z 0.002110 0.006180 1.889510 
# 
# From -- ./inp_files/256481.got.cif
#   From: 2010.06.25/outbox.cif.g09.slc.cpg/sg2_129_cif.got.tgz:256481.got - 2010.06.27 13:26:56.
