data_PCOD8031320
_publ_section_title
;
Structure prediction by ZEFSAII (Michael W. Deem and Ramdas Pophale) SiO2 
 PCOD8031320
Probable space group: P -1
;
_chemical_formula_sum "Si O2"
_cell_formula_units_Z 14
_cell_length_a 8.402478
_cell_length_b 14.096927
_cell_length_c 10.858435
_cell_angle_alpha 149.146307
_cell_angle_beta 98.774016
_cell_angle_gamma 74.873695
_cell_volume 630.084719
_symmetry_space_group_name_H-M "P -1"
_symmetry_group_IT_number 2
_symmetry_cell_setting 'triclinic'
loop_
_space_group_symop_operation_xyz
x,y,z
-x,-y,-z
loop_
_atom_site_type_symbol
_atom_site_label
_atom_site_fract_x
_atom_site_fract_y
_atom_site_fract_z
Si Si1 0.050495 0.770714 0.747184
Si Si2 0.891671 0.230911 0.920929
Si Si3 0.962874 0.723207 0.254159
Si Si4 0.781928 0.552495 0.427415
Si Si5 0.141580 0.887971 0.651821
Si Si6 0.503139 0.904107 0.758131
Si Si7 0.359201 0.007726 0.388097
O O1 0.196891 0.644462 0.710746
O O2 0.131739 0.730508 0.577388
O O3 0.886859 0.691086 0.650087
O O4 0.000000 0.000000 0.000000
O O5 0.719278 0.173841 0.807378
O O6 0.028342 0.189244 0.782234
O O7 0.847911 0.458333 0.198401
O O8 0.997346 0.090679 0.884038
O O9 0.111328 0.787863 0.411368
O O10 0.786638 0.802550 0.389098
O O11 0.000000 0.500000 0.000000
O O12 0.592925 0.678541 0.535420
O O13 0.317909 0.933850 0.722570
O O14 0.588928 0.986872 0.744795
O O15 0.500000 0.000000 0.000000
O O16 0.500000 0.000000 0.500000
#
# Coordination Sequence:
#
# PCOD8031320 Si02
#       7
#     2   2   2   2   2   2   2
#     4  11  22  43  69  97 133 184 230 288 343 424
#     4  11  22  43  72  99 131 184 239 285 352 424
#     4  11  23  42  70 100 131 178 239 288 350 425
#     4  11  25  42  71 101 137 182 237 282 359 411
#     4  11  23  41  66  94 143 177 231 287 349 408
#     4  12  27  44  66 105 148 185 233 293 351 421
#     4  11  24  46  71 100 143 187 232 297 353 409
#
# _framework density 22.219234
#
# number of rings (size 3 to 8) (size 9 to 14) (size 15 to 20)
#    0.000    0.857    1.429    7.714    4.000    1.714 
#    2.571    2.857    0.000    0.000    0.000    0.000 
#    0.000    0.000    0.000    0.000    0.000    0.000 
#
# Total GULP energy -173433.984739 kJ/mol
# GULP energy per Si atom -12388.141767 kJ/mol
# Density = 2.216866 g / cm^3
# Si number density = 22.219234 Si / 1000 Ang^3
#
#
#
# Elastic Constant Matrix: (Units=GPa)
#
#
# Indices 1 2 3 4 5 6 
#
# 1 122.5346 49.6838 46.3619 -4.7388 -2.0800 -13.7554
# 2 49.6838 114.4698 45.0351 -5.5667 -8.4371 9.1616
# 3 46.3619 45.0351 161.1283 10.0885 -4.1471 -14.1867
# 4 -4.7388 -5.5667 10.0885 32.2673 7.5260 0.5063
# 5 -2.0800 -8.4371 -4.1471 7.5260 33.1577 -9.0908
# 6 -13.7554 9.1616 -14.1867 0.5063 -9.0908 42.1377
#
#
#
# Elastic Compliance Matrix: (Units=1/GPa)
#
#
# Indices 1 2 3 4 5 6 
#
# 1 0.011085 -0.004396 -0.001682 0.001291 0.000179 0.004031
# 2 -0.004396 0.012263 -0.002718 0.002245 0.000651 -0.004903
# 3 -0.001682 -0.002718 0.008014 -0.003721 0.001927 0.003201
# 4 0.001291 0.002245 -0.003721 0.034819 -0.008708 -0.003617
# 5 0.000179 0.000651 0.001927 -0.008708 0.034795 0.008177
# 6 0.004031 -0.004903 0.003201 -0.003617 0.008177 0.028999
#
#
# Mechanical properties :
#
#
# Convention : Reuss Voigt Hill
#
# Bulk Modulus (GPa) = 72.62299 75.58826 74.10563
# Shear Modulus (GPa) = 32.86034 38.64934 35.75484
#
# Velocity S-wave (km/s) = 3.84984 4.17520 4.01582
# Velocity P-wave (km/s) = 7.24689 7.57207 7.41126
#
# Compressibility (1/GPa) = 0.01376974
#
# Stress axis : x y z
#
# Youngs Moduli (GPa) = 90.20799 81.54610 124.77660
#
# Poissons Ratio (x) = 0.35851 0.20989
# Poissons Ratio (y) = 0.39659 0.33914
# Poissons Ratio (z) = 0.15174 0.22164
#
# Static dielectric constant tensor:
#      x y z
#    x 3.835000 0.312000 -0.390400 
#    y 0.312000 4.800060 -0.210560 
#    z -0.390400 -0.210560 3.669680 
# 
# 
# High freq. dielectric constant tensor:
#      x y z
#    x 1.857720 0.008440 -0.001800 
#    y 0.008440 1.898470 -0.011610 
#    z -0.001800 -0.011610 1.884390 
# 
# From -- ./inp_files/400067.got.cif
#   From: 2010.06.25/outbox.cif.g09.slc.cpg/sg2_201_cif.got.tgz:400067.got - 2010.06.27 13:26:56.
