data_PCOD8031210
_publ_section_title
;
Structure prediction by ZEFSAII (Michael W. Deem and Ramdas Pophale) SiO2 
 PCOD8031210
Probable space group: P -1
;
_chemical_formula_sum "Si O2"
_cell_formula_units_Z 16
_cell_length_a 11.522406
_cell_length_b 10.871739
_cell_length_c 14.566945
_cell_angle_alpha 121.806766
_cell_angle_beta 149.590489
_cell_angle_gamma 46.192410
_cell_volume 654.241928
_symmetry_space_group_name_H-M "P -1"
_symmetry_group_IT_number 2
_symmetry_cell_setting 'triclinic'
loop_
_space_group_symop_operation_xyz
x,y,z
-x,-y,-z
loop_
_atom_site_type_symbol
_atom_site_label
_atom_site_fract_x
_atom_site_fract_y
_atom_site_fract_z
Si Si1 0.285418 0.423867 0.115621
Si Si2 0.939638 0.802852 0.592340
Si Si3 0.239034 0.284209 0.847169
Si Si4 0.683225 0.994716 0.758964
Si Si5 0.102771 0.358151 0.332105
Si Si6 0.864113 0.201566 0.475571
Si Si7 0.193024 0.969534 0.938141
Si Si8 0.336478 0.726482 0.279562
O O1 0.536964 0.302785 0.309011
O O2 0.319171 0.575777 0.160141
O O3 0.311066 0.296915 0.004420
O O4 0.000000 0.500000 0.000000
O O5 0.624699 0.963979 0.425163
O O6 0.934954 0.653968 0.588292
O O7 0.082929 0.743790 0.567434
O O8 0.118508 0.838727 0.796919
O O9 0.498289 0.104951 0.912813
O O10 0.162227 0.459117 0.810053
O O11 0.984833 0.262794 0.660456
O O12 0.808351 0.013196 0.945537
O O13 0.674428 0.132341 0.738941
O O14 0.872319 0.800506 0.770373
O O15 0.379159 0.358658 0.503219
O O16 0.000000 0.000000 0.500000
O O17 0.947792 0.161453 0.809301
#
# Coordination Sequence:
#
# PCOD8031210 Si02
#       8
#     2   2   2   2   2   2   2   2
#     4  12  30  52  74 107 140 192 252 306 354 429
#     4  11  23  44  72 110 144 191 236 295 358 433
#     4  12  28  48  74 109 145 189 241 304 370 425
#     4  11  22  42  72 111 149 197 230 291 364 437
#     4  11  23  45  75 111 154 188 234 299 370 426
#     4  12  29  53  73 105 147 193 248 303 360 429
#     4  12  23  40  73 107 144 192 231 288 366 429
#     4  11  23  45  72 104 152 189 242 294 354 432
#
# _framework density 24.455784999999999
#
# number of rings (size 3 to 8) (size 9 to 14) (size 15 to 20)
#    0.000    0.500    6.250    1.875    3.500    5.000 
#    0.000    0.000    0.000    0.000    0.000    0.000 
#    0.000    0.000    0.000    0.000    0.000    0.000 
#
# Total GULP energy -198272.538664 kJ/mol
# GULP energy per Si atom -12392.033666 kJ/mol
# Density = 2.440012 g / cm^3
# Si number density = 24.455785 Si / 1000 Ang^3
#
#
#
# Elastic Constant Matrix: (Units=GPa)
#
#
# Indices 1 2 3 4 5 6 
#
# 1 54.9978 20.9414 25.5565 -2.9209 11.2587 -14.8394
# 2 20.9414 95.5344 40.0100 6.9119 16.5713 -5.9246
# 3 25.5565 40.0100 157.1898 4.4878 18.6454 -9.2558
# 4 -2.9209 6.9119 4.4878 52.2581 -16.4181 5.6994
# 5 11.2587 16.5713 18.6454 -16.4181 25.6967 -2.2727
# 6 -14.8394 -5.9246 -9.2558 5.6994 -2.2727 33.0104
#
#
#
# Elastic Compliance Matrix: (Units=1/GPa)
#
#
# Indices 1 2 3 4 5 6 
#
# 1 0.024056 -0.002444 -0.001726 -0.001740 -0.007970 0.009643
# 2 -0.002444 0.013847 -0.001778 -0.004963 -0.009644 0.001081
# 3 -0.001726 -0.001778 0.007836 -0.002271 -0.005133 0.001141
# 4 -0.001740 -0.004963 -0.002271 0.027652 0.022790 -0.005515
# 5 -0.007970 -0.009644 -0.005133 0.022790 0.066372 -0.006118
# 6 0.009643 0.001081 0.001141 -0.005515 -0.006118 0.035673
#
#
# Mechanical properties :
#
#
# Convention : Reuss Voigt Hill
#
# Bulk Modulus (GPa) = 29.54822 53.41531 41.48176
# Shear Modulus (GPa) = 25.17469 36.94064 31.05766
#
# Velocity S-wave (km/s) = 3.21190 3.89074 3.56750
# Velocity P-wave (km/s) = 5.08563 6.48636 5.82823
#
# Compressibility (1/GPa) = 0.03384299
#
# Stress axis : x y z
#
# Youngs Moduli (GPa) = 41.56904 72.21958 127.61932
#
# Poissons Ratio (x) = 0.17650 0.22030
# Poissons Ratio (y) = 0.10159 0.22688
# Poissons Ratio (z) = 0.07176 0.12839
#
# Static dielectric constant tensor:
#      x y z
#    x 4.389190 -0.266790 0.316540 
#    y -0.266790 4.473960 -0.204370 
#    z 0.316540 -0.204370 5.077250 
# 
# 
# High freq. dielectric constant tensor:
#      x y z
#    x 1.936360 -0.012010 0.017200 
#    y -0.012010 1.972290 -0.001410 
#    z 0.017200 -0.001410 2.004130 
# 
# From -- ./inp_files/519071.got.cif
#   From: 2010.06.25/outbox.cif.g09.slc.cpg/sg2_260_cif.got.tgz:519071.got - 2010.06.27 13:26:56.
