data_PCOD8031121
_publ_section_title
;
Structure prediction by ZEFSAII (Michael W. Deem and Ramdas Pophale) SiO2 
 PCOD8031121
Probable space group: P -1
;
_chemical_formula_sum "Si O2"
_cell_formula_units_Z 14
_cell_length_a 10.342150
_cell_length_b 13.948974
_cell_length_c 18.739550
_cell_angle_alpha 145.816410
_cell_angle_beta 153.086508
_cell_angle_gamma 37.622179
_cell_volume 671.604199
_symmetry_space_group_name_H-M "P -1"
_symmetry_group_IT_number 2
_symmetry_cell_setting 'triclinic'
loop_
_space_group_symop_operation_xyz
x,y,z
-x,-y,-z
loop_
_atom_site_type_symbol
_atom_site_label
_atom_site_fract_x
_atom_site_fract_y
_atom_site_fract_z
Si Si1 0.695336 0.190851 0.036854
Si Si2 0.245639 0.964142 0.658968
Si Si3 0.839561 0.899434 0.542379
Si Si4 0.923128 0.506731 0.383652
Si Si5 0.757890 0.337120 0.013412
Si Si6 0.678704 0.622338 0.626462
Si Si7 0.199871 0.967414 0.244050
O O1 0.761002 0.187134 0.982576
O O2 0.675521 0.392123 0.177251
O O3 0.968044 0.075273 0.141647
O O4 0.387566 0.127521 0.854575
O O5 0.508905 0.821962 0.668227
O O6 0.103960 0.894087 0.614990
O O7 0.000000 0.000000 0.500000
O O8 0.527598 0.008005 0.425008
O O9 0.801666 0.704168 0.420626
O O10 0.922575 0.992447 0.711830
O O11 0.217609 0.425721 0.433332
O O12 0.000000 0.500000 0.500000
O O13 0.047093 0.410706 0.206164
O O14 0.500000 0.500000 0.000000
O O15 0.757028 0.239836 0.877684
O O16 0.500000 0.500000 0.500000
#
# Coordination Sequence:
#
# PCOD8031121 Si02
#       7
#     2   2   2   2   2   2   2
#     4  11  24  41  69  99 133 178 231 281 337 411
#     4  12  27  44  67 102 139 178 230 293 347 402
#     4  11  25  43  69  97 139 184 227 283 351 409
#     4  11  23  43  70 100 137 181 226 281 342 412
#     4  11  24  42  69  98 136 178 230 279 343 410
#     4  11  24  42  65  97 135 179 227 279 344 397
#     4  11  22  42  68  97 131 179 237 277 336 413
#
# _framework density 20.845610000000001
#
# number of rings (size 3 to 8) (size 9 to 14) (size 15 to 20)
#    0.000    0.857    4.286    3.000    8.000    0.571 
#    2.571    0.000    0.000    5.143    0.000    0.000 
#    0.000    0.000    0.000    0.000    0.000    0.000 
#
# Total GULP energy -173497.071658 kJ/mol
# GULP energy per Si atom -12392.647976 kJ/mol
# Density = 2.079816 g / cm^3
# Si number density = 20.845610 Si / 1000 Ang^3
#
#
#
# Elastic Constant Matrix: (Units=GPa)
#
#
# Indices 1 2 3 4 5 6 
#
# 1 124.3014 50.1065 66.6721 7.7806 -9.9909 -11.2844
# 2 50.1065 114.4886 69.8063 -1.1212 -9.2960 -8.5134
# 3 66.6721 69.8063 161.9485 5.5910 1.5064 4.0273
# 4 7.7806 -1.1212 5.5910 44.6691 -4.7364 -0.5842
# 5 -9.9909 -9.2960 1.5064 -4.7364 36.6223 10.7358
# 6 -11.2844 -8.5134 4.0273 -0.5842 10.7358 35.0173
#
#
#
# Elastic Compliance Matrix: (Units=1/GPa)
#
#
# Indices 1 2 3 4 5 6 
#
# 1 0.011519 -0.002415 -0.003744 -0.001388 0.001613 0.003038
# 2 -0.002415 0.013085 -0.004780 0.001633 0.002414 0.002240
# 3 -0.003744 -0.004780 0.009900 -0.000947 -0.001903 -0.002940
# 4 -0.001388 0.001633 -0.000947 0.023123 0.003225 -0.000544
# 5 0.001613 0.002414 -0.001903 0.003225 0.031259 -0.008204
# 6 0.003038 0.002240 -0.002940 -0.000544 -0.008204 0.032925
#
#
# Mechanical properties :
#
#
# Convention : Reuss Voigt Hill
#
# Bulk Modulus (GPa) = 79.20738 85.98980 82.59859
# Shear Modulus (GPa) = 33.80720 37.53863 35.67291
#
# Velocity S-wave (km/s) = 4.03151 4.24818 4.14126
# Velocity P-wave (km/s) = 7.72984 8.08722 7.91055
#
# Compressibility (1/GPa) = 0.01262509
#
# Stress axis : x y z
#
# Youngs Moduli (GPa) = 86.81350 76.42527 101.01049
#
# Poissons Ratio (x) = 0.18460 0.37815
# Poissons Ratio (y) = 0.20969 0.48284
# Poissons Ratio (z) = 0.32500 0.36532
#
# Static dielectric constant tensor:
#      x y z
#    x 3.817780 -0.065090 -0.246990 
#    y -0.065090 4.183030 0.002110 
#    z -0.246990 0.002110 4.021800 
# 
# 
# High freq. dielectric constant tensor:
#      x y z
#    x 1.805460 -0.005250 -0.014360 
#    y -0.005250 1.822520 0.002150 
#    z -0.014360 0.002150 1.828830 
# 
# From -- ./inp_files/204486.got.cif
#   From: 2010.06.25/outbox.cif.g09.slc.cpg/sg2_103_cif.got.tgz:204486.got - 2010.06.27 13:26:56.
