data_PCOD8031822
_publ_section_title
;
Structure prediction by ZEFSAII (Michael W. Deem and Ramdas Pophale) SiO2 
 PCOD8031822
Probable space group: P -1
;
_chemical_formula_sum "Si O2"
_cell_formula_units_Z 16
_cell_length_a 6.536560
_cell_length_b 17.317615
_cell_length_c 15.968478
_cell_angle_alpha 146.977929
_cell_angle_beta 47.529072
_cell_angle_gamma 132.386128
_cell_volume 699.900364
_symmetry_space_group_name_H-M "P -1"
_symmetry_group_IT_number 2
_symmetry_cell_setting 'triclinic'
loop_
_space_group_symop_operation_xyz
x,y,z
-x,-y,-z
loop_
_atom_site_type_symbol
_atom_site_label
_atom_site_fract_x
_atom_site_fract_y
_atom_site_fract_z
Si Si1 0.684439 0.661236 0.614952
Si Si2 0.754086 0.184093 0.313182
Si Si3 0.288725 0.847274 0.900322
Si Si4 0.691161 0.861013 0.108456
Si Si5 0.416413 0.835869 0.341009
Si Si6 0.770112 0.695185 0.435827
Si Si7 0.682309 0.597110 0.109353
Si Si8 0.311894 0.582871 0.892070
O O1 0.500000 0.500000 0.500000
O O2 0.449564 0.731861 0.785882
O O3 0.807234 0.734284 0.558922
O O4 0.963130 0.687395 0.620621
O O5 0.778865 0.174315 0.198507
O O6 0.475512 0.232961 0.465819
O O7 0.740327 0.026397 0.213065
O O8 0.998449 0.833441 0.019980
O O9 0.500000 0.000000 0.000000
O O10 0.501229 0.829141 0.214998
O O11 0.546425 0.741112 0.968348
O O12 0.584598 0.748223 0.274772
O O13 0.072899 0.766702 0.372229
O O14 0.500000 0.000000 0.500000
O O15 0.680014 0.517631 0.283522
O O16 0.616787 0.515520 0.141586
O O17 0.500000 0.500000 0.000000
O O18 0.014794 0.625342 0.021616
#
# Coordination Sequence:
#
# PCOD8031822 Si02
#       8
#     2   2   2   2   2   2   2   2
#     4  11  27  47  75 105 141 194 240 298 369 422
#     4  11  27  48  71 104 153 185 239 307 354 434
#     4  11  26  48  73 103 143 184 248 303 354 420
#     4  12  26  45  73 108 137 196 241 291 371 425
#     4  12  27  44  72 107 147 193 234 292 369 437
#     4  11  27  46  69 108 149 187 240 297 362 433
#     4  11  22  47  63  97 151 186 241 293 339 430
#     4  11  25  42  71 103 137 195 241 289 358 422
#
# _framework density 22.860396999999999
#
# number of rings (size 3 to 8) (size 9 to 14) (size 15 to 20)
#    0.000    0.750    3.750    1.875   10.500    2.500 
#    0.000    0.000    0.000    0.000    0.000    0.000 
#    0.000    0.000    0.000    0.000    0.000    0.000 
#
# Total GULP energy -198400.430023 kJ/mol
# GULP energy per Si atom -12400.026876 kJ/mol
# Density = 2.280837 g / cm^3
# Si number density = 22.860397 Si / 1000 Ang^3
#
#
#
# Elastic Constant Matrix: (Units=GPa)
#
#
# Indices 1 2 3 4 5 6 
#
# 1 127.5071 32.1779 50.6112 3.5987 -8.9247 31.3058
# 2 32.1779 74.3869 38.3522 1.5413 -9.4397 35.4713
# 3 50.6112 38.3522 153.2294 13.6970 -14.2378 29.7341
# 4 3.5987 1.5413 13.6970 49.3109 8.7617 4.3326
# 5 -8.9247 -9.4397 -14.2378 8.7617 50.2912 3.4609
# 6 31.3058 35.4713 29.7341 4.3326 3.4609 43.3226
#
#
#
# Elastic Compliance Matrix: (Units=1/GPa)
#
#
# Indices 1 2 3 4 5 6 
#
# 1 0.010292 -0.000436 -0.002020 0.000058 0.001564 -0.005825
# 2 -0.000436 0.024094 -0.001848 0.000518 0.005112 -0.018604
# 3 -0.002020 -0.001848 0.008652 -0.002360 0.002356 -0.002918
# 4 0.000058 0.000518 -0.002360 0.021738 -0.004301 -0.000676
# 5 0.001564 0.005112 0.002356 -0.004301 0.023112 -0.008349
# 6 -0.005825 -0.018604 -0.002918 -0.000676 -0.008349 0.045262
#
#
# Mechanical properties :
#
#
# Convention : Reuss Voigt Hill
#
# Bulk Modulus (GPa) = 29.04362 66.37845 47.71103
# Shear Modulus (GPa) = 32.62961 44.18374 38.40668
#
# Velocity S-wave (km/s) = 3.78212 4.40109 4.10329
# Velocity P-wave (km/s) = 5.63958 7.41118 6.58523
#
# Compressibility (1/GPa) = 0.03443097
#
# Stress axis : x y z
#
# Youngs Moduli (GPa) = 97.15842 41.50430 115.58099
#
# Poissons Ratio (x) = 0.01810 0.23347
# Poissons Ratio (y) = 0.04236 0.21356
# Poissons Ratio (z) = 0.19626 0.07669
#
# Static dielectric constant tensor:
#      x y z
#    x 5.036720 -0.268920 -0.128870 
#    y -0.268920 4.208840 0.039120 
#    z -0.128870 0.039120 4.468670 
# 
# 
# High freq. dielectric constant tensor:
#      x y z
#    x 1.912270 0.013580 0.000920 
#    y 0.013580 1.899000 -0.001240 
#    z 0.000920 -0.001240 1.924740 
# 
# From -- ./inp_files/550563.got.cif
#   From: 2010.06.25/outbox.cif.g09.slc.cpg/sg2_276_cif.got.tgz:550563.got - 2010.06.27 13:26:56.
