data_PCOD8031344
_publ_section_title
;
Structure prediction by ZEFSAII (Michael W. Deem and Ramdas Pophale) SiO2 
 PCOD8031344
Probable space group: P -1
;
_chemical_formula_sum "Si O2"
_cell_formula_units_Z 10
_cell_length_a 10.412730
_cell_length_b 12.254115
_cell_length_c 15.534906
_cell_angle_alpha 29.738165
_cell_angle_beta 28.068779
_cell_angle_gamma 36.445313
_cell_volume 456.400613
_symmetry_space_group_name_H-M "P -1"
_symmetry_group_IT_number 2
_symmetry_cell_setting 'triclinic'
loop_
_space_group_symop_operation_xyz
x,y,z
-x,-y,-z
loop_
_atom_site_type_symbol
_atom_site_label
_atom_site_fract_x
_atom_site_fract_y
_atom_site_fract_z
Si Si1 0.193957 0.489493 0.161426
Si Si2 0.117768 0.650243 0.398164
Si Si3 0.741828 0.888560 0.748545
Si Si4 0.812822 0.888247 0.039520
Si Si5 0.281322 0.343017 0.916349
O O1 0.207883 0.355175 0.156008
O O2 0.050293 0.357669 0.408819
O O3 0.043608 0.742994 0.061768
O O4 0.500000 0.500000 0.000000
O O5 0.441140 0.555567 0.292800
O O6 0.000000 0.500000 0.500000
O O7 0.073545 0.903453 0.214402
O O8 0.447110 0.032274 0.796551
O O9 0.712078 0.875673 0.878455
O O10 0.000000 0.000000 0.500000
O O11 0.715657 0.723449 0.139086
O O12 0.000000 0.500000 0.000000
#
# Coordination Sequence:
#
# PCOD8031344 Si02
#       5
#     2   2   2   2   2
#     4  12  26  45  68 100 137 179 228 277 340 402
#     4  11  26  46  69 102 138 176 229 279 339 407
#     4  11  23  41  69 102 130 175 231 275 335 403
#     4  11  25  46  69  98 141 178 223 284 334 401
#     4  11  22  43  70  98 136 179 222 274 339 402
#
# _framework density 21.910575999999999
#
# number of rings (size 3 to 8) (size 9 to 14) (size 15 to 20)
#    0.000    0.800    2.000    7.200    2.800    5.600 
#    0.000    0.000    0.000    0.000    0.000    0.000 
#    0.000    0.000    0.000    0.000    0.000    0.000 
#
# Total GULP energy -123975.244494 kJ/mol
# GULP energy per Si atom -12397.524449 kJ/mol
# Density = 2.186071 g / cm^3
# Si number density = 21.910576 Si / 1000 Ang^3
#
#
#
# Elastic Constant Matrix: (Units=GPa)
#
#
# Indices 1 2 3 4 5 6 
#
# 1 82.9140 33.6310 48.4331 2.5934 -8.7705 -13.1122
# 2 33.6310 152.8778 60.7008 11.4507 -3.8145 -29.5955
# 3 48.4331 60.7008 159.4845 22.5112 -5.4394 -22.5618
# 4 2.5934 11.4507 22.5112 41.1732 2.9085 -3.8298
# 5 -8.7705 -3.8145 -5.4394 2.9085 39.2129 4.0711
# 6 -13.1122 -29.5955 -22.5618 -3.8298 4.0711 43.8400
#
#
#
# Elastic Compliance Matrix: (Units=1/GPa)
#
#
# Indices 1 2 3 4 5 6 
#
# 1 0.015505 -0.001594 -0.004052 0.001635 0.002485 0.001388
# 2 -0.001594 0.008585 -0.002092 -0.000740 -0.000192 0.004196
# 3 -0.004052 -0.002092 0.009111 -0.004007 0.000276 0.001689
# 4 0.001635 -0.000740 -0.004007 0.026788 -0.002299 0.000482
# 5 0.002485 -0.000192 0.000276 -0.002299 0.026445 -0.001901
# 6 0.001388 0.004196 0.001689 0.000482 -0.001901 0.027146
#
#
# Mechanical properties :
#
#
# Convention : Reuss Voigt Hill
#
# Bulk Modulus (GPa) = 56.41521 75.64511 66.03016
# Shear Modulus (GPa) = 37.04674 41.67931 39.36303
#
# Velocity S-wave (km/s) = 4.11641 4.36621 4.24315
# Velocity P-wave (km/s) = 6.95679 7.74711 7.36257
#
# Compressibility (1/GPa) = 0.01772572
#
# Stress axis : x y z
#
# Youngs Moduli (GPa) = 64.49422 116.47748 109.75935
#
# Poissons Ratio (x) = 0.18565 0.44472
# Poissons Ratio (y) = 0.10280 0.22964
# Poissons Ratio (z) = 0.26131 0.24370
#
# Static dielectric constant tensor:
#      x y z
#    x 4.025940 -0.174480 0.050070 
#    y -0.174480 4.434390 0.211970 
#    z 0.050070 0.211970 3.518110 
# 
# 
# High freq. dielectric constant tensor:
#      x y z
#    x 1.866080 -0.003050 -0.000450 
#    y -0.003050 1.873860 0.015170 
#    z -0.000450 0.015170 1.863560 
# 
# From -- ./inp_files/27770.got.cif
#   From: 2010.06.25/outbox.cif.g09.slc.cpg/sg2_14_cif.got.tgz:27770.got - 2010.06.27 13:26:56.
