data_PCOD8031481
_publ_section_title
;
Structure prediction by ZEFSAII (Michael W. Deem and Ramdas Pophale) SiO2 
 PCOD8031481
Probable space group: P -1
;
_chemical_formula_sum "Si O2"
_cell_formula_units_Z 16
_cell_length_a 9.714330
_cell_length_b 13.611556
_cell_length_c 9.240866
_cell_angle_alpha 52.374367
_cell_angle_beta 69.092739
_cell_angle_gamma 51.541522
_cell_volume 757.298952
_symmetry_space_group_name_H-M "P -1"
_symmetry_group_IT_number 2
_symmetry_cell_setting 'triclinic'
loop_
_space_group_symop_operation_xyz
x,y,z
-x,-y,-z
loop_
_atom_site_type_symbol
_atom_site_label
_atom_site_fract_x
_atom_site_fract_y
_atom_site_fract_z
Si Si1 0.205571 0.338674 0.972577
Si Si2 0.138913 0.861798 0.474883
Si Si3 0.684204 0.881413 0.104963
Si Si4 0.819347 0.077892 0.919381
Si Si5 0.189620 0.364438 0.492569
Si Si6 0.001724 0.349270 0.314907
Si Si7 0.525871 0.335344 0.971288
Si Si8 0.523024 0.358235 0.285380
O O1 0.070580 0.359309 0.125228
O O2 0.205959 0.215730 0.985919
O O3 0.151857 0.477884 0.761237
O O4 0.389505 0.291165 0.018495
O O5 0.162809 0.915857 0.263955
O O6 0.071749 0.754503 0.568174
O O7 0.331016 0.777832 0.551223
O O8 0.000000 0.000000 0.500000
O O9 0.691546 0.768584 0.321651
O O10 0.500000 0.000000 0.000000
O O11 0.756646 0.968954 0.076146
O O12 0.695730 0.238424 0.893823
O O13 0.000000 0.000000 0.000000
O O14 0.320746 0.415055 0.348733
O O15 0.000000 0.500000 0.500000
O O16 0.147929 0.295387 0.433184
O O17 0.452070 0.506877 0.817538
O O18 0.569562 0.300507 0.155332
#
# Coordination Sequence:
#
# PCOD8031481 Si02
#       8
#     2   2   2   2   2   2   2   2
#     4  11  22  44  69 100 136 181 229 279 350 409
#     4  12  26  47  70 102 141 183 235 285 350 418
#     4  12  25  44  68  98 140 179 227 282 348 413
#     4  12  27  44  70 101 138 185 226 287 353 413
#     4  12  26  44  70 108 136 178 237 290 344 411
#     4  11  24  43  71 100 135 180 228 287 341 414
#     4  11  24  45  70 101 142 179 232 282 352 411
#     4  11  26  45  72 102 139 184 233 292 340 417
#
# _framework density 21.127718999999999
#
# number of rings (size 3 to 8) (size 9 to 14) (size 15 to 20)
#    0.000    0.500    5.000    3.000    3.500    0.500 
#    0.000    1.875    0.000    0.000    0.000    0.000 
#    0.000    0.000    0.000    0.000    0.000    0.000 
#
# Total GULP energy -198348.071832 kJ/mol
# GULP energy per Si atom -12396.754489 kJ/mol
# Density = 2.107963 g / cm^3
# Si number density = 21.127719 Si / 1000 Ang^3
#
#
#
# Elastic Constant Matrix: (Units=GPa)
#
#
# Indices 1 2 3 4 5 6 
#
# 1 98.6460 17.5916 10.8641 -4.7927 7.5293 -0.1229
# 2 17.5916 110.0416 27.5325 3.1113 6.8206 -0.9707
# 3 10.8641 27.5325 100.9627 1.9913 14.2943 -4.0198
# 4 -4.7927 3.1113 1.9913 32.2028 -1.7306 0.2711
# 5 7.5293 6.8206 14.2943 -1.7306 42.4548 -1.7682
# 6 -0.1229 -0.9707 -4.0198 0.2711 -1.7682 35.6300
#
#
#
# Elastic Compliance Matrix: (Units=1/GPa)
#
#
# Indices 1 2 3 4 5 6 
#
# 1 0.010661 -0.001524 -0.000574 0.001696 -0.001390 -0.000151
# 2 -0.001524 0.010013 -0.002468 -0.001071 -0.000552 -0.000030
# 3 -0.000574 -0.002468 0.011154 -0.000720 -0.003243 0.001034
# 4 0.001696 -0.001071 -0.000720 0.031530 0.001387 -0.000276
# 5 -0.001390 -0.000552 -0.003243 0.001387 0.025074 0.000848
# 6 -0.000151 -0.000030 0.001034 -0.000276 0.000848 0.028226
#
#
# Mechanical properties :
#
#
# Convention : Reuss Voigt Hill
#
# Bulk Modulus (GPa) = 44.06339 46.84742 45.45540
# Shear Modulus (GPa) = 37.49391 38.96834 38.23112
#
# Velocity S-wave (km/s) = 4.21721 4.29933 4.25847
# Velocity P-wave (km/s) = 6.67938 6.84596 6.76318
#
# Compressibility (1/GPa) = 0.02269458
#
# Stress axis : x y z
#
# Youngs Moduli (GPa) = 93.80418 99.87110 89.65278
#
# Poissons Ratio (x) = 0.15217 0.05149
# Poissons Ratio (y) = 0.14293 0.22130
# Poissons Ratio (z) = 0.05388 0.24653
#
# Static dielectric constant tensor:
#      x y z
#    x 3.849040 0.106580 0.156510 
#    y 0.106580 4.874210 -0.019660 
#    z 0.156510 -0.019660 3.702170 
# 
# 
# High freq. dielectric constant tensor:
#      x y z
#    x 1.838590 0.007810 0.009830 
#    y 0.007810 1.837070 0.002720 
#    z 0.009830 0.002720 1.836250 
# 
# From -- ./inp_files/185045.got.cif
#   From: 2010.06.25/outbox.cif.g09.slc.cpg/sg2_93_cif.got.tgz:185045.got - 2010.06.27 13:26:56.
