data_PCOD8031247
_publ_section_title
;
Structure prediction by ZEFSAII (Michael W. Deem and Ramdas Pophale) SiO2 
 PCOD8031247
Probable space group: P -1
;
_chemical_formula_sum "Si O2"
_cell_formula_units_Z 16
_cell_length_a 18.359718
_cell_length_b 5.351427
_cell_length_c 8.994389
_cell_angle_alpha 97.394961
_cell_angle_beta 108.858264
_cell_angle_gamma 52.774973
_cell_volume 663.268129
_symmetry_space_group_name_H-M "P -1"
_symmetry_group_IT_number 2
_symmetry_cell_setting 'triclinic'
loop_
_space_group_symop_operation_xyz
x,y,z
-x,-y,-z
loop_
_atom_site_type_symbol
_atom_site_label
_atom_site_fract_x
_atom_site_fract_y
_atom_site_fract_z
Si Si1 0.428923 0.250823 0.592796
Si Si2 0.926853 0.858042 0.208709
Si Si3 0.268123 0.781631 0.014452
Si Si4 0.863026 0.583429 0.680910
Si Si5 0.437750 0.790092 0.086777
Si Si6 0.333537 0.255134 0.813175
Si Si7 0.869201 0.518849 0.336978
Si Si8 0.747702 0.326643 0.688377
O O1 0.495452 0.306966 0.733901
O O2 0.383808 0.145547 0.676027
O O3 0.341396 0.555033 0.471821
O O4 0.500000 0.000000 0.500000
O O5 0.920981 0.670239 0.326472
O O6 0.032416 0.626069 0.186061
O O7 0.911775 0.179448 0.268829
O O8 0.845991 0.927664 0.040619
O O9 0.336157 0.887230 0.086087
O O10 0.288208 0.570213 0.157330
O O11 0.289459 0.614164 0.854153
O O12 0.885412 0.467330 0.518014
O O13 0.795958 0.497689 0.696071
O O14 0.816656 0.949704 0.693645
O O15 0.500000 0.500000 0.000000
O O16 0.410738 0.075370 0.983708
O O17 0.245733 0.228286 0.754681
#
# Coordination Sequence:
#
# PCOD8031247 Si02
#       8
#     2   2   2   2   2   2   2   2
#     4  12  28  48  75 110 150 198 250 310 382 444
#     4  11  24  45  77 111 142 201 244 306 367 454
#     4  11  27  47  71 106 147 193 254 299 371 451
#     4  12  26  47  74 107 155 190 247 307 383 434
#     4  12  26  44  76 104 142 197 252 304 372 444
#     4  11  24  47  72 102 149 190 247 311 364 442
#     4  11  22  42  77 107 151 185 249 303 374 434
#     4  12  30  47  72 109 155 195 242 316 373 443
#
# _framework density 24.122973999999999
#
# number of rings (size 3 to 8) (size 9 to 14) (size 15 to 20)
#    0.000    0.500    3.750    3.375    8.750    1.500 
#    0.000    0.000    0.000    0.000    0.000    0.000 
#    0.000    0.000    0.000    0.000    0.000    0.000 
#
# Total GULP energy -198278.042511 kJ/mol
# GULP energy per Si atom -12392.377657 kJ/mol
# Density = 2.406807 g / cm^3
# Si number density = 24.122974 Si / 1000 Ang^3
#
#
#
# Elastic Constant Matrix: (Units=GPa)
#
#
# Indices 1 2 3 4 5 6 
#
# 1 92.7846 56.9145 46.9272 -9.6541 11.3919 -13.5638
# 2 56.9145 100.5308 37.7681 -6.4332 -0.1194 -11.5506
# 3 46.9272 37.7681 128.8817 -11.2979 -2.7434 -26.1101
# 4 -9.6541 -6.4332 -11.2979 39.3642 -6.5746 2.5411
# 5 11.3919 -0.1194 -2.7434 -6.5746 46.5782 -13.1827
# 6 -13.5638 -11.5506 -26.1101 2.5411 -13.1827 39.0955
#
#
#
# Elastic Compliance Matrix: (Units=1/GPa)
#
#
# Indices 1 2 3 4 5 6 
#
# 1 0.019397 -0.009316 -0.004510 0.001141 -0.005108 -0.000831
# 2 -0.009316 0.015747 -0.000747 0.000432 0.002862 0.001858
# 3 -0.004510 -0.000747 0.011322 0.002249 0.004067 0.007001
# 4 0.001141 0.000432 0.002249 0.026983 0.004135 0.001666
# 5 -0.005108 0.002862 0.004067 0.004135 0.026509 0.010459
# 6 -0.000831 0.001858 0.007001 0.001666 0.010459 0.033933
#
#
# Mechanical properties :
#
#
# Convention : Reuss Voigt Hill
#
# Bulk Modulus (GPa) = 57.73613 67.26852 62.50233
# Shear Modulus (GPa) = 29.61897 37.04673 33.33285
#
# Velocity S-wave (km/s) = 3.50785 3.92311 3.72127
# Velocity P-wave (km/s) = 6.35552 6.96184 6.66558
#
# Compressibility (1/GPa) = 0.01732018
#
# Stress axis : x y z
#
# Youngs Moduli (GPa) = 51.55352 63.50609 88.32196
#
# Poissons Ratio (x) = 0.59161 0.39832
# Poissons Ratio (y) = 0.48026 0.06599
# Poissons Ratio (z) = 0.23250 0.04745
#
# Static dielectric constant tensor:
#      x y z
#    x 4.624980 -0.627910 0.100250 
#    y -0.627910 7.344640 -0.147860 
#    z 0.100250 -0.147860 4.531260 
# 
# 
# High freq. dielectric constant tensor:
#      x y z
#    x 1.970390 -0.017220 0.007530 
#    y -0.017220 1.953500 -0.011750 
#    z 0.007530 -0.011750 1.965570 
# 
# From -- ./inp_files/289060.got.cif
#   From: 2010.06.25/outbox.cif.g09.slc.cpg/sg2_145_cif.got.tgz:289060.got - 2010.06.27 13:26:56.
