data_PCOD8031058
_publ_section_title
;
Structure prediction by ZEFSAII (Michael W. Deem and Ramdas Pophale) SiO2 
 PCOD8031058
Probable space group: P -1
;
_chemical_formula_sum "Si O2"
_cell_formula_units_Z 16
_cell_length_a 5.292534
_cell_length_b 15.915097
_cell_length_c 13.531087
_cell_angle_alpha 38.575506
_cell_angle_beta 102.694796
_cell_angle_gamma 89.883759
_cell_volume 664.395148
_symmetry_space_group_name_H-M "P -1"
_symmetry_group_IT_number 2
_symmetry_cell_setting 'triclinic'
loop_
_space_group_symop_operation_xyz
x,y,z
-x,-y,-z
loop_
_atom_site_type_symbol
_atom_site_label
_atom_site_fract_x
_atom_site_fract_y
_atom_site_fract_z
Si Si1 0.034394 0.983424 0.310905
Si Si2 0.674267 0.343358 0.647798
Si Si3 0.974611 0.713508 0.655436
Si Si4 0.582292 0.004421 0.115256
Si Si5 0.338167 0.432564 0.884647
Si Si6 0.964398 0.287325 0.110645
Si Si7 0.508992 0.226931 0.557884
Si Si8 0.280774 0.289907 0.818670
O O1 0.935936 0.875902 0.472843
O O2 0.333807 0.895379 0.389641
O O3 0.868247 0.026898 0.153555
O O4 0.028286 0.123407 0.240971
O O5 0.500000 0.500000 0.500000
O O6 0.681569 0.305772 0.565812
O O7 0.524331 0.261082 0.784240
O O8 0.983425 0.327873 0.713632
O O9 0.251409 0.601383 0.742810
O O10 0.946165 0.700256 0.781367
O O11 0.729340 0.667495 0.623180
O O12 0.614041 0.850264 0.298670
O O13 0.348667 0.137212 0.019739
O O14 0.500000 0.000000 0.000000
O O15 0.302149 0.410222 0.785657
O O16 0.646858 0.365108 0.003755
O O17 0.140024 0.361573 0.991424
#
# Coordination Sequence:
#
# PCOD8031058 Si02
#       8
#     2   2   2   2   2   2   2   2
#     4  11  26  45  73 104 148 192 243 300 362 438
#     4  12  27  44  69 103 145 189 234 289 362 430
#     4  11  28  47  74 107 145 192 241 309 366 428
#     4  11  22  42  65 101 136 186 234 286 352 418
#     4  12  27  48  78 108 146 188 249 301 366 435
#     4  12  27  50  76 108 144 192 248 303 366 431
#     4  11  26  43  71 104 147 187 240 294 360 434
#     4  12  25  44  73 100 143 185 235 296 352 429
#
# _framework density 24.082052999999998
#
# number of rings (size 3 to 8) (size 9 to 14) (size 15 to 20)
#    0.000    0.500    2.500    4.500   10.500    1.500 
#    0.000    0.000    0.000    0.000    0.000    0.000 
#    0.000    0.000    0.000    0.000    0.000    0.000 
#
# Total GULP energy -198245.429894 kJ/mol
# GULP energy per Si atom -12390.339368 kJ/mol
# Density = 2.402724 g / cm^3
# Si number density = 24.082053 Si / 1000 Ang^3
#
#
#
# Elastic Constant Matrix: (Units=GPa)
#
#
# Indices 1 2 3 4 5 6 
#
# 1 95.7222 4.5213 45.4793 16.0514 16.6590 -4.1502
# 2 4.5213 123.4862 45.8072 8.1782 16.2147 -1.7262
# 3 45.4793 45.8072 97.8587 -1.0486 32.0607 8.4389
# 4 16.0514 8.1782 -1.0486 56.7582 2.6813 9.3300
# 5 16.6590 16.2147 32.0607 2.6813 27.5601 -2.9506
# 6 -4.1502 -1.7262 8.4389 9.3300 -2.9506 34.3029
#
#
#
# Elastic Compliance Matrix: (Units=1/GPa)
#
#
# Indices 1 2 3 4 5 6 
#
# 1 0.016329 0.003583 -0.010368 -0.006476 0.001419 0.006590
# 2 0.003583 0.010876 -0.007353 -0.003370 0.000721 0.003768
# 3 -0.010368 -0.007353 0.027203 0.007621 -0.023118 -0.012378
# 4 -0.006476 -0.003370 0.007621 0.021894 -0.006095 -0.009307
# 5 0.001419 0.000721 -0.023118 -0.006095 0.063885 0.013048
# 6 0.006590 0.003768 -0.012378 -0.009307 0.013048 0.036838
#
#
# Mechanical properties :
#
#
# Convention : Reuss Voigt Hill
#
# Bulk Modulus (GPa) = 38.27128 56.52031 47.39580
# Shear Modulus (GPa) = 23.36320 38.47485 30.91902
#
# Velocity S-wave (km/s) = 3.11810 4.00141 3.58705
# Velocity P-wave (km/s) = 5.37494 6.69845 6.07285
#
# Compressibility (1/GPa) = 0.02612925
#
# Stress axis : x y z
#
# Youngs Moduli (GPa) = 61.24242 91.94737 36.76121
#
# Poissons Ratio (x) = -0.32945 0.38116
# Poissons Ratio (y) = -0.21943 0.27032
# Poissons Ratio (z) = 0.63499 0.67612
#
# Static dielectric constant tensor:
#      x y z
#    x 5.531120 0.095410 -0.945560 
#    y 0.095410 4.709590 0.009530 
#    z -0.945560 0.009530 6.074050 
# 
# 
# High freq. dielectric constant tensor:
#      x y z
#    x 1.951010 0.004460 0.010190 
#    y 0.004460 1.969330 -0.007730 
#    z 0.010190 -0.007730 1.973500 
# 
# From -- ./inp_files/99847.got.cif
#   From: 2010.06.25/outbox.cif.g09.slc.cpg/sg2_50_cif.got.tgz:99847.got - 2010.06.27 13:26:56.
