data_PCOD8031020
_publ_section_title
;
Structure prediction by ZEFSAII (Michael W. Deem and Ramdas Pophale) SiO2 
 PCOD8031020
Probable space group: P -1
;
_chemical_formula_sum "Si O2"
_cell_formula_units_Z 12
_cell_length_a 10.345628
_cell_length_b 11.349732
_cell_length_c 8.684701
_cell_angle_alpha 130.233052
_cell_angle_beta 97.270451
_cell_angle_gamma 120.143777
_cell_volume 491.739489
_symmetry_space_group_name_H-M "P -1"
_symmetry_group_IT_number 2
_symmetry_cell_setting 'triclinic'
loop_
_space_group_symop_operation_xyz
x,y,z
-x,-y,-z
loop_
_atom_site_type_symbol
_atom_site_label
_atom_site_fract_x
_atom_site_fract_y
_atom_site_fract_z
Si Si1 0.309031 0.169964 0.822023
Si Si2 0.516903 0.351643 0.686937
Si Si3 0.398351 0.804178 0.952730
Si Si4 0.113712 0.522258 0.176881
Si Si5 0.968262 0.281825 0.446043
Si Si6 0.793433 0.078096 0.915483
O O1 0.351723 0.373326 0.077926
O O2 0.440237 0.154867 0.906155
O O3 0.357372 0.218337 0.690590
O O4 0.073881 0.899782 0.593570
O O5 0.662327 0.334863 0.716755
O O6 0.372979 0.205177 0.390046
O O7 0.205575 0.517616 0.633386
O O8 0.303150 0.844242 0.086919
O O9 0.500000 0.000000 0.000000
O O10 0.124919 0.646979 0.431839
O O11 0.000000 0.500000 0.000000
O O12 0.996026 0.258373 0.992093
O O13 0.840540 0.119231 0.137794
#
# Coordination Sequence:
#
# PCOD8031020 Si02
#       6
#     2   2   2   2   2   2
#     4  11  25  45  66  96 137 181 222 276 332 397
#     4  11  26  44  66  98 138 179 223 270 340 399
#     4  11  22  41  72  96 130 174 221 275 332 393
#     4  11  23  42  69  99 128 174 230 278 329 395
#     4  11  24  42  69 101 133 173 226 279 334 390
#     4  11  24  40  68 101 132 172 225 280 329 401
#
# _framework density 24.403165000000001
#
# number of rings (size 3 to 8) (size 9 to 14) (size 15 to 20)
#    0.000    1.000    1.667    6.000    2.333    4.000 
#    0.000    5.833    0.000    0.000    0.000    0.000 
#    0.000    0.000    0.000    0.000    0.000    0.000 
#
# Total GULP energy -148669.325604 kJ/mol
# GULP energy per Si atom -12389.110467 kJ/mol
# Density = 2.434762 g / cm^3
# Si number density = 24.403165 Si / 1000 Ang^3
#
#
#
# Elastic Constant Matrix: (Units=GPa)
#
#
# Indices 1 2 3 4 5 6 
#
# 1 23.8187 8.7811 17.3511 1.3237 -1.7799 6.9021
# 2 8.7811 109.3076 37.8539 35.9050 -0.5573 13.1401
# 3 17.3511 37.8539 136.2617 21.6875 -4.9475 18.3845
# 4 1.3237 35.9050 21.6875 51.1568 -0.7731 1.5402
# 5 -1.7799 -0.5573 -4.9475 -0.7731 21.1924 1.9988
# 6 6.9021 13.1401 18.3845 1.5402 1.9988 27.2163
#
#
#
# Elastic Compliance Matrix: (Units=1/GPa)
#
#
# Indices 1 2 3 4 5 6 
#
# 1 0.048841 -0.002046 -0.004747 0.002502 0.003844 -0.008615
# 2 -0.002046 0.013095 -0.001459 -0.008390 -0.000065 -0.004338
# 3 -0.004747 -0.001459 0.009459 -0.002696 0.002095 -0.004482
# 4 0.002502 -0.008390 -0.002696 0.026401 -0.000030 0.003746
# 5 0.003844 -0.000065 0.002095 -0.000030 0.048555 -0.005923
# 6 -0.008615 -0.004338 -0.004482 0.003746 -0.005923 0.044273
#
#
# Mechanical properties :
#
#
# Convention : Reuss Voigt Hill
#
# Bulk Modulus (GPa) = 18.21824 44.15111 31.18468
# Shear Modulus (GPa) = 22.18029 33.60657 27.89343
#
# Velocity S-wave (km/s) = 3.01808 3.71501 3.38453
# Velocity P-wave (km/s) = 4.43022 6.04428 5.29907
#
# Compressibility (1/GPa) = 0.05489003
#
# Stress axis : x y z
#
# Youngs Moduli (GPa) = 20.47456 76.36371 105.72372
#
# Poissons Ratio (x) = 0.15627 0.50188
# Poissons Ratio (y) = 0.04190 0.15425
# Poissons Ratio (z) = 0.09719 0.11141
#
# Static dielectric constant tensor:
#      x y z
#    x 4.567240 0.467750 0.149260 
#    y 0.467750 4.790670 0.565800 
#    z 0.149260 0.565800 4.695640 
# 
# 
# High freq. dielectric constant tensor:
#      x y z
#    x 1.942630 0.021760 0.004040 
#    y 0.021760 1.977390 0.019580 
#    z 0.004040 0.019580 1.979510 
# 
# From -- ./inp_files/260698.got.cif
#   From: 2010.06.25/outbox.cif.g09.slc.cpg/sg2_131_cif.got.tgz:260698.got - 2010.06.27 13:26:56.
