data_PCOD8031773
_publ_section_title
;
Structure prediction by ZEFSAII (Michael W. Deem and Ramdas Pophale) SiO2 
 PCOD8031773
Probable space group: P -1
;
_chemical_formula_sum "Si O2"
_cell_formula_units_Z 16
_cell_length_a 10.940718
_cell_length_b 14.651006
_cell_length_c 9.426758
_cell_angle_alpha 150.878884
_cell_angle_beta 78.618526
_cell_angle_gamma 94.139173
_cell_volume 704.813474
_symmetry_space_group_name_H-M "P -1"
_symmetry_group_IT_number 2
_symmetry_cell_setting 'triclinic'
loop_
_space_group_symop_operation_xyz
x,y,z
-x,-y,-z
loop_
_atom_site_type_symbol
_atom_site_label
_atom_site_fract_x
_atom_site_fract_y
_atom_site_fract_z
Si Si1 0.777518 0.809681 0.415792
Si Si2 0.236534 0.503469 0.789037
Si Si3 0.033948 0.178937 0.155769
Si Si4 0.705875 0.713589 0.786079
Si Si5 0.077263 0.868450 0.186165
Si Si6 0.490072 0.963531 0.617099
Si Si7 0.826571 0.520725 0.774888
Si Si8 0.364164 0.633167 0.192188
O O1 0.818217 0.656397 0.325416
O O2 0.624123 0.850130 0.493812
O O3 0.814548 0.011868 0.718753
O O4 0.842503 0.709803 0.118802
O O5 0.320889 0.408277 0.508423
O O6 0.123051 0.662657 0.967626
O O7 0.322917 0.611551 0.010721
O O8 0.184214 0.170928 0.122978
O O9 0.960533 0.378963 0.515197
O O10 0.001780 0.167768 0.982204
O O11 0.000000 0.000000 0.000000
O O12 0.752126 0.578439 0.725274
O O13 0.566186 0.841447 0.022291
O O14 0.000000 0.000000 0.500000
O O15 0.378237 0.847874 0.507211
O O16 0.500000 0.000000 0.500000
O O17 0.742483 0.406569 0.731533
O O18 0.500000 0.500000 0.000000
#
# Coordination Sequence:
#
# PCOD8031773 Si02
#       8
#     2   2   2   2   2   2   2   2
#     4  11  25  47  72 104 140 188 240 288 359 423
#     4  11  26  46  69 107 143 181 238 295 355 415
#     4  12  27  47  71 105 144 190 239 293 356 429
#     4  12  25  46  70 105 145 186 232 297 360 416
#     4  12  28  45  71 107 144 187 240 295 351 428
#     4  12  23  45  75 101 139 188 238 289 355 428
#     4  11  23  44  71 100 141 188 232 292 352 423
#     4  11  22  46  71 102 138 185 242 283 353 424
#
# _framework density 22.701042000000001
#
# number of rings (size 3 to 8) (size 9 to 14) (size 15 to 20)
#    0.000    0.500    5.000    3.375    7.000    1.000 
#    2.250    1.875    0.000    0.000    0.000    0.000 
#    0.000    0.000    0.000    0.000    0.000    0.000 
#
# Total GULP energy -198405.915537 kJ/mol
# GULP energy per Si atom -12400.369721 kJ/mol
# Density = 2.264937 g / cm^3
# Si number density = 22.701042 Si / 1000 Ang^3
#
#
#
# Elastic Constant Matrix: (Units=GPa)
#
#
# Indices 1 2 3 4 5 6 
#
# 1 60.4748 7.5175 22.4157 -1.9163 -6.6329 1.3495
# 2 7.5175 113.9891 35.4003 0.6057 -8.5112 -14.9673
# 3 22.4157 35.4003 129.9038 -16.5769 -26.5119 -2.2508
# 4 -1.9163 0.6057 -16.5769 45.7886 1.4458 3.0343
# 5 -6.6329 -8.5112 -26.5119 1.4458 41.0153 1.6001
# 6 1.3495 -14.9673 -2.2508 3.0343 1.6001 31.2064
#
#
#
# Elastic Compliance Matrix: (Units=1/GPa)
#
#
# Indices 1 2 3 4 5 6 
#
# 1 0.017753 -0.000379 -0.002797 -0.000219 0.001039 -0.001183
# 2 -0.000379 0.010340 -0.002837 -0.001509 0.000112 0.004912
# 3 -0.002797 -0.002837 0.010562 0.003639 0.005702 -0.001124
# 4 -0.000219 -0.001509 0.003639 0.023311 0.001290 -0.002785
# 5 0.001039 0.000112 0.005702 0.001290 0.028258 -0.001154
# 6 -0.001183 0.004912 -0.001124 -0.002785 -0.001154 0.034701
#
#
# Mechanical properties :
#
#
# Convention : Reuss Voigt Hill
#
# Bulk Modulus (GPa) = 37.55112 48.33718 42.94415
# Shear Modulus (GPa) = 34.28727 39.53767 36.91247
#
# Velocity S-wave (km/s) = 3.89058 4.17786 4.03677
# Velocity P-wave (km/s) = 6.06297 6.67921 6.37854
#
# Compressibility (1/GPa) = 0.02663036
#
# Stress axis : x y z
#
# Youngs Moduli (GPa) = 56.32895 96.71013 94.67689
#
# Poissons Ratio (x) = 0.03665 0.26477
# Poissons Ratio (y) = 0.02134 0.26859
# Poissons Ratio (z) = 0.15753 0.27436
#
# Static dielectric constant tensor:
#      x y z
#    x 4.415390 0.315810 0.406300 
#    y 0.315810 4.324450 0.106350 
#    z 0.406300 0.106350 4.494180 
# 
# 
# High freq. dielectric constant tensor:
#      x y z
#    x 1.887800 0.002190 0.002500 
#    y 0.002190 1.910720 0.000830 
#    z 0.002500 0.000830 1.910400 
# 
# From -- ./inp_files/274840.got.cif
#   From: 2010.06.25/outbox.cif.g09.slc.cpg/sg2_138_cif.got.tgz:274840.got - 2010.06.27 13:26:56.
