data_PCOD8031380
_publ_section_title
;
Structure prediction by ZEFSAII (Michael W. Deem and Ramdas Pophale) SiO2 
 PCOD8031380
Probable space group: P -1
;
_chemical_formula_sum "Si O2"
_cell_formula_units_Z 16
_cell_length_a 14.240966
_cell_length_b 14.030752
_cell_length_c 10.993625
_cell_angle_alpha 59.812733
_cell_angle_beta 41.568504
_cell_angle_gamma 31.263311
_cell_volume 694.254386
_symmetry_space_group_name_H-M "P -1"
_symmetry_group_IT_number 2
_symmetry_cell_setting 'triclinic'
loop_
_space_group_symop_operation_xyz
x,y,z
-x,-y,-z
loop_
_atom_site_type_symbol
_atom_site_label
_atom_site_fract_x
_atom_site_fract_y
_atom_site_fract_z
Si Si1 0.364763 0.957119 0.941677
Si Si2 0.266674 0.930828 0.537634
Si Si3 0.042817 0.445517 0.355650
Si Si4 0.262257 0.894390 0.296394
Si Si5 0.646186 0.840655 0.353172
Si Si6 0.209069 0.602797 0.300157
Si Si7 0.019965 0.907486 0.925618
Si Si8 0.623199 0.494171 0.061044
O O1 0.657418 0.756169 0.829110
O O2 0.315456 0.109677 0.835709
O O3 0.211790 0.032678 0.167629
O O4 0.264929 0.929971 0.958393
O O5 0.362446 0.872690 0.342852
O O6 0.480218 0.842712 0.475286
O O7 0.207920 0.842553 0.687065
O O8 0.001778 0.166628 0.663346
O O9 0.000000 0.500000 0.500000
O O10 0.921504 0.618247 0.275756
O O11 0.901983 0.419581 0.489484
O O12 0.477155 0.677322 0.166899
O O13 0.000000 0.000000 0.500000
O O14 0.500000 0.000000 0.500000
O O15 0.452716 0.497168 0.197447
O O16 0.288259 0.505546 0.151445
O O17 0.128971 0.715282 0.974866
O O18 0.000000 0.000000 0.000000
#
# Coordination Sequence:
#
# PCOD8031380 Si02
#       8
#     2   2   2   2   2   2   2   2
#     4  12  27  46  73 105 150 199 238 308 376 435
#     4  12  24  49  74 105 153 198 242 308 370 439
#     4  12  25  42  72 107 150 187 239 308 381 437
#     4  12  26  50  70 106 154 201 246 302 375 449
#     4  12  26  47  74 112 149 189 249 311 371 443
#     4  11  22  43  72 110 140 194 247 306 368 429
#     4  12  25  42  71 115 147 184 255 315 363 438
#     4  11  25  40  75 107 148 192 250 305 369 433
#
# _framework density 23.046309000000001
#
# number of rings (size 3 to 8) (size 9 to 14) (size 15 to 20)
#    0.000    0.250    6.250    2.250    7.000    1.000 
#    0.000    0.625    0.000    0.000    0.000    0.000 
#    0.000    0.000    0.000    0.000    0.000    0.000 
#
# Total GULP energy -198418.790594 kJ/mol
# GULP energy per Si atom -12401.174412 kJ/mol
# Density = 2.299385 g / cm^3
# Si number density = 23.046309 Si / 1000 Ang^3
#
#
#
# Elastic Constant Matrix: (Units=GPa)
#
#
# Indices 1 2 3 4 5 6 
#
# 1 103.0574 28.0554 39.2155 5.7503 3.1160 -12.1356
# 2 28.0554 144.4179 56.7535 -12.1705 -2.8396 -21.0341
# 3 39.2155 56.7535 127.5036 -18.6123 -4.1459 -7.9234
# 4 5.7503 -12.1705 -18.6123 45.9995 4.6059 -1.5741
# 5 3.1160 -2.8396 -4.1459 4.6059 42.8105 3.1346
# 6 -12.1356 -21.0341 -7.9234 -1.5741 3.1346 34.4263
#
#
#
# Elastic Compliance Matrix: (Units=1/GPa)
#
#
# Indices 1 2 3 4 5 6 
#
# 1 0.011802 -0.000734 -0.003587 -0.002908 -0.001152 0.002858
# 2 -0.000734 0.009182 -0.003384 0.001326 -0.000148 0.004647
# 3 -0.003587 -0.003384 0.011004 0.003909 0.000732 -0.000687
# 4 -0.002908 0.001326 0.003909 0.024312 -0.002083 0.001986
# 5 -0.001152 -0.000148 0.000732 -0.002083 0.023918 -0.002601
# 6 0.002858 0.004647 -0.000687 0.001986 -0.002601 0.033064
#
#
# Mechanical properties :
#
#
# Convention : Reuss Voigt Hill
#
# Bulk Modulus (GPa) = 60.32336 69.22531 64.77434
# Shear Modulus (GPa) = 37.25256 41.37753 39.31505
#
# Velocity S-wave (km/s) = 4.02484 4.24182 4.13475
# Velocity P-wave (km/s) = 6.91598 7.35482 7.13877
#
# Compressibility (1/GPa) = 0.01657733
#
# Stress axis : x y z
#
# Youngs Moduli (GPa) = 84.73201 108.90366 90.87516
#
# Poissons Ratio (x) = 0.07998 0.32600
# Poissons Ratio (y) = 0.06223 0.30751
# Poissons Ratio (z) = 0.30396 0.36851
#
# Static dielectric constant tensor:
#      x y z
#    x 4.291610 -0.117520 -0.147920 
#    y -0.117520 4.295190 -0.529120 
#    z -0.147920 -0.529120 4.445190 
# 
# 
# High freq. dielectric constant tensor:
#      x y z
#    x 1.904820 -0.013780 -0.025540 
#    y -0.013780 1.910750 -0.019720 
#    z -0.025540 -0.019720 1.916950 
# 
# From -- ./inp_files/455624.got.cif
#   From: 2010.06.25/outbox.cif.g09.slc.cpg/sg2_228_cif.got.tgz:455624.got - 2010.06.27 13:26:56.
