data_PCOD8031829
_publ_section_title
;
Structure prediction by ZEFSAII (Michael W. Deem and Ramdas Pophale) SiO2 
 PCOD8031829
Probable space group: P -1
;
_chemical_formula_sum "Si O2"
_cell_formula_units_Z 16
_cell_length_a 15.643778
_cell_length_b 8.285438
_cell_length_c 13.047395
_cell_angle_alpha 86.456264
_cell_angle_beta 26.768510
_cell_angle_gamma 80.400746
_cell_volume 736.426554
_symmetry_space_group_name_H-M "P -1"
_symmetry_group_IT_number 2
_symmetry_cell_setting 'triclinic'
loop_
_space_group_symop_operation_xyz
x,y,z
-x,-y,-z
loop_
_atom_site_type_symbol
_atom_site_label
_atom_site_fract_x
_atom_site_fract_y
_atom_site_fract_z
Si Si1 0.883509 0.179882 0.270379
Si Si2 0.614391 0.849334 0.951793
Si Si3 0.751498 0.001466 0.995296
Si Si4 0.408090 0.599397 0.281973
Si Si5 0.203072 0.351816 0.419315
Si Si6 0.005798 0.664457 0.047262
Si Si7 0.809325 0.359670 0.932387
Si Si8 0.679480 0.881614 0.508658
O O1 0.747064 0.343633 0.462598
O O2 0.788814 0.026755 0.389884
O O3 0.910135 0.213950 0.120988
O O4 0.095782 0.135591 0.097927
O O5 0.455739 0.760552 0.173170
O O6 0.769947 0.717190 0.722303
O O7 0.500000 0.000000 0.000000
O O8 0.732344 0.918128 0.910134
O O9 0.823639 0.168718 0.894264
O O10 0.548668 0.045241 0.275024
O O11 0.309822 0.502626 0.307337
O O12 0.599389 0.477553 0.129813
O O13 0.306289 0.204892 0.392275
O O14 0.972420 0.417716 0.687850
O O15 0.148306 0.624755 0.993594
O O16 0.783107 0.749158 0.317360
O O17 0.000000 0.500000 0.000000
#
# Coordination Sequence:
#
# PCOD8031829 Si02
#       8
#     2   2   2   2   2   2   2   2
#     4  12  25  46  70 106 143 188 233 289 348 417
#     4  12  25  46  72 106 139 188 237 284 354 416
#     4  12  25  45  73 101 143 186 233 287 349 412
#     4  12  26  46  73 103 148 183 233 293 348 414
#     4  11  23  46  70 101 150 181 231 295 345 412
#     4  11  26  45  73 104 144 183 236 287 353 419
#     4  11  26  48  72 103 141 189 231 291 356 407
#     4  11  22  47  68 104 144 183 228 296 339 418
#
# _framework density 21.726538000000001
#
# number of rings (size 3 to 8) (size 9 to 14) (size 15 to 20)
#    0.000    0.500    6.250    2.250    3.500    2.000 
#    2.250    0.000    0.000    0.000    0.000    0.000 
#    0.000    0.000    0.000    0.000    0.000    0.000 
#
# Total GULP energy -198492.438606 kJ/mol
# GULP energy per Si atom -12405.777413 kJ/mol
# Density = 2.167709 g / cm^3
# Si number density = 21.726538 Si / 1000 Ang^3
#
#
#
# Elastic Constant Matrix: (Units=GPa)
#
#
# Indices 1 2 3 4 5 6 
#
# 1 99.2306 55.6185 67.2129 10.2850 2.1602 25.8926
# 2 55.6185 97.0429 29.9102 0.7180 5.1960 20.0504
# 3 67.2129 29.9102 150.0041 23.4118 -4.7211 -0.9207
# 4 10.2850 0.7180 23.4118 43.3623 -2.9045 -0.5659
# 5 2.1602 5.1960 -4.7211 -2.9045 43.7393 4.4247
# 6 25.8926 20.0504 -0.9207 -0.5659 4.4247 41.6329
#
#
#
# Elastic Compliance Matrix: (Units=1/GPa)
#
#
# Indices 1 2 3 4 5 6 
#
# 1 0.023935 -0.008707 -0.008923 -0.000862 -0.000066 -0.010895
# 2 -0.008707 0.015581 0.000526 0.001426 -0.001073 -0.001944
# 3 -0.008923 0.000526 0.011215 -0.003824 0.000788 0.005408
# 4 -0.000862 0.001426 -0.003824 0.025383 0.001147 -0.000012
# 5 -0.000066 -0.001073 0.000788 0.001147 0.023346 -0.001890
# 6 -0.010895 -0.001944 0.005408 -0.000012 -0.001890 0.032052
#
#
# Mechanical properties :
#
#
# Convention : Reuss Voigt Hill
#
# Bulk Modulus (GPa) = 60.51945 72.41786 66.46865
# Shear Modulus (GPa) = 29.20094 38.64932 33.92513
#
# Velocity S-wave (km/s) = 3.67007 4.22228 3.95582
# Velocity P-wave (km/s) = 6.77309 7.56135 7.17805
#
# Compressibility (1/GPa) = 0.01652361
#
# Stress axis : x y z
#
# Youngs Moduli (GPa) = 41.77934 64.17970 89.17026
#
# Poissons Ratio (x) = 0.55881 0.79567
# Poissons Ratio (y) = 0.36377 -0.04693
# Poissons Ratio (z) = 0.37280 -0.03378
#
# Static dielectric constant tensor:
#      x y z
#    x 3.938150 0.017780 0.060250 
#    y 0.017780 4.115500 0.044990 
#    z 0.060250 0.044990 4.344080 
# 
# 
# High freq. dielectric constant tensor:
#      x y z
#    x 1.845730 0.008700 0.001570 
#    y 0.008700 1.869250 0.003530 
#    z 0.001570 0.003530 1.868190 
# 
# From -- ./inp_files/447454.got.cif
#   From: 2010.06.25/outbox.cif.g09.slc.cpg/sg2_224_cif.got.tgz:447454.got - 2010.06.27 13:26:56.
