data_PCOD8031709
_publ_section_title
;
Structure prediction by ZEFSAII (Michael W. Deem and Ramdas Pophale) SiO2 
 PCOD8031709
Probable space group: P -1
;
_chemical_formula_sum "Si O2"
_cell_formula_units_Z 14
_cell_length_a 11.504461
_cell_length_b 7.424835
_cell_length_c 18.547361
_cell_angle_alpha 76.349265
_cell_angle_beta 142.926076
_cell_angle_gamma 130.083521
_cell_volume 583.404117
_symmetry_space_group_name_H-M "P -1"
_symmetry_group_IT_number 2
_symmetry_cell_setting 'triclinic'
loop_
_space_group_symop_operation_xyz
x,y,z
-x,-y,-z
loop_
_atom_site_type_symbol
_atom_site_label
_atom_site_fract_x
_atom_site_fract_y
_atom_site_fract_z
Si Si1 0.805499 0.245233 0.670675
Si Si2 0.623948 0.840408 0.837721
Si Si3 0.884439 0.755315 0.069315
Si Si4 0.850825 0.282544 0.313507
Si Si5 0.704136 0.559836 0.657851
Si Si6 0.645889 0.928446 0.113475
Si Si7 0.285844 0.355677 0.598949
O O1 0.764309 0.385977 0.691828
O O2 0.880592 0.105127 0.760911
O O3 0.073331 0.488329 0.722864
O O4 0.500000 0.000000 0.500000
O O5 0.396608 0.840172 0.738680
O O6 0.451721 0.543416 0.737406
O O7 0.745947 0.855350 0.974780
O O8 0.915621 0.144108 0.912205
O O9 0.600774 0.414731 0.978966
O O10 0.156193 0.445751 0.490282
O O11 0.725880 0.019564 0.228628
O O12 0.500000 0.500000 0.500000
O O13 0.547310 0.463892 0.667004
O O14 0.045781 0.906339 0.792173
O O15 0.500000 0.000000 0.000000
O O16 0.000000 0.000000 0.500000
#
# Coordination Sequence:
#
# PCOD8031709 Si02
#       7
#     2   2   2   2   2   2   2
#     4  11  24  44  73 102 135 182 240 296 352 410
#     4  11  28  46  66 106 150 190 236 287 369 432
#     4  11  25  49  67 104 145 193 236 292 364 428
#     4  11  24  45  69 105 140 182 246 296 347 425
#     4  11  24  45  73 107 136 181 242 296 350 424
#     4  11  22  45  73 106 137 179 246 296 358 410
#     4  12  26  46  72 105 146 192 239 289 360 434
#
# _framework density 23.997088999999999
#
# number of rings (size 3 to 8) (size 9 to 14) (size 15 to 20)
#    0.000    0.857    5.714    2.143    4.000    3.429 
#    0.000    0.000    0.000    0.000    0.000    0.000 
#    0.000    0.000    0.000    0.000    0.000    0.000 
#
# Total GULP energy -173517.019917 kJ/mol
# GULP energy per Si atom -12394.072851 kJ/mol
# Density = 2.394247 g / cm^3
# Si number density = 23.997089 Si / 1000 Ang^3
#
#
#
# Elastic Constant Matrix: (Units=GPa)
#
#
# Indices 1 2 3 4 5 6 
#
# 1 95.4708 11.6846 25.1109 13.2899 30.1930 18.9731
# 2 11.6846 98.4383 42.5233 0.9613 13.7220 19.5581
# 3 25.1109 42.5233 152.5287 -2.5941 13.2526 13.0074
# 4 13.2899 0.9613 -2.5941 55.6579 11.4908 7.4718
# 5 30.1930 13.7220 13.2526 11.4908 42.7131 6.8847
# 6 18.9731 19.5581 13.0074 7.4718 6.8847 20.8121
#
#
#
# Elastic Compliance Matrix: (Units=1/GPa)
#
#
# Indices 1 2 3 4 5 6 
#
# 1 0.016237 0.002660 -0.001458 -0.000229 -0.009707 -0.013098
# 2 0.002660 0.014266 -0.002922 0.001559 -0.003833 -0.013297
# 3 -0.001458 -0.002922 0.007757 0.001002 -0.000554 -0.000949
# 4 -0.000229 0.001559 0.001002 0.020044 -0.004837 -0.007478
# 5 -0.009707 -0.003833 -0.000554 -0.004837 0.032361 0.003829
# 6 -0.013098 -0.013297 -0.000949 -0.007478 0.003829 0.074497
#
#
# Mechanical properties :
#
#
# Convention : Reuss Voigt Hill
#
# Bulk Modulus (GPa) = 28.71856 56.11949 42.41903
# Shear Modulus (GPa) = 27.74568 41.64455 34.69511
#
# Velocity S-wave (km/s) = 3.40400 4.17033 3.80650
# Velocity P-wave (km/s) = 5.23862 6.82830 6.08559
#
# Compressibility (1/GPa) = 0.03482068
#
# Stress axis : x y z
#
# Youngs Moduli (GPa) = 61.58744 70.09666 128.91793
#
# Poissons Ratio (x) = -0.18648 0.18800
# Poissons Ratio (y) = -0.16384 0.37665
# Poissons Ratio (z) = 0.08981 0.20480
#
# Static dielectric constant tensor:
#      x y z
#    x 4.254870 -0.179920 0.095260 
#    y -0.179920 6.335150 -0.376390 
#    z 0.095260 -0.376390 4.962230 
# 
# 
# High freq. dielectric constant tensor:
#      x y z
#    x 1.935370 0.015510 0.012280 
#    y 0.015510 1.949280 -0.000600 
#    z 0.012280 -0.000600 1.981670 
# 
# From -- ./inp_files/383167.got.cif
#   From: 2010.06.25/outbox.cif.g09.slc.cpg/sg2_192_cif.got.tgz:383167.got - 2010.06.27 13:26:56.
