data_PCOD8031677
_publ_section_title
;
Structure prediction by ZEFSAII (Michael W. Deem and Ramdas Pophale) SiO2 
 PCOD8031677
Probable space group: P -1
;
_chemical_formula_sum "Si O2"
_cell_formula_units_Z 14
_cell_length_a 12.666357
_cell_length_b 21.839232
_cell_length_c 15.475116
_cell_angle_alpha 151.616094
_cell_angle_beta 36.906818
_cell_angle_gamma 161.514988
_cell_volume 627.794309
_symmetry_space_group_name_H-M "P -1"
_symmetry_group_IT_number 2
_symmetry_cell_setting 'triclinic'
loop_
_space_group_symop_operation_xyz
x,y,z
-x,-y,-z
loop_
_atom_site_type_symbol
_atom_site_label
_atom_site_fract_x
_atom_site_fract_y
_atom_site_fract_z
Si Si1 0.303645 0.147984 0.835344
Si Si2 0.466855 0.068420 0.310544
Si Si3 0.535085 0.256233 0.325967
Si Si4 0.176997 0.484885 0.901137
Si Si5 0.256335 0.605375 0.306296
Si Si6 0.368991 0.403085 0.369122
Si Si7 0.933977 0.157909 0.026950
O O1 0.426921 0.180920 0.700670
O O2 0.634401 0.360301 0.942054
O O3 0.038611 0.876832 0.709280
O O4 0.122938 0.173385 0.982500
O O5 0.419206 0.138144 0.349859
O O6 0.684895 0.272518 0.495988
O O7 0.665832 0.066207 0.147512
O O8 0.096857 0.798610 0.253213
O O9 0.554163 0.422376 0.520484
O O10 0.902741 0.428156 0.273294
O O11 0.259987 0.036491 0.164176
O O12 0.446682 0.603488 0.801879
O O13 0.000000 0.500000 0.000000
O O14 0.218954 0.432277 0.141690
O O15 0.500000 0.500000 0.500000
#
# Coordination Sequence:
#
# PCOD8031677 Si02
#       7
#     2   2   2   2   2   2   2
#     4  12  26  46  71  99 142 180 231 284 346 411
#     4  11  25  46  72 104 139 181 233 284 341 407
#     4  11  24  44  75 100 144 180 229 284 344 409
#     4  12  29  48  72 100 139 184 231 283 349 414
#     4  11  25  43  74 105 137 183 227 289 339 410
#     4  12  27  47  70 105 138 181 231 287 344 406
#     4  11  22  45  71 103 138 181 228 280 348 403
#
# _framework density 22.300298000000002
#
# number of rings (size 3 to 8) (size 9 to 14) (size 15 to 20)
#    0.000    0.571    1.429    7.714    8.000    1.143 
#    0.000    0.000    0.000    0.000    0.000    0.000 
#    0.000    0.000    0.000    0.000    0.000    0.000 
#
# Total GULP energy -173722.606690 kJ/mol
# GULP energy per Si atom -12408.757621 kJ/mol
# Density = 2.224954 g / cm^3
# Si number density = 22.300298 Si / 1000 Ang^3
#
#
#
# Elastic Constant Matrix: (Units=GPa)
#
#
# Indices 1 2 3 4 5 6 
#
# 1 129.3849 29.4998 47.9561 7.5894 -8.9065 8.0076
# 2 29.4998 114.0420 31.5090 11.4236 -1.3727 -19.6745
# 3 47.9561 31.5090 106.9412 11.3232 0.1114 -6.0403
# 4 7.5894 11.4236 11.3232 43.7576 -2.4487 4.6730
# 5 -8.9065 -1.3727 0.1114 -2.4487 36.4438 4.1760
# 6 8.0076 -19.6745 -6.0403 4.6730 4.1760 33.6743
#
#
#
# Elastic Compliance Matrix: (Units=1/GPa)
#
#
# Indices 1 2 3 4 5 6 
#
# 1 0.010361 -0.002403 -0.004300 0.000662 0.003085 -0.005114
# 2 -0.002403 0.011403 -0.001534 -0.003036 -0.001220 0.007531
# 3 -0.004300 -0.001534 0.012146 -0.002391 -0.001632 0.002839
# 4 0.000662 -0.003036 -0.002391 0.024940 0.002432 -0.006122
# 5 0.003085 -0.001220 -0.001632 0.002432 0.028966 -0.005669
# 6 -0.005114 0.007531 0.002839 -0.006122 -0.005669 0.037374
#
#
# Mechanical properties :
#
#
# Convention : Reuss Voigt Hill
#
# Bulk Modulus (GPa) = 57.35484 63.14419 60.24952
# Shear Modulus (GPa) = 33.90382 38.86868 36.38625
#
# Velocity S-wave (km/s) = 3.90337 4.17941 4.04375
# Velocity P-wave (km/s) = 6.78898 7.18797 6.99132
#
# Compressibility (1/GPa) = 0.01743532
#
# Stress axis : x y z
#
# Youngs Moduli (GPa) = 96.51868 87.69730 82.32843
#
# Poissons Ratio (x) = 0.21077 0.35402
# Poissons Ratio (y) = 0.23197 0.12628
# Poissons Ratio (z) = 0.41504 0.13452
#
# Static dielectric constant tensor:
#      x y z
#    x 4.118450 -0.062510 -0.145330 
#    y -0.062510 4.110460 0.167850 
#    z -0.145330 0.167850 4.127950 
# 
# 
# High freq. dielectric constant tensor:
#      x y z
#    x 1.884170 -0.002980 0.000350 
#    y -0.002980 1.889320 0.007970 
#    z 0.000350 0.007970 1.888700 
# 
# From -- ./inp_files/188259.got.cif
#   From: 2010.06.25/outbox.cif.g09.slc.cpg/sg2_95_cif.got.tgz:188259.got - 2010.06.27 13:26:56.
