data_PCOD8031756
_publ_section_title
;
Structure prediction by ZEFSAII (Michael W. Deem and Ramdas Pophale) SiO2 
 PCOD8031756
Probable space group: P -1
;
_chemical_formula_sum "Si O2"
_cell_formula_units_Z 16
_cell_length_a 9.215471
_cell_length_b 11.378541
_cell_length_c 20.954296
_cell_angle_alpha 44.567480
_cell_angle_beta 152.731880
_cell_angle_gamma 128.323569
_cell_volume 705.842237
_symmetry_space_group_name_H-M "P -1"
_symmetry_group_IT_number 2
_symmetry_cell_setting 'triclinic'
loop_
_space_group_symop_operation_xyz
x,y,z
-x,-y,-z
loop_
_atom_site_type_symbol
_atom_site_label
_atom_site_fract_x
_atom_site_fract_y
_atom_site_fract_z
Si Si1 0.328170 0.138263 0.296299
Si Si2 0.267230 0.498284 0.849829
Si Si3 0.039047 0.994406 0.351439
Si Si4 0.742428 0.651096 0.341531
Si Si5 0.171493 0.860437 0.665248
Si Si6 0.235640 0.750641 0.199987
Si Si7 0.618267 0.497080 0.854902
Si Si8 0.823154 0.936634 0.865336
O O1 0.631615 0.016263 0.476097
O O2 0.486664 0.315636 0.279414
O O3 0.106502 0.065276 0.181767
O O4 0.084450 0.135997 0.260929
O O5 0.046496 0.671470 0.688493
O O6 0.469605 0.450926 0.883331
O O7 0.015219 0.361472 0.820438
O O8 0.500000 0.500000 0.000000
O O9 0.925410 0.823744 0.341504
O O10 0.785816 0.069125 0.273737
O O11 0.543479 0.647969 0.331997
O O12 0.508842 0.633244 0.196567
O O13 0.000000 0.500000 0.500000
O O14 0.527687 0.815374 0.798612
O O15 0.000000 0.000000 0.500000
O O16 0.315682 0.882325 0.235422
O O17 0.111375 0.859280 0.048458
O O18 0.000000 0.500000 0.000000
#
# Coordination Sequence:
#
# PCOD8031756 Si02
#       8
#     2   2   2   2   2   2   2   2
#     4  11  23  44  67  99 136 183 231 285 354 426
#     4  12  25  45  72 106 138 187 248 298 356 433
#     4  11  25  42  70 101 135 185 233 285 358 428
#     4  12  26  47  69 102 149 185 235 301 367 425
#     4  12  23  44  73  97 137 187 239 294 354 422
#     4  11  26  44  71 105 138 192 238 301 359 432
#     4  12  26  45  70 103 146 185 230 297 361 426
#     4  11  22  46  69  96 145 179 240 296 359 418
#
# _framework density 22.667956
#
# number of rings (size 3 to 8) (size 9 to 14) (size 15 to 20)
#    0.000    0.500    6.250    1.500    5.250    0.000 
#    0.000    2.500    0.000    0.000    0.000    0.000 
#    0.000    0.000    0.000    0.000    0.000    0.000 
#
# Total GULP energy -198274.654899 kJ/mol
# GULP energy per Si atom -12392.165931 kJ/mol
# Density = 2.261636 g / cm^3
# Si number density = 22.667956 Si / 1000 Ang^3
#
#
#
# Elastic Constant Matrix: (Units=GPa)
#
#
# Indices 1 2 3 4 5 6 
#
# 1 151.5819 50.7510 32.0249 -8.9681 -10.9083 5.8027
# 2 50.7510 109.4732 15.6059 0.9687 -11.8224 -6.8009
# 3 32.0249 15.6059 66.0273 -0.6066 -1.3962 -2.8747
# 4 -8.9681 0.9687 -0.6066 31.1912 -3.9780 0.5766
# 5 -10.9083 -11.8224 -1.3962 -3.9780 37.5310 3.2628
# 6 5.8027 -6.8009 -2.8747 0.5766 3.2628 43.2286
#
#
#
# Elastic Compliance Matrix: (Units=1/GPa)
#
#
# Indices 1 2 3 4 5 6 
#
# 1 0.008930 -0.003603 -0.003509 0.002884 0.001825 -0.002175
# 2 -0.003603 0.011292 -0.000796 -0.001162 0.002178 0.002058
# 3 -0.003509 -0.000796 0.017078 -0.000790 -0.000855 0.001557
# 4 0.002884 -0.001162 -0.000790 0.033460 0.004109 -0.001379
# 5 0.001825 0.002178 -0.000855 0.004109 0.028453 -0.002161
# 6 -0.002175 0.002058 0.001557 -0.001379 -0.002161 0.024034
#
#
# Mechanical properties :
#
#
# Convention : Reuss Voigt Hill
#
# Bulk Modulus (GPa) = 46.54964 58.20511 52.37738
# Shear Modulus (GPa) = 34.19389 37.63685 35.91537
#
# Velocity S-wave (km/s) = 3.88811 4.07917 3.98478
# Velocity P-wave (km/s) = 6.38252 6.92236 6.65792
#
# Compressibility (1/GPa) = 0.02148244
#
# Stress axis : x y z
#
# Youngs Moduli (GPa) = 111.98025 88.55835 58.55488
#
# Poissons Ratio (x) = 0.31910 0.20549
# Poissons Ratio (y) = 0.40350 0.04662
# Poissons Ratio (z) = 0.39297 0.07051
#
# Static dielectric constant tensor:
#      x y z
#    x 4.458340 -0.007590 -0.081300 
#    y -0.007590 4.164450 -0.062390 
#    z -0.081300 -0.062390 4.015350 
# 
# 
# High freq. dielectric constant tensor:
#      x y z
#    x 1.912830 -0.007600 0.000360 
#    y -0.007600 1.896790 -0.000670 
#    z 0.000360 -0.000670 1.880100 
# 
# From -- ./inp_files/589520.got.cif
#   From: 2010.06.25/outbox.cif.g09.slc.cpg/sg2_295_cif.got.tgz:589520.got - 2010.06.27 13:26:56.
