data_PCOD8031954
_publ_section_title
;
Structure prediction by ZEFSAII (Michael W. Deem and Ramdas Pophale) SiO2 
 PCOD8031954
Probable space group: P -1
;
_chemical_formula_sum "Si O2"
_cell_formula_units_Z 16
_cell_length_a 27.008564
_cell_length_b 11.310885
_cell_length_c 15.460256
_cell_angle_alpha 143.291362
_cell_angle_beta 157.445918
_cell_angle_gamma 24.695672
_cell_volume 735.985579
_symmetry_space_group_name_H-M "P -1"
_symmetry_group_IT_number 2
_symmetry_cell_setting 'triclinic'
loop_
_space_group_symop_operation_xyz
x,y,z
-x,-y,-z
loop_
_atom_site_type_symbol
_atom_site_label
_atom_site_fract_x
_atom_site_fract_y
_atom_site_fract_z
Si Si1 0.624841 0.926002 0.954442
Si Si2 0.786975 0.726370 0.521614
Si Si3 0.731086 0.071245 0.941892
Si Si4 0.116429 0.437858 0.003737
Si Si5 0.364539 0.635337 0.719646
Si Si6 0.039698 0.592625 0.699303
Si Si7 0.208314 0.706916 0.684508
Si Si8 0.960859 0.073162 0.761154
O O1 0.442107 0.988922 0.679147
O O2 0.750661 0.787471 0.990419
O O3 0.748205 0.690621 0.091787
O O4 0.566572 0.218301 0.056533
O O5 0.810368 0.468183 0.391287
O O6 0.894249 0.659076 0.745979
O O7 0.879537 0.741495 0.601132
O O8 0.702833 0.219500 0.073330
O O9 0.826116 0.752181 0.928996
O O10 0.506923 0.343545 0.716076
O O11 0.854493 0.040190 0.051415
O O12 0.149011 0.630964 0.190738
O O13 0.324542 0.549939 0.690889
O O14 0.171722 0.877830 0.496150
O O15 0.000000 0.500000 0.500000
O O16 0.031015 0.831581 0.800166
O O17 0.000000 0.000000 0.500000
#
# Coordination Sequence:
#
# PCOD8031954 Si02
#       8
#     2   2   2   2   2   2   2   2
#     4  11  23  41  69  97 122 165 219 264 309 370
#     4  11  23  39  66  94 125 166 214 257 313 368
#     4  12  23  38  67  97 131 163 210 259 323 374
#     4  11  25  44  64  94 133 168 204 261 323 385
#     4  12  23  38  68 101 124 163 214 265 315 375
#     4  11  24  43  65  93 128 166 215 265 310 366
#     4  12  18  36  66  98 125 159 206 266 312 369
#     4  12  27  44  62  92 135 171 208 258 322 378
#
# _framework density 21.739554999999999
#
# number of rings (size 3 to 8) (size 9 to 14) (size 15 to 20)
#    0.000    0.500    6.250    3.000    0.000    5.000 
#    0.000    1.250    0.000    0.000    0.000    0.000 
#    0.000    0.000    0.000    0.000    0.000    0.000 
#
# Total GULP energy -198318.219223 kJ/mol
# GULP energy per Si atom -12394.888701 kJ/mol
# Density = 2.169007 g / cm^3
# Si number density = 21.739555 Si / 1000 Ang^3
#
#
#
# Elastic Constant Matrix: (Units=GPa)
#
#
# Indices 1 2 3 4 5 6 
#
# 1 90.9776 48.3829 24.3813 -3.9115 21.2765 25.6436
# 2 48.3829 123.6170 32.5806 4.5642 14.6457 22.0311
# 3 24.3813 32.5806 82.6372 -13.4597 11.3467 2.9145
# 4 -3.9115 4.5642 -13.4597 39.4571 -3.3622 3.9916
# 5 21.2765 14.6457 11.3467 -3.3622 25.1275 5.5641
# 6 25.6436 22.0311 2.9145 3.9916 5.5641 37.5926
#
#
#
# Elastic Compliance Matrix: (Units=1/GPa)
#
#
# Indices 1 2 3 4 5 6 
#
# 1 0.018649 -0.004057 -0.001890 0.001682 -0.010391 -0.008838
# 2 -0.004057 0.011405 -0.003445 -0.002688 -0.001315 -0.003170
# 3 -0.001890 -0.003445 0.015162 0.004916 -0.003036 0.002061
# 4 0.001682 -0.002688 0.004916 0.028036 0.002402 -0.003285
# 5 -0.010391 -0.001315 -0.003036 0.002402 0.050990 0.000292
# 6 -0.008838 -0.003170 0.002061 -0.003285 0.000292 0.034633
#
#
# Mechanical properties :
#
#
# Convention : Reuss Voigt Hill
#
# Bulk Modulus (GPa) = 37.83353 56.43571 47.13462
# Shear Modulus (GPa) = 26.81382 33.22788 30.02085
#
# Velocity S-wave (km/s) = 3.51581 3.91378 3.72012
# Velocity P-wave (km/s) = 5.82426 6.81468 6.33885
#
# Compressibility (1/GPa) = 0.02643158
#
# Stress axis : x y z
#
# Youngs Moduli (GPa) = 53.62102 87.67898 65.95380
#
# Poissons Ratio (x) = 0.35570 0.12468
# Poissons Ratio (y) = 0.21753 0.22723
# Poissons Ratio (z) = 0.10137 0.30207
#
# Static dielectric constant tensor:
#      x y z
#    x 3.545300 -0.061380 0.123210 
#    y -0.061380 3.881890 -0.124740 
#    z 0.123210 -0.124740 4.032120 
# 
# 
# High freq. dielectric constant tensor:
#      x y z
#    x 1.843510 0.007200 0.001900 
#    y 0.007200 1.857190 -0.020210 
#    z 0.001900 -0.020210 1.859090 
# 
# From -- ./inp_files/455506.got.cif
#   From: 2010.06.25/outbox.cif.g09.slc.cpg/sg2_228_cif.got.tgz:455506.got - 2010.06.27 13:26:56.
