data_PCOD8031914
_publ_section_title
;
Structure prediction by ZEFSAII (Michael W. Deem and Ramdas Pophale) SiO2 
 PCOD8031914
Probable space group: P -1
;
_chemical_formula_sum "Si O2"
_cell_formula_units_Z 12
_cell_length_a 9.558459
_cell_length_b 11.989756
_cell_length_c 9.667163
_cell_angle_alpha 131.398542
_cell_angle_beta 127.280115
_cell_angle_gamma 80.742157
_cell_volume 605.605389
_symmetry_space_group_name_H-M "P -1"
_symmetry_group_IT_number 2
_symmetry_cell_setting 'triclinic'
loop_
_space_group_symop_operation_xyz
x,y,z
-x,-y,-z
loop_
_atom_site_type_symbol
_atom_site_label
_atom_site_fract_x
_atom_site_fract_y
_atom_site_fract_z
Si Si1 0.933525 0.590448 0.841635
Si Si2 0.912712 0.649622 0.187786
Si Si3 0.183191 0.083229 0.579064
Si Si4 0.113545 0.931828 0.113281
Si Si5 0.557948 0.036308 0.856335
Si Si6 0.700440 0.245358 0.366917
O O1 0.743178 0.438230 0.547224
O O2 0.109013 0.528862 0.917724
O O3 0.883692 0.649232 0.005714
O O4 0.998861 0.736982 0.893176
O O5 0.771621 0.722328 0.234107
O O6 0.129664 0.775571 0.460467
O O7 0.373093 0.067632 0.731264
O O8 0.130027 0.012847 0.337284
O O9 0.000000 0.000000 0.500000
O O10 0.326225 0.973030 0.217166
O O11 0.000000 0.000000 0.000000
O O12 0.496773 0.865569 0.763513
O O13 0.695625 0.182151 0.156001
#
# Coordination Sequence:
#
# PCOD8031914 Si02
#       6
#     2   2   2   2   2   2
#     4   9  19  40  69  89 128 170 213 254 320 375
#     4   9  18  38  69  89 116 177 213 246 306 387
#     4  12  21  41  68  91 126 174 215 252 321 389
#     4  12  26  41  65  98 130 165 211 271 320 369
#     4  11  23  38  64  98 131 160 213 271 314 372
#     4   9  19  38  65  90 125 171 209 252 313 382
#
# _framework density 19.814883999999999
#
# number of rings (size 3 to 8) (size 9 to 14) (size 15 to 20)
#    1.000    0.667    3.333    1.500    2.333    0.667 
#    0.000    4.167    0.000    0.000    0.000    0.000 
#    0.000    0.000    0.000    0.000    0.000    0.000 
#
# Total GULP energy -148676.942662 kJ/mol
# GULP energy per Si atom -12389.745222 kJ/mol
# Density = 1.976978 g / cm^3
# Si number density = 19.814884 Si / 1000 Ang^3
#
#
#
# Elastic Constant Matrix: (Units=GPa)
#
#
# Indices 1 2 3 4 5 6 
#
# 1 137.6242 55.4860 56.0135 8.7507 -16.6488 -1.7027
# 2 55.4860 125.3353 35.4801 21.6583 -3.5846 -3.5911
# 3 56.0135 35.4801 91.8325 -2.5278 -15.1478 0.6347
# 4 8.7507 21.6583 -2.5278 22.8237 -0.9325 -6.6344
# 5 -16.6488 -3.5846 -15.1478 -0.9325 29.6212 -3.5859
# 6 -1.7027 -3.5911 0.6347 -6.6344 -3.5859 28.0839
#
#
#
# Elastic Compliance Matrix: (Units=1/GPa)
#
#
# Indices 1 2 3 4 5 6 
#
# 1 0.011077 -0.003079 -0.005077 -0.001631 0.003257 0.000423
# 2 -0.003079 0.012192 -0.003567 -0.011346 -0.002626 -0.001563
# 3 -0.005077 -0.003567 0.016487 0.007796 0.005562 0.001415
# 4 -0.001631 -0.011346 0.007796 0.060098 0.005179 0.013133
# 5 0.003257 -0.002626 0.005562 0.005179 0.038999 0.005939
# 6 0.000423 -0.001563 0.001415 0.013133 0.005939 0.039262
#
#
# Mechanical properties :
#
#
# Convention : Reuss Voigt Hill
#
# Bulk Modulus (GPa) = 61.31667 72.08348 66.70008
# Shear Modulus (GPa) = 24.15465 29.95990 27.05727
#
# Velocity S-wave (km/s) = 3.49523 3.89265 3.69928
# Velocity P-wave (km/s) = 6.87755 7.52735 7.20978
#
# Compressibility (1/GPa) = 0.01630878
#
# Stress axis : x y z
#
# Youngs Moduli (GPa) = 90.27605 82.01930 60.65457
#
# Poissons Ratio (x) = 0.25257 0.30797
# Poissons Ratio (y) = 0.27800 0.21635
# Poissons Ratio (z) = 0.45837 0.29255
#
# Static dielectric constant tensor:
#      x y z
#    x 3.681730 -0.117620 -0.341410 
#    y -0.117620 3.780920 0.095630 
#    z -0.341410 0.095630 3.668890 
# 
# 
# High freq. dielectric constant tensor:
#      x y z
#    x 1.753510 -0.011540 -0.024530 
#    y -0.011540 1.771350 0.002200 
#    z -0.024530 0.002200 1.771190 
# 
# From -- ./inp_files/182915.got.cif
#   From: 2010.06.25/outbox.cif.g09.slc.cpg/sg2_92_cif.got.tgz:182915.got - 2010.06.27 13:26:56.
