data_PCOD8031030
_publ_section_title
;
Structure prediction by ZEFSAII (Michael W. Deem and Ramdas Pophale) SiO2 
 PCOD8031030
Probable space group: P -1
;
_chemical_formula_sum "Si O2"
_cell_formula_units_Z 12
_cell_length_a 12.572293
_cell_length_b 5.165765
_cell_length_c 9.331597
_cell_angle_alpha 106.472230
_cell_angle_beta 61.340200
_cell_angle_gamma 93.195368
_cell_volume 507.643545
_symmetry_space_group_name_H-M "P -1"
_symmetry_group_IT_number 2
_symmetry_cell_setting 'triclinic'
loop_
_space_group_symop_operation_xyz
x,y,z
-x,-y,-z
loop_
_atom_site_type_symbol
_atom_site_label
_atom_site_fract_x
_atom_site_fract_y
_atom_site_fract_z
Si Si1 0.061584 0.235803 0.571751
Si Si2 0.621485 0.139360 0.767247
Si Si3 0.733012 0.921782 0.384064
Si Si4 0.179897 0.439220 0.254748
Si Si5 0.626796 0.391956 0.327127
Si Si6 0.372817 0.073429 0.963217
O O1 0.127159 0.130647 0.659846
O O2 0.161030 0.330311 0.410927
O O3 0.951246 0.462573 0.712932
O O4 0.000000 0.000000 0.500000
O O5 0.724318 0.339745 0.752370
O O6 0.477842 0.258974 0.865096
O O7 0.645491 0.958086 0.583046
O O8 0.616942 0.939704 0.873121
O O9 0.696583 0.654491 0.282439
O O10 0.712518 0.191077 0.343513
O O11 0.236809 0.227651 0.063500
O O12 0.500000 0.500000 0.500000
O O13 0.611779 0.222892 0.165427
#
# Coordination Sequence:
#
# PCOD8031030 Si02
#       6
#     2   2   2   2   2   2
#     4  11  23  43  73 106 137 188 247 306 343 424
#     4  11  23  41  74 104 142 178 253 291 359 412
#     4  12  25  47  72 109 138 196 241 293 357 440
#     4  11  22  41  73 105 142 181 244 307 354 404
#     4  12  28  47  70 103 156 191 232 289 378 438
#     4  11  25  43  68 109 144 190 229 308 354 432
#
# _framework density 23.638634
#
# number of rings (size 3 to 8) (size 9 to 14) (size 15 to 20)
#    0.000    0.667    5.000    2.000    4.667    0.000 
#    0.000    1.667    0.000    0.000    0.000    0.000 
#    0.000    0.000    0.000    0.000    0.000    0.000 
#
# Total GULP energy -148681.513105 kJ/mol
# GULP energy per Si atom -12390.126092 kJ/mol
# Density = 2.358483 g / cm^3
# Si number density = 23.638634 Si / 1000 Ang^3
#
#
#
# Elastic Constant Matrix: (Units=GPa)
#
#
# Indices 1 2 3 4 5 6 
#
# 1 106.3556 14.7709 26.4814 5.6067 -23.6934 -5.1030
# 2 14.7709 78.3732 10.4704 6.0979 -14.4379 11.3410
# 3 26.4814 10.4704 108.0750 21.8825 -26.1272 5.5695
# 4 5.6067 6.0979 21.8825 34.8574 -0.9946 -1.5941
# 5 -23.6934 -14.4379 -26.1272 -0.9946 45.7089 -1.8395
# 6 -5.1030 11.3410 5.5695 -1.5941 -1.8395 46.9146
#
#
#
# Elastic Compliance Matrix: (Units=1/GPa)
#
#
# Indices 1 2 3 4 5 6 
#
# 1 0.011078 -0.001289 -0.001508 -0.000395 0.004540 0.001860
# 2 -0.001289 0.014402 0.000646 -0.002768 0.004044 -0.003634
# 3 -0.001508 0.000646 0.012808 -0.007810 0.006499 -0.001851
# 4 -0.000395 -0.002768 -0.007810 0.034120 -0.004699 0.002529
# 5 0.004540 0.004044 0.006499 -0.004699 0.029109 -0.000274
# 6 0.001860 -0.003634 -0.001851 0.002529 -0.000274 0.022691
#
#
# Mechanical properties :
#
#
# Convention : Reuss Voigt Hill
#
# Bulk Modulus (GPa) = 29.42334 44.02771 36.72552
# Shear Modulus (GPa) = 35.75532 41.56827 38.66180
#
# Velocity S-wave (km/s) = 3.89341 4.19798 4.04856
# Velocity P-wave (km/s) = 5.71714 6.49332 6.11755
#
# Compressibility (1/GPa) = 0.03398663
#
# Stress axis : x y z
#
# Youngs Moduli (GPa) = 90.26672 69.43358 78.07919
#
# Poissons Ratio (x) = 0.08947 0.11774
# Poissons Ratio (y) = 0.11631 -0.05043
# Poissons Ratio (z) = 0.13612 -0.04484
#
# Static dielectric constant tensor:
#      x y z
#    x 4.846010 -0.667700 -0.194040 
#    y -0.667700 4.333610 0.589510 
#    z -0.194040 0.589510 3.762290 
# 
# 
# High freq. dielectric constant tensor:
#      x y z
#    x 1.942310 -0.005530 -0.018090 
#    y -0.005530 1.934270 0.008540 
#    z -0.018090 0.008540 1.928360 
# 
# From -- ./inp_files/61153.got.cif
#   From: 2010.06.25/outbox.cif.g09.slc.cpg/sg2_31_cif.got.tgz:61153.got - 2010.06.27 13:26:56.
