data_PCOD8031862
_publ_section_title
;
Structure prediction by ZEFSAII (Michael W. Deem and Ramdas Pophale) SiO2 
 PCOD8031862
Probable space group: P -1
;
_chemical_formula_sum "Si O2"
_cell_formula_units_Z 14
_cell_length_a 9.114115
_cell_length_b 15.300828
_cell_length_c 11.746840
_cell_angle_alpha 151.717853
_cell_angle_beta 112.737228
_cell_angle_gamma 53.989364
_cell_volume 589.893263
_symmetry_space_group_name_H-M "P -1"
_symmetry_group_IT_number 2
_symmetry_cell_setting 'triclinic'
loop_
_space_group_symop_operation_xyz
x,y,z
-x,-y,-z
loop_
_atom_site_type_symbol
_atom_site_label
_atom_site_fract_x
_atom_site_fract_y
_atom_site_fract_z
Si Si1 0.776599 0.829225 0.839414
Si Si2 0.034746 0.186985 0.700041
Si Si3 0.321883 0.483271 0.901733
Si Si4 0.787270 0.437009 0.291906
Si Si5 0.609132 0.203196 0.051940
Si Si6 0.208154 0.322981 0.086698
Si Si7 0.820029 0.794641 0.479087
O O1 0.725530 0.690508 0.581639
O O2 0.717808 0.819509 0.938672
O O3 0.000462 0.733738 0.791857
O O4 0.657967 0.085633 0.055589
O O5 0.112280 0.164259 0.571694
O O6 0.185897 0.174761 0.818982
O O7 0.000000 0.000000 0.500000
O O8 0.826129 0.415801 0.920504
O O9 0.228153 0.610176 0.899773
O O10 0.357652 0.238029 0.623220
O O11 0.500000 0.500000 0.000000
O O12 0.652930 0.391724 0.275587
O O13 0.746842 0.008780 0.779705
O O14 0.381544 0.337893 0.111217
O O15 0.008881 0.566891 0.328569
#
# Coordination Sequence:
#
# PCOD8031862 Si02
#       7
#     2   2   2   2   2   2   2
#     4  11  22  48  67  99 147 179 236 291 342 416
#     4  11  25  44  66 102 141 185 231 288 355 417
#     4  11  23  42  71 103 137 183 230 288 354 415
#     4  11  23  43  72 103 139 184 234 287 355 415
#     4  12  26  43  74 104 133 190 235 284 354 416
#     4  11  25  46  69 101 140 181 236 290 347 418
#     4  11  24  47  69 101 146 183 226 298 350 413
#
# _framework density 23.733107
#
# number of rings (size 3 to 8) (size 9 to 14) (size 15 to 20)
#    0.000    0.857    4.286    4.286    6.000    1.143 
#    0.000    0.000    0.000    0.000    0.000    0.000 
#    0.000    0.000    0.000    0.000    0.000    0.000 
#
# Total GULP energy -173554.810298 kJ/mol
# GULP energy per Si atom -12396.772164 kJ/mol
# Density = 2.367909 g / cm^3
# Si number density = 23.733107 Si / 1000 Ang^3
#
#
#
# Elastic Constant Matrix: (Units=GPa)
#
#
# Indices 1 2 3 4 5 6 
#
# 1 157.5151 44.9967 23.0666 -10.0173 31.0854 -11.5909
# 2 44.9967 82.0454 23.5097 -21.5596 6.5678 6.2705
# 3 23.0666 23.5097 41.4135 -7.5540 16.1692 -7.8818
# 4 -10.0173 -21.5596 -7.5540 28.4648 4.9854 3.7580
# 5 31.0854 6.5678 16.1692 4.9854 48.9851 -7.3235
# 6 -11.5909 6.2705 -7.8818 3.7580 -7.3235 41.6425
#
#
#
# Elastic Compliance Matrix: (Units=1/GPa)
#
#
# Indices 1 2 3 4 5 6 
#
# 1 0.008739 -0.004563 -0.000026 0.000114 -0.004593 0.002297
# 2 -0.004563 0.021056 -0.008629 0.012901 0.000540 -0.007143
# 3 -0.000026 -0.008629 0.034627 0.003586 -0.009753 0.005807
# 4 0.000114 0.012901 0.003586 0.048416 -0.008987 -0.007182
# 5 -0.004593 0.000540 -0.009753 -0.008987 0.027763 0.002488
# 6 0.002297 -0.007143 0.005807 -0.007182 0.002488 0.027914
#
#
# Mechanical properties :
#
#
# Convention : Reuss Voigt Hill
#
# Bulk Modulus (GPa) = 26.32514 51.56888 38.94701
# Shear Modulus (GPa) = 24.08342 36.44523 30.26433
#
# Velocity S-wave (km/s) = 3.18899 3.92296 3.57486
# Velocity P-wave (km/s) = 4.96747 6.50349 5.78667
#
# Compressibility (1/GPa) = 0.03798651
#
# Stress axis : x y z
#
# Youngs Moduli (GPa) = 114.43472 47.49160 28.87946
#
# Poissons Ratio (x) = 0.21671 0.00074
# Poissons Ratio (y) = 0.52219 0.24919
# Poissons Ratio (z) = 0.00293 0.40979
#
# Static dielectric constant tensor:
#      x y z
#    x 4.500930 0.148040 0.149630 
#    y 0.148040 4.588850 -0.397500 
#    z 0.149630 -0.397500 4.076680 
# 
# 
# High freq. dielectric constant tensor:
#      x y z
#    x 1.964830 0.010120 0.011270 
#    y 0.010120 1.932490 -0.014540 
#    z 0.011270 -0.014540 1.926850 
# 
# From -- ./inp_files/169903.got.cif
#   From: 2010.06.25/outbox.cif.g09.slc.cpg/sg2_85_cif.got.tgz:169903.got - 2010.06.27 13:26:56.
