data_PCOD8031260
_publ_section_title
;
Structure prediction by ZEFSAII (Michael W. Deem and Ramdas Pophale) SiO2 
 PCOD8031260
Probable space group: P -1
;
_chemical_formula_sum "Si O2"
_cell_formula_units_Z 14
_cell_length_a 14.290865
_cell_length_b 11.811523
_cell_length_c 9.537159
_cell_angle_alpha 50.593879
_cell_angle_beta 63.533572
_cell_angle_gamma 32.534661
_cell_volume 653.259611
_symmetry_space_group_name_H-M "P -1"
_symmetry_group_IT_number 2
_symmetry_cell_setting 'triclinic'
loop_
_space_group_symop_operation_xyz
x,y,z
-x,-y,-z
loop_
_atom_site_type_symbol
_atom_site_label
_atom_site_fract_x
_atom_site_fract_y
_atom_site_fract_z
Si Si1 0.477541 0.355267 0.596921
Si Si2 0.821952 0.518241 0.254779
Si Si3 0.910566 0.672204 0.560522
Si Si4 0.932931 0.389481 0.968235
Si Si5 0.634428 0.513783 0.011535
Si Si6 0.672976 0.996621 0.983921
Si Si7 0.417976 0.755920 0.693311
O O1 0.500000 0.500000 0.500000
O O2 0.284553 0.514360 0.651441
O O3 0.635273 0.088076 0.778056
O O4 0.491675 0.304342 0.464844
O O5 0.958799 0.364454 0.414694
O O6 0.922337 0.429451 0.110456
O O7 0.682907 0.810011 0.136817
O O8 0.849563 0.617881 0.755330
O O9 0.000000 0.500000 0.500000
O O10 0.741290 0.952376 0.395387
O O11 0.829976 0.360312 0.016171
O O12 0.141469 0.139491 0.984018
O O13 0.575292 0.589821 0.830846
O O14 0.490362 0.763402 0.002826
O O15 0.656543 0.323921 0.199722
#
# Coordination Sequence:
#
# PCOD8031260 Si02
#       7
#     2   2   2   2   2   2   2
#     4  12  23  40  67 100 132 168 225 269 321 390
#     4  11  23  41  68  97 132 176 217 270 334 382
#     4  11  25  44  67 102 130 166 229 272 322 394
#     4  11  23  43  69  95 131 178 216 271 329 386
#     4  11  25  44  64  95 133 178 219 260 339 395
#     4  11  22  43  65  97 131 169 221 271 322 397
#     4  11  24  44  63  94 138 172 215 279 324 384
#
# _framework density 21.430989
#
# number of rings (size 3 to 8) (size 9 to 14) (size 15 to 20)
#    0.000    0.857    2.857    5.571    4.000    1.714 
#    0.000    5.000    0.000    0.000    0.000    0.000 
#    0.000    0.000    0.000    0.000    0.000    0.000 
#
# Total GULP energy -173636.384460 kJ/mol
# GULP energy per Si atom -12402.598890 kJ/mol
# Density = 2.138221 g / cm^3
# Si number density = 21.430989 Si / 1000 Ang^3
#
#
#
# Elastic Constant Matrix: (Units=GPa)
#
#
# Indices 1 2 3 4 5 6 
#
# 1 117.1591 2.6147 16.8775 15.6730 -9.7029 -19.5458
# 2 2.6147 46.1841 4.8485 13.7929 -8.5147 1.4370
# 3 16.8775 4.8485 85.2060 12.5473 -0.0092 -4.7522
# 4 15.6730 13.7929 12.5473 29.5548 -1.1965 5.3595
# 5 -9.7029 -8.5147 -0.0092 -1.1965 27.0329 6.1685
# 6 -19.5458 1.4370 -4.7522 5.3595 6.1685 35.3799
#
#
#
# Elastic Compliance Matrix: (Units=1/GPa)
#
#
# Indices 1 2 3 4 5 6 
#
# 1 0.010912 0.001990 -0.000818 -0.007434 0.002734 0.006487
# 2 0.001990 0.027119 0.000084 -0.013505 0.008529 0.000568
# 3 -0.000818 0.000084 0.012832 -0.005509 -0.001027 0.002282
# 4 -0.007434 -0.013505 -0.005509 0.048367 -0.002219 -0.011238
# 5 0.002734 0.008529 -0.001027 -0.002219 0.041918 -0.005946
# 6 0.006487 0.000568 0.002282 -0.011238 -0.005946 0.034871
#
#
# Mechanical properties :
#
#
# Convention : Reuss Voigt Hill
#
# Bulk Modulus (GPa) = 18.73502 33.02563 25.88033
# Shear Modulus (GPa) = 26.13723 33.34075 29.73899
#
# Velocity S-wave (km/s) = 3.49607 3.94855 3.72918
# Velocity P-wave (km/s) = 5.00576 6.01928 5.53576
#
# Compressibility (1/GPa) = 0.05337597
#
# Stress axis : x y z
#
# Youngs Moduli (GPa) = 91.64239 36.87451 77.93126
#
# Poissons Ratio (x) = -0.07340 0.06374
# Poissons Ratio (y) = -0.18241 -0.00654
# Poissons Ratio (z) = 0.07495 -0.00310
#
# Static dielectric constant tensor:
#      x y z
#    x 3.957320 -0.039080 0.132610 
#    y -0.039080 3.667510 0.026130 
#    z 0.132610 0.026130 4.175810 
# 
# 
# High freq. dielectric constant tensor:
#      x y z
#    x 1.848700 -0.000910 0.008880 
#    y -0.000910 1.827060 0.006840 
#    z 0.008880 0.006840 1.858010 
# 
# From -- ./inp_files/174426.got.cif
#   From: 2010.06.25/outbox.cif.g09.slc.cpg/sg2_88_cif.got.tgz:174426.got - 2010.06.27 13:26:56.
