data_PCOD8031711
_publ_section_title
;
Structure prediction by ZEFSAII (Michael W. Deem and Ramdas Pophale) SiO2 
 PCOD8031711
Probable space group: P -1
;
_chemical_formula_sum "Si O2"
_cell_formula_units_Z 16
_cell_length_a 17.407167
_cell_length_b 6.399404
_cell_length_c 9.059099
_cell_angle_alpha 69.604255
_cell_angle_beta 139.447874
_cell_angle_gamma 102.794196
_cell_volume 613.394586
_symmetry_space_group_name_H-M "P -1"
_symmetry_group_IT_number 2
_symmetry_cell_setting 'triclinic'
loop_
_space_group_symop_operation_xyz
x,y,z
-x,-y,-z
loop_
_atom_site_type_symbol
_atom_site_label
_atom_site_fract_x
_atom_site_fract_y
_atom_site_fract_z
Si Si1 0.396556 0.338317 0.915947
Si Si2 0.180435 0.694951 0.514631
Si Si3 0.699509 0.524869 0.694243
Si Si4 0.648157 0.956531 0.333840
Si Si5 0.585626 0.140734 0.497112
Si Si6 0.716792 0.785643 0.930396
Si Si7 0.920631 0.293420 0.953945
Si Si8 0.025154 0.111816 0.665152
O O1 0.264587 0.465605 0.680069
O O2 0.422610 0.141010 0.882462
O O3 0.389347 0.226485 0.097632
O O4 0.500000 0.500000 0.000000
O O5 0.133328 0.764479 0.267867
O O6 0.073608 0.688790 0.479925
O O7 0.256620 0.893010 0.636553
O O8 0.711366 0.749682 0.564676
O O9 0.590277 0.397631 0.493784
O O10 0.819216 0.371814 0.900813
O O11 0.685119 0.576808 0.833596
O O12 0.571496 0.114975 0.303290
O O13 0.500000 0.000000 0.500000
O O14 0.709842 0.012272 0.765585
O O15 0.849615 0.773415 0.191647
O O16 0.000000 0.500000 0.000000
O O17 0.986003 0.073196 0.176463
O O18 0.000000 0.000000 0.500000
#
# Coordination Sequence:
#
# PCOD8031711 Si02
#       8
#     2   2   2   2   2   2   2   2
#     4  12  30  48  73 111 149 197 245 299 379 443
#     4  12  26  49  75 106 150 195 248 303 368 439
#     4  11  22  45  73 106 142 188 246 296 363 437
#     4  11  23  47  73 105 145 187 246 301 358 444
#     4  11  25  44  77 104 140 193 247 308 365 431
#     4  11  27  46  72 108 151 188 247 306 370 442
#     4  12  23  43  76 108 143 194 246 297 364 443
#     4  12  27  47  75 112 152 194 246 308 376 438
#
# _framework density 26.084351999999999
#
# number of rings (size 3 to 8) (size 9 to 14) (size 15 to 20)
#    0.000    0.500    3.750    3.375    8.750    3.000 
#    0.000    0.000    0.000    0.000    0.000    0.000 
#    0.000    0.000    0.000    0.000    0.000    0.000 
#
# Total GULP energy -198330.749705 kJ/mol
# GULP energy per Si atom -12395.671857 kJ/mol
# Density = 2.602498 g / cm^3
# Si number density = 26.084352 Si / 1000 Ang^3
#
#
#
# Elastic Constant Matrix: (Units=GPa)
#
#
# Indices 1 2 3 4 5 6 
#
# 1 163.3464 48.3534 44.9195 19.6100 -2.1469 -20.0451
# 2 48.3534 137.9941 42.1939 32.8706 -8.2471 -9.2008
# 3 44.9195 42.1939 115.8356 31.2698 -35.8054 -13.5193
# 4 19.6100 32.8706 31.2698 52.0996 0.8967 -5.5313
# 5 -2.1469 -8.2471 -35.8054 0.8967 40.5035 6.8359
# 6 -20.0451 -9.2008 -13.5193 -5.5313 6.8359 54.3874
#
#
#
# Elastic Compliance Matrix: (Units=1/GPa)
#
#
# Indices 1 2 3 4 5 6 
#
# 1 0.007718 -0.001896 -0.003140 0.000461 -0.003132 0.002184
# 2 -0.001896 0.009407 -0.001213 -0.004505 0.000837 0.000028
# 3 -0.003140 -0.001213 0.017308 -0.008682 0.015051 0.000165
# 4 0.000461 -0.004505 -0.008682 0.027363 -0.009378 0.001211
# 5 -0.003132 0.000837 0.015051 -0.009378 0.038729 -0.003093
# 6 0.002184 0.000028 0.000165 0.001211 -0.003093 0.019749
#
#
# Mechanical properties :
#
#
# Convention : Reuss Voigt Hill
#
# Bulk Modulus (GPa) = 45.58971 76.45664 61.02318
# Shear Modulus (GPa) = 35.69285 48.17872 41.93579
#
# Velocity S-wave (km/s) = 3.70315 4.30238 4.01396
# Velocity P-wave (km/s) = 5.98333 7.35225 6.70282
#
# Compressibility (1/GPa) = 0.02193477
#
# Stress axis : x y z
#
# Youngs Moduli (GPa) = 129.56569 106.30541 57.77675
#
# Poissons Ratio (x) = 0.20153 0.18142
# Poissons Ratio (y) = 0.24563 0.07010
# Poissons Ratio (z) = 0.40685 0.12897
#
# Static dielectric constant tensor:
#      x y z
#    x 4.803840 -0.281460 0.162090 
#    y -0.281460 4.882280 -0.220610 
#    z 0.162090 -0.220610 5.870930 
# 
# 
# High freq. dielectric constant tensor:
#      x y z
#    x 2.056380 -0.008030 0.007590 
#    y -0.008030 2.054640 -0.003130 
#    z 0.007590 -0.003130 2.063900 
# 
# From -- ./inp_files/323611.got.cif
#   From: 2010.06.25/outbox.cif.g09.slc.cpg/sg2_162_cif.got.tgz:323611.got - 2010.06.27 13:26:56.
