data_PCOD8031071
_publ_section_title
;
Structure prediction by ZEFSAII (Michael W. Deem and Ramdas Pophale) SiO2 
 PCOD8031071
Probable space group: P -1
;
_chemical_formula_sum "Si O2"
_cell_formula_units_Z 16
_cell_length_a 8.808856
_cell_length_b 15.180959
_cell_length_c 12.126880
_cell_angle_alpha 28.388986
_cell_angle_beta 87.256407
_cell_angle_gamma 78.390188
_cell_volume 725.632290
_symmetry_space_group_name_H-M "P -1"
_symmetry_group_IT_number 2
_symmetry_cell_setting 'triclinic'
loop_
_space_group_symop_operation_xyz
x,y,z
-x,-y,-z
loop_
_atom_site_type_symbol
_atom_site_label
_atom_site_fract_x
_atom_site_fract_y
_atom_site_fract_z
Si Si1 0.782579 0.744893 0.103532
Si Si2 0.014969 0.063304 0.556046
Si Si3 0.452525 0.195848 0.152068
Si Si4 0.703441 0.805259 0.621465
Si Si5 0.270726 0.817313 0.396026
Si Si6 0.135305 0.693639 0.108509
Si Si7 0.412290 0.457519 0.221248
Si Si8 0.691534 0.426344 0.553642
O O1 0.747576 0.619360 0.343638
O O2 0.968513 0.648494 0.166892
O O3 0.658218 0.727951 0.033426
O O4 0.753454 0.969735 0.890492
O O5 0.849308 0.167486 0.512918
O O6 0.109848 0.219628 0.377226
O O7 0.000000 0.000000 0.500000
O O8 0.120520 0.874663 0.829372
O O9 0.336648 0.153259 0.294513
O O10 0.595638 0.992770 0.347060
O O11 0.527352 0.360724 0.007447
O O12 0.668148 0.605567 0.813115
O O13 0.446541 0.734303 0.532567
O O14 0.253914 0.677220 0.452514
O O15 0.275620 0.504140 0.267714
O O16 0.203130 0.726965 0.189930
O O17 0.500000 0.500000 0.500000
#
# Coordination Sequence:
#
# PCOD8031071 Si02
#       8
#     2   2   2   2   2   2   2   2
#     4  11  24  45  69 100 143 179 231 292 353 408
#     4  11  26  48  72 104 149 182 228 292 350 416
#     4  11  22  42  65  98 142 182 227 294 337 412
#     4  11  24  39  69 100 136 187 232 277 352 412
#     4  11  25  45  73 105 139 186 233 283 355 416
#     4  11  25  46  70 104 143 182 233 294 344 412
#     4  12  23  42  68 104 136 182 238 282 343 419
#     4  12  25  47  73 102 142 183 237 295 343 410
#
# _framework density 22.049734000000001
#
# number of rings (size 3 to 8) (size 9 to 14) (size 15 to 20)
#    0.000    0.750    5.000    2.250    3.500    3.500 
#    2.250    1.875    0.000    0.000    0.000    0.000 
#    0.000    0.000    0.000    0.000    0.000    0.000 
#
# Total GULP energy -198350.354311 kJ/mol
# GULP energy per Si atom -12396.897144 kJ/mol
# Density = 2.199955 g / cm^3
# Si number density = 22.049734 Si / 1000 Ang^3
#
#
#
# Elastic Constant Matrix: (Units=GPa)
#
#
# Indices 1 2 3 4 5 6 
#
# 1 125.7409 33.0592 41.1891 -13.1805 -8.5374 -13.1988
# 2 33.0592 102.4297 23.6500 -0.4797 3.9364 -8.3093
# 3 41.1891 23.6500 91.3733 2.8977 -6.4962 -2.8119
# 4 -13.1805 -0.4797 2.8977 34.7830 5.2408 4.0609
# 5 -8.5374 3.9364 -6.4962 5.2408 37.8820 -4.5133
# 6 -13.1988 -8.3093 -2.8119 4.0609 -4.5133 45.5753
#
#
#
# Elastic Compliance Matrix: (Units=1/GPa)
#
#
# Indices 1 2 3 4 5 6 
#
# 1 0.010679 -0.002357 -0.004138 0.003846 0.001676 0.002231
# 2 -0.002357 0.011118 -0.001898 -0.000434 -0.001822 0.001086
# 3 -0.004138 -0.001898 0.013528 -0.002989 0.001968 -0.000249
# 4 0.003846 -0.000434 -0.002989 0.031362 -0.004221 -0.002362
# 5 0.001676 -0.001822 0.001968 -0.004221 0.028298 0.003453
# 6 0.002231 0.001086 -0.000249 -0.002362 0.003453 0.023323
#
#
# Mechanical properties :
#
#
# Convention : Reuss Voigt Hill
#
# Bulk Modulus (GPa) = 53.93845 57.26006 55.59926
# Shear Modulus (GPa) = 35.39291 38.42443 36.90867
#
# Velocity S-wave (km/s) = 4.01077 4.17901 4.09575
# Velocity P-wave (km/s) = 6.77965 7.02214 6.90196
#
# Compressibility (1/GPa) = 0.01853965
#
# Stress axis : x y z
#
# Youngs Moduli (GPa) = 93.64100 89.94736 73.92234
#
# Poissons Ratio (x) = 0.21197 0.30590
# Poissons Ratio (y) = 0.22068 0.14028
# Poissons Ratio (z) = 0.38750 0.17069
#
# Static dielectric constant tensor:
#      x y z
#    x 4.101380 -0.057230 0.065980 
#    y -0.057230 3.867310 0.021660 
#    z 0.065980 0.021660 3.987630 
# 
# 
# High freq. dielectric constant tensor:
#      x y z
#    x 1.885640 -0.003350 0.000120 
#    y -0.003350 1.854390 0.003140 
#    z 0.000120 0.003140 1.868370 
# 
# From -- ./inp_files/319303.got.cif
#   From: 2010.06.25/outbox.cif.g09.slc.cpg/sg2_160_cif.got.tgz:319303.got - 2010.06.27 13:26:56.
