data_PCOD8031654
_publ_section_title
;
Structure prediction by ZEFSAII (Michael W. Deem and Ramdas Pophale) SiO2 
 PCOD8031654
Probable space group: P -1
;
_chemical_formula_sum "Si O2"
_cell_formula_units_Z 14
_cell_length_a 24.019435
_cell_length_b 17.840053
_cell_length_c 8.682689
_cell_angle_alpha 149.449344
_cell_angle_beta 33.019119
_cell_angle_gamma 159.120930
_cell_volume 662.134004
_symmetry_space_group_name_H-M "P -1"
_symmetry_group_IT_number 2
_symmetry_cell_setting 'triclinic'
loop_
_space_group_symop_operation_xyz
x,y,z
-x,-y,-z
loop_
_atom_site_type_symbol
_atom_site_label
_atom_site_fract_x
_atom_site_fract_y
_atom_site_fract_z
Si Si1 0.539328 0.613324 0.271510
Si Si2 0.634463 0.045086 0.821491
Si Si3 0.306940 0.472170 0.793565
Si Si4 0.108512 0.515928 0.172554
Si Si5 0.919971 0.280468 0.901770
Si Si6 0.416352 0.028122 0.845668
Si Si7 0.842815 0.887272 0.241901
O O1 0.378706 0.441724 0.443916
O O2 0.686951 0.694122 0.154678
O O3 0.589092 0.831881 0.507203
O O4 0.500000 0.500000 0.000000
O O5 0.788887 0.244498 0.719135
O O6 0.500000 0.000000 0.000000
O O7 0.650481 0.099586 0.060546
O O8 0.188213 0.243003 0.763936
O O9 0.208898 0.503580 0.010070
O O10 0.460631 0.700366 0.937795
O O11 0.000000 0.500000 0.500000
O O12 0.026758 0.346638 0.915395
O O13 0.878413 0.098182 0.563638
O O14 0.000000 0.500000 0.000000
O O15 0.754839 0.129803 0.112336
O O16 0.500000 0.000000 0.500000
O O17 0.000000 0.000000 0.000000
#
# Coordination Sequence:
#
# PCOD8031654 Si02
#       7
#     2   2   2   2   2   2   2
#     4  11  25  47  74 100 141 186 233 289 351 423
#     4  11  22  45  69 104 138 175 237 291 339 416
#     4  11  26  49  67 104 145 185 241 286 348 431
#     4  12  26  43  72 107 144 181 235 294 351 416
#     4  12  26  46  72 103 144 184 234 294 350 416
#     4  11  23  42  73 100 135 185 233 287 345 417
#     4  12  29  48  71 103 146 189 233 295 356 418
#
# _framework density 21.143757000000001
#
# number of rings (size 3 to 8) (size 9 to 14) (size 15 to 20)
#    0.000    0.571    7.143    1.286    8.000    2.857 
#    0.000    0.000    0.000    0.000    0.000    0.000 
#    0.000    0.000    0.000    0.000    0.000    0.000 
#
# Total GULP energy -173434.811725 kJ/mol
# GULP energy per Si atom -12388.200837 kJ/mol
# Density = 2.109563 g / cm^3
# Si number density = 21.143757 Si / 1000 Ang^3
#
#
#
# Elastic Constant Matrix: (Units=GPa)
#
#
# Indices 1 2 3 4 5 6 
#
# 1 103.9550 59.0112 49.9533 2.6715 0.5137 -4.3093
# 2 59.0112 146.5602 63.1602 -22.9275 4.1381 -18.2148
# 3 49.9533 63.1602 138.3123 -29.0179 16.4930 -9.3487
# 4 2.6715 -22.9275 -29.0179 44.6224 3.2105 0.1546
# 5 0.5137 4.1381 16.4930 3.2105 38.5219 -2.5992
# 6 -4.3093 -18.2148 -9.3487 0.1546 -2.5992 45.6817
#
#
#
# Elastic Compliance Matrix: (Units=1/GPa)
#
#
# Indices 1 2 3 4 5 6 
#
# 1 0.015148 -0.005336 -0.004984 -0.007100 0.002994 -0.001524
# 2 -0.005336 0.010925 -0.001756 0.004816 -0.000519 0.003448
# 3 -0.004984 -0.001756 0.012175 0.007708 -0.005534 0.000980
# 4 -0.007100 0.004816 0.007708 0.030755 -0.006126 0.002376
# 5 0.002994 -0.000519 -0.005534 -0.006126 0.028896 0.000608
# 6 -0.001524 0.003448 0.000980 0.002376 0.000608 0.023349
#
#
# Mechanical properties :
#
#
# Convention : Reuss Voigt Hill
#
# Bulk Modulus (GPa) = 70.94160 81.45298 76.19729
# Shear Modulus (GPa) = 33.31136 40.21206 36.76171
#
# Velocity S-wave (km/s) = 3.97353 4.36574 4.17424
# Velocity P-wave (km/s) = 7.39437 8.00125 7.70379
#
# Compressibility (1/GPa) = 0.01409610
#
# Stress axis : x y z
#
# Youngs Moduli (GPa) = 66.01588 91.53217 82.13328
#
# Poissons Ratio (x) = 0.48842 0.40932
# Poissons Ratio (y) = 0.35226 0.14426
# Poissons Ratio (z) = 0.32900 0.16077
#
# Static dielectric constant tensor:
#      x y z
#    x 29.878520 27.857010 -17.180690 
#    y 27.857010 33.742650 -18.532600 
#    z -17.180690 -18.532600 15.179450 
# 
# 
# High freq. dielectric constant tensor:
#      x y z
#    x 1.835520 0.005400 -0.001090 
#    y 0.005400 1.850260 -0.014060 
#    z -0.001090 -0.014060 1.828220 
# 
# From -- ./inp_files/158772.got.cif
#   From: 2010.06.25/outbox.cif.g09.slc.cpg/sg2_80_cif.got.tgz:158772.got - 2010.06.27 13:26:56.
