data_PCOD8031708
_publ_section_title
;
Structure prediction by ZEFSAII (Michael W. Deem and Ramdas Pophale) SiO2 
 PCOD8031708
Probable space group: P -1
;
_chemical_formula_sum "Si O2"
_cell_formula_units_Z 14
_cell_length_a 8.950381
_cell_length_b 18.590817
_cell_length_c 12.139588
_cell_angle_alpha 150.852923
_cell_angle_beta 130.054713
_cell_angle_gamma 40.897289
_cell_volume 643.240203
_symmetry_space_group_name_H-M "P -1"
_symmetry_group_IT_number 2
_symmetry_cell_setting 'triclinic'
loop_
_space_group_symop_operation_xyz
x,y,z
-x,-y,-z
loop_
_atom_site_type_symbol
_atom_site_label
_atom_site_fract_x
_atom_site_fract_y
_atom_site_fract_z
Si Si1 0.614512 0.008017 0.953998
Si Si2 0.079904 0.371904 0.967022
Si Si3 0.523351 0.334023 0.232377
Si Si4 0.617067 0.149334 0.477923
Si Si5 0.067669 0.050578 0.450949
Si Si6 0.880370 0.199378 0.028550
Si Si7 0.281083 0.522096 0.867506
O O1 0.469285 0.984840 0.757359
O O2 0.600806 0.188414 0.168230
O O3 0.876861 0.855191 0.876500
O O4 0.500000 0.000000 0.000000
O O5 0.294952 0.368386 0.114262
O O6 0.900519 0.433392 0.063055
O O7 0.131669 0.193824 0.697010
O O8 0.000000 0.500000 0.000000
O O9 0.500000 0.500000 0.500000
O O10 0.704385 0.280299 0.150494
O O11 0.380643 0.334025 0.608191
O O12 0.796038 0.126480 0.436946
O O13 0.767530 0.112285 0.609943
O O14 0.123805 0.967735 0.244575
O O15 0.828591 0.334950 0.087886
O O16 0.500000 0.500000 0.000000
#
# Coordination Sequence:
#
# PCOD8031708 Si02
#       7
#     2   2   2   2   2   2   2
#     4  12  26  48  74 104 139 195 240 287 361 428
#     4  12  27  45  72 107 143 187 238 292 356 420
#     4  12  31  51  66 104 153 188 235 299 358 425
#     4  11  23  42  75 105 145 177 237 302 346 425
#     4  11  22  45  73 105 140 183 236 295 353 422
#     4  12  27  45  75 102 142 192 238 288 360 429
#     4  12  23  44  73 110 138 182 238 295 359 415
#
# _framework density 21.764807999999999
#
# number of rings (size 3 to 8) (size 9 to 14) (size 15 to 20)
#    0.000    0.286    5.714    3.000    6.000    2.286 
#    0.000    0.000    0.000    0.000    0.000    0.000 
#    0.000    0.000    0.000    0.000    0.000    0.000 
#
# Total GULP energy -173550.376957 kJ/mol
# GULP energy per Si atom -12396.455497 kJ/mol
# Density = 2.171527 g / cm^3
# Si number density = 21.764808 Si / 1000 Ang^3
#
#
#
# Elastic Constant Matrix: (Units=GPa)
#
#
# Indices 1 2 3 4 5 6 
#
# 1 179.4995 72.6569 69.0448 0.0131 -12.6592 -1.2629
# 2 72.6569 135.3099 41.5446 3.5731 7.9808 -3.2366
# 3 69.0448 41.5446 166.5994 0.6053 -3.1999 -7.8226
# 4 0.0131 3.5731 0.6053 36.1595 -2.4134 11.2972
# 5 -12.6592 7.9808 -3.1999 -2.4134 41.0555 -0.0792
# 6 -1.2629 -3.2366 -7.8226 11.2972 -0.0792 46.4369
#
#
#
# Elastic Compliance Matrix: (Units=1/GPa)
#
#
# Indices 1 2 3 4 5 6 
#
# 1 0.008329 -0.003950 -0.002440 0.000848 0.003194 -0.000661
# 2 -0.003950 0.010037 -0.000887 -0.001443 -0.003321 0.000788
# 3 -0.002440 -0.000887 0.007292 -0.000411 -0.000033 0.001200
# 4 0.000848 -0.001443 -0.000411 0.030304 0.002277 -0.007515
# 5 0.003194 -0.003321 -0.000033 0.002277 0.026118 -0.000660
# 6 -0.000661 0.000788 0.001200 -0.007515 -0.000660 0.023601
#
#
# Mechanical properties :
#
#
# Convention : Reuss Voigt Hill
#
# Bulk Modulus (GPa) = 90.05883 94.21127 92.13505
# Shear Modulus (GPa) = 40.34358 44.60790 42.47574
#
# Velocity S-wave (km/s) = 4.31003 4.53210 4.42246
# Velocity P-wave (km/s) = 8.13858 8.41229 8.27657
#
# Compressibility (1/GPa) = 0.01110385
#
# Stress axis : x y z
#
# Youngs Moduli (GPa) = 120.06547 99.63407 137.13765
#
# Poissons Ratio (x) = 0.39354 0.33455
# Poissons Ratio (y) = 0.47424 0.12170
# Poissons Ratio (z) = 0.29290 0.08842
#
# Static dielectric constant tensor:
#      x y z
#    x 4.090020 -0.291640 0.371190 
#    y -0.291640 4.417660 -0.304510 
#    z 0.371190 -0.304510 4.861790 
# 
# 
# High freq. dielectric constant tensor:
#      x y z
#    x 1.851940 -0.010410 -0.000230 
#    y -0.010410 1.872130 -0.002300 
#    z -0.000230 -0.002300 1.869510 
# 
# From -- ./inp_files/278840.got.cif
#   From: 2010.06.25/outbox.cif.g09.slc.cpg/sg2_140_cif.got.tgz:278840.got - 2010.06.27 13:26:56.
