data_PCOD8031812
_publ_section_title
;
Structure prediction by ZEFSAII (Michael W. Deem and Ramdas Pophale) SiO2 
 PCOD8031812
Probable space group: P -1
;
_chemical_formula_sum "Si O2"
_cell_formula_units_Z 16
_cell_length_a 8.558047
_cell_length_b 9.197341
_cell_length_c 11.667939
_cell_angle_alpha 52.672597
_cell_angle_beta 73.244302
_cell_angle_gamma 81.167130
_cell_volume 699.016328
_symmetry_space_group_name_H-M "P -1"
_symmetry_group_IT_number 2
_symmetry_cell_setting 'triclinic'
loop_
_space_group_symop_operation_xyz
x,y,z
-x,-y,-z
loop_
_atom_site_type_symbol
_atom_site_label
_atom_site_fract_x
_atom_site_fract_y
_atom_site_fract_z
Si Si1 0.220447 0.859740 0.533228
Si Si2 0.267355 0.138785 0.815142
Si Si3 0.173448 0.412441 0.516627
Si Si4 0.687528 0.550164 0.957477
Si Si5 0.812854 0.174521 0.189181
Si Si6 0.633527 0.226193 0.678977
Si Si7 0.130390 0.256188 0.366352
Si Si8 0.816675 0.888784 0.897529
O O1 0.275650 0.866235 0.650643
O O2 0.364189 0.792982 0.451499
O O3 0.064848 0.720569 0.613964
O O4 0.175796 0.059652 0.400888
O O5 0.185078 0.301591 0.685283
O O6 0.453639 0.189483 0.782196
O O7 0.265247 0.950966 0.833635
O O8 0.170273 0.113482 0.966294
O O9 0.314752 0.566973 0.399944
O O10 0.190937 0.269173 0.478159
O O11 0.000000 0.500000 0.500000
O O12 0.775256 0.588740 0.799873
O O13 0.697631 0.725358 0.955783
O O14 0.500000 0.500000 0.000000
O O15 0.783908 0.385138 0.070295
O O16 0.004680 0.139568 0.179770
O O17 0.756726 0.086667 0.777878
#
# Coordination Sequence:
#
# PCOD8031812 Si02
#       8
#     2   2   2   2   2   2   2   2
#     4  11  22  46  75 100 135 182 240 289 342 408
#     4  12  29  46  66 107 143 181 232 288 356 412
#     4  12  26  44  71 101 136 185 231 281 346 420
#     4  12  28  44  71 107 141 182 230 292 356 404
#     4  12  26  46  73 102 136 188 236 285 343 422
#     4  12  26  46  72 101 141 183 228 296 353 403
#     4  11  23  45  72 101 138 179 241 285 341 418
#     4  12  26  49  70 100 142 187 232 283 347 426
#
# _framework density 22.889308
#
# number of rings (size 3 to 8) (size 9 to 14) (size 15 to 20)
#    0.000    0.250    5.000    3.750    7.000    1.500 
#    0.000    0.000    0.000    0.000    0.000    0.000 
#    0.000    0.000    0.000    0.000    0.000    0.000 
#
# Total GULP energy -198516.439373 kJ/mol
# GULP energy per Si atom -12407.277461 kJ/mol
# Density = 2.283721 g / cm^3
# Si number density = 22.889308 Si / 1000 Ang^3
#
#
#
# Elastic Constant Matrix: (Units=GPa)
#
#
# Indices 1 2 3 4 5 6 
#
# 1 61.3485 1.9933 9.2849 1.4347 1.4949 -0.6324
# 2 1.9933 93.7978 21.7779 3.2244 5.0700 19.9641
# 3 9.2849 21.7779 117.1204 5.1008 16.4491 -4.3344
# 4 1.4347 3.2244 5.1008 39.0577 4.7975 0.2220
# 5 1.4949 5.0700 16.4491 4.7975 37.0320 -4.7902
# 6 -0.6324 19.9641 -4.3344 0.2220 -4.7902 37.7139
#
#
#
# Elastic Compliance Matrix: (Units=1/GPa)
#
#
# Indices 1 2 3 4 5 6 
#
# 1 0.016507 -0.000078 -0.001267 -0.000434 -0.000014 0.000173
# 2 -0.000078 0.012878 -0.002416 -0.000511 -0.001564 -0.007292
# 3 -0.001267 -0.002416 0.009690 -0.000588 -0.003598 0.001918
# 4 -0.000434 -0.000511 -0.000588 0.026118 -0.003080 -0.000349
# 5 -0.000014 -0.001564 -0.003598 -0.003080 0.029760 0.004212
# 6 0.000173 -0.007292 0.001918 -0.000349 0.004212 0.031136
#
#
# Mechanical properties :
#
#
# Convention : Reuss Voigt Hill
#
# Bulk Modulus (GPa) = 31.69310 37.59768 34.64539
# Shear Modulus (GPa) = 34.69120 38.70809 36.69965
#
# Velocity S-wave (km/s) = 3.89730 4.11676 4.00853
# Velocity P-wave (km/s) = 5.84194 6.24968 6.04925
#
# Compressibility (1/GPa) = 0.03155260
#
# Stress axis : x y z
#
# Youngs Moduli (GPa) = 60.58089 77.65193 103.20050
#
# Poissons Ratio (x) = 0.00604 0.13074
# Poissons Ratio (y) = 0.00471 0.24937
# Poissons Ratio (z) = 0.07674 0.18764
#
# Static dielectric constant tensor:
#      x y z
#    x 3.875600 0.154960 -0.048150 
#    y 0.154960 4.316830 0.021430 
#    z -0.048150 0.021430 4.200300 
# 
# 
# High freq. dielectric constant tensor:
#      x y z
#    x 1.890970 0.008930 -0.000710 
#    y 0.008930 1.914530 0.000780 
#    z -0.000710 0.000780 1.918050 
# 
# From -- ./inp_files/244135.got.cif
#   From: 2010.06.25/outbox.cif.g09.slc.cpg/sg2_123_cif.got.tgz:244135.got - 2010.06.27 13:26:56.
