data_PCOD8031360
_publ_section_title
;
Structure prediction by ZEFSAII (Michael W. Deem and Ramdas Pophale) SiO2 
 PCOD8031360
Probable space group: P -1
;
_chemical_formula_sum "Si O2"
_cell_formula_units_Z 16
_cell_length_a 8.973389
_cell_length_b 11.653525
_cell_length_c 17.778375
_cell_angle_alpha 40.950872
_cell_angle_beta 38.727292
_cell_angle_gamma 41.588706
_cell_volume 702.876664
_symmetry_space_group_name_H-M "P -1"
_symmetry_group_IT_number 2
_symmetry_cell_setting 'triclinic'
loop_
_space_group_symop_operation_xyz
x,y,z
-x,-y,-z
loop_
_atom_site_type_symbol
_atom_site_label
_atom_site_fract_x
_atom_site_fract_y
_atom_site_fract_z
Si Si1 0.936862 0.214932 0.115330
Si Si2 0.416599 0.945427 0.353953
Si Si3 0.023543 0.101442 0.864678
Si Si4 0.154792 0.244717 0.420158
Si Si5 0.154247 0.982407 0.285144
Si Si6 0.386228 0.319849 0.823857
Si Si7 0.600814 0.479167 0.791532
Si Si8 0.278385 0.603479 0.594020
O O1 0.660882 0.389428 0.126815
O O2 0.967541 0.031777 0.144041
O O3 0.978378 0.159489 0.215455
O O4 0.151899 0.293331 0.970205
O O5 0.225221 0.041549 0.310285
O O6 0.317440 0.794812 0.505900
O O7 0.714652 0.857329 0.254737
O O8 0.396849 0.086214 0.361071
O O9 0.782056 0.303620 0.858338
O O10 0.000000 0.000000 0.000000
O O11 0.252382 0.384372 0.359161
O O12 0.994385 0.160672 0.578456
O O13 0.987802 0.360979 0.359169
O O14 0.426850 0.877600 0.188102
O O15 0.551678 0.386738 0.782143
O O16 0.274024 0.482913 0.726771
O O17 0.500000 0.500000 0.500000
#
# Coordination Sequence:
#
# PCOD8031360 Si02
#       8
#     2   2   2   2   2   2   2   2
#     4  12  28  51  69 110 151 192 245 295 370 434
#     4  11  24  46  73 109 148 189 246 301 363 426
#     4  12  28  48  77 104 148 195 241 306 360 436
#     4  11  25  45  72 110 149 190 244 301 364 425
#     4  11  24  46  77 105 143 198 238 298 364 433
#     4  12  26  46  73 103 149 193 244 304 357 439
#     4  12  29  48  71 112 145 193 242 296 374 428
#     4  11  22  43  71 106 137 190 247 294 355 429
#
# _framework density 22.763596
#
# number of rings (size 3 to 8) (size 9 to 14) (size 15 to 20)
#    0.000    0.500    5.000    3.750    7.000    3.500 
#    0.000    0.000    0.000    0.000    0.000    0.000 
#    0.000    0.000    0.000    0.000    0.000    0.000 
#
# Total GULP energy -198401.220224 kJ/mol
# GULP energy per Si atom -12400.076264 kJ/mol
# Density = 2.271179 g / cm^3
# Si number density = 22.763596 Si / 1000 Ang^3
#
#
#
# Elastic Constant Matrix: (Units=GPa)
#
#
# Indices 1 2 3 4 5 6 
#
# 1 87.2320 22.4976 51.2696 -16.3847 -8.2800 -11.3012
# 2 22.4976 111.4989 22.7277 -1.6628 3.9147 -21.4639
# 3 51.2696 22.7277 113.3790 -12.2298 1.3629 -20.9855
# 4 -16.3847 -1.6628 -12.2298 27.4774 -5.9636 -1.9413
# 5 -8.2800 3.9147 1.3629 -5.9636 40.1998 -4.1583
# 6 -11.3012 -21.4639 -20.9855 -1.9413 -4.1583 44.3389
#
#
#
# Elastic Compliance Matrix: (Units=1/GPa)
#
#
# Indices 1 2 3 4 5 6 
#
# 1 0.018421 -0.002139 -0.006713 0.009215 0.005744 0.001425
# 2 -0.002139 0.010302 -0.000409 -0.000787 -0.001122 0.004109
# 3 -0.006713 -0.000409 0.012916 0.001782 -0.001084 0.004181
# 4 0.009215 -0.000787 0.001782 0.045024 0.009177 0.005643
# 5 0.005744 -0.001122 -0.001084 0.009177 0.027921 0.003429
# 6 0.001425 0.004109 0.004181 0.005643 0.003429 0.027453
#
#
# Mechanical properties :
#
#
# Convention : Reuss Voigt Hill
#
# Bulk Modulus (GPa) = 43.25355 56.12217 49.68786
# Shear Modulus (GPa) = 29.71504 36.77754 33.24629
#
# Velocity S-wave (km/s) = 3.61692 4.02385 3.82580
# Velocity P-wave (km/s) = 6.04030 6.80414 6.43357
#
# Compressibility (1/GPa) = 0.02311949
#
# Stress axis : x y z
#
# Youngs Moduli (GPa) = 54.28524 97.06680 77.42085
#
# Poissons Ratio (x) = 0.20758 0.51970
# Poissons Ratio (y) = 0.11609 0.03166
# Poissons Ratio (z) = 0.36440 0.03970
#
# Static dielectric constant tensor:
#      x y z
#    x 4.166940 -0.043070 -0.196360 
#    y -0.043070 4.226910 0.009350 
#    z -0.196360 0.009350 3.940610 
# 
# 
# High freq. dielectric constant tensor:
#      x y z
#    x 1.901950 -0.004650 -0.010140 
#    y -0.004650 1.909940 0.002480 
#    z -0.010140 0.002480 1.900040 
# 
# From -- ./inp_files/346452.got.cif
#   From: 2010.06.25/outbox.cif.g09.slc.cpg/sg2_174_cif.got.tgz:346452.got - 2010.06.27 13:26:56.
