data_PCOD8031214
_publ_section_title
;
Structure prediction by ZEFSAII (Michael W. Deem and Ramdas Pophale) SiO2 
 PCOD8031214
Probable space group: P -1
;
_chemical_formula_sum "Si O2"
_cell_formula_units_Z 14
_cell_length_a 9.597042
_cell_length_b 9.594723
_cell_length_c 12.316187
_cell_angle_alpha 99.863130
_cell_angle_beta 60.180265
_cell_angle_gamma 136.849193
_cell_volume 636.921900
_symmetry_space_group_name_H-M "P -1"
_symmetry_group_IT_number 2
_symmetry_cell_setting 'triclinic'
loop_
_space_group_symop_operation_xyz
x,y,z
-x,-y,-z
loop_
_atom_site_type_symbol
_atom_site_label
_atom_site_fract_x
_atom_site_fract_y
_atom_site_fract_z
Si Si1 0.474071 0.523147 0.637989
Si Si2 0.733530 0.476007 0.669062
Si Si3 0.363784 0.072511 0.294151
Si Si4 0.760031 0.293838 0.006116
Si Si5 0.273756 0.811502 0.487616
Si Si6 0.919241 0.109084 0.825199
Si Si7 0.480552 0.320120 0.967842
O O1 0.500000 0.500000 0.500000
O O2 0.673565 0.581543 0.644798
O O3 0.512751 0.715574 0.661824
O O4 0.208338 0.300666 0.755768
O O5 0.696125 0.331263 0.574057
O O6 0.550686 0.327510 0.819233
O O7 0.014111 0.664010 0.629327
O O8 0.565777 0.125243 0.151684
O O9 0.257304 0.893160 0.397093
O O10 0.143863 0.975298 0.286258
O O11 0.802494 0.186127 0.900513
O O12 0.664573 0.363852 0.983890
O O13 0.000000 0.500000 0.000000
O O14 0.500000 0.000000 0.500000
O O15 0.796462 0.915203 0.930073
O O16 0.500000 0.500000 0.000000
#
# Coordination Sequence:
#
# PCOD8031214 Si02
#       7
#     2   2   2   2   2   2   2
#     4  12  26  43  67  98 133 179 222 271 330 398
#     4  11  25  45  63  97 139 165 219 280 328 391
#     4  11  23  43  67  97 128 171 225 273 324 397
#     4  11  22  42  72  96 128 176 226 271 331 401
#     4  11  25  42  68  95 127 177 219 269 333 391
#     4  11  24  45  69  98 133 176 224 272 339 397
#     4  11  25  43  68 100 139 174 217 282 338 391
#
# _framework density 21.980716999999999
#
# number of rings (size 3 to 8) (size 9 to 14) (size 15 to 20)
#    0.000    0.857    1.429    6.857    2.000    8.571 
#    0.000    0.000    0.000    0.000    0.000    0.000 
#    0.000    0.000    0.000    0.000    0.000    0.000 
#
# Total GULP energy -173653.686140 kJ/mol
# GULP energy per Si atom -12403.834724 kJ/mol
# Density = 2.193069 g / cm^3
# Si number density = 21.980717 Si / 1000 Ang^3
#
#
#
# Elastic Constant Matrix: (Units=GPa)
#
#
# Indices 1 2 3 4 5 6 
#
# 1 73.3209 32.7594 29.7303 -0.8211 -9.6527 -6.1132
# 2 32.7594 110.6519 23.0587 -0.0324 -13.5025 1.4851
# 3 29.7303 23.0587 103.2447 -0.3853 -0.4520 -5.6362
# 4 -0.8211 -0.0324 -0.3853 30.5180 -1.7395 8.1474
# 5 -9.6527 -13.5025 -0.4520 -1.7395 35.2434 -2.9185
# 6 -6.1132 1.4851 -5.6362 8.1474 -2.9185 39.9919
#
#
#
# Elastic Compliance Matrix: (Units=1/GPa)
#
#
# Indices 1 2 3 4 5 6 
#
# 1 0.017751 -0.004019 -0.004059 -0.000062 0.003478 0.002557
# 2 -0.004019 0.010879 -0.001316 0.000338 0.002980 -0.001055
# 3 -0.004059 -0.001316 0.011194 -0.000307 -0.001407 0.000966
# 4 -0.000062 0.000338 -0.000307 0.034714 0.001238 -0.007047
# 5 0.003478 0.002980 -0.001407 0.001238 0.030695 0.002210
# 6 0.002557 -0.001055 0.000966 -0.007047 0.002210 0.027168
#
#
# Mechanical properties :
#
#
# Convention : Reuss Voigt Hill
#
# Bulk Modulus (GPa) = 47.53842 50.92383 49.23112
# Shear Modulus (GPa) = 31.60525 34.59528 33.10027
#
# Velocity S-wave (km/s) = 3.79603 3.97154 3.88477
# Velocity P-wave (km/s) = 6.39433 6.65196 6.52442
#
# Compressibility (1/GPa) = 0.02103562
#
# Stress axis : x y z
#
# Youngs Moduli (GPa) = 56.33527 91.91740 89.33430
#
# Poissons Ratio (x) = 0.36944 0.36263
# Poissons Ratio (y) = 0.22643 0.11754
# Poissons Ratio (z) = 0.22868 0.12094
#
# Static dielectric constant tensor:
#      x y z
#    x 3.987260 0.085960 -0.074150 
#    y 0.085960 4.271950 -0.047250 
#    z -0.074150 -0.047250 4.232360 
# 
# 
# High freq. dielectric constant tensor:
#      x y z
#    x 1.859720 0.000740 -0.003570 
#    y 0.000740 1.877710 -0.002210 
#    z -0.003570 -0.002210 1.875090 
# 
# From -- ./inp_files/218165.got.cif
#   From: 2010.06.25/outbox.cif.g09.slc.cpg/sg2_110_cif.got.tgz:218165.got - 2010.06.27 13:26:56.
