data_PCOD8031036
_publ_section_title
;
Structure prediction by ZEFSAII (Michael W. Deem and Ramdas Pophale) SiO2 
 PCOD8031036
Probable space group: P -1
;
_chemical_formula_sum "Si O2"
_cell_formula_units_Z 16
_cell_length_a 19.456916
_cell_length_b 9.229679
_cell_length_c 16.510464
_cell_angle_alpha 141.788014
_cell_angle_beta 158.034917
_cell_angle_gamma 39.705702
_cell_volume 675.343118
_symmetry_space_group_name_H-M "P -1"
_symmetry_group_IT_number 2
_symmetry_cell_setting 'triclinic'
loop_
_space_group_symop_operation_xyz
x,y,z
-x,-y,-z
loop_
_atom_site_type_symbol
_atom_site_label
_atom_site_fract_x
_atom_site_fract_y
_atom_site_fract_z
Si Si1 0.852623 0.926984 0.033682
Si Si2 0.596434 0.345815 0.230198
Si Si3 0.486151 0.119931 0.625363
Si Si4 0.557977 0.032779 0.206001
Si Si5 0.763431 0.610461 0.924810
Si Si6 0.006122 0.271427 0.621177
Si Si7 0.941087 0.753892 0.511046
Si Si8 0.131394 0.930451 0.191216
O O1 0.001092 0.949059 0.135748
O O2 0.872277 0.670248 0.988386
O O3 0.888325 0.106290 0.223865
O O4 0.645448 0.983949 0.797537
O O5 0.473425 0.609330 0.218217
O O6 0.798136 0.414732 0.464033
O O7 0.599152 0.199556 0.251065
O O8 0.539612 0.186762 0.025267
O O9 0.500000 0.000000 0.500000
O O10 0.283795 0.103963 0.436212
O O11 0.750989 0.914339 0.408522
O O12 0.434298 0.206831 0.211325
O O13 0.747229 0.335373 0.791389
O O14 0.866369 0.650520 0.137226
O O15 0.099464 0.304599 0.651883
O O16 0.000000 0.000000 0.500000
O O17 0.000000 0.500000 0.500000
O O18 0.000000 0.000000 0.000000
#
# Coordination Sequence:
#
# PCOD8031036 Si02
#       8
#     2   2   2   2   2   2   2   2
#     4  12  28  50  71 112 149 193 254 302 371 436
#     4  11  22  41  74 107 145 188 252 299 360 452
#     4  12  27  49  74 109 148 197 251 306 367 437
#     4  11  22  42  73 110 142 195 241 302 378 430
#     4  12  26  48  77 106 152 192 251 307 363 450
#     4  12  21  46  70 103 148 191 234 301 372 434
#     4  12  27  43  72 111 150 189 242 307 369 444
#     4  12  28  51  78 107 146 204 248 303 373 437
#
# _framework density 23.691661
#
# number of rings (size 3 to 8) (size 9 to 14) (size 15 to 20)
#    0.000    0.250    5.000    3.375    5.250    0.500 
#    4.500    2.500    0.000    0.000    0.000    0.000 
#    0.000    0.000    0.000    0.000    0.000    0.000 
#
# Total GULP energy -198336.541513 kJ/mol
# GULP energy per Si atom -12396.033845 kJ/mol
# Density = 2.363774 g / cm^3
# Si number density = 23.691661 Si / 1000 Ang^3
#
#
#
# Elastic Constant Matrix: (Units=GPa)
#
#
# Indices 1 2 3 4 5 6 
#
# 1 111.2957 37.3958 27.9505 -11.3851 8.2103 10.2747
# 2 37.3958 162.5048 34.7610 10.6831 -1.7550 11.9021
# 3 27.9505 34.7610 115.5478 -14.5179 2.5274 7.6171
# 4 -11.3851 10.6831 -14.5179 36.1103 2.7007 -1.2670
# 5 8.2103 -1.7550 2.5274 2.7007 36.3141 -4.2291
# 6 10.2747 11.9021 7.6171 -1.2670 -4.2291 33.3490
#
#
#
# Elastic Compliance Matrix: (Units=1/GPa)
#
#
# Indices 1 2 3 4 5 6 
#
# 1 0.010928 -0.002352 -0.001228 0.003790 -0.003071 -0.002492
# 2 -0.002352 0.007530 -0.002122 -0.003962 0.001165 -0.001481
# 3 -0.001228 -0.002122 0.010240 0.004392 -0.001000 -0.001163
# 4 0.003790 -0.003962 0.004392 0.032105 -0.003743 -0.000012
# 5 -0.003071 0.001165 -0.001000 -0.003743 0.029138 0.004311
# 6 -0.002492 -0.001481 -0.001163 -0.000012 0.004311 0.032094
#
#
# Mechanical properties :
#
#
# Convention : Reuss Voigt Hill
#
# Bulk Modulus (GPa) = 57.82293 65.50700 61.66496
# Shear Modulus (GPa) = 35.91819 40.43741 38.17780
#
# Velocity S-wave (km/s) = 3.89790 4.13585 4.01864
# Velocity P-wave (km/s) = 6.68712 7.10752 6.90052
#
# Compressibility (1/GPa) = 0.01729418
#
# Stress axis : x y z
#
# Youngs Moduli (GPa) = 91.50739 132.79709 97.65365
#
# Poissons Ratio (x) = 0.31231 0.11995
# Poissons Ratio (y) = 0.21521 0.20723
# Poissons Ratio (z) = 0.11240 0.28181
#
# Static dielectric constant tensor:
#      x y z
#    x 4.654920 -0.058080 0.372080 
#    y -0.058080 4.481710 -0.190320 
#    z 0.372080 -0.190320 4.577750 
# 
# 
# High freq. dielectric constant tensor:
#      x y z
#    x 1.938410 0.007500 0.003120 
#    y 0.007500 1.950900 -0.002500 
#    z 0.003120 -0.002500 1.942210 
# 
# From -- ./inp_files/577648.got.cif
#   From: 2010.06.25/outbox.cif.g09.slc.cpg/sg2_289_cif.got.tgz:577648.got - 2010.06.27 13:26:56.
