data_PCOD8031982
_publ_section_title
;
Structure prediction by ZEFSAII (Michael W. Deem and Ramdas Pophale) SiO2 
 PCOD8031982
Probable space group: P -1
;
_chemical_formula_sum "Si O2"
_cell_formula_units_Z 12
_cell_length_a 9.499865
_cell_length_b 15.777750
_cell_length_c 15.941010
_cell_angle_alpha 153.819718
_cell_angle_beta 148.768678
_cell_angle_gamma 36.342713
_cell_volume 538.936073
_symmetry_space_group_name_H-M "P -1"
_symmetry_group_IT_number 2
_symmetry_cell_setting 'triclinic'
loop_
_space_group_symop_operation_xyz
x,y,z
-x,-y,-z
loop_
_atom_site_type_symbol
_atom_site_label
_atom_site_fract_x
_atom_site_fract_y
_atom_site_fract_z
Si Si1 0.184581 0.576508 0.895871
Si Si2 0.358743 0.554263 0.285193
Si Si3 0.971998 0.266038 0.863987
Si Si4 0.167431 0.697788 0.611412
Si Si5 0.665510 0.139117 0.319904
Si Si6 0.929313 0.948329 0.011291
O O1 0.050480 0.394680 0.635711
O O2 0.500000 0.500000 0.000000
O O3 0.053941 0.667950 0.995603
O O4 0.136513 0.749575 0.957803
O O5 0.315820 0.675001 0.282569
O O6 0.674716 0.463569 0.387022
O O7 0.239183 0.699352 0.427872
O O8 0.200700 0.372666 0.032419
O O9 0.077961 0.036346 0.707652
O O10 0.380858 0.771985 0.719385
O O11 0.007082 0.879062 0.742670
O O12 0.387323 0.077933 0.159546
O O13 0.000000 0.000000 0.000000
#
# Coordination Sequence:
#
# PCOD8031982 Si02
#       6
#     2   2   2   2   2   2
#     4  12  28  48  70 100 146 187 234 291 356 413
#     4  11  23  39  75 105 137 176 237 289 342 407
#     4  11  24  43  69 110 140 180 232 293 342 412
#     4  12  24  47  76 101 136 193 236 285 347 419
#     4  12  22  46  76 106 138 182 241 284 343 421
#     4  12  28  45  72 108 142 183 232 292 352 418
#
# _framework density 22.266093000000001
#
# number of rings (size 3 to 8) (size 9 to 14) (size 15 to 20)
#    0.000    0.333    6.667    2.500    2.333    2.667 
#    3.000    0.000    0.000    0.000    0.000    0.000 
#    0.000    0.000    0.000    0.000    0.000    0.000 
#
# Total GULP energy -148815.222524 kJ/mol
# GULP energy per Si atom -12401.268544 kJ/mol
# Density = 2.221541 g / cm^3
# Si number density = 22.266093 Si / 1000 Ang^3
#
#
#
# Elastic Constant Matrix: (Units=GPa)
#
#
# Indices 1 2 3 4 5 6 
#
# 1 109.2873 38.1934 42.0873 4.1924 -5.1606 16.1977
# 2 38.1934 139.1804 47.7223 1.4185 11.6418 11.6953
# 3 42.0873 47.7223 91.6820 9.2182 -12.0981 -5.9022
# 4 4.1924 1.4185 9.2182 42.1695 -12.2352 -8.9601
# 5 -5.1606 11.6418 -12.0981 -12.2352 30.5597 -3.7495
# 6 16.1977 11.6953 -5.9022 -8.9601 -3.7495 34.7333
#
#
#
# Elastic Compliance Matrix: (Units=1/GPa)
#
#
# Indices 1 2 3 4 5 6 
#
# 1 0.012813 -0.000649 -0.006049 -0.002017 -0.001711 -0.007490
# 2 -0.000649 0.010924 -0.006667 -0.002687 -0.008740 -0.006145
# 3 -0.006049 -0.006667 0.019062 0.002008 0.011098 0.010021
# 4 -0.002017 -0.002687 0.002008 0.030422 0.015089 0.011664
# 5 -0.001711 -0.008740 0.011098 0.015089 0.048002 0.014701
# 6 -0.007490 -0.006145 0.010021 0.011664 0.014701 0.040652
#
#
# Mechanical properties :
#
#
# Convention : Reuss Voigt Hill
#
# Bulk Modulus (GPa) = 62.23163 66.23954 64.23559
# Shear Modulus (GPa) = 25.77825 35.63561 30.70693
#
# Velocity S-wave (km/s) = 3.40624 4.00489 3.71764
# Velocity P-wave (km/s) = 6.59392 7.15536 6.88037
#
# Compressibility (1/GPa) = 0.01606900
#
# Stress axis : x y z
#
# Youngs Moduli (GPa) = 78.04351 91.54317 52.45973
#
# Poissons Ratio (x) = 0.05941 0.31735
# Poissons Ratio (y) = 0.05065 0.34974
# Poissons Ratio (z) = 0.47211 0.61031
#
# Static dielectric constant tensor:
#      x y z
#    x 3.939370 0.248110 -0.311340 
#    y 0.248110 4.373010 0.164720 
#    z -0.311340 0.164720 4.103170 
# 
# 
# High freq. dielectric constant tensor:
#      x y z
#    x 1.859420 0.010990 -0.026020 
#    y 0.010990 1.894490 0.013370 
#    z -0.026020 0.013370 1.880170 
# 
# From -- ./inp_files/149671.got.cif
#   From: 2010.06.25/outbox.cif.g09.slc.cpg/sg2_75_cif.got.tgz:149671.got - 2010.06.27 13:26:56.
