data_PCOD8031737
_publ_section_title
;
Structure prediction by ZEFSAII (Michael W. Deem and Ramdas Pophale) SiO2 
 PCOD8031737
Probable space group: P -1
;
_chemical_formula_sum "Si O2"
_cell_formula_units_Z 14
_cell_length_a 13.711768
_cell_length_b 6.586659
_cell_length_c 19.844335
_cell_angle_alpha 114.040294
_cell_angle_beta 154.589312
_cell_angle_gamma 51.134094
_cell_volume 526.243259
_symmetry_space_group_name_H-M "P -1"
_symmetry_group_IT_number 2
_symmetry_cell_setting 'triclinic'
loop_
_space_group_symop_operation_xyz
x,y,z
-x,-y,-z
loop_
_atom_site_type_symbol
_atom_site_label
_atom_site_fract_x
_atom_site_fract_y
_atom_site_fract_z
Si Si1 0.866097 0.658788 0.340965
Si Si2 0.113754 0.043165 0.375078
Si Si3 0.616216 0.699329 0.883002
Si Si4 0.764491 0.807934 0.757776
Si Si5 0.082762 0.912544 0.196575
Si Si6 0.577391 0.213683 0.820769
Si Si7 0.656269 0.334676 0.413019
O O1 0.748359 0.679577 0.346678
O O2 0.917199 0.395443 0.298151
O O3 0.182340 0.595657 0.529533
O O4 0.610791 0.968419 0.182836
O O5 0.472418 0.855219 0.564937
O O6 0.008403 0.955564 0.235774
O O7 0.079997 0.939968 0.411995
O O8 0.572650 0.482786 0.857838
O O9 0.513779 0.747953 0.746645
O O10 0.973690 0.528862 0.094500
O O11 0.892592 0.842181 0.775573
O O12 0.694154 0.053464 0.799930
O O13 0.414127 0.601545 0.346820
O O14 0.810730 0.973967 0.992464
#
# Coordination Sequence:
#
# PCOD8031737 Si02
#       7
#     2   2   2   2   2   2   2
#     4  12  27  43  68 106 145 178 221 285 354 402
#     4  12  27  44  71 102 143 183 226 278 344 414
#     4  11  23  43  72 105 138 174 233 288 337 404
#     4  11  22  45  77 102 132 181 237 284 336 400
#     4  11  23  48  73 100 138 181 234 282 335 408
#     4  11  23  46  74 101 136 180 231 288 339 399
#     4  12  24  44  71 104 137 181 233 283 335 406
#
# _framework density 26.603666
#
# number of rings (size 3 to 8) (size 9 to 14) (size 15 to 20)
#    0.000    0.571    4.286    3.857    2.000    5.714 
#    0.000    3.571    0.000    0.000    0.000    0.000 
#    0.000    0.000    0.000    0.000    0.000    0.000 
#
# Total GULP energy -173581.374399 kJ/mol
# GULP energy per Si atom -12398.669600 kJ/mol
# Density = 2.654311 g / cm^3
# Si number density = 26.603666 Si / 1000 Ang^3
#
#
#
# Elastic Constant Matrix: (Units=GPa)
#
#
# Indices 1 2 3 4 5 6 
#
# 1 71.5638 5.3041 11.2720 -3.0359 -15.1158 -13.8342
# 2 5.3041 118.3327 49.5373 -35.4265 -14.2033 -12.3578
# 3 11.2720 49.5373 85.5190 -13.3156 -20.1291 -9.0367
# 4 -3.0359 -35.4265 -13.3156 52.5252 -3.3151 -8.0946
# 5 -15.1158 -14.2033 -20.1291 -3.3151 40.0530 -3.2616
# 6 -13.8342 -12.3578 -9.0367 -8.0946 -3.2616 19.9545
#
#
#
# Elastic Compliance Matrix: (Units=1/GPa)
#
#
# Indices 1 2 3 4 5 6 
#
# 1 0.021736 0.006011 0.001326 0.010529 0.013986 0.025950
# 2 0.006011 0.017818 -0.004366 0.015063 0.009339 0.020862
# 3 0.001326 -0.004366 0.017651 0.003569 0.008860 0.009105
# 4 0.010529 0.015063 0.003569 0.037374 0.017151 0.036209
# 5 0.013986 0.009339 0.008860 0.017151 0.042144 0.033338
# 6 0.025950 0.020862 0.009105 0.036209 0.033338 0.105286
#
#
# Mechanical properties :
#
#
# Convention : Reuss Voigt Hill
#
# Bulk Modulus (GPa) = 15.83542 45.29357 30.56449
# Shear Modulus (GPa) = 19.44663 36.45999 27.95331
#
# Velocity S-wave (km/s) = 2.70659 3.70603 3.24502
# Velocity P-wave (km/s) = 3.96645 5.94770 5.05509
#
# Compressibility (1/GPa) = 0.06314958
#
# Stress axis : x y z
#
# Youngs Moduli (GPa) = 46.00561 56.12296 56.65549
#
# Poissons Ratio (x) = -0.33738 -0.07515
# Poissons Ratio (y) = -0.27656 0.24734
# Poissons Ratio (z) = -0.06102 0.24501
#
# Static dielectric constant tensor:
#      x y z
#    x 4.941870 0.384660 -0.052090 
#    y 0.384660 4.638020 -0.533290 
#    z -0.052090 -0.533290 4.992320 
# 
# 
# High freq. dielectric constant tensor:
#      x y z
#    x 2.071760 0.032410 0.001550 
#    y 0.032410 2.061440 -0.033690 
#    z 0.001550 -0.033690 2.067500 
# 
# From -- ./inp_files/572436.got.cif
#   From: 2010.06.25/outbox.cif.g09.slc.cpg/sg2_287_cif.got.tgz:572436.got - 2010.06.27 13:26:56.
