data_PCOD8031274
_publ_section_title
;
Structure prediction by ZEFSAII (Michael W. Deem and Ramdas Pophale) SiO2 
 PCOD8031274
Probable space group: P -1
;
_chemical_formula_sum "Si O2"
_cell_formula_units_Z 16
_cell_length_a 8.941362
_cell_length_b 11.905539
_cell_length_c 16.245252
_cell_angle_alpha 132.233089
_cell_angle_beta 36.024955
_cell_angle_gamma 127.790495
_cell_volume 743.507593
_symmetry_space_group_name_H-M "P -1"
_symmetry_group_IT_number 2
_symmetry_cell_setting 'triclinic'
loop_
_space_group_symop_operation_xyz
x,y,z
-x,-y,-z
loop_
_atom_site_type_symbol
_atom_site_label
_atom_site_fract_x
_atom_site_fract_y
_atom_site_fract_z
Si Si1 0.914078 0.866949 0.363551
Si Si2 0.249634 0.432636 0.322241
Si Si3 0.717283 0.780174 0.107790
Si Si4 0.332830 0.891677 0.652750
Si Si5 0.985364 0.639027 0.775554
Si Si6 0.994706 0.164156 0.390056
Si Si7 0.802423 0.616345 0.157101
Si Si8 0.138348 0.697622 0.319039
O O1 0.637794 0.917012 0.523263
O O2 0.916897 0.722943 0.233041
O O3 0.025300 0.828342 0.382971
O O4 0.086664 0.015508 0.317696
O O5 0.236767 0.399262 0.213822
O O6 0.518302 0.538161 0.273962
O O7 0.000000 0.500000 0.500000
O O8 0.244525 0.269306 0.290944
O O9 0.793402 0.713878 0.127366
O O10 0.435085 0.700787 0.164688
O O11 0.746092 0.963836 0.192741
O O12 0.909777 0.743587 0.933703
O O13 0.220966 0.884168 0.606961
O O14 0.238300 0.733872 0.666855
O O15 0.027658 0.471501 0.708495
O O16 0.868495 0.264927 0.562839
O O17 0.000000 0.500000 0.000000
#
# Coordination Sequence:
#
# PCOD8031274 Si02
#       8
#     2   2   2   2   2   2   2   2
#     4  12  25  42  67 101 135 174 230 281 330 395
#     4  11  22  44  72 100 129 179 231 273 332 405
#     4  12  23  45  67  93 140 180 222 267 346 409
#     4  11  24  43  69  99 131 179 230 276 330 401
#     4  11  24  40  69  98 132 177 222 275 338 399
#     4  11  22  43  67  96 128 177 225 276 330 393
#     4  12  26  45  69 102 138 178 228 279 336 400
#     4  12  24  41  67  99 132 176 225 276 338 398
#
# _framework density 21.519618999999999
#
# number of rings (size 3 to 8) (size 9 to 14) (size 15 to 20)
#    0.000    0.500    5.000    4.500    1.750    0.500 
#    2.250    1.875    0.000    0.000    0.000    0.000 
#    0.000    0.000    0.000    0.000    0.000    0.000 
#
# Total GULP energy -198445.391408 kJ/mol
# GULP energy per Si atom -12402.836963 kJ/mol
# Density = 2.147064 g / cm^3
# Si number density = 21.519619 Si / 1000 Ang^3
#
#
#
# Elastic Constant Matrix: (Units=GPa)
#
#
# Indices 1 2 3 4 5 6 
#
# 1 64.7526 18.0815 20.8804 -3.1027 10.1545 -17.0418
# 2 18.0815 127.5159 18.2582 3.5311 -0.7792 -18.6515
# 3 20.8804 18.2582 93.5618 11.7313 11.9033 2.6044
# 4 -3.1027 3.5311 11.7313 33.8699 -1.0312 7.0146
# 5 10.1545 -0.7792 11.9033 -1.0312 31.2156 4.4171
# 6 -17.0418 -18.6515 2.6044 7.0146 4.4171 34.7029
#
#
#
# Elastic Compliance Matrix: (Units=1/GPa)
#
#
# Indices 1 2 3 4 5 6 
#
# 1 0.020948 -0.000880 -0.004064 0.000978 -0.006781 0.010784
# 2 -0.000880 0.008921 -0.001544 -0.001442 0.000382 0.004721
# 3 -0.004064 -0.001544 0.012940 -0.004282 -0.003440 -0.002493
# 4 0.000978 -0.001442 -0.004282 0.032806 0.003357 -0.007032
# 5 -0.006781 0.000382 -0.003440 0.003357 0.036838 -0.008234
# 6 0.010784 0.004721 -0.002493 -0.007032 -0.008234 0.039306
#
#
# Mechanical properties :
#
#
# Convention : Reuss Voigt Hill
#
# Bulk Modulus (GPa) = 33.51769 44.47450 38.99609
# Shear Modulus (GPa) = 28.62411 35.19838 31.91125
#
# Velocity S-wave (km/s) = 3.65107 4.04869 3.85501
# Velocity P-wave (km/s) = 5.77780 6.52439 6.16241
#
# Compressibility (1/GPa) = 0.02983499
#
# Stress axis : x y z
#
# Youngs Moduli (GPa) = 47.73766 112.09789 77.27906
#
# Poissons Ratio (x) = 0.09860 0.31402
# Poissons Ratio (y) = 0.04199 0.11930
# Poissons Ratio (z) = 0.19398 0.17305
#
# Static dielectric constant tensor:
#      x y z
#    x 3.752750 -0.164680 0.276960 
#    y -0.164680 4.410430 0.070960 
#    z 0.276960 0.070960 3.714590 
# 
# 
# High freq. dielectric constant tensor:
#      x y z
#    x 1.829100 -0.009670 0.027870 
#    y -0.009670 1.874240 0.008320 
#    z 0.027870 0.008320 1.834140 
# 
# From -- ./inp_files/190272.got.cif
#   From: 2010.06.25/outbox.cif.g09.slc.cpg/sg2_96_cif.got.tgz:190272.got - 2010.06.27 13:26:56.
