data_PCOD8031357
_publ_section_title
;
Structure prediction by ZEFSAII (Michael W. Deem and Ramdas Pophale) SiO2 
 PCOD8031357
Probable space group: P -1
;
_chemical_formula_sum "Si O2"
_cell_formula_units_Z 14
_cell_length_a 9.355013
_cell_length_b 21.320566
_cell_length_c 8.886835
_cell_angle_alpha 49.442458
_cell_angle_beta 125.474573
_cell_angle_gamma 151.652094
_cell_volume 639.272678
_symmetry_space_group_name_H-M "P -1"
_symmetry_group_IT_number 2
_symmetry_cell_setting 'triclinic'
loop_
_space_group_symop_operation_xyz
x,y,z
-x,-y,-z
loop_
_atom_site_type_symbol
_atom_site_label
_atom_site_fract_x
_atom_site_fract_y
_atom_site_fract_z
Si Si1 0.849708 0.671127 0.076585
Si Si2 0.577240 0.401905 0.255595
Si Si3 0.497463 0.921281 0.008491
Si Si4 0.635465 0.790101 0.305882
Si Si5 0.846163 0.633552 0.464143
Si Si6 0.901350 0.469274 0.813164
Si Si7 0.798803 0.091063 0.626415
O O1 0.613379 0.505283 0.192119
O O2 0.928277 0.711331 0.237175
O O3 0.693778 0.694843 0.880440
O O4 0.144442 0.768186 0.002650
O O5 0.514804 0.311415 0.485228
O O6 0.884526 0.503915 0.198318
O O7 0.691674 0.017103 0.834850
O O8 0.637703 0.887561 0.201088
O O9 0.500000 0.000000 0.000000
O O10 0.439853 0.691923 0.187381
O O11 0.983398 0.895015 0.335835
O O12 0.500000 0.500000 0.500000
O O13 0.966740 0.587106 0.615965
O O14 0.013376 0.752478 0.503950
O O15 0.000000 0.500000 0.000000
O O16 0.500000 0.000000 0.500000
#
# Coordination Sequence:
#
# PCOD8031357 Si02
#       7
#     2   2   2   2   2   2   2
#     4  11  22  43  71 103 136 187 237 290 360 424
#     4  11  23  42  74 103 140 180 235 301 362 420
#     4  12  26  46  71  95 141 195 237 289 357 428
#     4  12  25  49  71 103 146 189 242 300 355 424
#     4  12  23  44  73 102 143 182 244 300 352 419
#     4  12  25  39  71 110 141 181 235 301 358 421
#     4  12  28  48  71 104 146 195 236 292 364 431
#
# _framework density 21.899888000000001
#
# number of rings (size 3 to 8) (size 9 to 14) (size 15 to 20)
#    0.000    0.286    5.714    3.429    2.000    2.286 
#    2.571    1.429    0.000    0.000    0.000    0.000 
#    0.000    0.000    0.000    0.000    0.000    0.000 
#
# Total GULP energy -173522.102970 kJ/mol
# GULP energy per Si atom -12394.435926 kJ/mol
# Density = 2.185004 g / cm^3
# Si number density = 21.899888 Si / 1000 Ang^3
#
#
#
# Elastic Constant Matrix: (Units=GPa)
#
#
# Indices 1 2 3 4 5 6 
#
# 1 114.6582 49.8542 42.9826 1.1201 16.5404 10.6176
# 2 49.8542 115.9782 53.4637 1.5706 13.2530 11.1179
# 3 42.9826 53.4637 119.8709 7.4020 6.1129 -8.4330
# 4 1.1201 1.5706 7.4020 39.4911 4.7222 5.2311
# 5 16.5404 13.2530 6.1129 4.7222 45.4869 -6.5857
# 6 10.6176 11.1179 -8.4330 5.2311 -6.5857 46.8709
#
#
#
# Elastic Compliance Matrix: (Units=1/GPa)
#
#
# Indices 1 2 3 4 5 6 
#
# 1 0.012003 -0.003040 -0.003061 0.001215 -0.003657 -0.003198
# 2 -0.003040 0.012796 -0.004824 0.001292 -0.002649 -0.003731
# 3 -0.003061 -0.004824 0.011991 -0.002796 0.001859 0.004569
# 4 0.001215 0.001292 -0.002796 0.026840 -0.003899 -0.004628
# 5 -0.003657 -0.002649 0.001859 -0.003899 0.025073 0.005749
# 6 -0.003198 -0.003731 0.004569 -0.004628 0.005749 0.025091
#
#
# Mechanical properties :
#
#
# Convention : Reuss Voigt Hill
#
# Bulk Modulus (GPa) = 66.94375 71.45649 69.20012
# Shear Modulus (GPa) = 35.55566 39.98357 37.76962
#
# Velocity S-wave (km/s) = 4.03371 4.27751 4.15739
# Velocity P-wave (km/s) = 7.23387 7.55616 7.39677
#
# Compressibility (1/GPa) = 0.01493791
#
# Stress axis : x y z
#
# Youngs Moduli (GPa) = 83.31259 78.15035 83.39626
#
# Poissons Ratio (x) = 0.23760 0.25532
# Poissons Ratio (y) = 0.25330 0.40231
# Poissons Ratio (z) = 0.25506 0.37700
#
# Static dielectric constant tensor:
#      x y z
#    x 3.516230 0.395400 0.604610 
#    y 0.395400 3.947280 -0.445400 
#    z 0.604610 -0.445400 4.125380 
# 
# 
# High freq. dielectric constant tensor:
#      x y z
#    x 1.867890 0.012190 0.008670 
#    y 0.012190 1.861330 -0.006120 
#    z 0.008670 -0.006120 1.868200 
# 
# From -- ./inp_files/209130.got.cif
#   From: 2010.06.25/outbox.cif.g09.slc.cpg/sg2_105_cif.got.tgz:209130.got - 2010.06.27 13:26:56.
