data_PCOD8031865
_publ_section_title
;
Structure prediction by ZEFSAII (Michael W. Deem and Ramdas Pophale) SiO2 
 PCOD8031865
Probable space group: P -1
;
_chemical_formula_sum "Si O2"
_cell_formula_units_Z 12
_cell_length_a 16.108056
_cell_length_b 8.280815
_cell_length_c 8.723847
_cell_angle_alpha 52.066176
_cell_angle_beta 50.945243
_cell_angle_gamma 90.702586
_cell_volume 540.132482
_symmetry_space_group_name_H-M "P -1"
_symmetry_group_IT_number 2
_symmetry_cell_setting 'triclinic'
loop_
_space_group_symop_operation_xyz
x,y,z
-x,-y,-z
loop_
_atom_site_type_symbol
_atom_site_label
_atom_site_fract_x
_atom_site_fract_y
_atom_site_fract_z
Si Si1 0.659888 0.915341 0.958728
Si Si2 0.092172 0.425200 0.480662
Si Si3 0.769345 0.463420 0.441542
Si Si4 0.440674 0.458321 0.261811
Si Si5 0.620148 0.031501 0.251811
Si Si6 0.902484 0.930942 0.793367
O O1 0.794111 0.972757 0.846542
O O2 0.706673 0.161055 0.649503
O O3 0.568349 0.640360 0.129658
O O4 0.573866 0.914119 0.199852
O O5 0.104146 0.413935 0.656368
O O6 0.000000 0.500000 0.500000
O O7 0.011074 0.127189 0.685985
O O8 0.244792 0.650937 0.092914
O O9 0.655194 0.461046 0.664230
O O10 0.819182 0.628139 0.129182
O O11 0.348515 0.144025 0.595703
O O12 0.500000 0.500000 0.000000
O O13 0.500000 0.000000 0.500000
O O14 0.000000 0.000000 0.500000
#
# Coordination Sequence:
#
# PCOD8031865 Si02
#       6
#     2   2   2   2   2   2
#     4  11  25  48  68 104 149 180 240 301 351 418
#     4  11  22  48  70  99 144 182 234 290 358 420
#     4  11  24  46  72 101 141 188 235 296 353 423
#     4  12  25  43  71 106 141 189 239 291 359 425
#     4  11  24  43  75 104 139 191 230 293 358 418
#     4  12  27  43  72 103 140 191 234 294 358 426
#
# _framework density 22.216771999999999
#
# number of rings (size 3 to 8) (size 9 to 14) (size 15 to 20)
#    0.000    0.667    5.000    3.500    4.667    2.000 
#    0.000    0.000    0.000    0.000    0.000    0.000 
#    0.000    0.000    0.000    0.000    0.000    0.000 
#
# Total GULP energy -148781.085580 kJ/mol
# GULP energy per Si atom -12398.423798 kJ/mol
# Density = 2.216621 g / cm^3
# Si number density = 22.216772 Si / 1000 Ang^3
#
#
#
# Elastic Constant Matrix: (Units=GPa)
#
#
# Indices 1 2 3 4 5 6 
#
# 1 102.4045 28.5694 42.8013 0.1976 8.2630 -11.6544
# 2 28.5694 74.2738 35.2595 10.7402 2.4633 4.4136
# 3 42.8013 35.2595 122.9502 11.3333 22.4082 -6.4766
# 4 0.1976 10.7402 11.3333 44.6985 -4.2154 5.0251
# 5 8.2630 2.4633 22.4082 -4.2154 46.6983 -11.3652
# 6 -11.6544 4.4136 -6.4766 5.0251 -11.3652 41.0792
#
#
#
# Elastic Compliance Matrix: (Units=1/GPa)
#
#
# Indices 1 2 3 4 5 6 
#
# 1 0.012525 -0.003636 -0.003359 0.001339 0.000536 0.003399
# 2 -0.003636 0.017157 -0.003646 -0.002800 0.000514 -0.002965
# 3 -0.003359 -0.003646 0.011483 -0.002505 -0.004901 0.000200
# 4 0.001339 -0.002800 -0.002505 0.024153 0.002835 -0.001885
# 5 0.000536 0.000514 -0.004901 0.002835 0.025358 0.005993
# 6 0.003399 -0.002965 0.000200 -0.001885 0.005993 0.027546
#
#
# Mechanical properties :
#
#
# Convention : Reuss Voigt Hill
#
# Bulk Modulus (GPa) = 50.29709 56.98768 53.64238
# Shear Modulus (GPa) = 34.21517 39.36174 36.78846
#
# Velocity S-wave (km/s) = 3.92862 4.21374 4.07367
# Velocity P-wave (km/s) = 6.57777 7.02713 6.80616
#
# Compressibility (1/GPa) = 0.01988187
#
# Stress axis : x y z
#
# Youngs Moduli (GPa) = 79.84223 58.28391 87.08422
#
# Poissons Ratio (x) = 0.21193 0.29254
# Poissons Ratio (y) = 0.29032 0.31753
# Poissons Ratio (z) = 0.26821 0.21252
#
# Static dielectric constant tensor:
#      x y z
#    x 1.593300 -4.036380 7.788600 
#    y -4.036380 -2.192350 12.148090 
#    z 7.788600 12.148090 -19.384640 
# 
# 
# High freq. dielectric constant tensor:
#      x y z
#    x 1.882920 -0.008400 0.011290 
#    y -0.008400 1.871030 -0.011760 
#    z 0.011290 -0.011760 1.879300 
# 
# From -- ./inp_files/157789.got.cif
#   From: 2010.06.25/outbox.cif.g09.slc.cpg/sg2_79_cif.got.tgz:157789.got - 2010.06.27 13:26:56.
