data_PCOD8031898
_publ_section_title
;
Structure prediction by ZEFSAII (Michael W. Deem and Ramdas Pophale) SiO2 
 PCOD8031898
Probable space group: P -1
;
_chemical_formula_sum "Si O2"
_cell_formula_units_Z 14
_cell_length_a 25.319063
_cell_length_b 8.076891
_cell_length_c 10.745637
_cell_angle_alpha 42.817741
_cell_angle_beta 147.707038
_cell_angle_gamma 145.350044
_cell_volume 662.212990
_symmetry_space_group_name_H-M "P -1"
_symmetry_group_IT_number 2
_symmetry_cell_setting 'triclinic'
loop_
_space_group_symop_operation_xyz
x,y,z
-x,-y,-z
loop_
_atom_site_type_symbol
_atom_site_label
_atom_site_fract_x
_atom_site_fract_y
_atom_site_fract_z
Si Si1 0.361165 0.295994 0.811191
Si Si2 0.356251 0.417008 0.473726
Si Si3 0.917170 0.894643 0.205158
Si Si4 0.834216 0.739279 0.403236
Si Si5 0.292162 0.657049 0.996366
Si Si6 0.220257 0.892719 0.307946
Si Si7 0.588105 0.616387 0.725455
O O1 0.320498 0.408383 0.551110
O O2 0.285599 0.278742 0.789497
O O3 0.328865 0.982231 0.874402
O O4 0.500000 0.500000 0.000000
O O5 0.499824 0.551223 0.700050
O O6 0.281716 0.095189 0.440410
O O7 0.333237 0.629444 0.231440
O O8 0.864961 0.859980 0.258970
O O9 0.850270 0.578088 0.176695
O O10 0.057786 0.033453 0.415484
O O11 0.895742 0.111033 0.962309
O O12 0.815594 0.426401 0.551965
O O13 0.351339 0.569319 0.053334
O O14 0.312296 0.038235 0.293488
O O15 0.500000 0.500000 0.500000
#
# Coordination Sequence:
#
# PCOD8031898 Si02
#       7
#     2   2   2   2   2   2   2
#     4  12  28  34  53  92 127 150 181 233 304 346
#     4   9  20  39  57  81 115 158 191 230 280 344
#     4   9  21  42  66  80 108 155 204 234 279 333
#     4  11  23  38  57  92 119 145 189 247 283 337
#     4   9  20  41  59  81 111 158 197 229 279 346
#     4   9  18  37  66  84 106 147 205 238 276 330
#     4   7  15  31  60  78 103 150 190 223 265 330
#
# _framework density 21.141231999999999
#
# number of rings (size 3 to 8) (size 9 to 14) (size 15 to 20)
#    0.000    3.143    0.000    1.286   10.000    2.857 
#    0.000    2.857    0.000    0.000    0.000    0.000 
#    0.000    0.000    0.000    0.000    0.000    0.000 
#
# Total GULP energy -173434.550032 kJ/mol
# GULP energy per Si atom -12388.182145 kJ/mol
# Density = 2.109311 g / cm^3
# Si number density = 21.141232 Si / 1000 Ang^3
#
#
#
# Elastic Constant Matrix: (Units=GPa)
#
#
# Indices 1 2 3 4 5 6 
#
# 1 54.6633 1.6078 9.6408 2.1356 -1.0466 12.8002
# 2 1.6078 68.1434 27.8906 13.5214 5.6835 -0.2931
# 3 9.6408 27.8906 84.9937 19.7271 -0.9554 4.2753
# 4 2.1356 13.5214 19.7271 31.8922 6.3655 2.1441
# 5 -1.0466 5.6835 -0.9554 6.3655 24.6229 3.0822
# 6 12.8002 -0.2931 4.2753 2.1441 3.0822 17.0052
#
#
#
# Elastic Compliance Matrix: (Units=1/GPa)
#
#
# Indices 1 2 3 4 5 6 
#
# 1 0.022678 -0.000226 -0.001626 0.000128 0.003078 -0.017239
# 2 -0.000226 0.017865 -0.005134 -0.003840 -0.003706 0.002924
# 3 -0.001626 -0.005134 0.015681 -0.008067 0.004128 -0.002538
# 4 0.000128 -0.003840 -0.008067 0.039973 -0.009575 -0.001439
# 5 0.003078 -0.003706 0.004128 -0.009575 0.045544 -0.010466
# 6 -0.017239 0.002924 -0.002538 -0.001439 -0.010466 0.074548
#
#
# Mechanical properties :
#
#
# Convention : Reuss Voigt Hill
#
# Bulk Modulus (GPa) = 23.66730 31.78653 27.72691
# Shear Modulus (GPa) = 20.46269 25.94816 23.20543
#
# Velocity S-wave (km/s) = 3.11449 3.50719 3.31666
# Velocity P-wave (km/s) = 4.91453 5.60968 5.27357
#
# Compressibility (1/GPa) = 0.04225240
#
# Stress axis : x y z
#
# Youngs Moduli (GPa) = 44.09561 55.97418 63.77007
#
# Poissons Ratio (x) = 0.01263 0.10370
# Poissons Ratio (y) = 0.00995 0.32741
# Poissons Ratio (z) = 0.07171 0.28739
#
# Static dielectric constant tensor:
#      x y z
#    x 4.996370 1.107370 0.701090 
#    y 1.107370 4.398750 0.789220 
#    z 0.701090 0.789220 4.378770 
# 
# 
# High freq. dielectric constant tensor:
#      x y z
#    x 1.795310 0.010580 -0.018370 
#    y 0.010580 1.826250 0.015230 
#    z -0.018370 0.015230 1.837620 
# 
# From -- ./inp_files/476308.got.cif
#   From: 2010.06.25/outbox.cif.g09.slc.cpg/sg2_239_cif.got.tgz:476308.got - 2010.06.27 13:26:56.
