data_PCOD8031723
_publ_section_title
;
Structure prediction by ZEFSAII (Michael W. Deem and Ramdas Pophale) SiO2 
 PCOD8031723
Probable space group: P -1
;
_chemical_formula_sum "Si O2"
_cell_formula_units_Z 14
_cell_length_a 9.634109
_cell_length_b 9.214727
_cell_length_c 11.260568
_cell_angle_alpha 54.563602
_cell_angle_beta 119.338451
_cell_angle_gamma 131.562180
_cell_volume 600.266530
_symmetry_space_group_name_H-M "P -1"
_symmetry_group_IT_number 2
_symmetry_cell_setting 'triclinic'
loop_
_space_group_symop_operation_xyz
x,y,z
-x,-y,-z
loop_
_atom_site_type_symbol
_atom_site_label
_atom_site_fract_x
_atom_site_fract_y
_atom_site_fract_z
Si Si1 0.219709 0.713347 0.702989
Si Si2 0.395596 0.766799 0.515812
Si Si3 0.168778 0.029123 0.634878
Si Si4 0.379587 0.538915 0.021558
Si Si5 0.497191 0.432956 0.691549
Si Si6 0.024289 0.718390 0.945470
Si Si7 0.198741 0.636651 0.257791
O O1 0.253841 0.638944 0.626240
O O2 0.279339 0.957715 0.626533
O O3 0.999575 0.573748 0.701791
O O4 0.338423 0.700146 0.865599
O O5 0.517324 0.660602 0.591918
O O6 0.283975 0.764477 0.354248
O O7 0.500000 0.000000 0.500000
O O8 0.100874 0.888938 0.792732
O O9 0.307652 0.270253 0.617989
O O10 0.000000 0.000000 0.500000
O O11 0.510065 0.646262 0.140394
O O12 0.179132 0.326942 0.074604
O O13 0.500000 0.500000 0.000000
O O14 0.677280 0.452354 0.696853
O O15 0.000000 0.500000 0.000000
O O16 0.173170 0.790091 0.084125
#
# Coordination Sequence:
#
# PCOD8031723 Si02
#       7
#     2   2   2   2   2   2   2
#     4  11  23  46  71 104 149 191 229 307 359 417
#     4  12  27  44  67 103 146 196 239 300 362 421
#     4  12  26  46  76 111 146 185 246 297 356 430
#     4  11  22  45  74 101 147 184 243 296 354 426
#     4  12  25  43  74 103 141 189 246 294 358 425
#     4  11  22  46  76 102 142 194 234 298 356 423
#     4  11  23  45  74 103 141 188 249 285 358 434
#
# _framework density 23.322972
#
# number of rings (size 3 to 8) (size 9 to 14) (size 15 to 20)
#    0.000    0.571    5.714    2.571    0.000    6.857 
#    0.000    0.714    0.000    0.000    0.000    0.000 
#    0.000    0.000    0.000    0.000    0.000    0.000 
#
# Total GULP energy -173522.438039 kJ/mol
# GULP energy per Si atom -12394.459860 kJ/mol
# Density = 2.326989 g / cm^3
# Si number density = 23.322972 Si / 1000 Ang^3
#
#
#
# Elastic Constant Matrix: (Units=GPa)
#
#
# Indices 1 2 3 4 5 6 
#
# 1 130.9546 42.2511 36.9026 12.2448 9.9194 -8.1361
# 2 42.2511 108.1157 52.7465 19.0513 20.8422 -16.9627
# 3 36.9026 52.7465 174.7980 41.7283 8.1541 -11.8100
# 4 12.2448 19.0513 41.7283 49.4950 -3.9391 -3.3243
# 5 9.9194 20.8422 8.1541 -3.9391 39.9507 6.8374
# 6 -8.1361 -16.9627 -11.8100 -3.3243 6.8374 29.8798
#
#
#
# Elastic Compliance Matrix: (Units=1/GPa)
#
#
# Indices 1 2 3 4 5 6 
#
# 1 0.008901 -0.002725 -0.000873 -0.000434 -0.000766 0.000658
# 2 -0.002725 0.014905 -0.002161 -0.003346 -0.008429 0.008422
# 3 -0.000873 -0.002161 0.008073 -0.005756 -0.001100 0.001338
# 4 -0.000434 -0.003346 -0.005756 0.026758 0.006132 -0.002719
# 5 -0.000766 -0.008429 -0.001100 0.006132 0.032534 -0.012191
# 6 0.000658 0.008422 0.001338 -0.002719 -0.012191 0.041443
#
#
# Mechanical properties :
#
#
# Convention : Reuss Voigt Hill
#
# Bulk Modulus (GPa) = 49.11669 75.29652 62.20661
# Shear Modulus (GPa) = 33.13029 42.66299 37.89664
#
# Velocity S-wave (km/s) = 3.77304 4.28159 4.03533
# Velocity P-wave (km/s) = 6.33137 7.53638 6.96000
#
# Compressibility (1/GPa) = 0.02035968
#
# Stress axis : x y z
#
# Youngs Moduli (GPa) = 112.34736 67.09335 123.86669
#
# Poissons Ratio (x) = 0.18284 0.10814
# Poissons Ratio (y) = 0.30617 0.26771
# Poissons Ratio (z) = 0.09808 0.14501
#
# Static dielectric constant tensor:
#      x y z
#    x 4.837390 -0.254650 -0.706980 
#    y -0.254650 3.663570 -0.304310 
#    z -0.706980 -0.304310 3.717370 
# 
# 
# High freq. dielectric constant tensor:
#      x y z
#    x 1.938790 0.001520 -0.009740 
#    y 0.001520 1.893300 0.015670 
#    z -0.009740 0.015670 1.953810 
# 
# From -- ./inp_files/381503.got.cif
#   From: 2010.06.25/outbox.cif.g09.slc.cpg/sg2_191_cif.got.tgz:381503.got - 2010.06.27 13:26:56.
