data_PCOD8031026
_publ_section_title
;
Structure prediction by ZEFSAII (Michael W. Deem and Ramdas Pophale) SiO2 
 PCOD8031026
Probable space group: P -1
;
_chemical_formula_sum "Si O2"
_cell_formula_units_Z 14
_cell_length_a 10.328734
_cell_length_b 9.407935
_cell_length_c 16.616588
_cell_angle_alpha 104.107327
_cell_angle_beta 137.754270
_cell_angle_gamma 44.470183
_cell_volume 606.019323
_symmetry_space_group_name_H-M "P -1"
_symmetry_group_IT_number 2
_symmetry_cell_setting 'triclinic'
loop_
_space_group_symop_operation_xyz
x,y,z
-x,-y,-z
loop_
_atom_site_type_symbol
_atom_site_label
_atom_site_fract_x
_atom_site_fract_y
_atom_site_fract_z
Si Si1 0.311551 0.905433 0.106372
Si Si2 0.643726 0.169418 0.494234
Si Si3 0.430328 0.310479 0.122212
Si Si4 0.288159 0.578180 0.700201
Si Si5 0.709104 0.760595 0.799375
Si Si6 0.233275 0.041691 0.906869
Si Si7 0.472238 0.477032 0.596634
O O1 0.649224 0.605115 0.243208
O O2 0.312013 0.051203 0.180183
O O3 0.325581 0.926787 0.021366
O O4 0.000000 0.000000 0.000000
O O5 0.387429 0.231773 0.332795
O O6 0.479611 0.326587 0.523942
O O7 0.746159 0.255609 0.506103
O O8 0.955958 0.870049 0.613854
O O9 0.402896 0.500106 0.155670
O O10 0.522170 0.164645 0.226068
O O11 0.719802 0.111685 0.160998
O O12 0.082760 0.468297 0.947535
O O13 0.285817 0.538457 0.599377
O O14 0.838181 0.323922 0.760386
O O15 0.500000 0.000000 0.000000
#
# Coordination Sequence:
#
# PCOD8031026 Si02
#       7
#     2   2   2   2   2   2   2
#     4  12  25  45  72 101 146 186 227 297 362 405
#     4  11  25  42  71 103 143 188 236 282 351 428
#     4  11  22  41  73 103 137 176 243 296 341 408
#     4  12  24  46  71 101 144 187 231 288 360 415
#     4  11  23  44  69 104 139 187 234 290 348 417
#     4  12  23  42  73 111 134 178 247 291 339 420
#     4  11  23  43  72 105 140 184 237 292 346 418
#
# _framework density 23.101572999999998
#
# number of rings (size 3 to 8) (size 9 to 14) (size 15 to 20)
#    0.000    0.571    7.143    1.286    0.000    1.143 
#    5.143    0.714    0.000    0.000    0.000    0.000 
#    0.000    0.000    0.000    0.000    0.000    0.000 
#
# Total GULP energy -173571.178621 kJ/mol
# GULP energy per Si atom -12397.941330 kJ/mol
# Density = 2.304899 g / cm^3
# Si number density = 23.101573 Si / 1000 Ang^3
#
#
#
# Elastic Constant Matrix: (Units=GPa)
#
#
# Indices 1 2 3 4 5 6 
#
# 1 74.6144 27.5324 1.8589 2.3908 -21.2130 3.3454
# 2 27.5324 126.9087 30.4379 4.5695 -11.2050 1.7777
# 3 1.8589 30.4379 69.1825 4.5900 -11.0997 5.9685
# 4 2.3908 4.5695 4.5900 53.5914 1.4091 -5.8985
# 5 -21.2130 -11.2050 -11.0997 1.4091 32.7376 0.7437
# 6 3.3454 1.7777 5.9685 -5.8985 0.7437 35.5445
#
#
#
# Elastic Compliance Matrix: (Units=1/GPa)
#
#
# Indices 1 2 3 4 5 6 
#
# 1 0.018154 -0.003605 0.003298 -0.001376 0.011765 -0.002556
# 2 -0.003605 0.009640 -0.004254 -0.000224 -0.000482 0.000544
# 3 0.003298 -0.004254 0.017769 -0.001876 0.006866 -0.003536
# 4 -0.001376 -0.000224 -0.001876 0.019377 -0.002523 0.003724
# 5 0.011765 -0.000482 0.006866 -0.002523 0.040520 -0.003503
# 6 -0.002556 0.000544 -0.003536 0.003724 -0.003503 0.029632
#
#
# Mechanical properties :
#
#
# Convention : Reuss Voigt Hill
#
# Bulk Modulus (GPa) = 27.44252 43.37378 35.40815
# Shear Modulus (GPa) = 31.97723 38.43312 35.20518
#
# Velocity S-wave (km/s) = 3.72452 4.08322 3.90799
# Velocity P-wave (km/s) = 5.51371 6.40674 5.97692
#
# Compressibility (1/GPa) = 0.03643980
#
# Stress axis : x y z
#
# Youngs Moduli (GPa) = 55.08493 103.73463 56.27898
#
# Poissons Ratio (x) = 0.37399 -0.18559
# Poissons Ratio (y) = 0.19860 0.23940
# Poissons Ratio (z) = -0.18166 0.44126
#
# Static dielectric constant tensor:
#      x y z
#    x 5.333880 -0.171290 -0.314790 
#    y -0.171290 4.425930 0.125200 
#    z -0.314790 0.125200 4.308730 
# 
# 
# High freq. dielectric constant tensor:
#      x y z
#    x 1.879170 -0.013420 -0.007170 
#    y -0.013420 1.931480 0.008140 
#    z -0.007170 0.008140 1.920900 
# 
# From -- ./inp_files/566788.got.cif
#   From: 2010.06.25/outbox.cif.g09.slc.cpg/sg2_284_cif.got.tgz:566788.got - 2010.06.27 13:26:56.
