data_PCOD8031681
_publ_section_title
;
Structure prediction by ZEFSAII (Michael W. Deem and Ramdas Pophale) SiO2 
 PCOD8031681
Probable space group: P -1
;
_chemical_formula_sum "Si O2"
_cell_formula_units_Z 16
_cell_length_a 14.087944
_cell_length_b 11.120166
_cell_length_c 9.393937
_cell_angle_alpha 76.112458
_cell_angle_beta 83.858205
_cell_angle_gamma 29.792713
_cell_volume 694.005870
_symmetry_space_group_name_H-M "P -1"
_symmetry_group_IT_number 2
_symmetry_cell_setting 'triclinic'
loop_
_space_group_symop_operation_xyz
x,y,z
-x,-y,-z
loop_
_atom_site_type_symbol
_atom_site_label
_atom_site_fract_x
_atom_site_fract_y
_atom_site_fract_z
Si Si1 0.684292 0.630500 0.876230
Si Si2 0.826301 0.987167 0.320834
Si Si3 0.355799 0.397593 0.797035
Si Si4 0.249342 0.175095 0.134298
Si Si5 0.986052 0.350665 0.348087
Si Si6 0.888572 0.178144 0.828575
Si Si7 0.767812 0.833649 0.188980
Si Si8 0.524090 0.469880 0.673920
O O1 0.795815 0.636814 0.849212
O O2 0.769600 0.439477 0.801621
O O3 0.458408 0.914533 0.805315
O O4 0.716690 0.529505 0.051175
O O5 0.840914 0.887473 0.204693
O O6 0.895396 0.824673 0.485032
O O7 0.953265 0.966827 0.277246
O O8 0.605351 0.276609 0.306301
O O9 0.167350 0.585814 0.676921
O O10 0.451637 0.420926 0.753563
O O11 0.517689 0.110115 0.819037
O O12 0.137966 0.197231 0.237240
O O13 0.179599 0.249229 0.960895
O O14 0.873281 0.606204 0.326163
O O15 0.744769 0.240080 0.761484
O O16 0.000000 0.000000 0.000000
O O17 0.500000 0.500000 0.500000
#
# Coordination Sequence:
#
# PCOD8031681 Si02
#       8
#     2   2   2   2   2   2   2   2
#     4  11  22  45  73 105 140 184 234 299 352 419
#     4  12  28  46  71 105 146 186 238 298 356 425
#     4  11  24  41  72 101 141 185 240 290 350 421
#     4  11  23  43  74 106 140 189 234 294 357 427
#     4  12  24  43  71 107 142 191 234 286 360 433
#     4  12  29  48  77 107 140 190 246 299 356 423
#     4  11  22  45  71 104 147 182 236 293 355 425
#     4  12  28  52  71 101 148 194 237 298 365 426
#
# _framework density 23.054558
#
# number of rings (size 3 to 8) (size 9 to 14) (size 15 to 20)
#    0.000    0.500    3.750    4.500    5.250    5.000 
#    0.000    1.250    0.000    0.000    0.000    0.000 
#    0.000    0.000    0.000    0.000    0.000    0.000 
#
# Total GULP energy -198460.424194 kJ/mol
# GULP energy per Si atom -12403.776512 kJ/mol
# Density = 2.300209 g / cm^3
# Si number density = 23.054558 Si / 1000 Ang^3
#
#
#
# Elastic Constant Matrix: (Units=GPa)
#
#
# Indices 1 2 3 4 5 6 
#
# 1 148.7104 15.3117 44.8825 0.3384 5.1205 -13.2285
# 2 15.3117 59.7856 17.9584 0.8676 -0.7533 -4.9011
# 3 44.8825 17.9584 96.0700 -10.9246 -12.9392 -9.1213
# 4 0.3384 0.8676 -10.9246 29.5667 1.8555 2.4550
# 5 5.1205 -0.7533 -12.9392 1.8555 34.4372 -3.7439
# 6 -13.2285 -4.9011 -9.1213 2.4550 -3.7439 35.4970
#
#
#
# Elastic Compliance Matrix: (Units=1/GPa)
#
#
# Indices 1 2 3 4 5 6 
#
# 1 0.008280 -0.000760 -0.004072 -0.001568 -0.002500 0.001779
# 2 -0.000760 0.018002 -0.003127 -0.001772 -0.000412 0.001478
# 3 -0.004072 -0.003127 0.014449 0.004936 0.005923 0.002047
# 4 -0.001568 -0.001772 0.004936 0.035893 -0.000108 -0.002054
# 5 -0.002500 -0.000412 0.005923 -0.000108 0.032059 0.003922
# 6 0.001779 0.001478 0.002047 -0.002054 0.003922 0.030120
#
#
# Mechanical properties :
#
#
# Convention : Reuss Voigt Hill
#
# Bulk Modulus (GPa) = 40.30126 51.20791 45.75458
# Shear Modulus (GPa) = 30.67646 34.99440 32.83543
#
# Velocity S-wave (km/s) = 3.65170 3.90024 3.77802
# Velocity P-wave (km/s) = 5.94127 6.52245 6.23863
#
# Compressibility (1/GPa) = 0.02481312
#
# Stress axis : x y z
#
# Youngs Moduli (GPa) = 120.77792 55.54943 69.20767
#
# Poissons Ratio (x) = 0.04223 0.28182
# Poissons Ratio (y) = 0.09182 0.21638
# Poissons Ratio (z) = 0.49182 0.17368
#
# Static dielectric constant tensor:
#      x y z
#    x 4.240530 -0.044080 0.023770 
#    y -0.044080 4.378040 -0.084610 
#    z 0.023770 -0.084610 3.940100 
# 
# 
# High freq. dielectric constant tensor:
#      x y z
#    x 1.925030 -0.005530 0.000220 
#    y -0.005530 1.929930 -0.008620 
#    z 0.000220 -0.008620 1.894690 
# 
# From -- ./inp_files/307030.got.cif
#   From: 2010.06.25/outbox.cif.g09.slc.cpg/sg2_154_cif.got.tgz:307030.got - 2010.06.27 13:26:56.
