data_PCOD8031794
_publ_section_title
;
Structure prediction by ZEFSAII (Michael W. Deem and Ramdas Pophale) SiO2 
 PCOD8031794
Probable space group: P -1
;
_chemical_formula_sum "Si O2"
_cell_formula_units_Z 16
_cell_length_a 11.448417
_cell_length_b 8.342307
_cell_length_c 16.847162
_cell_angle_alpha 33.590768
_cell_angle_beta 127.047251
_cell_angle_gamma 126.677240
_cell_volume 693.706222
_symmetry_space_group_name_H-M "P -1"
_symmetry_group_IT_number 2
_symmetry_cell_setting 'triclinic'
loop_
_space_group_symop_operation_xyz
x,y,z
-x,-y,-z
loop_
_atom_site_type_symbol
_atom_site_label
_atom_site_fract_x
_atom_site_fract_y
_atom_site_fract_z
Si Si1 0.680834 0.366212 0.925669
Si Si2 0.827606 0.663054 0.719869
Si Si3 0.668455 0.609182 0.993088
Si Si4 0.364213 0.753053 0.303086
Si Si5 0.647335 0.712120 0.218827
Si Si6 0.890905 0.354680 0.444896
Si Si7 0.689296 0.759675 0.399311
Si Si8 0.093907 0.661361 0.716554
O O1 0.818442 0.552379 0.853301
O O2 0.698252 0.448301 0.990959
O O3 0.526779 0.442456 0.798778
O O4 0.680511 0.019341 0.056370
O O5 0.679246 0.477258 0.692522
O O6 0.968416 0.582828 0.765216
O O7 0.832033 0.009370 0.580523
O O8 0.709226 0.963088 0.850915
O O9 0.500000 0.500000 0.000000
O O10 0.780902 0.528738 0.137386
O O11 0.543389 0.860685 0.332147
O O12 0.308781 0.575591 0.434743
O O13 0.745346 0.491040 0.318190
O O14 0.695552 0.788254 0.296693
O O15 0.974625 0.410018 0.370735
O O16 0.000000 0.500000 0.500000
O O17 0.833838 0.985941 0.399965
#
# Coordination Sequence:
#
# PCOD8031794 Si02
#       8
#     2   2   2   2   2   2   2   2
#     4  11  26  46  72 114 152 188 247 308 365 436
#     4  12  28  48  70 110 152 191 244 306 367 440
#     4  12  25  47  79 109 145 197 249 301 369 441
#     4  11  25  43  75 109 145 187 252 303 361 434
#     4  11  24  46  76 104 150 195 242 307 373 425
#     4  12  29  48  76 107 148 198 248 301 375 443
#     4  11  22  46  73 108 144 195 241 306 364 435
#     4  12  26  49  75 103 152 199 244 300 375 442
#
# _framework density 23.064519000000001
#
# number of rings (size 3 to 8) (size 9 to 14) (size 15 to 20)
#    0.000    0.500    5.000    1.875    7.000    1.500 
#    0.000    0.000    0.000    0.000    0.000    0.000 
#    0.000    0.000    0.000    0.000    0.000    0.000 
#
# Total GULP energy -198453.965478 kJ/mol
# GULP energy per Si atom -12403.372842 kJ/mol
# Density = 2.301202 g / cm^3
# Si number density = 23.064519 Si / 1000 Ang^3
#
#
#
# Elastic Constant Matrix: (Units=GPa)
#
#
# Indices 1 2 3 4 5 6 
#
# 1 131.1502 25.9794 58.9462 2.1835 -18.6289 3.8560
# 2 25.9794 103.0841 27.6553 5.0473 -6.7900 -8.2995
# 3 58.9462 27.6553 141.2284 -19.1634 1.0318 -6.4644
# 4 2.1835 5.0473 -19.1634 39.0377 -7.8065 -6.1445
# 5 -18.6289 -6.7900 1.0318 -7.8065 39.7347 1.6758
# 6 3.8560 -8.2995 -6.4644 -6.1445 1.6758 24.8759
#
#
#
# Elastic Compliance Matrix: (Units=1/GPa)
#
#
# Indices 1 2 3 4 5 6 
#
# 1 0.010925 -0.001361 -0.004877 -0.002578 0.004694 -0.004368
# 2 -0.001361 0.010849 -0.001628 -0.001488 0.000840 0.002983
# 3 -0.004877 -0.001628 0.010465 0.005962 -0.001856 0.004530
# 4 -0.002578 -0.001488 0.005962 0.031097 0.004118 0.008856
# 5 0.004694 0.000840 -0.001856 0.004118 0.028445 -0.001829
# 6 -0.004368 0.002983 0.004530 0.008856 -0.001829 0.045360
#
#
# Mechanical properties :
#
#
# Convention : Reuss Voigt Hill
#
# Bulk Modulus (GPa) = 60.58287 66.73606 63.65947
# Shear Modulus (GPa) = 31.57050 38.25513 34.91281
#
# Velocity S-wave (km/s) = 3.70373 4.07703 3.89485
# Velocity P-wave (km/s) = 6.67936 7.15263 6.92005
#
# Compressibility (1/GPa) = 0.01650632
#
# Stress axis : x y z
#
# Youngs Moduli (GPa) = 91.53652 92.17504 95.55526
#
# Poissons Ratio (x) = 0.12545 0.46605
# Poissons Ratio (y) = 0.12458 0.15555
# Poissons Ratio (z) = 0.44645 0.15005
#
# Static dielectric constant tensor:
#      x y z
#    x 4.218990 -0.019170 -0.032100 
#    y -0.019170 4.087330 0.029220 
#    z -0.032100 0.029220 4.395740 
# 
# 
# High freq. dielectric constant tensor:
#      x y z
#    x 1.912390 -0.001650 -0.004720 
#    y -0.001650 1.904400 0.005130 
#    z -0.004720 0.005130 1.928790 
# 
# From -- ./inp_files/392858.got.cif
#   From: 2010.06.25/outbox.cif.g09.slc.cpg/sg2_197_cif.got.tgz:392858.got - 2010.06.27 13:26:56.
