data_PCOD8031220
_publ_section_title
;
Structure prediction by ZEFSAII (Michael W. Deem and Ramdas Pophale) SiO2 
 PCOD8031220
Probable space group: P -1
;
_chemical_formula_sum "Si O2"
_cell_formula_units_Z 14
_cell_length_a 13.813500
_cell_length_b 11.380250
_cell_length_c 11.457163
_cell_angle_alpha 137.559914
_cell_angle_beta 130.380162
_cell_angle_gamma 31.057461
_cell_volume 626.387771
_symmetry_space_group_name_H-M "P -1"
_symmetry_group_IT_number 2
_symmetry_cell_setting 'triclinic'
loop_
_space_group_symop_operation_xyz
x,y,z
-x,-y,-z
loop_
_atom_site_type_symbol
_atom_site_label
_atom_site_fract_x
_atom_site_fract_y
_atom_site_fract_z
Si Si1 0.478102 0.321376 0.327843
Si Si2 0.946740 0.244536 0.680253
Si Si3 0.152054 0.452763 0.660166
Si Si4 0.617417 0.463720 0.171368
Si Si5 0.499177 0.858605 0.537865
Si Si6 0.260669 0.980458 0.904081
Si Si7 0.126885 0.385615 0.268442
O O1 0.500000 0.500000 0.500000
O O2 0.264297 0.509602 0.266209
O O3 0.540704 0.156346 0.371603
O O4 0.594291 0.137398 0.173786
O O5 0.985643 0.337979 0.672661
O O6 0.000000 0.000000 0.500000
O O7 0.055899 0.174717 0.831657
O O8 0.203083 0.600853 0.777014
O O9 0.000000 0.500000 0.500000
O O10 0.037362 0.573817 0.781507
O O11 0.353158 0.154171 0.604915
O O12 0.476187 0.720317 0.329337
O O13 0.698037 0.230568 0.143173
O O14 0.500000 0.500000 0.000000
O O15 0.718487 0.701723 0.579313
O O16 0.260769 0.150326 0.109114
#
# Coordination Sequence:
#
# PCOD8031220 Si02
#       7
#     2   2   2   2   2   2   2
#     4  11  22  42  73 102 133 190 224 292 374 417
#     4  11  23  41  72 104 142 179 237 293 357 431
#     4  12  27  45  74  99 140 201 241 285 362 423
#     4  12  27  47  73 105 145 193 244 300 354 423
#     4  11  24  48  72 100 147 182 242 297 356 435
#     4  12  25  44  69 105 146 177 243 300 352 428
#     4  11  26  46  70 108 144 188 235 301 365 427
#
# _framework density 22.350372
#
# number of rings (size 3 to 8) (size 9 to 14) (size 15 to 20)
#    0.000    0.571    4.286    3.429    2.000    5.143 
#    0.000    0.000    0.000    0.000    0.000    0.000 
#    0.000    0.000    0.000    0.000    0.000    0.000 
#
# Total GULP energy -173570.914531 kJ/mol
# GULP energy per Si atom -12397.922466 kJ/mol
# Density = 2.229950 g / cm^3
# Si number density = 22.350372 Si / 1000 Ang^3
#
#
#
# Elastic Constant Matrix: (Units=GPa)
#
#
# Indices 1 2 3 4 5 6 
#
# 1 148.6845 46.5958 37.9775 -0.4159 1.5604 4.2453
# 2 46.5958 122.5367 34.3010 -14.4023 -4.8477 16.5260
# 3 37.9775 34.3010 119.7948 0.0313 -8.1331 -4.0733
# 4 -0.4159 -14.4023 0.0313 45.5631 -4.3559 4.5752
# 5 1.5604 -4.8477 -8.1331 -4.3559 32.4019 4.9326
# 6 4.2453 16.5260 -4.0733 4.5752 4.9326 34.7612
#
#
#
# Elastic Compliance Matrix: (Units=1/GPa)
#
#
# Indices 1 2 3 4 5 6 
#
# 1 0.008070 -0.002791 -0.001843 -0.000995 -0.001473 0.000465
# 2 -0.002791 0.011387 -0.002402 0.004480 0.002803 -0.006342
# 3 -0.001843 -0.002402 0.009818 -0.000859 0.001715 0.002387
# 4 -0.000995 0.004480 -0.000859 0.024405 0.004695 -0.005988
# 5 -0.001473 0.002803 0.001715 0.004695 0.033374 -0.006305
# 6 0.000465 -0.006342 0.002387 -0.005988 -0.006305 0.033688
#
#
# Mechanical properties :
#
#
# Convention : Reuss Voigt Hill
#
# Bulk Modulus (GPa) = 65.77890 69.86272 67.82081
# Shear Modulus (GPa) = 35.74390 40.68802 38.21596
#
# Velocity S-wave (km/s) = 4.00340 4.27132 4.13953
# Velocity P-wave (km/s) = 7.13192 7.45998 7.29780
#
# Compressibility (1/GPa) = 0.01520244
#
# Stress axis : x y z
#
# Youngs Moduli (GPa) = 123.90807 87.81713 101.85712
#
# Poissons Ratio (x) = 0.24508 0.18776
# Poissons Ratio (y) = 0.34581 0.24469
# Poissons Ratio (z) = 0.22841 0.21096
#
# Static dielectric constant tensor:
#      x y z
#    x 4.465590 0.101050 -0.398670 
#    y 0.101050 4.126590 -0.097590 
#    z -0.398670 -0.097590 4.399880 
# 
# 
# High freq. dielectric constant tensor:
#      x y z
#    x 1.897170 0.008380 -0.003400 
#    y 0.008380 1.890400 -0.003170 
#    z -0.003400 -0.003170 1.883120 
# 
# From -- ./inp_files/451937.got.cif
#   From: 2010.06.25/outbox.cif.g09.slc.cpg/sg2_226_cif.got.tgz:451937.got - 2010.06.27 13:26:56.
