data_PCOD8031221
_publ_section_title
;
Structure prediction by ZEFSAII (Michael W. Deem and Ramdas Pophale) SiO2 
 PCOD8031221
Probable space group: P -1
;
_chemical_formula_sum "Si O2"
_cell_formula_units_Z 14
_cell_length_a 9.807765
_cell_length_b 21.242380
_cell_length_c 11.927389
_cell_angle_alpha 138.788174
_cell_angle_beta 121.623406
_cell_angle_gamma 27.326888
_cell_volume 660.943943
_symmetry_space_group_name_H-M "P -1"
_symmetry_group_IT_number 2
_symmetry_cell_setting 'triclinic'
loop_
_space_group_symop_operation_xyz
x,y,z
-x,-y,-z
loop_
_atom_site_type_symbol
_atom_site_label
_atom_site_fract_x
_atom_site_fract_y
_atom_site_fract_z
Si Si1 0.090277 0.406400 0.095385
Si Si2 0.092465 0.803624 0.998315
Si Si3 0.158952 0.125506 0.549736
Si Si4 0.897870 0.302034 0.915874
Si Si5 0.311571 0.840648 0.833106
Si Si6 0.522527 0.757169 0.173129
Si Si7 0.452880 0.561168 0.437301
O O1 0.335579 0.337582 0.188066
O O2 0.736033 0.643614 0.229254
O O3 0.264517 0.299043 0.905852
O O4 0.006327 0.353570 0.053634
O O5 0.967506 0.832512 0.103620
O O6 0.404798 0.713901 0.025482
O O7 0.218230 0.645687 0.768336
O O8 0.769614 0.024536 0.097993
O O9 0.070236 0.178597 0.711773
O O10 0.866446 0.319943 0.603184
O O11 0.500000 0.000000 0.500000
O O12 0.193392 0.993874 0.367754
O O13 0.500000 0.500000 0.000000
O O14 0.374566 0.715367 0.614354
O O15 0.000000 0.000000 0.000000
O O16 0.500000 0.500000 0.500000
#
# Coordination Sequence:
#
# PCOD8031221 Si02
#       7
#     2   2   2   2   2   2   2
#     4  11  23  43  69 101 139 184 229 293 347 417
#     4  12  25  46  71 101 142 190 228 293 357 411
#     4  12  25  42  73 108 135 183 246 284 345 422
#     4  12  25  46  70 101 148 180 231 301 355 402
#     4  12  24  44  69 103 143 183 235 288 350 426
#     4  11  22  42  73 102 134 180 246 288 336 415
#     4  12  24  41  70 104 139 181 232 287 351 415
#
# _framework density 21.181827999999999
#
# number of rings (size 3 to 8) (size 9 to 14) (size 15 to 20)
#    0.000    0.286    8.571    0.000    4.000    1.143 
#    2.571    0.714    0.000    0.000    0.000    0.000 
#    0.000    0.000    0.000    0.000    0.000    0.000 
#
# Total GULP energy -173541.656928 kJ/mol
# GULP energy per Si atom -12395.832638 kJ/mol
# Density = 2.113362 g / cm^3
# Si number density = 21.181828 Si / 1000 Ang^3
#
#
#
# Elastic Constant Matrix: (Units=GPa)
#
#
# Indices 1 2 3 4 5 6 
#
# 1 122.4849 33.1772 35.9344 -5.0313 -9.2600 22.7099
# 2 33.1772 136.2489 22.1150 -3.7281 -0.0989 27.8107
# 3 35.9344 22.1150 127.7181 0.9718 2.8883 12.9833
# 4 -5.0313 -3.7281 0.9718 25.2250 7.6718 2.2887
# 5 -9.2600 -0.0989 2.8883 7.6718 32.7062 -4.5201
# 6 22.7099 27.8107 12.9833 2.2887 -4.5201 45.5685
#
#
#
# Elastic Compliance Matrix: (Units=1/GPa)
#
#
# Indices 1 2 3 4 5 6 
#
# 1 0.010067 -0.001338 -0.002317 0.001532 0.002222 -0.003397
# 2 -0.001338 0.008791 -0.000646 0.001914 -0.001401 -0.004749
# 3 -0.002317 -0.000646 0.008739 -0.000341 -0.001498 -0.001072
# 4 0.001532 0.001914 -0.000341 0.043909 -0.010533 -0.005084
# 5 0.002222 -0.001401 -0.001498 -0.010533 0.034371 0.004113
# 6 -0.003397 -0.004749 -0.001072 -0.005084 0.004113 0.027505
#
#
# Mechanical properties :
#
#
# Convention : Reuss Voigt Hill
#
# Bulk Modulus (GPa) = 52.64746 63.21167 57.92957
# Shear Modulus (GPa) = 33.71137 40.38164 37.04650
#
# Velocity S-wave (km/s) = 3.99372 4.37100 4.18661
# Velocity P-wave (km/s) = 6.79524 7.44187 7.12590
#
# Compressibility (1/GPa) = 0.01899427
#
# Stress axis : x y z
#
# Youngs Moduli (GPa) = 99.33066 113.75278 114.42885
#
# Poissons Ratio (x) = 0.15225 0.26518
# Poissons Ratio (y) = 0.13295 0.07389
# Poissons Ratio (z) = 0.23019 0.07345
#
# Static dielectric constant tensor:
#      x y z
#    x 3.740930 0.241420 0.237200 
#    y 0.241420 4.041280 0.039260 
#    z 0.237200 0.039260 3.966490 
# 
# 
# High freq. dielectric constant tensor:
#      x y z
#    x 1.818990 0.015930 0.014760 
#    y 0.015930 1.845710 0.000000 
#    z 0.014760 0.000000 1.824380 
# 
# From -- ./inp_files/319549.got.cif
#   From: 2010.06.25/outbox.cif.g09.slc.cpg/sg2_160_cif.got.tgz:319549.got - 2010.06.27 13:26:56.
