data_PCOD8031002
_publ_section_title
;
Structure prediction by ZEFSAII (Michael W. Deem and Ramdas Pophale) SiO2 
 PCOD8031002
Probable space group: P -1
;
_chemical_formula_sum "Si O2"
_cell_formula_units_Z 14
_cell_length_a 9.070046
_cell_length_b 23.569391
_cell_length_c 8.988939
_cell_angle_alpha 38.089020
_cell_angle_beta 48.693646
_cell_angle_gamma 32.286665
_cell_volume 633.114979
_symmetry_space_group_name_H-M "P -1"
_symmetry_group_IT_number 2
_symmetry_cell_setting 'triclinic'
loop_
_space_group_symop_operation_xyz
x,y,z
-x,-y,-z
loop_
_atom_site_type_symbol
_atom_site_label
_atom_site_fract_x
_atom_site_fract_y
_atom_site_fract_z
Si Si1 0.373019 0.626307 0.492203
Si Si2 0.753159 0.823234 0.956162
Si Si3 0.855963 0.243502 0.911269
Si Si4 0.106535 0.423763 0.738485
Si Si5 0.153174 0.788020 0.572568
Si Si6 0.146180 0.987295 0.077321
Si Si7 0.430055 0.419508 0.051015
O O1 0.228889 0.654168 0.371394
O O2 0.634010 0.603600 0.324681
O O3 0.151867 0.758505 0.461899
O O4 0.458281 0.509019 0.769411
O O5 0.810580 0.707787 0.076946
O O6 0.911562 0.781957 0.092973
O O7 0.429728 0.946707 0.937493
O O8 0.858871 0.866777 0.682579
O O9 0.589430 0.301380 0.070284
O O10 0.953375 0.117072 0.033282
O O11 0.000000 0.500000 0.500000
O O12 0.882876 0.503196 0.858327
O O13 0.390940 0.645506 0.782832
O O14 0.219727 0.874237 0.363158
O O15 0.000000 0.000000 0.000000
#
# Coordination Sequence:
#
# PCOD8031002 Si02
#       7
#     2   2   2   2   2   2   2
#     4  12  22  44  66 101 137 174 221 273 331 397
#     4  11  24  42  69  98 129 177 224 271 333 390
#     4  11  26  43  66 101 140 174 217 282 335 384
#     4  12  21  38  71  96 130 179 223 262 332 399
#     4  11  22  41  71  95 128 178 226 267 325 397
#     4  12  24  48  70  94 134 174 229 273 326 402
#     4  11  24  41  68 103 136 173 222 276 331 395
#
# _framework density 22.112888999999999
#
# number of rings (size 3 to 8) (size 9 to 14) (size 15 to 20)
#    0.000    0.571    5.714    3.000    0.000    3.429 
#    0.000    5.714    0.000    0.000    0.000    0.000 
#    0.000    0.000    0.000    0.000    0.000    0.000 
#
# Total GULP energy -173563.909560 kJ/mol
# GULP energy per Si atom -12397.422111 kJ/mol
# Density = 2.206256 g / cm^3
# Si number density = 22.112889 Si / 1000 Ang^3
#
#
#
# Elastic Constant Matrix: (Units=GPa)
#
#
# Indices 1 2 3 4 5 6 
#
# 1 107.8945 68.0430 41.0113 16.4628 7.7302 -10.5905
# 2 68.0430 170.5712 46.7893 27.2765 -2.8894 11.3777
# 3 41.0113 46.7893 89.5094 18.6657 0.5483 -8.1760
# 4 16.4628 27.2765 18.6657 37.3591 -0.7632 -4.4838
# 5 7.7302 -2.8894 0.5483 -0.7632 34.5310 1.7481
# 6 -10.5905 11.3777 -8.1760 -4.4838 1.7481 28.5631
#
#
#
# Elastic Compliance Matrix: (Units=1/GPa)
#
#
# Indices 1 2 3 4 5 6 
#
# 1 0.015091 -0.005656 -0.003254 -0.000122 -0.004165 0.007152
# 2 -0.005656 0.010061 -0.002444 -0.004502 0.002435 -0.007660
# 3 -0.003254 -0.002444 0.015069 -0.003894 0.000023 0.003468
# 4 -0.000122 -0.004502 -0.003894 0.032749 0.000144 0.005766
# 5 -0.004165 0.002435 0.000023 0.000144 0.030318 -0.004340
# 6 0.007152 -0.007660 0.003468 0.005766 -0.004340 0.042877
#
#
# Mechanical properties :
#
#
# Convention : Reuss Voigt Hill
#
# Bulk Modulus (GPa) = 57.09451 75.51804 66.30627
# Shear Modulus (GPa) = 28.61908 34.23274 31.42591
#
# Velocity S-wave (km/s) = 3.60144 3.93885 3.77391
# Velocity P-wave (km/s) = 6.57034 7.41022 7.00288
#
# Compressibility (1/GPa) = 0.01751482
#
# Stress axis : x y z
#
# Youngs Moduli (GPa) = 66.26607 99.39136 66.36176
#
# Poissons Ratio (x) = 0.56211 0.21592
# Poissons Ratio (y) = 0.37477 0.16218
# Poissons Ratio (z) = 0.21561 0.24289
#
# Static dielectric constant tensor:
#      x y z
#    x 3.933260 0.049100 0.060460 
#    y 0.049100 4.423860 0.165610 
#    z 0.060460 0.165610 4.149920 
# 
# 
# High freq. dielectric constant tensor:
#      x y z
#    x 1.852260 0.010820 0.009030 
#    y 0.010820 1.887460 0.007050 
#    z 0.009030 0.007050 1.875470 
# 
# From -- ./inp_files/178448.got.cif
#   From: 2010.06.25/outbox.cif.g09.slc.cpg/sg2_90_cif.got.tgz:178448.got - 2010.06.27 13:26:56.
