data_PCOD8031276
_publ_section_title
;
Structure prediction by ZEFSAII (Michael W. Deem and Ramdas Pophale) SiO2 
 PCOD8031276
Probable space group: P -1
;
_chemical_formula_sum "Si O2"
_cell_formula_units_Z 16
_cell_length_a 21.256083
_cell_length_b 6.827956
_cell_length_c 18.993700
_cell_angle_alpha 35.869793
_cell_angle_beta 153.390129
_cell_angle_gamma 136.862012
_cell_volume 723.351341
_symmetry_space_group_name_H-M "P -1"
_symmetry_group_IT_number 2
_symmetry_cell_setting 'triclinic'
loop_
_space_group_symop_operation_xyz
x,y,z
-x,-y,-z
loop_
_atom_site_type_symbol
_atom_site_label
_atom_site_fract_x
_atom_site_fract_y
_atom_site_fract_z
Si Si1 0.521364 0.630856 0.403163
Si Si2 0.685437 0.319596 0.062635
Si Si3 0.790235 0.357578 0.777598
Si Si4 0.810805 0.650173 0.335240
Si Si5 0.085399 0.563272 0.972342
Si Si6 0.321559 0.333130 0.181893
Si Si7 0.475297 0.628099 0.859001
Si Si8 0.904633 0.696524 0.259254
O O1 0.500000 0.500000 0.500000
O O2 0.690904 0.632375 0.561252
O O3 0.440582 0.355339 0.354349
O O4 0.468643 0.002639 0.218829
O O5 0.799774 0.596915 0.121072
O O6 0.763783 0.969569 0.240192
O O7 0.630909 0.401016 0.906695
O O8 0.549745 0.338794 0.971945
O O9 0.944719 0.336596 0.904868
O O10 0.696479 0.024204 0.768686
O O11 0.809236 0.446384 0.853005
O O12 0.693339 0.371618 0.319564
O O13 0.814508 0.697286 0.240801
O O14 0.966309 0.553187 0.541586
O O15 0.032637 0.936507 0.798866
O O16 0.168047 0.426900 0.028721
O O17 0.500000 0.500000 0.000000
#
# Coordination Sequence:
#
# PCOD8031276 Si02
#       8
#     2   2   2   2   2   2   2   2
#     4  12  25  46  71 102 142 185 231 293 355 412
#     4  12  23  43  70 100 135 188 234 285 355 423
#     4  11  24  41  68  98 136 181 231 290 347 413
#     4  11  24  41  68  98 136 181 231 290 347 413
#     4  11  22  43  67  97 139 179 231 288 353 413
#     4  12  23  43  70 100 135 188 234 285 355 423
#     4  12  25  46  71 102 142 185 231 293 355 412
#     4  11  22  43  67  97 139 179 231 288 353 413
#
# _framework density 22.119263
#
# number of rings (size 3 to 8) (size 9 to 14) (size 15 to 20)
#    0.000    0.500    5.000    4.500    0.000    0.000 
#    0.000    1.250    0.000    0.000    0.000    0.000 
#    0.000    0.000    0.000    0.000    0.000    0.000 
#
# Total GULP energy -198295.509010 kJ/mol
# GULP energy per Si atom -12393.469313 kJ/mol
# Density = 2.206892 g / cm^3
# Si number density = 22.119263 Si / 1000 Ang^3
#
#
#
# Elastic Constant Matrix: (Units=GPa)
#
#
# Indices 1 2 3 4 5 6 
#
# 1 122.8121 15.3824 45.3323 5.9872 6.9998 -7.1712
# 2 15.3824 76.0072 33.2711 10.9721 1.9113 3.0315
# 3 45.3323 33.2711 110.8601 2.6706 1.3608 -7.8846
# 4 5.9872 10.9721 2.6706 39.3602 -1.8007 -1.2039
# 5 6.9998 1.9113 1.3608 -1.8007 40.7547 -4.8930
# 6 -7.1712 3.0315 -7.8846 -1.2039 -4.8930 29.0137
#
#
#
# Elastic Compliance Matrix: (Units=1/GPa)
#
#
# Indices 1 2 3 4 5 6 
#
# 1 0.009782 -0.000130 -0.003836 -0.001225 -0.001469 0.001090
# 2 -0.000130 0.016119 -0.004910 -0.004299 -0.001171 -0.003427
# 3 -0.003836 -0.004910 0.012241 0.001258 0.000908 0.003097
# 4 -0.001225 -0.004299 0.001258 0.026846 0.001785 0.001903
# 5 -0.001469 -0.001171 0.000908 0.001785 0.025417 0.004366
# 6 0.001090 -0.003427 0.003097 0.001903 0.004366 0.036751
#
#
# Mechanical properties :
#
#
# Convention : Reuss Voigt Hill
#
# Bulk Modulus (GPa) = 49.04396 55.29455 52.16926
# Shear Modulus (GPa) = 32.95883 36.20531 34.58207
#
# Velocity S-wave (km/s) = 3.86431 4.05016 3.95832
# Velocity P-wave (km/s) = 6.49085 6.85013 6.67291
#
# Compressibility (1/GPa) = 0.02038987
#
# Stress axis : x y z
#
# Youngs Moduli (GPa) = 102.23057 62.03856 81.69084
#
# Poissons Ratio (x) = 0.00808 0.31334
# Poissons Ratio (y) = 0.01332 0.40111
# Poissons Ratio (z) = 0.39213 0.30462
#
# Static dielectric constant tensor:
#      x y z
#    x 3.990550 -0.012980 0.123410 
#    y -0.012980 3.896970 0.089010 
#    z 0.123410 0.089010 4.068330 
# 
# 
# High freq. dielectric constant tensor:
#      x y z
#    x 1.874860 -0.001770 0.012290 
#    y -0.001770 1.868940 0.005880 
#    z 0.012290 0.005880 1.878880 
# 
# From -- ./inp_files/120147.got.cif
#   From: 2010.06.25/outbox.cif.g09.slc.cpg/sg2_61_cif.got.tgz:120147.got - 2010.06.27 13:26:56.
