data_PCOD8031781
_publ_section_title
;
Structure prediction by ZEFSAII (Michael W. Deem and Ramdas Pophale) SiO2 
 PCOD8031781
Probable space group: P -1
;
_chemical_formula_sum "Si O2"
_cell_formula_units_Z 16
_cell_length_a 18.410427
_cell_length_b 11.739131
_cell_length_c 9.587531
_cell_angle_alpha 103.769911
_cell_angle_beta 143.572175
_cell_angle_gamma 48.664461
_cell_volume 695.664634
_symmetry_space_group_name_H-M "P -1"
_symmetry_group_IT_number 2
_symmetry_cell_setting 'triclinic'
loop_
_space_group_symop_operation_xyz
x,y,z
-x,-y,-z
loop_
_atom_site_type_symbol
_atom_site_label
_atom_site_fract_x
_atom_site_fract_y
_atom_site_fract_z
Si Si1 0.910928 0.009037 0.228712
Si Si2 0.164022 0.232289 0.305642
Si Si3 0.901723 0.753328 0.111616
Si Si4 0.458159 0.376013 0.604918
Si Si5 0.744726 0.637778 0.913223
Si Si6 0.348946 0.324260 0.684082
Si Si7 0.813664 0.190747 0.670713
Si Si8 0.465478 0.809034 0.775828
O O1 0.838915 0.930155 0.122702
O O2 0.696053 0.240458 0.911746
O O3 0.000000 0.000000 0.500000
O O4 0.095619 0.868551 0.361156
O O5 0.314130 0.228242 0.522452
O O6 0.283947 0.030720 0.497420
O O7 0.075906 0.266838 0.028087
O O8 0.974055 0.409623 0.167786
O O9 0.128641 0.545941 0.465387
O O10 0.734442 0.786462 0.915122
O O11 0.428006 0.289427 0.430275
O O12 0.448415 0.341940 0.739925
O O13 0.280324 0.611786 0.365519
O O14 0.682382 0.658507 0.982348
O O15 0.500404 0.185314 0.008873
O O16 0.613608 0.261783 0.381511
O O17 0.000000 0.000000 0.000000
#
# Coordination Sequence:
#
# PCOD8031781 Si02
#       8
#     2   2   2   2   2   2   2   2
#     4  12  28  45  71 106 138 190 238 293 352 416
#     4  11  22  46  72 104 143 184 231 296 352 423
#     4  11  22  46  77 100 146 181 241 297 343 429
#     4  12  24  46  78 101 135 195 246 281 350 436
#     4  11  23  44  75 107 133 188 239 288 358 420
#     4  11  23  45  71 105 144 182 229 300 359 411
#     4  12  27  51  69 102 150 188 238 294 349 428
#     4  12  28  41  68 108 151 180 231 299 359 417
#
# _framework density 22.999586999999998
#
# number of rings (size 3 to 8) (size 9 to 14) (size 15 to 20)
#    0.000    0.500    3.750    4.875    3.500    7.000 
#    4.500    0.000    0.000    0.000    0.000    0.000 
#    0.000    0.000    0.000    0.000    0.000    0.000 
#
# Total GULP energy -198470.178468 kJ/mol
# GULP energy per Si atom -12404.386154 kJ/mol
# Density = 2.294724 g / cm^3
# Si number density = 22.999587 Si / 1000 Ang^3
#
#
#
# Elastic Constant Matrix: (Units=GPa)
#
#
# Indices 1 2 3 4 5 6 
#
# 1 90.5795 44.2915 27.1732 -2.8550 1.6247 12.6391
# 2 44.2915 118.6327 33.2361 11.1564 5.5461 11.4939
# 3 27.1732 33.2361 74.7173 9.1251 4.8517 8.4269
# 4 -2.8550 11.1564 9.1251 34.7640 -4.3476 2.5837
# 5 1.6247 5.5461 4.8517 -4.3476 30.5991 -0.2091
# 6 12.6391 11.4939 8.4269 2.5837 -0.2091 28.5085
#
#
#
# Elastic Compliance Matrix: (Units=1/GPa)
#
#
# Indices 1 2 3 4 5 6 
#
# 1 0.015067 -0.004684 -0.003509 0.004113 0.001162 -0.004118
# 2 -0.004684 0.011492 -0.002693 -0.003497 -0.001914 -0.001458
# 3 -0.003509 -0.002693 0.016733 -0.003990 -0.002559 -0.001962
# 4 0.004113 -0.003497 -0.003990 0.032130 0.005599 -0.002105
# 5 0.001162 -0.001914 -0.002559 0.005599 0.034172 0.000756
# 6 -0.004118 -0.001458 -0.001962 -0.002105 0.000756 0.038267
#
#
# Mechanical properties :
#
#
# Convention : Reuss Voigt Hill
#
# Bulk Modulus (GPa) = 46.46952 54.81457 50.64204
# Shear Modulus (GPa) = 28.27971 30.72288 29.50130
#
# Velocity S-wave (km/s) = 3.51033 3.65883 3.58535
# Velocity P-wave (km/s) = 6.05626 6.46018 6.26148
#
# Compressibility (1/GPa) = 0.02151948
#
# Stress axis : x y z
#
# Youngs Moduli (GPa) = 66.37198 87.01579 59.76384
#
# Poissons Ratio (x) = 0.40759 0.20972
# Poissons Ratio (y) = 0.31089 0.16093
# Poissons Ratio (z) = 0.23291 0.23431
#
# Static dielectric constant tensor:
#      x y z
#    x 4.263250 0.160310 0.189550 
#    y 0.160310 4.159230 -0.003950 
#    z 0.189550 -0.003950 4.064180 
# 
# 
# High freq. dielectric constant tensor:
#      x y z
#    x 1.908890 0.005450 0.012650 
#    y 0.005450 1.910350 -0.002270 
#    z 0.012650 -0.002270 1.910770 
# 
# From -- ./inp_files/282769.got.cif
#   From: 2010.06.25/outbox.cif.g09.slc.cpg/sg2_142_cif.got.tgz:282769.got - 2010.06.27 13:26:56.
