data_PCOD8031563
_publ_section_title
;
Structure prediction by ZEFSAII (Michael W. Deem and Ramdas Pophale) SiO2 
 PCOD8031563
Probable space group: P -1
;
_chemical_formula_sum "Si O2"
_cell_formula_units_Z 16
_cell_length_a 8.538840
_cell_length_b 21.857143
_cell_length_c 12.242129
_cell_angle_alpha 27.709343
_cell_angle_beta 139.841667
_cell_angle_gamma 129.236509
_cell_volume 677.698476
_symmetry_space_group_name_H-M "P -1"
_symmetry_group_IT_number 2
_symmetry_cell_setting 'triclinic'
loop_
_space_group_symop_operation_xyz
x,y,z
-x,-y,-z
loop_
_atom_site_type_symbol
_atom_site_label
_atom_site_fract_x
_atom_site_fract_y
_atom_site_fract_z
Si Si1 0.776114 0.272905 0.596655
Si Si2 0.282911 0.188520 0.410883
Si Si3 0.207399 0.500425 0.197015
Si Si4 0.085359 0.135372 0.801925
Si Si5 0.878847 0.207733 0.338062
Si Si6 0.064034 0.469546 0.774727
Si Si7 0.654659 0.093421 0.208695
Si Si8 0.288262 0.680116 0.273854
O O1 0.571234 0.188336 0.580382
O O2 0.740928 0.434757 0.311428
O O3 0.799057 0.240545 0.788108
O O4 0.016317 0.230290 0.719287
O O5 0.145168 0.195788 0.441814
O O6 0.232075 0.055773 0.530377
O O7 0.211215 0.322443 0.093462
O O8 0.423839 0.380325 0.477751
O O9 0.083394 0.471770 0.289977
O O10 0.283923 0.647660 0.998171
O O11 0.000000 0.500000 0.000000
O O12 0.938611 0.183296 0.536368
O O13 0.377186 0.120730 0.974181
O O14 0.000000 0.000000 0.000000
O O15 0.713402 0.107104 0.348628
O O16 0.851553 0.448552 0.608103
O O17 0.783036 0.210237 0.033960
#
# Coordination Sequence:
#
# PCOD8031563 Si02
#       8
#     2   2   2   2   2   2   2   2
#     4  12  26  45  68 103 151 185 232 300 363 427
#     4  11  24  46  72 107 138 191 241 296 356 429
#     4  11  22  44  72 105 136 190 248 292 358 422
#     4  12  28  49  70 108 147 193 238 292 373 433
#     4  11  26  46  77 105 142 192 245 302 349 433
#     4  11  24  43  69 108 143 182 240 296 363 426
#     4  12  25  49  77 105 146 191 249 295 353 439
#     4  12  25  43  74 107 142 190 239 302 355 425
#
# _framework density 23.609318999999999
#
# number of rings (size 3 to 8) (size 9 to 14) (size 15 to 20)
#    0.000    0.500    3.750    6.000    3.500    2.500 
#    2.250    0.000    0.000    0.000    0.000    0.000 
#    0.000    0.000    0.000    0.000    0.000    0.000 
#
# Total GULP energy -198259.592469 kJ/mol
# GULP energy per Si atom -12391.224529 kJ/mol
# Density = 2.355558 g / cm^3
# Si number density = 23.609319 Si / 1000 Ang^3
#
#
#
# Elastic Constant Matrix: (Units=GPa)
#
#
# Indices 1 2 3 4 5 6 
#
# 1 69.2730 24.2413 29.8859 -3.1142 -2.9238 -24.3411
# 2 24.2413 124.9675 13.5726 -5.1012 -4.4174 -9.2397
# 3 29.8859 13.5726 68.5291 -7.1075 2.9000 -13.0328
# 4 -3.1142 -5.1012 -7.1075 44.2675 -1.5406 -7.5974
# 5 -2.9238 -4.4174 2.9000 -1.5406 22.7453 -9.3462
# 6 -24.3411 -9.2397 -13.0328 -7.5974 -9.3462 45.6002
#
#
#
# Elastic Compliance Matrix: (Units=1/GPa)
#
#
# Indices 1 2 3 4 5 6 
#
# 1 0.023144 -0.002397 -0.007458 0.002493 0.008518 0.011898
# 2 -0.002397 0.008691 -0.000485 0.000973 0.001873 0.000889
# 3 -0.007458 -0.000485 0.018516 0.002474 -0.002816 0.001048
# 4 0.002493 0.000973 0.002474 0.024707 0.004889 0.007353
# 5 0.008518 0.001873 -0.002816 0.004889 0.052570 0.015711
# 6 0.011898 0.000889 0.001048 0.007353 0.015711 0.033206
#
#
# Mechanical properties :
#
#
# Convention : Reuss Voigt Hill
#
# Bulk Modulus (GPa) = 33.70243 44.24104 38.97173
# Shear Modulus (GPa) = 26.12266 35.52725 30.82495
#
# Velocity S-wave (km/s) = 3.32995 3.88338 3.61727
# Velocity P-wave (km/s) = 5.39359 6.23595 5.83000
#
# Compressibility (1/GPa) = 0.02967146
#
# Stress axis : x y z
#
# Youngs Moduli (GPa) = 43.20711 115.05644 54.00783
#
# Poissons Ratio (x) = 0.27579 0.40277
# Poissons Ratio (y) = 0.10357 0.02622
# Poissons Ratio (z) = 0.32223 0.05585
#
# Static dielectric constant tensor:
#      x y z
#    x 13.584140 -3.387440 5.478340 
#    y -3.387440 6.229510 -2.285930 
#    z 5.478340 -2.285930 7.562100 
# 
# 
# High freq. dielectric constant tensor:
#      x y z
#    x 1.923020 -0.001070 0.002040 
#    y -0.001070 1.963120 -0.009290 
#    z 0.002040 -0.009290 1.929680 
# 
# From -- ./inp_files/357080.got.cif
#   From: 2010.06.25/outbox.cif.g09.slc.cpg/sg2_179_cif.got.tgz:357080.got - 2010.06.27 13:26:56.
