data_PCOD8031062
_publ_section_title
;
Structure prediction by ZEFSAII (Michael W. Deem and Ramdas Pophale) SiO2 
 PCOD8031062
Probable space group: P -1
;
_chemical_formula_sum "Si O2"
_cell_formula_units_Z 16
_cell_length_a 15.114263
_cell_length_b 9.025003
_cell_length_c 9.574460
_cell_angle_alpha 133.855552
_cell_angle_beta 62.739061
_cell_angle_gamma 91.517846
_cell_volume 746.003720
_symmetry_space_group_name_H-M "P -1"
_symmetry_group_IT_number 2
_symmetry_cell_setting 'triclinic'
loop_
_space_group_symop_operation_xyz
x,y,z
-x,-y,-z
loop_
_atom_site_type_symbol
_atom_site_label
_atom_site_fract_x
_atom_site_fract_y
_atom_site_fract_z
Si Si1 0.284099 0.022015 0.792809
Si Si2 0.066612 0.904420 0.531095
Si Si3 0.227027 0.103573 0.573778
Si Si4 0.087253 0.982361 0.038688
Si Si5 0.609646 0.492490 0.614531
Si Si6 0.634598 0.316068 0.987677
Si Si7 0.740174 0.474386 0.260810
Si Si8 0.706358 0.528466 0.853629
O O1 0.289005 0.019736 0.620793
O O2 0.371980 0.764654 0.608514
O O3 0.162562 0.094425 0.995224
O O4 0.320764 0.206270 0.946790
O O5 0.173031 0.649819 0.284153
O O6 0.979796 0.884734 0.688837
O O7 0.109299 0.093221 0.665430
O O8 0.000000 0.000000 0.500000
O O9 0.212199 0.357939 0.723565
O O10 0.298422 0.941224 0.289179
O O11 0.160805 0.715558 0.845716
O O12 0.000000 0.000000 0.000000
O O13 0.637839 0.601338 0.527456
O O14 0.694947 0.467359 0.662158
O O15 0.482977 0.655968 0.853403
O O16 0.614562 0.499795 0.997797
O O17 0.705838 0.353660 0.083211
#
# Coordination Sequence:
#
# PCOD8031062 Si02
#       8
#     2   2   2   2   2   2   2   2
#     4  11  23  41  67  93 129 168 214 260 313 375
#     4  11  23  40  64  93 128 164 211 262 318 374
#     4  11  23  42  65  94 130 166 213 262 312 376
#     4  11  22  42  65  91 127 167 208 262 315 369
#     4  11  24  43  65  96 130 164 210 268 313 378
#     4  11  23  42  68  93 130 168 210 260 321 375
#     4  11  25  42  66  95 130 166 210 264 320 376
#     4  11  23  41  64  95 126 164 215 260 311 377
#
# _framework density 21.447613
#
# number of rings (size 3 to 8) (size 9 to 14) (size 15 to 20)
#    0.000    1.000    5.000    3.000    0.000    7.000 
#    0.000    0.000    0.000    0.000    0.000    0.000 
#    0.000    0.000    0.000    0.000    0.000    0.000 
#
# Total GULP energy -198377.410794 kJ/mol
# GULP energy per Si atom -12398.588175 kJ/mol
# Density = 2.139880 g / cm^3
# Si number density = 21.447613 Si / 1000 Ang^3
#
#
#
# Elastic Constant Matrix: (Units=GPa)
#
#
# Indices 1 2 3 4 5 6 
#
# 1 63.7008 18.1682 30.8759 6.7313 8.1850 -1.4345
# 2 18.1682 76.5453 19.2241 -11.0152 12.0124 -0.0035
# 3 30.8759 19.2241 91.5663 -18.0835 2.2732 0.9955
# 4 6.7313 -11.0152 -18.0835 40.6507 6.0267 1.4704
# 5 8.1850 12.0124 2.2732 6.0267 35.3544 -5.7827
# 6 -1.4345 -0.0035 0.9955 1.4704 -5.7827 29.4707
#
#
#
# Elastic Compliance Matrix: (Units=1/GPa)
#
#
# Indices 1 2 3 4 5 6 
#
# 1 0.021890 -0.004094 -0.008113 -0.008170 -0.001526 0.001447
# 2 -0.004094 0.015892 -0.000702 0.005560 -0.005608 -0.001552
# 3 -0.008113 -0.000702 0.015441 0.008147 -0.000497 -0.001421
# 4 -0.008170 0.005560 0.008147 0.032190 -0.006593 -0.003572
# 5 -0.001526 -0.005608 -0.000497 -0.006593 0.032797 0.006706
# 6 0.001447 -0.001552 -0.001421 -0.003572 0.006706 0.035544
#
#
# Mechanical properties :
#
#
# Convention : Reuss Voigt Hill
#
# Bulk Modulus (GPa) = 36.48942 40.92766 38.70854
# Shear Modulus (GPa) = 26.49591 31.99809 29.24700
#
# Velocity S-wave (km/s) = 3.51861 3.86673 3.69677
# Velocity P-wave (km/s) = 5.79290 6.24976 6.02566
#
# Compressibility (1/GPa) = 0.02740520
#
# Stress axis : x y z
#
# Youngs Moduli (GPa) = 45.68198 62.92341 64.76297
#
# Poissons Ratio (x) = 0.25763 0.52543
# Poissons Ratio (y) = 0.18704 0.04546
# Poissons Ratio (z) = 0.37062 0.04417
#
# Static dielectric constant tensor:
#      x y z
#    x 3.827110 0.174800 -0.017450 
#    y 0.174800 4.101020 -0.321510 
#    z -0.017450 -0.321510 3.920620 
# 
# 
# High freq. dielectric constant tensor:
#      x y z
#    x 1.834210 0.000070 0.000880 
#    y 0.000070 1.850830 -0.022940 
#    z 0.000880 -0.022940 1.840560 
# 
# From -- ./inp_files/216044.got.cif
#   From: 2010.06.25/outbox.cif.g09.slc.cpg/sg2_109_cif.got.tgz:216044.got - 2010.06.27 13:26:56.
