data_PCOD8031345
_publ_section_title
;
Structure prediction by ZEFSAII (Michael W. Deem and Ramdas Pophale) SiO2 
 PCOD8031345
Probable space group: P -1
;
_chemical_formula_sum "Si O2"
_cell_formula_units_Z 16
_cell_length_a 11.959400
_cell_length_b 11.386253
_cell_length_c 6.455523
_cell_angle_alpha 61.755772
_cell_angle_beta 87.019524
_cell_angle_gamma 84.853966
_cell_volume 771.236260
_symmetry_space_group_name_H-M "P -1"
_symmetry_group_IT_number 2
_symmetry_cell_setting 'triclinic'
loop_
_space_group_symop_operation_xyz
x,y,z
-x,-y,-z
loop_
_atom_site_type_symbol
_atom_site_label
_atom_site_fract_x
_atom_site_fract_y
_atom_site_fract_z
Si Si1 0.586770 0.374363 0.084446
Si Si2 0.484858 0.908164 0.774278
Si Si3 0.789005 0.418607 0.754935
Si Si4 0.324145 0.994465 0.064594
Si Si5 0.055406 0.731101 0.805035
Si Si6 0.253311 0.740698 0.501970
Si Si7 0.072792 0.117145 0.970789
Si Si8 0.061730 0.376394 0.475588
O O1 0.520261 0.243579 0.168913
O O2 0.660597 0.361234 0.296760
O O3 0.500000 0.500000 0.000000
O O4 0.664508 0.398681 0.859703
O O5 0.591088 0.910498 0.914209
O O6 0.500000 0.000000 0.500000
O O7 0.369292 0.958105 0.860322
O O8 0.806309 0.340981 0.601052
O O9 0.810493 0.576301 0.597433
O O10 0.885863 0.360162 0.947478
O O11 0.321535 0.859240 0.309485
O O12 0.202569 0.068772 0.002605
O O13 0.153184 0.801340 0.611094
O O14 0.988008 0.639976 0.734839
O O15 0.969435 0.841616 0.829046
O O16 0.058641 0.239108 0.712190
O O17 0.000000 0.000000 0.000000
O O18 0.000000 0.500000 0.500000
#
# Coordination Sequence:
#
# PCOD8031345 Si02
#       8
#     2   2   2   2   2   2   2   2
#     4  11  26  43  69 103 131 176 235 290 355 418
#     4  11  24  47  73  96 139 185 231 291 352 409
#     4  11  23  42  67  97 139 179 227 281 354 415
#     4  11  25  44  70  99 140 184 236 284 349 413
#     4  11  23  42  71  98 142 183 228 278 354 412
#     4  11  22  43  70  98 137 184 221 290 352 415
#     4  12  28  43  69 109 144 181 239 285 340 426
#     4  12  24  43  68 101 139 186 227 284 347 414
#
# _framework density 20.745913999999999
#
# number of rings (size 3 to 8) (size 9 to 14) (size 15 to 20)
#    0.000    0.750    5.000    1.875    1.750    6.500 
#    0.000    0.000    0.000    0.000    0.000    0.000 
#    0.000    0.000    0.000    0.000    0.000    0.000 
#
# Total GULP energy -198426.846132 kJ/mol
# GULP energy per Si atom -12401.677883 kJ/mol
# Density = 2.069870 g / cm^3
# Si number density = 20.745914 Si / 1000 Ang^3
#
#
#
# Elastic Constant Matrix: (Units=GPa)
#
#
# Indices 1 2 3 4 5 6 
#
# 1 135.5888 75.6334 56.9505 0.6761 -5.5429 -10.8625
# 2 75.6334 158.1934 70.5363 3.6834 -1.7201 6.6077
# 3 56.9505 70.5363 125.2165 1.5635 -14.4196 -4.5799
# 4 0.6761 3.6834 1.5635 41.9304 7.5017 -4.1086
# 5 -5.5429 -1.7201 -14.4196 7.5017 39.4819 -2.1164
# 6 -10.8625 6.6077 -4.5799 -4.1086 -2.1164 47.1889
#
#
#
# Elastic Compliance Matrix: (Units=1/GPa)
#
#
# Indices 1 2 3 4 5 6 
#
# 1 0.011077 -0.004346 -0.002424 0.000488 0.000548 0.002990
# 2 -0.004346 0.010380 -0.004169 -0.000673 -0.001713 -0.002994
# 3 -0.002424 -0.004169 0.011958 -0.000634 0.004036 0.001312
# 4 0.000488 -0.000673 -0.000634 0.024994 -0.004828 0.002105
# 5 0.000548 -0.001713 0.004036 -0.004828 0.027807 0.001584
# 6 0.002990 -0.002994 0.001312 0.002105 0.001584 0.022681
#
#
# Mechanical properties :
#
#
# Convention : Reuss Voigt Hill
#
# Bulk Modulus (GPa) = 86.67093 91.69323 89.18208
# Shear Modulus (GPa) = 37.14196 40.11215 38.62705
#
# Velocity S-wave (km/s) = 4.23582 4.40192 4.31967
# Velocity P-wave (km/s) = 8.11116 8.37437 8.24381
#
# Compressibility (1/GPa) = 0.01153789
#
# Stress axis : x y z
#
# Youngs Moduli (GPa) = 90.27935 96.33815 83.62776
#
# Poissons Ratio (x) = 0.41864 0.20268
# Poissons Ratio (y) = 0.39231 0.34866
# Poissons Ratio (z) = 0.21880 0.40166
#
# Static dielectric constant tensor:
#      x y z
#    x 4.143200 0.211190 -0.400580 
#    y 0.211190 3.903800 0.127960 
#    z -0.400580 0.127960 4.197630 
# 
# 
# High freq. dielectric constant tensor:
#      x y z
#    x 1.819890 0.018530 -0.017350 
#    y 0.018530 1.810330 0.009500 
#    z -0.017350 0.009500 1.825730 
# 
# From -- ./inp_files/68553.got.cif
#   From: 2010.06.25/outbox.cif.g09.slc.cpg/sg2_35_cif.got.tgz:68553.got - 2010.06.27 13:26:56.
