data_PCOD8031194
_publ_section_title
;
Structure prediction by ZEFSAII (Michael W. Deem and Ramdas Pophale) SiO2 
 PCOD8031194
Probable space group: P -1
;
_chemical_formula_sum "Si O2"
_cell_formula_units_Z 14
_cell_length_a 5.506986
_cell_length_b 22.259310
_cell_length_c 13.238503
_cell_angle_alpha 156.054914
_cell_angle_beta 114.902864
_cell_angle_gamma 65.072998
_cell_volume 594.429310
_symmetry_space_group_name_H-M "P -1"
_symmetry_group_IT_number 2
_symmetry_cell_setting 'triclinic'
loop_
_space_group_symop_operation_xyz
x,y,z
-x,-y,-z
loop_
_atom_site_type_symbol
_atom_site_label
_atom_site_fract_x
_atom_site_fract_y
_atom_site_fract_z
Si Si1 0.709924 0.368688 0.020152
Si Si2 0.941255 0.159708 0.588633
Si Si3 0.568780 0.075719 0.247394
Si Si4 0.182741 0.312952 0.479759
Si Si5 0.199139 0.358249 0.789939
Si Si6 0.862396 0.095195 0.985469
Si Si7 0.690212 0.105747 0.751707
O O1 0.955555 0.268444 0.853965
O O2 0.487890 0.401251 0.944000
O O3 0.632262 0.271770 0.952843
O O4 0.793451 0.524989 0.315553
O O5 0.135565 0.210542 0.612603
O O6 0.636079 0.162516 0.495953
O O7 0.021033 0.985843 0.363168
O O8 0.452176 0.198102 0.331699
O O9 0.314508 0.982818 0.082918
O O10 0.845295 0.991880 0.124458
O O11 0.155296 0.325957 0.615570
O O12 0.925905 0.251318 0.286686
O O13 0.000000 0.500000 0.000000
O O14 0.672232 0.124218 0.898135
O O15 0.500000 0.000000 0.500000
#
# Coordination Sequence:
#
# PCOD8031194 Si02
#       7
#     2   2   2   2   2   2   2
#     4  12  24  41  66 101 135 183 232 291 352 404
#     4  11  22  42  71  98 134 182 236 292 342 413
#     4  11  23  45  71 102 141 183 232 290 349 423
#     4  12  24  43  69 101 147 179 229 294 356 425
#     4  12  23  41  66 104 140 177 232 288 358 416
#     4  11  27  46  71 105 138 192 234 286 354 418
#     4  11  23  45  71  96 135 183 247 286 339 417
#
# _framework density 23.552002000000002
#
# number of rings (size 3 to 8) (size 9 to 14) (size 15 to 20)
#    0.000    0.571    4.286    5.143    0.000    4.000 
#    0.000    0.000    0.000    7.714    0.000    0.000 
#    0.000    0.000    0.000    0.000    0.000    0.000 
#
# Total GULP energy -173435.837471 kJ/mol
# GULP energy per Si atom -12388.274105 kJ/mol
# Density = 2.349840 g / cm^3
# Si number density = 23.552002 Si / 1000 Ang^3
#
#
#
# Elastic Constant Matrix: (Units=GPa)
#
#
# Indices 1 2 3 4 5 6 
#
# 1 71.6767 2.3092 24.8374 0.3332 9.2580 -0.4258
# 2 2.3092 101.9677 57.5519 -0.3053 -2.4374 -0.5073
# 3 24.8374 57.5519 146.9986 -4.9746 37.1721 -2.4553
# 4 0.3332 -0.3053 -4.9746 46.2774 5.0994 7.7550
# 5 9.2580 -2.4374 37.1721 5.0994 23.9646 -5.4343
# 6 -0.4258 -0.5073 -2.4553 7.7550 -5.4343 26.1488
#
#
#
# Elastic Compliance Matrix: (Units=1/GPa)
#
#
# Indices 1 2 3 4 5 6 
#
# 1 0.015017 0.000974 -0.002417 -0.000079 -0.002018 -0.000360
# 2 0.000974 0.018115 -0.013673 -0.005093 0.025075 0.005805
# 3 -0.002417 -0.013673 0.022625 0.008155 -0.039273 -0.008761
# 4 -0.000079 -0.005093 0.008155 0.026790 -0.021502 -0.011748
# 5 -0.002018 0.025075 -0.039273 -0.021502 0.116767 0.027410
# 6 -0.000360 0.005805 -0.008761 -0.011748 0.027410 0.046707
#
#
# Mechanical properties :
#
#
# Convention : Reuss Voigt Hill
#
# Bulk Modulus (GPa) = 39.17797 54.44890 46.81344
# Shear Modulus (GPa) = 17.55847 35.00779 26.28313
#
# Velocity S-wave (km/s) = 2.73338 3.85957 3.34422
# Velocity P-wave (km/s) = 5.16068 6.55977 5.90183
#
# Compressibility (1/GPa) = 0.02552455
#
# Stress axis : x y z
#
# Youngs Moduli (GPa) = 66.59322 55.20176 44.19838
#
# Poissons Ratio (x) = -0.05375 0.10682
# Poissons Ratio (y) = -0.06485 0.60433
# Poissons Ratio (z) = 0.16095 0.75479
#
# Static dielectric constant tensor:
#      x y z
#    x 4.159290 -0.307720 -0.107700 
#    y -0.307720 4.944160 0.002990 
#    z -0.107700 0.002990 4.795030 
# 
# 
# High freq. dielectric constant tensor:
#      x y z
#    x 1.917240 -0.008400 -0.002110 
#    y -0.008400 1.930880 -0.006950 
#    z -0.002110 -0.006950 1.944490 
# 
# From -- ./inp_files/118309.got.cif
#   From: 2010.06.25/outbox.cif.g09.slc.cpg/sg2_60_cif.got.tgz:118309.got - 2010.06.27 13:26:56.
