data_PCOD8031652
_publ_section_title
;
Structure prediction by ZEFSAII (Michael W. Deem and Ramdas Pophale) SiO2 
 PCOD8031652
Probable space group: P -1
;
_chemical_formula_sum "Si O2"
_cell_formula_units_Z 16
_cell_length_a 11.810280
_cell_length_b 14.118732
_cell_length_c 8.734424
_cell_angle_alpha 128.345797
_cell_angle_beta 74.612985
_cell_angle_gamma 66.406823
_cell_volume 732.177660
_symmetry_space_group_name_H-M "P -1"
_symmetry_group_IT_number 2
_symmetry_cell_setting 'triclinic'
loop_
_space_group_symop_operation_xyz
x,y,z
-x,-y,-z
loop_
_atom_site_type_symbol
_atom_site_label
_atom_site_fract_x
_atom_site_fract_y
_atom_site_fract_z
Si Si1 0.350774 0.208910 0.726337
Si Si2 0.319160 0.441634 0.210569
Si Si3 0.068862 0.786566 0.438873
Si Si4 0.507762 0.285834 0.542223
Si Si5 0.334092 0.780978 0.274085
Si Si6 0.097798 0.195201 0.764666
Si Si7 0.766268 0.412274 0.294296
Si Si8 0.168983 0.898271 0.940343
O O1 0.415865 0.232909 0.578293
O O2 0.173009 0.272839 0.814808
O O3 0.500000 0.000000 0.500000
O O4 0.311869 0.321329 0.001415
O O5 0.180047 0.641446 0.388176
O O6 0.272283 0.464157 0.429099
O O7 0.519220 0.340178 0.032643
O O8 0.182029 0.800303 0.321339
O O9 0.009332 0.733980 0.284387
O O10 0.893850 0.983980 0.767169
O O11 0.560246 0.324841 0.711103
O O12 0.364276 0.467651 0.679128
O O13 0.688178 0.126284 0.221285
O O14 0.253003 0.977673 0.506050
O O15 0.968142 0.277033 0.036596
O O16 0.735425 0.299750 0.249737
O O17 0.000000 0.000000 0.000000
#
# Coordination Sequence:
#
# PCOD8031652 Si02
#       8
#     2   2   2   2   2   2   2   2
#     4  11  25  50  75  94 143 197 241 288 344 424
#     4  11  25  43  71 105 140 186 237 294 349 421
#     4  12  25  41  72 108 142 183 238 289 358 426
#     4  11  24  43  72 102 141 188 234 288 353 415
#     4  11  22  45  69 102 141 186 233 286 362 422
#     4  12  25  46  74 100 139 195 241 283 351 425
#     4  12  26  43  71 111 149 179 233 301 359 418
#     4  12  23  44  70 108 151 183 222 298 366 420
#
# _framework density 21.852620000000002
#
# number of rings (size 3 to 8) (size 9 to 14) (size 15 to 20)
#    0.000    0.500    6.250    2.625    1.750    4.500 
#    0.000    2.500    0.000    0.000    0.000    0.000 
#    0.000    0.000    0.000    0.000    0.000    0.000 
#
# Total GULP energy -198464.859100 kJ/mol
# GULP energy per Si atom -12404.053694 kJ/mol
# Density = 2.180288 g / cm^3
# Si number density = 21.852620 Si / 1000 Ang^3
#
#
#
# Elastic Constant Matrix: (Units=GPa)
#
#
# Indices 1 2 3 4 5 6 
#
# 1 114.9567 19.9104 45.9248 -16.3891 -5.6313 10.8017
# 2 19.9104 98.3012 39.5951 1.7773 -7.6403 -3.9093
# 3 45.9248 39.5951 142.3095 -15.7835 -5.1389 1.6092
# 4 -16.3891 1.7773 -15.7835 38.9065 2.6570 -3.4080
# 5 -5.6313 -7.6403 -5.1389 2.6570 29.3609 2.2217
# 6 10.8017 -3.9093 1.6092 -3.4080 2.2217 26.1183
#
#
#
# Elastic Compliance Matrix: (Units=1/GPa)
#
#
# Indices 1 2 3 4 5 6 
#
# 1 0.010909 -0.001225 -0.002742 0.003076 0.001336 -0.004238
# 2 -0.001225 0.011991 -0.003135 -0.002325 0.002397 0.001987
# 3 -0.002742 -0.003135 0.009079 0.002714 -0.000033 0.000462
# 4 0.003076 -0.002325 0.002714 0.028548 -0.002285 0.002132
# 5 0.001336 0.002397 -0.000033 -0.002285 0.035405 -0.003501
# 6 -0.004238 0.001987 0.000462 0.002132 -0.003501 0.040885
#
#
# Mechanical properties :
#
#
# Convention : Reuss Voigt Hill
#
# Bulk Modulus (GPa) = 56.26147 62.93646 59.59896
# Shear Modulus (GPa) = 31.85814 35.55294 33.70554
#
# Velocity S-wave (km/s) = 3.82234 4.03791 3.93160
# Velocity P-wave (km/s) = 6.72920 7.11355 6.92404
#
# Compressibility (1/GPa) = 0.01777415
#
# Stress axis : x y z
#
# Youngs Moduli (GPa) = 91.66826 83.39599 110.14946
#
# Poissons Ratio (x) = 0.10219 0.30204
# Poissons Ratio (y) = 0.11233 0.34528
# Poissons Ratio (z) = 0.25137 0.26142
#
# Static dielectric constant tensor:
#      x y z
#    x 4.171130 0.101710 -0.177560 
#    y 0.101710 3.983090 -0.128550 
#    z -0.177560 -0.128550 4.353970 
# 
# 
# High freq. dielectric constant tensor:
#      x y z
#    x 1.849810 -0.011420 -0.012920 
#    y -0.011420 1.857390 0.003250 
#    z -0.012920 0.003250 1.875800 
# 
# From -- ./inp_files/274343.got.cif
#   From: 2010.06.25/outbox.cif.g09.slc.cpg/sg2_138_cif.got.tgz:274343.got - 2010.06.27 13:26:56.
