data_PCOD8031612
_publ_section_title
;
Structure prediction by ZEFSAII (Michael W. Deem and Ramdas Pophale) SiO2 
 PCOD8031612
Probable space group: P -1
;
_chemical_formula_sum "Si O2"
_cell_formula_units_Z 16
_cell_length_a 17.485615
_cell_length_b 11.233283
_cell_length_c 8.955190
_cell_angle_alpha 126.539412
_cell_angle_beta 50.000821
_cell_angle_gamma 146.769209
_cell_volume 731.424004
_symmetry_space_group_name_H-M "P -1"
_symmetry_group_IT_number 2
_symmetry_cell_setting 'triclinic'
loop_
_space_group_symop_operation_xyz
x,y,z
-x,-y,-z
loop_
_atom_site_type_symbol
_atom_site_label
_atom_site_fract_x
_atom_site_fract_y
_atom_site_fract_z
Si Si1 0.319087 0.918323 0.731704
Si Si2 0.671560 0.679422 0.381648
Si Si3 0.146793 0.987359 0.851110
Si Si4 0.811125 0.553337 0.956221
Si Si5 0.850754 0.332427 0.968566
Si Si6 0.355058 0.671771 0.311328
Si Si7 0.859592 0.803614 0.727070
Si Si8 0.866090 0.024303 0.621088
O O1 0.323241 0.800422 0.509468
O O2 0.197289 0.906153 0.830268
O O3 0.471818 0.169262 0.764453
O O4 0.278755 0.791398 0.840826
O O5 0.500000 0.500000 0.500000
O O6 0.737898 0.874699 0.328596
O O7 0.731064 0.782830 0.547135
O O8 0.727411 0.580996 0.184430
O O9 0.159323 0.157337 0.051416
O O10 0.975116 0.781537 0.865066
O O11 0.836225 0.440401 0.944106
O O12 0.705801 0.397111 0.833026
O O13 0.832505 0.159506 0.774472
O O14 0.000000 0.500000 0.000000
O O15 0.279853 0.452704 0.331370
O O16 0.998409 0.846884 0.567039
O O17 0.891739 0.983665 0.721950
#
# Coordination Sequence:
#
# PCOD8031612 Si02
#       8
#     2   2   2   2   2   2   2   2
#     4  11  27  46  70 104 145 190 238 294 360 433
#     4  12  29  45  71 110 146 183 236 304 366 420
#     4  12  24  48  74 105 143 188 248 295 351 436
#     4  12  26  48  77 104 144 193 240 298 357 433
#     4  12  25  46  71 105 145 186 240 291 359 424
#     4  11  27  45  70 103 142 192 237 295 361 429
#     4  11  22  44  75  98 141 187 239 294 355 425
#     4  11  25  42  69 109 138 185 238 296 353 427
#
# _framework density 21.875136000000001
#
# number of rings (size 3 to 8) (size 9 to 14) (size 15 to 20)
#    0.000    0.500    5.000    1.875    8.750    2.500 
#    0.000    0.000    0.000    0.000    0.000    0.000 
#    0.000    0.000    0.000    0.000    0.000    0.000 
#
# Total GULP energy -198353.994934 kJ/mol
# GULP energy per Si atom -12397.124683 kJ/mol
# Density = 2.182535 g / cm^3
# Si number density = 21.875136 Si / 1000 Ang^3
#
#
#
# Elastic Constant Matrix: (Units=GPa)
#
#
# Indices 1 2 3 4 5 6 
#
# 1 92.7978 37.3701 44.4928 5.3352 -9.5903 -3.1594
# 2 37.3701 137.2201 52.0525 0.1847 -7.9090 12.2846
# 3 44.4928 52.0525 119.4842 9.9294 -2.2054 15.5407
# 4 5.3352 0.1847 9.9294 47.2032 3.5592 4.5591
# 5 -9.5903 -7.9090 -2.2054 3.5592 25.4811 -0.4001
# 6 -3.1594 12.2846 15.5407 4.5591 -0.4001 39.7483
#
#
#
# Elastic Compliance Matrix: (Units=1/GPa)
#
#
# Indices 1 2 3 4 5 6 
#
# 1 0.014681 -0.002262 -0.004794 -0.001375 0.004662 0.003945
# 2 -0.002262 0.009312 -0.003004 0.000920 0.001619 -0.001972
# 3 -0.004794 -0.003004 0.012081 -0.001483 -0.001547 -0.004021
# 4 -0.001375 0.000920 -0.001483 0.022143 -0.003491 -0.002389
# 5 0.004662 0.001619 -0.001547 -0.003491 0.041876 0.001297
# 6 0.003945 -0.001972 -0.004021 -0.002389 0.001297 0.027941
#
#
# Mechanical properties :
#
#
# Convention : Reuss Voigt Hill
#
# Bulk Modulus (GPa) = 62.68549 68.59255 65.63902
# Shear Modulus (GPa) = 32.57922 36.85897 34.71909
#
# Velocity S-wave (km/s) = 3.86337 4.10929 3.98823
# Velocity P-wave (km/s) = 6.97274 7.34435 7.16096
#
# Compressibility (1/GPa) = 0.01595265
#
# Stress axis : x y z
#
# Youngs Moduli (GPa) = 68.11593 107.38877 82.77441
#
# Poissons Ratio (x) = 0.24293 0.39683
# Poissons Ratio (y) = 0.15409 0.24868
# Poissons Ratio (z) = 0.32655 0.32263
#
# Static dielectric constant tensor:
#      x y z
#    x 3.812260 -0.065600 0.060410 
#    y -0.065600 4.096860 -0.027330 
#    z 0.060410 -0.027330 4.044120 
# 
# 
# High freq. dielectric constant tensor:
#      x y z
#    x 1.861700 -0.005480 0.003560 
#    y -0.005480 1.871190 0.002320 
#    z 0.003560 0.002320 1.871430 
# 
# From -- ./inp_files/316036.got.cif
#   From: 2010.06.25/outbox.cif.g09.slc.cpg/sg2_159_cif.got.tgz:316036.got - 2010.06.27 13:26:56.
