data_PCOD8031762
_publ_section_title
;
Structure prediction by ZEFSAII (Michael W. Deem and Ramdas Pophale) SiO2 
 PCOD8031762
Probable space group: P -1
;
_chemical_formula_sum "Si O2"
_cell_formula_units_Z 14
_cell_length_a 11.717371
_cell_length_b 12.302735
_cell_length_c 11.322783
_cell_angle_alpha 90.986165
_cell_angle_beta 69.505672
_cell_angle_gamma 150.141270
_cell_volume 600.708103
_symmetry_space_group_name_H-M "P -1"
_symmetry_group_IT_number 2
_symmetry_cell_setting 'triclinic'
loop_
_space_group_symop_operation_xyz
x,y,z
-x,-y,-z
loop_
_atom_site_type_symbol
_atom_site_label
_atom_site_fract_x
_atom_site_fract_y
_atom_site_fract_z
Si Si1 0.088936 0.445352 0.227082
Si Si2 0.929340 0.556609 0.259661
Si Si3 0.949767 0.971949 0.719527
Si Si4 0.797872 0.025087 0.948241
Si Si5 0.846176 0.574798 0.543406
Si Si6 0.702481 0.860094 0.589985
Si Si7 0.141280 0.952517 0.807077
O O1 0.054089 0.416693 0.380617
O O2 0.993909 0.483746 0.211349
O O3 0.857985 0.167853 0.249095
O O4 0.436858 0.698643 0.067672
O O5 0.977526 0.623977 0.380589
O O6 0.586098 0.300383 0.333343
O O7 0.166882 0.820198 0.098112
O O8 0.668115 0.767294 0.725785
O O9 0.886708 0.818481 0.828186
O O10 0.000916 0.120792 0.784311
O O11 0.249326 0.187341 0.534162
O O12 0.939887 0.119269 0.027204
O O13 0.474894 0.280373 0.668824
O O14 0.988884 0.812036 0.507781
#
# Coordination Sequence:
#
# PCOD8031762 Si02
#       7
#     2   2   2   2   2   2   2
#     4  11  26  47  68 102 140 176 230 279 335 409
#     4  12  25  46  72 101 136 179 231 279 339 398
#     4  11  23  48  68 102 141 172 231 280 335 409
#     4  11  27  44  70 102 135 187 221 276 344 400
#     4  11  22  46  70 105 131 177 230 275 348 386
#     4  11  25  42  73 106 133 177 225 290 333 395
#     4  11  25  46  69 104 137 183 219 281 346 397
#
# _framework density 23.305828000000002
#
# number of rings (size 3 to 8) (size 9 to 14) (size 15 to 20)
#    0.000    0.857    4.286    1.286    2.000    9.143 
#    0.000    0.000    0.000    0.000    0.000    0.000 
#    0.000    0.000    0.000    0.000    0.000    0.000 
#
# Total GULP energy -173595.783114 kJ/mol
# GULP energy per Si atom -12399.698794 kJ/mol
# Density = 2.325278 g / cm^3
# Si number density = 23.305828 Si / 1000 Ang^3
#
#
#
# Elastic Constant Matrix: (Units=GPa)
#
#
# Indices 1 2 3 4 5 6 
#
# 1 160.7199 48.7904 38.4086 26.1027 12.5052 2.8153
# 2 48.7904 101.0595 46.8623 12.7278 2.9208 8.1281
# 3 38.4086 46.8623 89.1345 14.7950 17.3780 12.6629
# 4 26.1027 12.7278 14.7950 45.2355 7.7801 8.4883
# 5 12.5052 2.9208 17.3780 7.7801 32.1595 8.3467
# 6 2.8153 8.1281 12.6629 8.4883 8.3467 32.1137
#
#
#
# Elastic Compliance Matrix: (Units=1/GPa)
#
#
# Indices 1 2 3 4 5 6 
#
# 1 0.008106 -0.002998 -0.001253 -0.003468 -0.001868 0.001945
# 2 -0.002998 0.014607 -0.006866 -0.000530 0.004107 -0.001654
# 3 -0.001253 -0.006866 0.017389 -0.001261 -0.007256 -0.002790
# 4 -0.003468 -0.000530 -0.001261 0.026147 -0.002892 -0.005224
# 5 -0.001868 0.004107 -0.007256 -0.002892 0.037913 -0.007104
# 6 0.001945 -0.001654 -0.002790 -0.005224 -0.007104 0.035715
#
#
# Mechanical properties :
#
#
# Convention : Reuss Voigt Hill
#
# Bulk Modulus (GPa) = 55.96311 68.78185 62.37248
# Shear Modulus (GPa) = 29.75004 36.35858 33.05431
#
# Velocity S-wave (km/s) = 3.57670 3.95405 3.77010
# Velocity P-wave (km/s) = 6.41262 7.10090 6.76552
#
# Compressibility (1/GPa) = 0.01786891
#
# Stress axis : x y z
#
# Youngs Moduli (GPa) = 123.36342 68.45841 57.50803
#
# Poissons Ratio (x) = 0.20525 0.07206
# Poissons Ratio (y) = 0.36986 0.39482
# Poissons Ratio (z) = 0.15459 0.47000
#
# Static dielectric constant tensor:
#      x y z
#    x 4.211110 0.136270 0.385290 
#    y 0.136270 4.134540 0.219180 
#    z 0.385290 0.219180 4.099660 
# 
# 
# High freq. dielectric constant tensor:
#      x y z
#    x 1.931640 0.003970 0.022870 
#    y 0.003970 1.917910 0.017970 
#    z 0.022870 0.017970 1.914560 
# 
# From -- ./inp_files/27113.got.cif
#   From: 2010.06.25/outbox.cif.g09.slc.cpg/sg2_14_cif.got.tgz:27113.got - 2010.06.27 13:26:56.
