data_PCOD8031646
_publ_section_title
;
Structure prediction by ZEFSAII (Michael W. Deem and Ramdas Pophale) SiO2 
 PCOD8031646
Probable space group: P -1
;
_chemical_formula_sum "Si O2"
_cell_formula_units_Z 16
_cell_length_a 10.052160
_cell_length_b 23.905349
_cell_length_c 20.043380
_cell_angle_alpha 15.872279
_cell_angle_beta 33.743753
_cell_angle_gamma 33.801898
_cell_volume 716.178169
_symmetry_space_group_name_H-M "P -1"
_symmetry_group_IT_number 2
_symmetry_cell_setting 'triclinic'
loop_
_space_group_symop_operation_xyz
x,y,z
-x,-y,-z
loop_
_atom_site_type_symbol
_atom_site_label
_atom_site_fract_x
_atom_site_fract_y
_atom_site_fract_z
Si Si1 0.016199 0.523692 0.773003
Si Si2 0.509688 0.191778 0.322270
Si Si3 0.735585 0.055006 0.016416
Si Si4 0.737070 0.888228 0.066741
Si Si5 0.883299 0.370040 0.877150
Si Si6 0.514113 0.516979 0.627671
Si Si7 0.169580 0.808290 0.686189
Si Si8 0.550672 0.659000 0.591944
O O1 0.767464 0.695332 0.678855
O O2 0.070764 0.446707 0.762139
O O3 0.245639 0.618085 0.593900
O O4 0.002446 0.328441 0.050416
O O5 0.649739 0.120535 0.415377
O O6 0.500000 0.000000 0.500000
O O7 0.650687 0.344364 0.048313
O O8 0.597911 0.284070 0.832154
O O9 0.776270 0.036106 0.941713
O O10 0.571662 0.891973 0.294893
O O11 0.000000 0.000000 0.000000
O O12 0.707058 0.657201 0.366341
O O13 0.976883 0.846990 0.966334
O O14 0.500000 0.000000 0.000000
O O15 0.799545 0.542315 0.657513
O O16 0.499077 0.518478 0.712388
O O17 0.326550 0.668634 0.724446
O O18 0.000000 0.000000 0.500000
#
# Coordination Sequence:
#
# PCOD8031646 Si02
#       8
#     2   2   2   2   2   2   2   2
#     4  11  23  45  66  94 137 172 216 275 327 399
#     4  11  25  42  66 100 133 172 222 273 333 392
#     4  11  24  44  66  98 133 170 223 277 332 388
#     4  11  26  43  67  97 130 173 223 274 329 391
#     4  11  22  45  68  90 131 175 219 272 330 396
#     4  11  26  43  66 100 134 173 221 275 331 392
#     4  11  23  42  66  97 132 174 220 271 330 394
#     4  11  23  43  67  96 134 172 218 271 333 392
#
# _framework density 22.340807999999999
#
# number of rings (size 3 to 8) (size 9 to 14) (size 15 to 20)
#    0.000    1.000    2.500    3.750    3.500   10.500 
#    0.000    0.000    0.000    0.000    0.000    0.000 
#    0.000    0.000    0.000    0.000    0.000    0.000 
#
# Total GULP energy -198443.902152 kJ/mol
# GULP energy per Si atom -12402.743885 kJ/mol
# Density = 2.228996 g / cm^3
# Si number density = 22.340808 Si / 1000 Ang^3
#
#
#
# Elastic Constant Matrix: (Units=GPa)
#
#
# Indices 1 2 3 4 5 6 
#
# 1 167.8251 66.2870 28.2487 -11.1193 3.7578 16.0913
# 2 66.2870 140.6886 16.7271 -20.4398 0.4367 16.7546
# 3 28.2487 16.7271 47.3370 -25.0507 -4.1451 6.9505
# 4 -11.1193 -20.4398 -25.0507 32.6254 -3.5448 -3.4818
# 5 3.7578 0.4367 -4.1451 -3.5448 37.3910 -6.6238
# 6 16.0913 16.7546 6.9505 -3.4818 -6.6238 50.5338
#
#
#
# Elastic Compliance Matrix: (Units=1/GPa)
#
#
# Indices 1 2 3 4 5 6 
#
# 1 0.008294 -0.003694 -0.006013 -0.004457 -0.002087 -0.001170
# 2 -0.003694 0.009733 0.002729 0.006834 0.000882 -0.001840
# 3 -0.006013 0.002729 0.041889 0.032542 0.008043 -0.001455
# 4 -0.004457 0.006834 0.032542 0.059449 0.009618 0.000034
# 5 -0.002087 0.000882 0.008043 0.009618 0.029418 0.003784
# 6 -0.001170 -0.001840 -0.001455 0.000034 0.003784 0.021470
#
#
# Mechanical properties :
#
#
# Convention : Reuss Voigt Hill
#
# Bulk Modulus (GPa) = 21.75888 64.26404 43.01146
# Shear Modulus (GPa) = 25.05915 40.41588 32.73752
#
# Velocity S-wave (km/s) = 3.35278 4.25792 3.83217
# Velocity P-wave (km/s) = 4.97482 7.28017 6.23497
#
# Compressibility (1/GPa) = 0.04595826
#
# Stress axis : x y z
#
# Youngs Moduli (GPa) = 120.57626 102.74066 23.87289
#
# Poissons Ratio (x) = 0.37956 0.14355
# Poissons Ratio (y) = 0.44545 -0.06515
# Poissons Ratio (z) = 0.72505 -0.28038
#
# Static dielectric constant tensor:
#      x y z
#    x 4.448400 0.150240 -0.019210 
#    y 0.150240 4.149730 0.019860 
#    z -0.019210 0.019860 4.052600 
# 
# 
# High freq. dielectric constant tensor:
#      x y z
#    x 1.898660 0.006450 0.005760 
#    y 0.006450 1.894700 -0.003980 
#    z 0.005760 -0.003980 1.864620 
# 
# From -- ./inp_files/226548.got.cif
#   From: 2010.06.25/outbox.cif.g09.slc.cpg/sg2_114_cif.got.tgz:226548.got - 2010.06.27 13:26:56.
