data_PCOD8031861
_publ_section_title
;
Structure prediction by ZEFSAII (Michael W. Deem and Ramdas Pophale) SiO2 
 PCOD8031861
Probable space group: P -1
;
_chemical_formula_sum "Si O2"
_cell_formula_units_Z 10
_cell_length_a 4.893236
_cell_length_b 13.682937
_cell_length_c 16.957961
_cell_angle_alpha 155.421181
_cell_angle_beta 51.106759
_cell_angle_gamma 120.524595
_cell_volume 360.527752
_symmetry_space_group_name_H-M "P -1"
_symmetry_group_IT_number 2
_symmetry_cell_setting 'triclinic'
loop_
_space_group_symop_operation_xyz
x,y,z
-x,-y,-z
loop_
_atom_site_type_symbol
_atom_site_label
_atom_site_fract_x
_atom_site_fract_y
_atom_site_fract_z
Si Si1 0.181807 0.356245 0.092925
Si Si2 0.004351 0.144441 0.526049
Si Si3 0.073899 0.720559 0.761554
Si Si4 0.896292 0.063068 0.805245
Si Si5 0.341071 0.637299 0.487445
O O1 0.844263 0.401674 0.253249
O O2 0.300093 0.610053 0.240870
O O3 0.473587 0.162707 0.943284
O O4 0.078084 0.263193 0.959897
O O5 0.373951 0.243634 0.525669
O O6 0.939338 0.978613 0.343239
O O7 0.000000 0.000000 0.500000
O O8 0.720993 0.621778 0.722998
O O9 0.376083 0.650679 0.587198
O O10 0.000000 0.000000 0.000000
O O11 0.963063 0.823001 0.670067
#
# Coordination Sequence:
#
# PCOD8031861 Si02
#       5
#     2   2   2   2   2
#     4  12  27  48  79 116 155 205 257 319 401 462
#     4  12  29  54  79 110 158 210 264 328 383 454
#     4  11  22  47  79 116 158 204 248 322 393 473
#     4  12  25  51  74 118 156 197 268 317 383 473
#     4  11  25  49  77 116 158 203 261 316 389 471
#
# _framework density 27.737117000000001
#
# number of rings (size 3 to 8) (size 9 to 14) (size 15 to 20)
#    0.000    0.400    6.000    1.200    0.000    4.000 
#   10.800    0.000    0.000    0.000    0.000    0.000 
#    0.000    0.000    0.000    0.000    0.000    0.000 
#
# Total GULP energy -123921.888737 kJ/mol
# GULP energy per Si atom -12392.188874 kJ/mol
# Density = 2.767399 g / cm^3
# Si number density = 27.737117 Si / 1000 Ang^3
#
#
#
# Elastic Constant Matrix: (Units=GPa)
#
#
# Indices 1 2 3 4 5 6 
#
# 1 131.7013 56.5814 64.7198 -0.5346 17.9455 -20.1562
# 2 56.5814 221.1870 85.6086 7.4510 20.0104 -38.8509
# 3 64.7198 85.6086 190.9491 -5.6750 50.2367 -23.3650
# 4 -0.5346 7.4510 -5.6750 38.0794 -16.9332 10.7221
# 5 17.9455 20.0104 50.2367 -16.9332 57.0969 -2.2330
# 6 -20.1562 -38.8509 -23.3650 10.7221 -2.2330 46.0038
#
#
#
# Elastic Compliance Matrix: (Units=1/GPa)
#
#
# Indices 1 2 3 4 5 6 
#
# 1 0.009657 -0.001042 -0.002325 -0.001051 -0.000843 0.002375
# 2 -0.001042 0.006574 -0.001753 -0.003533 -0.001288 0.004966
# 3 -0.002325 -0.001753 0.008844 -0.002072 -0.006967 0.002138
# 4 -0.001051 -0.003533 -0.002072 0.036141 0.013630 -0.012258
# 5 -0.000843 -0.001288 -0.006967 0.013630 0.028137 -0.006807
# 6 0.002375 0.004966 0.002138 -0.012258 -0.006807 0.030584
#
#
# Mechanical properties :
#
#
# Convention : Reuss Voigt Hill
#
# Bulk Modulus (GPa) = 67.40427 106.40633 86.90530
# Shear Modulus (GPa) = 37.00421 50.69786 43.85104
#
# Velocity S-wave (km/s) = 3.65650 4.27991 3.98043
# Velocity P-wave (km/s) = 6.49465 7.92901 7.24741
#
# Compressibility (1/GPa) = 0.01483585
#
# Stress axis : x y z
#
# Youngs Moduli (GPa) = 103.55156 152.12204 113.07534
#
# Poissons Ratio (x) = 0.15847 0.26289
# Poissons Ratio (y) = 0.10787 0.19818
# Poissons Ratio (z) = 0.24075 0.26661
#
# Static dielectric constant tensor:
#      x y z
#    x 5.417090 -0.590760 -0.405000 
#    y -0.590760 4.918640 0.174180 
#    z -0.405000 0.174180 6.189120 
# 
# 
# High freq. dielectric constant tensor:
#      x y z
#    x 2.126190 -0.032260 -0.001100 
#    y -0.032260 2.105720 0.005990 
#    z -0.001100 0.005990 2.162120 
# 
# From -- ./inp_files/4280.got.cif
#   From: 2010.06.25/outbox.cif.g09.slc.cpg/sg2_3_cif.got.tgz:4280.got - 2010.06.27 13:26:56.
