data_PCOD8031012
_publ_section_title
;
Structure prediction by ZEFSAII (Michael W. Deem and Ramdas Pophale) SiO2 
 PCOD8031012
Probable space group: P -1
;
_chemical_formula_sum "Si O2"
_cell_formula_units_Z 12
_cell_length_a 13.993775
_cell_length_b 8.345422
_cell_length_c 9.448638
_cell_angle_alpha 65.551573
_cell_angle_beta 122.101471
_cell_angle_gamma 146.864732
_cell_volume 509.790004
_symmetry_space_group_name_H-M "P -1"
_symmetry_group_IT_number 2
_symmetry_cell_setting 'triclinic'
loop_
_space_group_symop_operation_xyz
x,y,z
-x,-y,-z
loop_
_atom_site_type_symbol
_atom_site_label
_atom_site_fract_x
_atom_site_fract_y
_atom_site_fract_z
Si Si1 0.026787 0.427259 0.401872
Si Si2 0.357076 0.830401 0.323648
Si Si3 0.685830 0.623491 0.570757
Si Si4 0.284403 0.154152 0.766879
Si Si5 0.908092 0.786909 0.274476
Si Si6 0.550790 0.219794 0.063899
O O1 0.168132 0.679392 0.300714
O O2 0.106919 0.335351 0.542430
O O3 0.000000 0.500000 0.500000
O O4 0.825428 0.153421 0.268219
O O5 0.329683 0.601119 0.320454
O O6 0.500000 0.000000 0.500000
O O7 0.437573 0.055261 0.182015
O O8 0.500000 0.500000 0.500000
O O9 0.703152 0.673331 0.398966
O O10 0.867783 0.927063 0.690568
O O11 0.169781 0.110211 0.817107
O O12 0.483906 0.325492 0.911444
O O13 0.777716 0.516825 0.157426
O O14 0.500000 0.000000 0.000000
#
# Coordination Sequence:
#
# PCOD8031012 Si02
#       6
#     2   2   2   2   2   2
#     4  11  22  41  72 102 136 184 236 288 345 411
#     4  12  24  44  70 106 137 178 243 287 337 428
#     4  11  23  43  72 101 133 183 242 281 337 426
#     4  11  22  44  70  96 142 185 225 288 357 407
#     4  11  22  46  69  95 138 191 229 280 356 418
#     4  12  26  44  71 106 146 181 229 294 362 410
#
# _framework density 23.539103999999998
#
# number of rings (size 3 to 8) (size 9 to 14) (size 15 to 20)
#    0.000    0.667    5.000    3.500    4.667    0.667 
#    0.000    3.333    0.000    0.000    0.000    0.000 
#    0.000    0.000    0.000    0.000    0.000    0.000 
#
# Total GULP energy -148669.908267 kJ/mol
# GULP energy per Si atom -12389.159022 kJ/mol
# Density = 2.348553 g / cm^3
# Si number density = 23.539104 Si / 1000 Ang^3
#
#
#
# Elastic Constant Matrix: (Units=GPa)
#
#
# Indices 1 2 3 4 5 6 
#
# 1 119.5966 38.1398 17.6727 13.8279 -1.2778 7.9222
# 2 38.1398 113.2489 35.9212 38.8836 -1.3493 4.0112
# 3 17.6727 35.9212 82.4261 29.5789 8.9644 -1.6319
# 4 13.8279 38.8836 29.5789 37.2885 0.7538 6.9755
# 5 -1.2778 -1.3493 8.9644 0.7538 39.2368 4.8950
# 6 7.9222 4.0112 -1.6319 6.9755 4.8950 36.9115
#
#
#
# Elastic Compliance Matrix: (Units=1/GPa)
#
#
# Indices 1 2 3 4 5 6 
#
# 1 0.009553 -0.003106 -0.001168 0.000991 0.000707 -0.002045
# 2 -0.003106 0.014917 -0.000836 -0.014048 0.000676 0.001574
# 3 -0.001168 -0.000836 0.018342 -0.013976 -0.004537 0.004395
# 4 0.000991 -0.014048 -0.013976 0.053977 0.002940 -0.009894
# 5 0.000707 0.000676 -0.004537 0.002940 0.027083 -0.004573
# 6 -0.002045 0.001574 0.004395 -0.009894 -0.004573 0.030030
#
#
# Mechanical properties :
#
#
# Convention : Reuss Voigt Hill
#
# Bulk Modulus (GPa) = 30.68165 55.41547 43.04856
# Shear Modulus (GPa) = 28.57346 37.58990 33.08168
#
# Velocity S-wave (km/s) = 3.48785 4.00047 3.75292
# Velocity P-wave (km/s) = 5.41135 6.70309 6.09156
#
# Compressibility (1/GPa) = 0.03259277
#
# Stress axis : x y z
#
# Youngs Moduli (GPa) = 104.67862 67.03699 54.51827
#
# Poissons Ratio (x) = 0.20824 0.06365
# Poissons Ratio (y) = 0.32517 0.04558
# Poissons Ratio (z) = 0.12222 0.05604
#
# Static dielectric constant tensor:
#      x y z
#    x 3.666350 0.026340 0.094850 
#    y 0.026340 4.674650 0.028510 
#    z 0.094850 0.028510 4.314700 
# 
# 
# High freq. dielectric constant tensor:
#      x y z
#    x 1.930920 -0.003700 0.012100 
#    y -0.003700 1.933230 0.021130 
#    z 0.012100 0.021130 1.916080 
# 
# From -- ./inp_files/148963.got.cif
#   From: 2010.06.25/outbox.cif.g09.slc.cpg/sg2_75_cif.got.tgz:148963.got - 2010.06.27 13:26:56.
