data_PCOD8031064
_publ_section_title
;
Structure prediction by ZEFSAII (Michael W. Deem and Ramdas Pophale) SiO2 
 PCOD8031064
Probable space group: P -1
;
_chemical_formula_sum "Si O2"
_cell_formula_units_Z 14
_cell_length_a 14.715371
_cell_length_b 6.701717
_cell_length_c 15.470026
_cell_angle_alpha 68.953135
_cell_angle_beta 25.956694
_cell_angle_gamma 69.989486
_cell_volume 622.511181
_symmetry_space_group_name_H-M "P -1"
_symmetry_group_IT_number 2
_symmetry_cell_setting 'triclinic'
loop_
_space_group_symop_operation_xyz
x,y,z
-x,-y,-z
loop_
_atom_site_type_symbol
_atom_site_label
_atom_site_fract_x
_atom_site_fract_y
_atom_site_fract_z
Si Si1 0.864326 0.992679 0.369693
Si Si2 0.922448 0.668914 0.108498
Si Si3 0.560380 0.633049 0.692398
Si Si4 0.494740 0.664162 0.055784
Si Si5 0.854758 0.970028 0.711220
Si Si6 0.379790 0.574450 0.504394
Si Si7 0.189764 0.942466 0.947311
O O1 0.675489 0.171509 0.492545
O O2 0.995219 0.050355 0.332261
O O3 0.774091 0.756911 0.491498
O O4 0.010714 0.992913 0.161686
O O5 0.833596 0.550841 0.286172
O O6 0.113389 0.803651 0.954083
O O7 0.000000 0.500000 0.000000
O O8 0.750810 0.829072 0.180901
O O9 0.566979 0.445702 0.785381
O O10 0.510919 0.517926 0.661607
O O11 0.384932 0.813290 0.841729
O O12 0.312579 0.836856 0.163301
O O13 0.500000 0.500000 0.000000
O O14 0.723878 0.757279 0.849986
O O15 0.000000 0.000000 0.500000
O O16 0.500000 0.500000 0.500000
#
# Coordination Sequence:
#
# PCOD8031064 Si02
#       7
#     2   2   2   2   2   2   2
#     4  12  26  45  70 104 139 185 239 288 352 425
#     4  11  22  42  65  93 136 188 232 286 340 398
#     4  12  27  44  69 106 142 182 235 296 351 419
#     4  11  26  48  75 106 141 180 229 296 361 419
#     4  11  26  47  75 105 139 181 235 288 354 433
#     4  12  26  42  68 100 146 190 239 291 347 408
#     4  11  25  41  68  97 136 184 241 280 344 413
#
# _framework density 22.489554999999999
#
# number of rings (size 3 to 8) (size 9 to 14) (size 15 to 20)
#    0.000    0.571    2.857    4.286    4.000   10.286 
#    0.000    0.000    0.000    0.000    0.000    0.000 
#    0.000    0.000    0.000    0.000    0.000    0.000 
#
# Total GULP energy -173603.320074 kJ/mol
# GULP energy per Si atom -12400.237148 kJ/mol
# Density = 2.243837 g / cm^3
# Si number density = 22.489555 Si / 1000 Ang^3
#
#
#
# Elastic Constant Matrix: (Units=GPa)
#
#
# Indices 1 2 3 4 5 6 
#
# 1 145.4718 48.9712 31.9420 5.4106 12.7202 9.0925
# 2 48.9712 114.5795 34.4548 -1.1658 13.2711 6.6816
# 3 31.9420 34.4548 91.9170 -2.8701 20.5799 6.6607
# 4 5.4106 -1.1658 -2.8701 44.6678 -7.0095 6.2783
# 5 12.7202 13.2711 20.5799 -7.0095 35.8974 5.9114
# 6 9.0925 6.6816 6.6607 6.2783 5.9114 40.7192
#
#
#
# Elastic Compliance Matrix: (Units=1/GPa)
#
#
# Indices 1 2 3 4 5 6 
#
# 1 0.008405 -0.002967 -0.001542 -0.001260 -0.001115 -0.000782
# 2 -0.002967 0.011009 -0.002758 0.000348 -0.001277 -0.000561
# 3 -0.001542 -0.002758 0.013902 0.000103 -0.006289 -0.000580
# 4 -0.001260 0.000348 0.000103 0.024053 0.005668 -0.004324
# 5 -0.001115 -0.001277 -0.006289 0.005668 0.034152 -0.004345
# 6 -0.000782 -0.000561 -0.000580 -0.004324 -0.004345 0.026217
#
#
# Mechanical properties :
#
#
# Convention : Reuss Voigt Hill
#
# Bulk Modulus (GPa) = 53.24063 64.74492 58.99278
# Shear Modulus (GPa) = 36.09267 40.03022 38.06145
#
# Velocity S-wave (km/s) = 4.01042 4.22352 4.11835
# Velocity P-wave (km/s) = 6.72083 7.25503 6.99303
#
# Compressibility (1/GPa) = 0.01878265
#
# Stress axis : x y z
#
# Youngs Moduli (GPa) = 118.98291 90.83370 71.93037
#
# Poissons Ratio (x) = 0.26947 0.11090
# Poissons Ratio (y) = 0.35298 0.19841
# Poissons Ratio (z) = 0.18344 0.25055
#
# Static dielectric constant tensor:
#      x y z
#    x 3.303760 -0.240770 0.680990 
#    y -0.240770 4.196840 0.012690 
#    z 0.680990 0.012690 4.121600 
# 
# 
# High freq. dielectric constant tensor:
#      x y z
#    x 1.888220 0.002590 0.003460 
#    y 0.002590 1.907260 -0.005000 
#    z 0.003460 -0.005000 1.896420 
# 
# From -- ./inp_files/525577.got.cif
#   From: 2010.06.25/outbox.cif.g09.slc.cpg/sg2_263_cif.got.tgz:525577.got - 2010.06.27 13:26:56.
