data_PCOD8031463
_publ_section_title
;
Structure prediction by ZEFSAII (Michael W. Deem and Ramdas Pophale) SiO2 
 PCOD8031463
Probable space group: P -1
;
_chemical_formula_sum "Si O2"
_cell_formula_units_Z 16
_cell_length_a 14.334712
_cell_length_b 14.089391
_cell_length_c 9.270084
_cell_angle_alpha 88.916818
_cell_angle_beta 110.242142
_cell_angle_gamma 150.533324
_cell_volume 683.581175
_symmetry_space_group_name_H-M "P -1"
_symmetry_group_IT_number 2
_symmetry_cell_setting 'triclinic'
loop_
_space_group_symop_operation_xyz
x,y,z
-x,-y,-z
loop_
_atom_site_type_symbol
_atom_site_label
_atom_site_fract_x
_atom_site_fract_y
_atom_site_fract_z
Si Si1 0.418619 0.033419 0.621506
Si Si2 0.996731 0.784089 0.300756
Si Si3 0.213831 0.661485 0.446767
Si Si4 0.623401 0.377032 0.327932
Si Si5 0.272095 0.775196 0.989455
Si Si6 0.293290 0.430827 0.353109
Si Si7 0.847298 0.877081 0.570053
Si Si8 0.893425 0.180539 0.952975
O O1 0.223637 0.949931 0.526948
O O2 0.267466 0.800741 0.569571
O O3 0.540875 0.145160 0.525579
O O4 0.633043 0.228451 0.856796
O O5 0.007087 0.734137 0.160053
O O6 0.730077 0.527883 0.243386
O O7 0.030241 0.925471 0.286550
O O8 0.189524 0.548330 0.540236
O O9 0.967346 0.467550 0.224992
O O10 0.606140 0.431497 0.452456
O O11 0.340144 0.096611 0.141815
O O12 0.199475 0.796106 0.058250
O O13 0.500000 0.000000 0.000000
O O14 0.542397 0.622146 0.386268
O O15 0.122754 0.188843 0.309993
O O16 0.122923 0.354927 0.176608
O O17 0.000000 0.000000 0.500000
#
# Coordination Sequence:
#
# PCOD8031463 Si02
#       8
#     2   2   2   2   2   2   2   2
#     4  11  23  43  68  98 144 185 234 291 345 415
#     4  12  26  45  74 102 146 190 236 298 357 417
#     4  11  22  44  67  98 139 189 235 288 346 414
#     4  12  23  47  73 102 145 190 232 292 356 422
#     4  12  26  41  67 104 143 190 241 287 347 423
#     4  11  25  47  81 103 143 187 231 301 357 424
#     4  11  24  49  77 109 139 184 238 293 368 424
#     4  12  26  48  69 111 144 182 244 291 351 427
#
# _framework density 23.406143
#
# number of rings (size 3 to 8) (size 9 to 14) (size 15 to 20)
#    0.000    0.500    6.250    1.875    1.750    2.500 
#    0.000    1.250    0.000    0.000    0.000    0.000 
#    0.000    0.000    0.000    0.000    0.000    0.000 
#
# Total GULP energy -198470.963186 kJ/mol
# GULP energy per Si atom -12404.435199 kJ/mol
# Density = 2.335287 g / cm^3
# Si number density = 23.406143 Si / 1000 Ang^3
#
#
#
# Elastic Constant Matrix: (Units=GPa)
#
#
# Indices 1 2 3 4 5 6 
#
# 1 58.9503 17.7116 7.0557 -7.0183 1.5062 13.9738
# 2 17.7116 103.4840 11.5509 -5.2154 -3.3355 15.4202
# 3 7.0557 11.5509 72.9381 5.1351 -2.3660 14.9873
# 4 -7.0183 -5.2154 5.1351 31.4136 -0.4327 -0.8749
# 5 1.5062 -3.3355 -2.3660 -0.4327 23.7988 -2.6628
# 6 13.9738 15.4202 14.9873 -0.8749 -2.6628 47.2562
#
#
#
# Elastic Compliance Matrix: (Units=1/GPa)
#
#
# Indices 1 2 3 4 5 6 
#
# 1 0.019430 -0.002393 -0.000873 0.003925 -0.002110 -0.004734
# 2 -0.002393 0.010647 -0.001026 0.001353 0.001304 -0.002343
# 3 -0.000873 -0.001026 0.015052 -0.002930 0.000886 -0.004185
# 4 0.003925 0.001353 -0.002930 0.033416 0.000253 -0.000040
# 5 -0.002110 0.001304 0.000886 0.000253 0.042688 0.002327
# 6 -0.004734 -0.002343 -0.004185 -0.000040 0.002327 0.024783
#
#
# Mechanical properties :
#
#
# Convention : Reuss Voigt Hill
#
# Bulk Modulus (GPa) = 27.36301 34.22320 30.79310
# Shear Modulus (GPa) = 29.97908 33.76400 31.87154
#
# Velocity S-wave (km/s) = 3.58274 3.80218 3.69409
# Velocity P-wave (km/s) = 5.36941 5.82483 5.60175
#
# Compressibility (1/GPa) = 0.03654569
#
# Stress axis : x y z
#
# Youngs Moduli (GPa) = 51.46594 93.92547 66.43536
#
# Poissons Ratio (x) = 0.22475 0.05798
# Poissons Ratio (y) = 0.12315 0.06818
# Poissons Ratio (z) = 0.04491 0.09639
#
# Static dielectric constant tensor:
#      x y z
#    x 4.280700 -0.039140 0.049590 
#    y -0.039140 4.442650 0.085890 
#    z 0.049590 0.085890 4.111440 
# 
# 
# High freq. dielectric constant tensor:
#      x y z
#    x 1.924600 0.004140 0.001010 
#    y 0.004140 1.945580 0.005140 
#    z 0.001010 0.005140 1.908810 
# 
# From -- ./inp_files/315334.got.cif
#   From: 2010.06.25/outbox.cif.g09.slc.cpg/sg2_158_cif.got.tgz:315334.got - 2010.06.27 13:26:56.
