data_PCOD8031065
_publ_section_title
;
Structure prediction by ZEFSAII (Michael W. Deem and Ramdas Pophale) SiO2 
 PCOD8031065
Probable space group: P -1
;
_chemical_formula_sum "Si O2"
_cell_formula_units_Z 16
_cell_length_a 10.462577
_cell_length_b 14.591407
_cell_length_c 7.398441
_cell_angle_alpha 81.390898
_cell_angle_beta 39.048628
_cell_angle_gamma 75.958736
_cell_volume 688.897901
_symmetry_space_group_name_H-M "P -1"
_symmetry_group_IT_number 2
_symmetry_cell_setting 'triclinic'
loop_
_space_group_symop_operation_xyz
x,y,z
-x,-y,-z
loop_
_atom_site_type_symbol
_atom_site_label
_atom_site_fract_x
_atom_site_fract_y
_atom_site_fract_z
Si Si1 0.944309 0.410993 0.681020
Si Si2 0.679441 0.368186 0.679479
Si Si3 0.585939 0.753454 0.513380
Si Si4 0.451186 0.553574 0.718449
Si Si5 0.680669 0.730715 0.793619
Si Si6 0.932497 0.763697 0.852036
Si Si7 0.993908 0.027513 0.287003
Si Si8 0.324176 0.943429 0.667489
O O1 0.789684 0.358090 0.754002
O O2 0.000000 0.500000 0.500000
O O3 0.163424 0.342158 0.487123
O O4 0.799002 0.440620 0.004063
O O5 0.591405 0.481050 0.724879
O O6 0.857018 0.317903 0.358101
O O7 0.489552 0.314086 0.901771
O O8 0.509673 0.655152 0.628420
O O9 0.587640 0.796691 0.706365
O O10 0.419077 0.832231 0.570118
O O11 0.802817 0.738855 0.171976
O O12 0.500000 0.500000 0.500000
O O13 0.805413 0.772562 0.798887
O O14 0.983561 0.865326 0.796022
O O15 0.780218 0.020196 0.421702
O O16 0.000000 0.000000 0.500000
O O17 0.170007 0.957028 0.004002
O O18 0.500000 0.000000 0.500000
#
# Coordination Sequence:
#
# PCOD8031065 Si02
#       8
#     2   2   2   2   2   2   2   2
#     4  11  22  42  65  93 138 190 244 300 354 424
#     4  11  24  46  65 100 147 190 248 300 354 438
#     4  12  27  47  74 106 151 197 241 309 372 439
#     4  12  26  41  70 104 142 197 248 299 364 435
#     4  11  25  45  73 103 146 197 246 297 377 429
#     4  11  28  45  73 110 146 191 247 308 362 452
#     4  11  28  49  81 111 146 193 246 309 379 446
#     4  11  27  52  76 112 154 188 244 311 378 451
#
# _framework density 23.225504000000001
#
# number of rings (size 3 to 8) (size 9 to 14) (size 15 to 20)
#    0.000    0.750    3.750    1.875   10.500    1.000 
#    0.000    0.000    0.000    0.000    0.000    0.000 
#    0.000    0.000    0.000    0.000    0.000    0.000 
#
# Total GULP energy -198215.677821 kJ/mol
# GULP energy per Si atom -12388.479864 kJ/mol
# Density = 2.317264 g / cm^3
# Si number density = 23.225504 Si / 1000 Ang^3
#
#
#
# Elastic Constant Matrix: (Units=GPa)
#
#
# Indices 1 2 3 4 5 6 
#
# 1 119.1257 13.5933 48.8957 -5.6045 2.1065 3.2314
# 2 13.5933 102.1476 57.6838 8.0963 -7.8822 -2.3559
# 3 48.8957 57.6838 168.9612 4.0086 -4.8542 -3.8308
# 4 -5.6045 8.0963 4.0086 34.9881 -2.7165 -3.2355
# 5 2.1065 -7.8822 -4.8542 -2.7165 42.8723 -1.0651
# 6 3.2314 -2.3559 -3.8308 -3.2355 -1.0651 34.0095
#
#
#
# Elastic Compliance Matrix: (Units=1/GPa)
#
#
# Indices 1 2 3 4 5 6 
#
# 1 0.009709 0.000159 -0.002950 0.001700 -0.000701 -0.001104
# 2 0.000159 0.012444 -0.004189 -0.002225 0.001670 0.000216
# 3 -0.002950 -0.004189 0.008239 -0.000340 0.000308 0.000895
# 4 0.001700 -0.002225 -0.000340 0.029750 0.001417 0.002521
# 5 -0.000701 0.001670 0.000308 0.001417 0.023819 0.001098
# 6 -0.001104 0.000216 0.000895 0.002521 0.001098 0.029898
#
#
# Mechanical properties :
#
#
# Convention : Reuss Voigt Hill
#
# Bulk Modulus (GPa) = 60.84772 70.06444 65.45608
# Shear Modulus (GPa) = 37.51016 40.37810 38.94413
#
# Velocity S-wave (km/s) = 4.02312 4.17408 4.09930
# Velocity P-wave (km/s) = 6.91637 7.31185 7.11686
#
# Compressibility (1/GPa) = 0.01643447
#
# Stress axis : x y z
#
# Youngs Moduli (GPa) = 102.99350 80.35820 121.36669
#
# Poissons Ratio (x) = -0.01280 0.35800
# Poissons Ratio (y) = -0.01641 0.50840
# Poissons Ratio (z) = 0.30380 0.33662
#
# Static dielectric constant tensor:
#      x y z
#    x 4.511010 -0.082720 -0.028670 
#    y -0.082720 4.064010 0.294440 
#    z -0.028670 0.294440 4.620840 
# 
# 
# High freq. dielectric constant tensor:
#      x y z
#    x 1.927330 0.001090 -0.004560 
#    y 0.001090 1.911210 0.013730 
#    z -0.004560 0.013730 1.936730 
# 
# From -- ./inp_files/272293.got.cif
#   From: 2010.06.25/outbox.cif.g09.slc.cpg/sg2_137_cif.got.tgz:272293.got - 2010.06.27 13:26:56.
