data_PCOD8031288
_publ_section_title
;
Structure prediction by ZEFSAII (Michael W. Deem and Ramdas Pophale) SiO2 
 PCOD8031288
Probable space group: P -1
;
_chemical_formula_sum "Si O2"
_cell_formula_units_Z 16
_cell_length_a 17.890672
_cell_length_b 9.009458
_cell_length_c 12.240147
_cell_angle_alpha 87.450659
_cell_angle_beta 128.048774
_cell_angle_gamma 135.899989
_cell_volume 742.999137
_symmetry_space_group_name_H-M "P -1"
_symmetry_group_IT_number 2
_symmetry_cell_setting 'triclinic'
loop_
_space_group_symop_operation_xyz
x,y,z
-x,-y,-z
loop_
_atom_site_type_symbol
_atom_site_label
_atom_site_fract_x
_atom_site_fract_y
_atom_site_fract_z
Si Si1 0.152668 0.358476 0.814811
Si Si2 0.286929 0.276938 0.802064
Si Si3 0.669328 0.369372 0.808341
Si Si4 0.012728 0.353258 0.062295
Si Si5 0.725008 0.666938 0.453859
Si Si6 0.064702 0.426083 0.529454
Si Si7 0.266012 0.657286 0.482354
Si Si8 0.602288 0.621450 0.704148
O O1 0.246094 0.330201 0.863712
O O2 0.166683 0.494712 0.724935
O O3 0.274592 0.592615 0.017757
O O4 0.928196 0.023019 0.664426
O O5 0.268454 0.343607 0.670804
O O6 0.500000 0.500000 0.000000
O O7 0.125235 0.925516 0.670972
O O8 0.834849 0.536414 0.871370
O O9 0.657177 0.527813 0.776992
O O10 0.462391 0.007975 0.604663
O O11 0.083400 0.455502 0.248215
O O12 0.000000 0.500000 0.000000
O O13 0.797079 0.987315 0.873623
O O14 0.699778 0.472114 0.492356
O O15 0.546102 0.528282 0.330191
O O16 0.223007 0.649925 0.567155
O O17 0.000000 0.500000 0.500000
O O18 0.500000 0.500000 0.500000
#
# Coordination Sequence:
#
# PCOD8031288 Si02
#       8
#     2   2   2   2   2   2   2   2
#     4  11  23  46  66 100 141 175 226 274 335 399
#     4  11  23  42  68  98 140 178 224 267 338 404
#     4  12  27  43  70 103 134 176 225 286 334 401
#     4  12  27  48  70  97 136 179 225 282 343 399
#     4  11  22  43  68  95 131 183 216 273 338 401
#     4  11  26  42  68 101 138 182 220 281 328 397
#     4  12  25  45  68  97 140 176 228 271 341 404
#     4  12  25  44  72 101 131 173 232 281 338 399
#
# _framework density 21.534344000000001
#
# number of rings (size 3 to 8) (size 9 to 14) (size 15 to 20)
#    0.000    0.500    2.500    6.000    8.750    1.500 
#    0.000    0.000    0.000    0.000    0.000    0.000 
#    0.000    0.000    0.000    0.000    0.000    0.000 
#
# Total GULP energy -198545.370604 kJ/mol
# GULP energy per Si atom -12409.085663 kJ/mol
# Density = 2.148533 g / cm^3
# Si number density = 21.534344 Si / 1000 Ang^3
#
#
#
# Elastic Constant Matrix: (Units=GPa)
#
#
# Indices 1 2 3 4 5 6 
#
# 1 119.0934 43.1559 18.7999 -0.7737 21.5086 1.6905
# 2 43.1559 106.2850 41.6728 0.6164 8.3865 -8.3578
# 3 18.7999 41.6728 123.0684 6.2236 0.0312 2.0899
# 4 -0.7737 0.6164 6.2236 39.2699 4.2855 10.0302
# 5 21.5086 8.3865 0.0312 4.2855 43.1155 -3.4699
# 6 1.6905 -8.3578 2.0899 10.0302 -3.4699 41.4511
#
#
#
# Elastic Compliance Matrix: (Units=1/GPa)
#
#
# Indices 1 2 3 4 5 6 
#
# 1 0.010841 -0.004053 -0.000318 0.001371 -0.004915 -0.001987
# 2 -0.004053 0.012773 -0.003735 -0.000441 -0.000173 0.003021
# 3 -0.000318 -0.003735 0.009521 -0.001352 0.000947 -0.000814
# 4 0.001371 -0.000441 -0.001352 0.027978 -0.003956 -0.007178
# 5 -0.004915 -0.000173 0.000947 -0.003956 0.026336 0.003280
# 6 -0.001987 0.003021 -0.000814 -0.007178 0.003280 0.026867
#
#
# Mechanical properties :
#
#
# Convention : Reuss Voigt Hill
#
# Bulk Modulus (GPa) = 59.09484 61.74490 60.41987
# Shear Modulus (GPa) = 36.71939 41.08853 38.90396
#
# Velocity S-wave (km/s) = 4.13383 4.37286 4.25502
# Velocity P-wave (km/s) = 7.09129 7.36416 7.22901
#
# Compressibility (1/GPa) = 0.01692195
#
# Stress axis : x y z
#
# Youngs Moduli (GPa) = 92.24535 78.29240 105.03426
#
# Poissons Ratio (x) = 0.31735 0.03338
# Poissons Ratio (y) = 0.37391 0.39228
# Poissons Ratio (z) = 0.02932 0.29240
#
# Static dielectric constant tensor:
#      x y z
#    x 4.158580 -0.016640 -0.175040 
#    y -0.016640 4.038690 0.062620 
#    z -0.175040 0.062620 4.408580 
# 
# 
# High freq. dielectric constant tensor:
#      x y z
#    x 1.857660 0.003420 0.003780 
#    y 0.003420 1.855760 -0.003640 
#    z 0.003780 -0.003640 1.857300 
# 
# From -- ./inp_files/187219.got.cif
#   From: 2010.06.25/outbox.cif.g09.slc.cpg/sg2_94_cif.got.tgz:187219.got - 2010.06.27 13:26:56.
