data_PCOD8031483
_publ_section_title
;
Structure prediction by ZEFSAII (Michael W. Deem and Ramdas Pophale) SiO2 
 PCOD8031483
Probable space group: P -1
;
_chemical_formula_sum "Si O2"
_cell_formula_units_Z 14
_cell_length_a 6.110960
_cell_length_b 18.961544
_cell_length_c 15.879102
_cell_angle_alpha 154.386658
_cell_angle_beta 57.000943
_cell_angle_gamma 132.841009
_cell_volume 569.437384
_symmetry_space_group_name_H-M "P -1"
_symmetry_group_IT_number 2
_symmetry_cell_setting 'triclinic'
loop_
_space_group_symop_operation_xyz
x,y,z
-x,-y,-z
loop_
_atom_site_type_symbol
_atom_site_label
_atom_site_fract_x
_atom_site_fract_y
_atom_site_fract_z
Si Si1 0.971554 0.882706 0.122798
Si Si2 0.948210 0.881267 0.799178
Si Si3 0.827366 0.838212 0.289020
Si Si4 0.449169 0.544833 0.782570
Si Si5 0.368045 0.718314 0.830590
Si Si6 0.132494 0.531695 0.098250
Si Si7 0.844367 0.394214 0.504379
O O1 0.953754 0.949125 0.292886
O O2 0.667535 0.670625 0.949177
O O3 0.956580 0.021212 0.206449
O O4 0.284015 0.881727 0.039089
O O5 0.576811 0.745369 0.732987
O O6 0.168391 0.801192 0.687727
O O7 0.000000 0.000000 0.000000
O O8 0.458452 0.727252 0.254189
O O9 0.895237 0.667972 0.089601
O O10 0.000000 0.000000 0.500000
O O11 0.541787 0.697914 0.852361
O O12 0.515286 0.376750 0.563068
O O13 0.092449 0.440577 0.764466
O O14 0.050504 0.523308 0.677123
O O15 0.000000 0.500000 0.000000
O O16 0.000000 0.500000 0.500000
#
# Coordination Sequence:
#
# PCOD8031483 Si02
#       7
#     2   2   2   2   2   2   2
#     4  11  23  44  72 107 150 194 245 314 380 449
#     4  12  23  43  70 106 148 196 242 308 376 437
#     4  11  26  49  80 117 152 192 261 327 384 461
#     4  11  22  45  74 103 145 201 248 302 377 455
#     4  11  22  44  69 100 149 193 241 301 372 449
#     4  11  24  50  82 105 150 205 253 319 398 444
#     4  11  24  42  69 102 147 198 250 296 360 458
#
# _framework density 24.58567
#
# number of rings (size 3 to 8) (size 9 to 14) (size 15 to 20)
#    0.000    0.857    5.714    1.714    0.000    0.571 
#    2.571    4.286    3.143    0.000    0.000    0.000 
#    0.000    0.000    0.000    0.000    0.000    0.000 
#
# Total GULP energy -173452.865946 kJ/mol
# GULP energy per Si atom -12389.490425 kJ/mol
# Density = 2.452971 g / cm^3
# Si number density = 24.585670 Si / 1000 Ang^3
#
#
#
# Elastic Constant Matrix: (Units=GPa)
#
#
# Indices 1 2 3 4 5 6 
#
# 1 148.4471 75.3915 71.1523 -6.9787 -26.8648 4.1902
# 2 75.3915 156.7193 58.4349 -17.5126 -12.0649 -2.5260
# 3 71.1523 58.4349 118.8854 -13.1897 -9.1141 -0.7170
# 4 -6.9787 -17.5126 -13.1897 31.3950 1.3268 -0.6593
# 5 -26.8648 -12.0649 -9.1141 1.3268 61.9885 -2.0744
# 6 4.1902 -2.5260 -0.7170 -0.6593 -2.0744 61.9783
#
#
#
# Elastic Compliance Matrix: (Units=1/GPa)
#
#
# Indices 1 2 3 4 5 6 
#
# 1 0.011607 -0.003618 -0.005092 -0.001748 0.003585 -0.000890
# 2 -0.003618 0.009264 -0.002000 0.003541 -0.000114 0.000633
# 3 -0.005092 -0.002000 0.012734 0.003144 -0.000777 0.000418
# 4 -0.001748 0.003541 0.003144 0.034788 -0.000329 0.000658
# 5 0.003585 -0.000114 -0.000777 -0.000329 0.017567 0.000329
# 6 -0.000890 0.000633 0.000418 0.000658 0.000329 0.016243
#
#
# Mechanical properties :
#
#
# Convention : Reuss Voigt Hill
#
# Bulk Modulus (GPa) = 82.07999 92.66768 87.37383
# Shear Modulus (GPa) = 39.15844 45.67722 42.41783
#
# Velocity S-wave (km/s) = 3.99524 4.31499 4.15819
# Velocity P-wave (km/s) = 7.39867 7.91196 7.65962
#
# Compressibility (1/GPa) = 0.01218324
#
# Stress axis : x y z
#
# Youngs Moduli (GPa) = 86.15765 107.93950 78.52946
#
# Poissons Ratio (x) = 0.39057 0.39991
# Poissons Ratio (y) = 0.31175 0.15707
# Poissons Ratio (z) = 0.43875 0.21589
#
# Static dielectric constant tensor:
#      x y z
#    x -9.777540 -14.069120 0.631100 
#    y -14.069120 -9.095090 0.504390 
#    z 0.631100 0.504390 4.272360 
# 
# 
# High freq. dielectric constant tensor:
#      x y z
#    x 2.003000 0.002550 0.004360 
#    y 0.002550 1.973540 -0.008490 
#    z 0.004360 -0.008490 1.965540 
# 
# From -- ./inp_files/343124.got.cif
#   From: 2010.06.25/outbox.cif.g09.slc.cpg/sg2_172_cif.got.tgz:343124.got - 2010.06.27 13:26:56.
