data_PCOD8031689
_publ_section_title
;
Structure prediction by ZEFSAII (Michael W. Deem and Ramdas Pophale) SiO2 
 PCOD8031689
Probable space group: P -1
;
_chemical_formula_sum "Si O2"
_cell_formula_units_Z 16
_cell_length_a 8.373645
_cell_length_b 8.984263
_cell_length_c 13.047220
_cell_angle_alpha 55.647320
_cell_angle_beta 116.868375
_cell_angle_gamma 102.631185
_cell_volume 721.991667
_symmetry_space_group_name_H-M "P -1"
_symmetry_group_IT_number 2
_symmetry_cell_setting 'triclinic'
loop_
_space_group_symop_operation_xyz
x,y,z
-x,-y,-z
loop_
_atom_site_type_symbol
_atom_site_label
_atom_site_fract_x
_atom_site_fract_y
_atom_site_fract_z
Si Si1 0.334363 0.047337 0.686945
Si Si2 0.346988 0.892594 0.546404
Si Si3 0.970218 0.163177 0.006584
Si Si4 0.014088 0.512533 0.770415
Si Si5 0.703485 0.502704 0.323747
Si Si6 0.444712 0.837020 0.115761
Si Si7 0.698214 0.570248 0.522021
Si Si8 0.009951 0.104969 0.271338
O O1 0.510729 0.100975 0.779640
O O2 0.287756 0.217587 0.532433
O O3 0.368243 0.886581 0.678504
O O4 0.176895 0.994605 0.738182
O O5 0.384141 0.686333 0.605164
O O6 0.500000 0.000000 0.500000
O O7 0.154139 0.975409 0.422122
O O8 0.759699 0.206177 0.942165
O O9 0.064905 0.340954 0.923703
O O10 0.058985 0.116301 0.160803
O O11 0.000000 0.000000 0.000000
O O12 0.148609 0.524578 0.710054
O O13 0.821462 0.469543 0.681941
O O14 0.009371 0.695395 0.763585
O O15 0.556342 0.654941 0.186152
O O16 0.781136 0.554393 0.437208
O O17 0.500000 0.000000 0.000000
O O18 0.500000 0.500000 0.500000
#
# Coordination Sequence:
#
# PCOD8031689 Si02
#       8
#     2   2   2   2   2   2   2   2
#     4  11  22  45  72 100 140 185 228 287 355 411
#     4  12  26  43  72 106 143 181 239 291 357 418
#     4  12  29  47  74 104 139 191 238 291 355 427
#     4  12  24  46  69 103 145 186 240 284 362 423
#     4  11  25  42  73 108 136 188 235 292 356 415
#     4  11  24  48  73 101 145 182 238 292 349 423
#     4  11  23  41  70 103 142 184 234 296 347 409
#     4  12  26  48  71 102 147 188 230 293 355 425
#
# _framework density 22.160920000000001
#
# number of rings (size 3 to 8) (size 9 to 14) (size 15 to 20)
#    0.000    0.500    3.750    4.875    7.000    0.000 
#    0.000    1.250    0.000    0.000    0.000    0.000 
#    0.000    0.000    0.000    0.000    0.000    0.000 
#
# Total GULP energy -198394.247544 kJ/mol
# GULP energy per Si atom -12399.640472 kJ/mol
# Density = 2.211048 g / cm^3
# Si number density = 22.160920 Si / 1000 Ang^3
#
#
#
# Elastic Constant Matrix: (Units=GPa)
#
#
# Indices 1 2 3 4 5 6 
#
# 1 75.3565 31.7455 21.9776 4.8064 -9.3384 1.9477
# 2 31.7455 120.5068 40.2035 -18.2467 3.5102 -7.5428
# 3 21.9776 40.2035 95.5512 -5.0144 -13.4970 -8.5833
# 4 4.8064 -18.2467 -5.0144 46.9942 1.5227 -6.7925
# 5 -9.3384 3.5102 -13.4970 1.5227 36.4918 -2.7999
# 6 1.9477 -7.5428 -8.5833 -6.7925 -2.7999 42.1546
#
#
#
# Elastic Compliance Matrix: (Units=1/GPa)
#
#
# Indices 1 2 3 4 5 6 
#
# 1 0.016573 -0.004699 -0.001692 -0.004172 0.004061 -0.002353
# 2 -0.004699 0.011892 -0.004016 0.005097 -0.003884 0.002091
# 3 -0.001692 -0.004016 0.013506 0.000249 0.005129 0.002490
# 4 -0.004172 0.005097 0.000249 0.024497 -0.002107 0.004963
# 5 0.004061 -0.003884 0.005129 -0.002107 0.030945 0.001878
# 6 -0.002353 0.002091 0.002490 0.004963 0.001878 0.025636
#
#
# Mechanical properties :
#
#
# Convention : Reuss Voigt Hill
#
# Bulk Modulus (GPa) = 47.26417 53.25196 50.25807
# Shear Modulus (GPa) = 33.13111 38.29399 35.71255
#
# Velocity S-wave (km/s) = 3.87075 4.16143 4.01872
# Velocity P-wave (km/s) = 6.43047 6.86817 6.65292
#
# Compressibility (1/GPa) = 0.02115768
#
# Stress axis : x y z
#
# Youngs Moduli (GPa) = 60.33808 84.09175 74.04248
#
# Poissons Ratio (x) = 0.39513 0.12525
# Poissons Ratio (y) = 0.28352 0.29736
# Poissons Ratio (z) = 0.10207 0.33772
#
# Static dielectric constant tensor:
#      x y z
#    x 4.035120 -0.121920 -0.118060 
#    y -0.121920 4.276830 0.198910 
#    z -0.118060 0.198910 4.725560 
# 
# 
# High freq. dielectric constant tensor:
#      x y z
#    x 1.866720 0.001710 -0.015370 
#    y 0.001710 1.890040 -0.003510 
#    z -0.015370 -0.003510 1.878110 
# 
# From -- ./inp_files/381478.got.cif
#   From: 2010.06.25/outbox.cif.g09.slc.cpg/sg2_191_cif.got.tgz:381478.got - 2010.06.27 13:26:56.
