data_PCOD8031863
_publ_section_title
;
Structure prediction by ZEFSAII (Michael W. Deem and Ramdas Pophale) SiO2 
 PCOD8031863
Probable space group: P -1
;
_chemical_formula_sum "Si O2"
_cell_formula_units_Z 12
_cell_length_a 8.770377
_cell_length_b 13.053772
_cell_length_c 9.802817
_cell_angle_alpha 104.014303
_cell_angle_beta 113.514155
_cell_angle_gamma 130.013320
_cell_volume 554.968336
_symmetry_space_group_name_H-M "P -1"
_symmetry_group_IT_number 2
_symmetry_cell_setting 'triclinic'
loop_
_space_group_symop_operation_xyz
x,y,z
-x,-y,-z
loop_
_atom_site_type_symbol
_atom_site_label
_atom_site_fract_x
_atom_site_fract_y
_atom_site_fract_z
Si Si1 0.341448 0.511401 0.524979
Si Si2 0.399778 0.214600 0.851507
Si Si3 0.404279 0.771657 0.565621
Si Si4 0.823020 0.578892 0.257234
Si Si5 0.189367 0.982751 0.449203
Si Si6 0.348314 0.813846 0.853377
O O1 0.500000 0.500000 0.500000
O O2 0.503069 0.701778 0.588685
O O3 0.364135 0.509427 0.696563
O O4 0.000886 0.349162 0.308376
O O5 0.052079 0.058193 0.697998
O O6 0.413256 0.154701 0.696429
O O7 0.596399 0.428637 0.001711
O O8 0.528970 0.214752 0.019671
O O9 0.464948 0.855437 0.757917
O O10 0.051486 0.600639 0.353356
O O11 0.603470 0.937563 0.578561
O O12 0.015163 0.786998 0.374676
O O13 0.500000 0.000000 0.000000
#
# Coordination Sequence:
#
# PCOD8031863 Si02
#       6
#     2   2   2   2   2   2
#     4  11  24  42  72 100 131 173 229 279 334 397
#     4  11  23  45  66  97 141 179 220 276 338 396
#     4  11  23  46  68  99 136 171 226 286 329 397
#     4  11  22  48  69  94 138 182 220 276 343 397
#     4  11  27  40  69 102 138 176 225 276 333 404
#     4  11  23  44  71  97 134 178 224 278 335 398
#
# _framework density 21.622855999999999
#
# number of rings (size 3 to 8) (size 9 to 14) (size 15 to 20)
#    0.000    1.000    3.333    4.000    7.000    2.667 
#    3.000    0.000    0.000    0.000    0.000    0.000 
#    0.000    0.000    0.000    0.000    0.000    0.000 
#
# Total GULP energy -148714.219691 kJ/mol
# GULP energy per Si atom -12392.851641 kJ/mol
# Density = 2.157364 g / cm^3
# Si number density = 21.622856 Si / 1000 Ang^3
#
#
#
# Elastic Constant Matrix: (Units=GPa)
#
#
# Indices 1 2 3 4 5 6 
#
# 1 121.7031 46.8918 43.6049 -6.4152 -22.2276 14.0978
# 2 46.8918 117.1399 49.6054 -4.8151 -17.4449 12.8210
# 3 43.6049 49.6054 153.1748 -6.8346 -25.5215 5.1697
# 4 -6.4152 -4.8151 -6.8346 23.5340 -14.1277 -10.8278
# 5 -22.2276 -17.4449 -25.5215 -14.1277 32.5860 6.1124
# 6 14.0978 12.8210 5.1697 -10.8278 6.1124 30.8638
#
#
#
# Elastic Compliance Matrix: (Units=1/GPa)
#
#
# Indices 1 2 3 4 5 6 
#
# 1 0.012022 -0.002330 -0.000489 0.007032 0.010374 -0.004029
# 2 -0.002330 0.011506 -0.002083 0.002256 0.004569 -0.003480
# 3 -0.000489 -0.002083 0.009168 0.007720 0.008988 0.000482
# 4 0.007032 0.002256 0.007720 0.079987 0.044126 0.013880
# 5 0.010374 0.004569 0.008988 0.044126 0.067512 -0.006032
# 6 -0.004029 -0.003480 0.000482 0.013880 -0.006032 0.041670
#
#
# Mechanical properties :
#
#
# Convention : Reuss Voigt Hill
#
# Bulk Modulus (GPa) = 43.68706 74.69131 59.18918
# Shear Modulus (GPa) = 20.89409 34.19115 27.54262
#
# Velocity S-wave (km/s) = 3.11190 3.98081 3.57287
# Velocity P-wave (km/s) = 5.75846 7.46638 6.66734
#
# Compressibility (1/GPa) = 0.02289007
#
# Stress axis : x y z
#
# Youngs Moduli (GPa) = 83.18071 86.91180 109.07105
#
# Poissons Ratio (x) = 0.20252 0.05338
# Poissons Ratio (y) = 0.19383 0.22724
# Poissons Ratio (z) = 0.04071 0.18107
#
# Static dielectric constant tensor:
#      x y z
#    x 4.060720 -0.166140 -0.064840 
#    y -0.166140 3.731960 -0.010880 
#    z -0.064840 -0.010880 4.202830 
# 
# 
# High freq. dielectric constant tensor:
#      x y z
#    x 1.862910 -0.013580 -0.005560 
#    y -0.013580 1.841150 0.001860 
#    z -0.005560 0.001860 1.858820 
# 
# From -- ./inp_files/148770.got.cif
#   From: 2010.06.25/outbox.cif.g09.slc.cpg/sg2_75_cif.got.tgz:148770.got - 2010.06.27 13:26:56.
