data_PCOD8031975
_publ_section_title
;
Structure prediction by ZEFSAII (Michael W. Deem and Ramdas Pophale) SiO2 
 PCOD8031975
Probable space group: P -1
;
_chemical_formula_sum "Si O2"
_cell_formula_units_Z 12
_cell_length_a 9.311004
_cell_length_b 9.012284
_cell_length_c 12.179797
_cell_angle_alpha 90.974202
_cell_angle_beta 142.486277
_cell_angle_gamma 103.342725
_cell_volume 570.016149
_symmetry_space_group_name_H-M "P -1"
_symmetry_group_IT_number 2
_symmetry_cell_setting 'triclinic'
loop_
_space_group_symop_operation_xyz
x,y,z
-x,-y,-z
loop_
_atom_site_type_symbol
_atom_site_label
_atom_site_fract_x
_atom_site_fract_y
_atom_site_fract_z
Si Si1 0.373768 0.613494 0.544849
Si Si2 0.148940 0.382264 0.744734
Si Si3 0.259695 0.153033 0.640729
Si Si4 0.451938 0.332699 0.116820
Si Si5 0.638038 0.027943 0.968731
Si Si6 0.211329 0.260996 0.372342
O O1 0.517902 0.591714 0.741783
O O2 0.224929 0.442542 0.391590
O O3 0.577204 0.740415 0.587715
O O4 0.158331 0.679803 0.450545
O O5 0.260791 0.289620 0.727341
O O6 0.288283 0.572185 0.796688
O O7 0.217591 0.353206 0.910847
O O8 0.506649 0.111808 0.808884
O O9 0.278208 0.207082 0.527972
O O10 0.000000 0.000000 0.500000
O O11 0.397902 0.146273 0.100515
O O12 0.936429 0.141359 0.160463
O O13 0.500000 0.000000 0.000000
#
# Coordination Sequence:
#
# PCOD8031975 Si02
#       6
#     2   2   2   2   2   2
#     4  11  25  43  67  93 140 174 212 269 327 393
#     4  11  23  39  70  99 125 168 227 270 316 384
#     4  12  23  41  70 100 128 169 220 272 322 386
#     4  11  23  41  67 101 126 171 223 269 322 381
#     4  12  23  41  68  97 132 166 217 273 322 381
#     4  11  26  44  63 100 133 177 215 263 336 384
#
# _framework density 21.052036000000001
#
# number of rings (size 3 to 8) (size 9 to 14) (size 15 to 20)
#    0.000    0.667    5.000    2.500    2.333    2.000 
#    0.000    9.167    0.000    0.000    0.000    0.000 
#    0.000    0.000    0.000    0.000    0.000    0.000 
#
# Total GULP energy -148835.734817 kJ/mol
# GULP energy per Si atom -12402.977901 kJ/mol
# Density = 2.100412 g / cm^3
# Si number density = 21.052036 Si / 1000 Ang^3
#
#
#
# Elastic Constant Matrix: (Units=GPa)
#
#
# Indices 1 2 3 4 5 6 
#
# 1 99.9932 49.9388 60.2347 -8.2989 6.0756 23.9842
# 2 49.9388 106.1433 65.7123 -1.0718 15.6285 6.5628
# 3 60.2347 65.7123 152.0627 -7.1666 6.6685 13.0943
# 4 -8.2989 -1.0718 -7.1666 42.5385 6.4046 -7.5616
# 5 6.0756 15.6285 6.6685 6.4046 30.6772 3.8041
# 6 23.9842 6.5628 13.0943 -7.5616 3.8041 31.5822
#
#
#
# Elastic Compliance Matrix: (Units=1/GPa)
#
#
# Indices 1 2 3 4 5 6 
#
# 1 0.017459 -0.005478 -0.003665 0.000561 0.001330 -0.010627
# 2 -0.005478 0.015537 -0.004572 0.000148 -0.006316 0.003624
# 3 -0.003665 -0.004572 0.010033 0.000680 0.000777 -0.000357
# 4 0.000561 0.000148 0.000680 0.025821 -0.006497 0.006226
# 5 0.001330 -0.006316 0.000777 -0.006497 0.037495 -0.006092
# 6 -0.010627 0.003624 -0.000357 0.006226 -0.006092 0.041353
#
#
# Mechanical properties :
#
#
# Convention : Reuss Voigt Hill
#
# Bulk Modulus (GPa) = 64.11422 78.88564 71.49993
# Shear Modulus (GPa) = 27.72735 33.11381 30.42058
#
# Velocity S-wave (km/s) = 3.63311 3.97035 3.80546
# Velocity P-wave (km/s) = 6.93689 7.65319 7.30383
#
# Compressibility (1/GPa) = 0.01559716
#
# Stress axis : x y z
#
# Youngs Moduli (GPa) = 57.27615 64.36389 99.67519
#
# Poissons Ratio (x) = 0.35261 0.36534
# Poissons Ratio (y) = 0.31378 0.45572
# Poissons Ratio (z) = 0.20994 0.29427
#
# Static dielectric constant tensor:
#      x y z
#    x 3.700830 -0.022770 -0.057300 
#    y -0.022770 4.184980 -0.021800 
#    z -0.057300 -0.021800 4.037510 
# 
# 
# High freq. dielectric constant tensor:
#      x y z
#    x 1.805540 0.008100 -0.010650 
#    y 0.008100 1.830150 0.005010 
#    z -0.010650 0.005010 1.842490 
# 
# From -- ./inp_files/151891.got.cif
#   From: 2010.06.25/outbox.cif.g09.slc.cpg/sg2_76_cif.got.tgz:151891.got - 2010.06.27 13:26:56.
