data_PCOD8031275
_publ_section_title
;
Structure prediction by ZEFSAII (Michael W. Deem and Ramdas Pophale) SiO2 
 PCOD8031275
Probable space group: P -1
;
_chemical_formula_sum "Si O2"
_cell_formula_units_Z 16
_cell_length_a 9.166622
_cell_length_b 11.887478
_cell_length_c 8.136676
_cell_angle_alpha 91.616761
_cell_angle_beta 125.688113
_cell_angle_gamma 70.052345
_cell_volume 659.767675
_symmetry_space_group_name_H-M "P -1"
_symmetry_group_IT_number 2
_symmetry_cell_setting 'triclinic'
loop_
_space_group_symop_operation_xyz
x,y,z
-x,-y,-z
loop_
_atom_site_type_symbol
_atom_site_label
_atom_site_fract_x
_atom_site_fract_y
_atom_site_fract_z
Si Si1 0.315684 0.090924 0.285172
Si Si2 0.066061 0.472135 0.331437
Si Si3 0.642963 0.510004 0.953988
Si Si4 0.735391 0.270610 0.805065
Si Si5 0.107739 0.105724 0.836070
Si Si6 0.073332 0.863927 0.775263
Si Si7 0.396803 0.321924 0.334051
Si Si8 0.978405 0.704559 0.467671
O O1 0.353169 0.206545 0.253119
O O2 0.134229 0.123778 0.288563
O O3 0.500000 0.000000 0.500000
O O4 0.273191 0.040943 0.080423
O O5 0.140964 0.347022 0.487848
O O6 0.190030 0.434329 0.245711
O O7 0.112445 0.582808 0.446793
O O8 0.832198 0.520634 0.160256
O O9 0.722264 0.398382 0.873531
O O10 0.524649 0.632861 0.773980
O O11 0.500000 0.500000 0.000000
O O12 0.538993 0.289950 0.581504
O O13 0.915915 0.207779 0.798080
O O14 0.761749 0.182902 0.976555
O O15 0.166132 0.183106 0.737895
O O16 0.062719 0.996614 0.714857
O O17 0.117073 0.762080 0.655271
#
# Coordination Sequence:
#
# PCOD8031275 Si02
#       8
#     2   2   2   2   2   2   2   2
#     4  11  22  43  67  97 131 179 229 274 337 408
#     4  11  24  45  69  96 141 180 221 278 344 399
#     4  12  27  43  68 104 138 174 228 283 335 401
#     4  11  24  41  66 100 133 178 226 268 341 403
#     4  11  23  42  69  99 135 179 227 277 339 396
#     4  11  22  44  65  99 135 179 226 283 330 399
#     4  12  24  43  71  97 136 183 224 273 340 410
#     4  11  23  41  71  96 135 182 222 282 339 394
#
# _framework density 24.250961
#
# number of rings (size 3 to 8) (size 9 to 14) (size 15 to 20)
#    0.000    0.750    2.500    6.375    5.250    0.000 
#    0.000    0.625    0.000    0.000    0.000    0.000 
#    0.000    0.000    0.000    0.000    0.000    0.000 
#
# Total GULP energy -198280.717698 kJ/mol
# GULP energy per Si atom -12392.544856 kJ/mol
# Density = 2.419576 g / cm^3
# Si number density = 24.250961 Si / 1000 Ang^3
#
#
#
# Elastic Constant Matrix: (Units=GPa)
#
#
# Indices 1 2 3 4 5 6 
#
# 1 68.1207 50.6345 42.0727 -4.4509 -2.3521 12.0239
# 2 50.6345 185.8610 55.8123 16.5359 -10.8427 30.6860
# 3 42.0727 55.8123 138.6388 -2.5301 3.6797 4.8773
# 4 -4.4509 16.5359 -2.5301 43.7603 -3.3318 -8.9603
# 5 -2.3521 -10.8427 3.6797 -3.3318 23.6172 -9.0988
# 6 12.0239 30.6860 4.8773 -8.9603 -9.0988 31.9169
#
#
#
# Elastic Compliance Matrix: (Units=1/GPa)
#
#
# Indices 1 2 3 4 5 6 
#
# 1 0.021348 -0.004322 -0.004617 0.003129 0.000467 -0.002170
# 2 -0.004322 0.009104 -0.002164 -0.005718 0.000049 -0.008385
# 3 -0.004617 -0.002164 0.009483 0.001190 -0.001933 0.002154
# 4 0.003129 -0.005718 0.001190 0.028855 0.007062 0.014251
# 5 0.000467 0.000049 -0.001933 0.007062 0.049991 0.016306
# 6 -0.002170 -0.008385 0.002154 0.014251 0.016306 0.048530
#
#
# Mechanical properties :
#
#
# Convention : Reuss Voigt Hill
#
# Bulk Modulus (GPa) = 56.41076 76.62883 66.51980
# Shear Modulus (GPa) = 25.58509 36.13227 30.85868
#
# Velocity S-wave (km/s) = 3.25162 3.86415 3.57104
# Velocity P-wave (km/s) = 6.11630 7.18163 6.67027
#
# Compressibility (1/GPa) = 0.01772711
#
# Stress axis : x y z
#
# Youngs Moduli (GPa) = 46.84313 109.84686 105.45632
#
# Poissons Ratio (x) = 0.47478 0.48693
# Poissons Ratio (y) = 0.20247 0.22820
# Poissons Ratio (z) = 0.21629 0.23770
#
# Static dielectric constant tensor:
#      x y z
#    x 3.990510 0.154770 -0.054240 
#    y 0.154770 4.537340 -0.186360 
#    z -0.054240 -0.186360 4.020920 
# 
# 
# High freq. dielectric constant tensor:
#      x y z
#    x 1.933500 0.016150 -0.023360 
#    y 0.016150 1.980740 0.004210 
#    z -0.023360 0.004210 1.971720 
# 
# From -- ./inp_files/187959.got.cif
#   From: 2010.06.25/outbox.cif.g09.slc.cpg/sg2_94_cif.got.tgz:187959.got - 2010.06.27 13:26:56.
