data_PCOD8031403
_publ_section_title
;
Structure prediction by ZEFSAII (Michael W. Deem and Ramdas Pophale) SiO2 
 PCOD8031403
Probable space group: P -1
;
_chemical_formula_sum "Si O2"
_cell_formula_units_Z 16
_cell_length_a 10.331569
_cell_length_b 14.457419
_cell_length_c 8.775945
_cell_angle_alpha 51.108004
_cell_angle_beta 67.760386
_cell_angle_gamma 102.841516
_cell_volume 726.927122
_symmetry_space_group_name_H-M "P -1"
_symmetry_group_IT_number 2
_symmetry_cell_setting 'triclinic'
loop_
_space_group_symop_operation_xyz
x,y,z
-x,-y,-z
loop_
_atom_site_type_symbol
_atom_site_label
_atom_site_fract_x
_atom_site_fract_y
_atom_site_fract_z
Si Si1 0.559956 0.808161 0.555497
Si Si2 0.383155 0.102964 0.215064
Si Si3 0.976667 0.233528 0.294448
Si Si4 0.274239 0.862400 0.961066
Si Si5 0.163490 0.651483 0.955126
Si Si6 0.365983 0.387613 0.451092
Si Si7 0.290849 0.293372 0.919538
Si Si8 0.933301 0.638366 0.557033
O O1 0.614357 0.843960 0.670698
O O2 0.341912 0.693605 0.752258
O O3 0.633111 0.724751 0.543243
O O4 0.651208 0.963489 0.258737
O O5 0.228706 0.921833 0.449384
O O6 0.570793 0.142588 0.043373
O O7 0.353319 0.192551 0.017083
O O8 0.974323 0.367622 0.089166
O O9 0.061502 0.282392 0.373490
O O10 0.093907 0.206922 0.168897
O O11 0.106765 0.765762 0.249196
O O12 0.219021 0.794368 0.886043
O O13 0.064526 0.500597 0.261355
O O14 0.269815 0.304248 0.738688
O O15 0.569662 0.541203 0.232798
O O16 0.251690 0.430569 0.377959
#
# Coordination Sequence:
#
# PCOD8031403 Si02
#       8
#     2   2   2   2   2   2   2   2
#     4  11  22  43  73  94 136 178 218 271 327 393
#     4  11  23  44  69  97 137 176 217 269 331 395
#     4  12  24  43  66 102 135 173 223 267 330 398
#     4  11  23  43  69 100 134 176 216 276 330 386
#     4  11  22  45  69  98 134 176 221 270 329 393
#     4  11  26  46  66  98 132 171 226 276 329 393
#     4  11  26  45  69  95 132 176 218 278 335 385
#     4  12  27  41  70 101 133 176 222 273 329 390
#
# _framework density 22.010459999999998
#
# number of rings (size 3 to 8) (size 9 to 14) (size 15 to 20)
#    0.000    0.750    2.500    5.625    1.750    5.500 
#    0.000    0.000    0.000    0.000    0.000    0.000 
#    0.000    0.000    0.000    0.000    0.000    0.000 
#
# Total GULP energy -198527.281755 kJ/mol
# GULP energy per Si atom -12407.955110 kJ/mol
# Density = 2.196036 g / cm^3
# Si number density = 22.010460 Si / 1000 Ang^3
#
#
#
# Elastic Constant Matrix: (Units=GPa)
#
#
# Indices 1 2 3 4 5 6 
#
# 1 106.1380 23.4284 19.1823 9.3486 14.2262 3.7657
# 2 23.4284 63.4981 12.9830 6.3311 10.6769 -2.1464
# 3 19.1823 12.9830 89.9551 -1.0440 0.4576 -3.5581
# 4 9.3486 6.3311 -1.0440 26.2383 -6.0659 6.8021
# 5 14.2262 10.6769 0.4576 -6.0659 33.9965 -2.4277
# 6 3.7657 -2.1464 -3.5581 6.8021 -2.4277 35.8031
#
#
#
# Elastic Compliance Matrix: (Units=1/GPa)
#
#
# Indices 1 2 3 4 5 6 
#
# 1 0.011444 -0.002577 -0.002137 -0.004376 -0.004808 -0.001065
# 2 -0.002577 0.018676 -0.002108 -0.005442 -0.005599 0.001836
# 3 -0.002137 -0.002108 0.011931 0.001891 0.001808 0.001047
# 4 -0.004376 -0.005442 0.001891 0.045595 0.011109 -0.007587
# 5 -0.004808 -0.005599 0.001808 0.011109 0.035187 0.000625
# 6 -0.001065 0.001836 0.001047 -0.007587 0.000625 0.029741
#
#
# Mechanical properties :
#
#
# Convention : Reuss Voigt Hill
#
# Bulk Modulus (GPa) = 35.20179 41.19762 38.19970
# Shear Modulus (GPa) = 28.45963 32.80743 30.63353
#
# Velocity S-wave (km/s) = 3.59974 3.86494 3.73469
# Velocity P-wave (km/s) = 5.77108 6.21892 5.99918
#
# Compressibility (1/GPa) = 0.02840765
#
# Stress axis : x y z
#
# Youngs Moduli (GPa) = 87.37914 53.54353 83.81677
#
# Poissons Ratio (x) = 0.13798 0.17911
# Poissons Ratio (y) = 0.22517 0.17669
# Poissons Ratio (z) = 0.18673 0.11288
#
# Static dielectric constant tensor:
#      x y z
#    x 3.991830 0.094170 0.077850 
#    y 0.094170 3.843340 -0.037770 
#    z 0.077850 -0.037770 3.997740 
# 
# 
# High freq. dielectric constant tensor:
#      x y z
#    x 1.876600 0.001540 0.004860 
#    y 0.001540 1.863240 -0.004590 
#    z 0.004860 -0.004590 1.872790 
# 
# From -- ./inp_files/205543.got.cif
#   From: 2010.06.25/outbox.cif.g09.slc.cpg/sg2_103_cif.got.tgz:205543.got - 2010.06.27 13:26:56.
