data_PCOD8031638
_publ_section_title
;
Structure prediction by ZEFSAII (Michael W. Deem and Ramdas Pophale) SiO2 
 PCOD8031638
Probable space group: P -1
;
_chemical_formula_sum "Si O2"
_cell_formula_units_Z 16
_cell_length_a 15.047112
_cell_length_b 9.918193
_cell_length_c 9.192486
_cell_angle_alpha 85.873277
_cell_angle_beta 142.068505
_cell_angle_gamma 109.555389
_cell_volume 749.736400
_symmetry_space_group_name_H-M "P -1"
_symmetry_group_IT_number 2
_symmetry_cell_setting 'triclinic'
loop_
_space_group_symop_operation_xyz
x,y,z
-x,-y,-z
loop_
_atom_site_type_symbol
_atom_site_label
_atom_site_fract_x
_atom_site_fract_y
_atom_site_fract_z
Si Si1 0.349319 0.652534 0.611296
Si Si2 0.425144 0.834889 0.984837
Si Si3 0.126618 0.790128 0.258171
Si Si4 0.100592 0.691358 0.739652
Si Si5 0.602379 0.649883 0.712382
Si Si6 0.700779 0.857033 0.550036
Si Si7 0.901841 0.611057 0.217112
Si Si8 0.104794 0.307626 0.286360
O O1 0.401912 0.713079 0.838681
O O2 0.273658 0.749338 0.422044
O O3 0.501449 0.672760 0.710389
O O4 0.219158 0.478327 0.469676
O O5 0.258733 0.809029 0.849788
O O6 0.537475 0.822113 0.256647
O O7 0.500000 0.000000 0.000000
O O8 0.065983 0.739338 0.347517
O O9 0.184099 0.966153 0.294707
O O10 0.967681 0.691377 0.965456
O O11 0.133851 0.558136 0.864254
O O12 0.940154 0.622572 0.436709
O O13 0.049626 0.770915 0.798093
O O14 0.500000 0.500000 0.500000
O O15 0.663662 0.789733 0.669560
O O16 0.750045 0.639822 0.983646
O O17 0.794774 0.787588 0.579406
#
# Coordination Sequence:
#
# PCOD8031638 Si02
#       8
#     2   2   2   2   2   2   2   2
#     4  12  25  46  74 101 140 194 231 287 353 418
#     4  12  26  50  69 102 149 185 233 290 350 420
#     4  12  24  48  70 100 147 183 234 292 353 416
#     4  11  24  43  72 100 133 190 233 283 343 423
#     4  12  26  43  69 108 144 181 235 297 348 414
#     4  12  27  46  70 104 148 184 228 298 357 405
#     4  11  22  45  67  98 142 179 229 289 347 410
#     4  12  26  42  74 107 133 185 243 287 347 419
#
# _framework density 21.340833
#
# number of rings (size 3 to 8) (size 9 to 14) (size 15 to 20)
#    0.000    0.250    6.250    2.250    5.250    2.000 
#    0.000    1.250    0.000    0.000    0.000    0.000 
#    0.000    0.000    0.000    0.000    0.000    0.000 
#
# Total GULP energy -198450.867211 kJ/mol
# GULP energy per Si atom -12403.179201 kJ/mol
# Density = 2.129226 g / cm^3
# Si number density = 21.340833 Si / 1000 Ang^3
#
#
#
# Elastic Constant Matrix: (Units=GPa)
#
#
# Indices 1 2 3 4 5 6 
#
# 1 149.3162 53.9043 30.6258 -0.0272 12.6347 2.2994
# 2 53.9043 126.6436 41.9540 0.3493 5.9627 14.5915
# 3 30.6258 41.9540 125.6321 -16.7324 9.3288 -7.3259
# 4 -0.0272 0.3493 -16.7324 38.2371 -4.7656 1.9634
# 5 12.6347 5.9627 9.3288 -4.7656 29.0620 0.3129
# 6 2.2994 14.5915 -7.3259 1.9634 0.3129 33.8432
#
#
#
# Elastic Compliance Matrix: (Units=1/GPa)
#
#
# Indices 1 2 3 4 5 6 
#
# 1 0.008237 -0.003195 -0.000784 -0.000693 -0.002795 0.000714
# 2 -0.003195 0.010965 -0.003362 -0.001301 0.000061 -0.005163
# 3 -0.000784 -0.003362 0.010139 0.004090 -0.001591 0.003475
# 4 -0.000693 -0.001301 0.004090 0.028453 0.003923 -0.000194
# 5 -0.002795 0.000061 -0.001591 0.003923 0.036774 -0.000748
# 6 0.000714 -0.005163 0.003475 -0.000194 -0.000748 0.032496
#
#
# Mechanical properties :
#
#
# Convention : Reuss Voigt Hill
#
# Bulk Modulus (GPa) = 68.21496 72.72890 70.47193
# Shear Modulus (GPa) = 34.09891 38.56897 36.33394
#
# Velocity S-wave (km/s) = 4.00162 4.25583 4.13068
# Velocity P-wave (km/s) = 7.30647 7.63565 7.47287
#
# Compressibility (1/GPa) = 0.01465954
#
# Stress axis : x y z
#
# Youngs Moduli (GPa) = 121.40647 91.19597 98.62832
#
# Poissons Ratio (x) = 0.29136 0.07734
# Poissons Ratio (y) = 0.38788 0.33157
# Poissons Ratio (z) = 0.09520 0.30659
#
# Static dielectric constant tensor:
#      x y z
#    x 4.180770 -0.087050 -0.005670 
#    y -0.087050 3.834750 -0.055920 
#    z -0.005670 -0.055920 3.990030 
# 
# 
# High freq. dielectric constant tensor:
#      x y z
#    x 1.846950 0.005590 0.004790 
#    y 0.005590 1.832880 -0.007690 
#    z 0.004790 -0.007690 1.852490 
# 
# From -- ./inp_files/298446.got.cif
#   From: 2010.06.25/outbox.cif.g09.slc.cpg/sg2_150_cif.got.tgz:298446.got - 2010.06.27 13:26:56.
