data_PCOD8031450
_publ_section_title
;
Structure prediction by ZEFSAII (Michael W. Deem and Ramdas Pophale) SiO2 
 PCOD8031450
Probable space group: P -1
;
_chemical_formula_sum "Si O2"
_cell_formula_units_Z 16
_cell_length_a 11.959743
_cell_length_b 5.248422
_cell_length_c 19.097014
_cell_angle_alpha 107.733126
_cell_angle_beta 45.339426
_cell_angle_gamma 119.853866
_cell_volume 737.483097
_symmetry_space_group_name_H-M "P -1"
_symmetry_group_IT_number 2
_symmetry_cell_setting 'triclinic'
loop_
_space_group_symop_operation_xyz
x,y,z
-x,-y,-z
loop_
_atom_site_type_symbol
_atom_site_label
_atom_site_fract_x
_atom_site_fract_y
_atom_site_fract_z
Si Si1 0.567021 0.497361 0.712531
Si Si2 0.816148 0.873162 0.157131
Si Si3 0.972493 0.412929 0.707779
Si Si4 0.027387 0.990406 0.204261
Si Si5 0.350350 0.985340 0.013501
Si Si6 0.404973 0.870109 0.203473
Si Si7 0.087495 0.347873 0.500068
Si Si8 0.071037 0.413352 0.029859
O O1 0.384748 0.252807 0.743611
O O2 0.624354 0.373877 0.745340
O O3 0.709059 0.538305 0.594707
O O4 0.552434 0.804580 0.758316
O O5 0.825324 0.760860 0.064853
O O6 0.924523 0.800170 0.165180
O O7 0.911419 0.226413 0.135826
O O8 0.030523 0.748945 0.733693
O O9 0.766696 0.237602 0.776029
O O10 0.069942 0.426162 0.593843
O O11 0.028071 0.231989 0.724760
O O12 0.236318 0.146079 0.109682
O O13 0.433946 0.116759 0.913117
O O14 0.206412 0.654125 0.040696
O O15 0.500000 0.000000 0.000000
O O16 0.000000 0.500000 0.500000
O O17 0.000000 0.000000 0.500000
O O18 0.000000 0.500000 0.000000
#
# Coordination Sequence:
#
# PCOD8031450 Si02
#       8
#     2   2   2   2   2   2   2   2
#     4  12  25  45  71 105 131 174 236 294 336 413
#     4  11  26  41  68  94 138 191 239 278 341 412
#     4  12  25  45  68 101 141 177 224 288 354 417
#     4  12  27  44  65  98 145 190 223 279 348 418
#     4  12  25  41  67 105 144 187 230 284 350 412
#     4  12  25  41  68 104 141 173 226 283 349 413
#     4  12  23  45  75 104 133 173 228 292 364 411
#     4  11  22  44  66  94 140 192 243 280 331 418
#
# _framework density 21.695411
#
# number of rings (size 3 to 8) (size 9 to 14) (size 15 to 20)
#    0.000    0.250    6.250    3.000    1.750    1.500 
#    0.000    1.250    0.000    0.000    0.000    0.000 
#    0.000    0.000    0.000    0.000    0.000    0.000 
#
# Total GULP energy -198376.690833 kJ/mol
# GULP energy per Si atom -12398.543177 kJ/mol
# Density = 2.164603 g / cm^3
# Si number density = 21.695411 Si / 1000 Ang^3
#
#
#
# Elastic Constant Matrix: (Units=GPa)
#
#
# Indices 1 2 3 4 5 6 
#
# 1 117.4454 37.0431 31.9231 -13.0840 2.3169 4.3771
# 2 37.0431 104.5722 39.1507 -8.0562 4.8999 -3.8845
# 3 31.9231 39.1507 161.4000 -10.3172 -3.0549 -5.4823
# 4 -13.0840 -8.0562 -10.3172 37.1214 7.0172 -1.5520
# 5 2.3169 4.8999 -3.0549 7.0172 37.0399 -11.1923
# 6 4.3771 -3.8845 -5.4823 -1.5520 -11.1923 43.2207
#
#
#
# Elastic Compliance Matrix: (Units=1/GPa)
#
#
# Indices 1 2 3 4 5 6 
#
# 1 0.010171 -0.002934 -0.001205 0.002806 -0.001395 -0.001707
# 2 -0.002934 0.011603 -0.002162 0.001205 -0.001544 0.000709
# 3 -0.001205 -0.002162 0.007077 0.000909 0.001120 0.001148
# 4 0.002806 0.001205 0.000909 0.029558 -0.006029 -0.000560
# 5 -0.001395 -0.001544 0.001120 -0.006029 0.030922 0.007935
# 6 -0.001707 0.000709 0.001148 -0.000560 0.007935 0.025554
#
#
# Mechanical properties :
#
#
# Convention : Reuss Voigt Hill
#
# Bulk Modulus (GPa) = 61.54348 66.62793 64.08570
# Shear Modulus (GPa) = 37.62120 41.82977 39.72549
#
# Velocity S-wave (km/s) = 4.16873 4.39572 4.28373
# Velocity P-wave (km/s) = 7.18329 7.51933 7.35323
#
# Compressibility (1/GPa) = 0.01624868
#
# Stress axis : x y z
#
# Youngs Moduli (GPa) = 98.31696 86.18418 141.30285
#
# Poissons Ratio (x) = 0.25284 0.17029
# Poissons Ratio (y) = 0.28843 0.30556
# Poissons Ratio (z) = 0.11849 0.18637
#
# Static dielectric constant tensor:
#      x y z
#    x 4.016080 0.185640 0.204430 
#    y 0.185640 4.499780 0.423090 
#    z 0.204430 0.423090 4.709330 
# 
# 
# High freq. dielectric constant tensor:
#      x y z
#    x 1.852510 -0.006520 0.007140 
#    y -0.006520 1.860240 -0.004610 
#    z 0.007140 -0.004610 1.851480 
# 
# From -- ./inp_files/127417.got.cif
#   From: 2010.06.25/outbox.cif.g09.slc.cpg/sg2_64_cif.got.tgz:127417.got - 2010.06.27 13:26:56.
