data_PCOD8031605
_publ_section_title
;
Structure prediction by ZEFSAII (Michael W. Deem and Ramdas Pophale) SiO2 
 PCOD8031605
Probable space group: P -1
;
_chemical_formula_sum "Si O2"
_cell_formula_units_Z 16
_cell_length_a 24.150061
_cell_length_b 14.592642
_cell_length_c 9.145389
_cell_angle_alpha 150.304770
_cell_angle_beta 133.332049
_cell_angle_gamma 28.297597
_cell_volume 713.177576
_symmetry_space_group_name_H-M "P -1"
_symmetry_group_IT_number 2
_symmetry_cell_setting 'triclinic'
loop_
_space_group_symop_operation_xyz
x,y,z
-x,-y,-z
loop_
_atom_site_type_symbol
_atom_site_label
_atom_site_fract_x
_atom_site_fract_y
_atom_site_fract_z
Si Si1 0.582209 0.132668 0.480485
Si Si2 0.959290 0.264430 0.715883
Si Si3 0.678342 0.749248 0.852962
Si Si4 0.292931 0.723883 0.145741
Si Si5 0.534497 0.880522 0.237650
Si Si6 0.932510 0.652032 0.745558
Si Si7 0.313029 0.659710 0.776011
Si Si8 0.024502 0.137429 0.326277
O O1 0.678383 0.117095 0.626745
O O2 0.447508 0.488945 0.747824
O O3 0.601145 0.934792 0.362445
O O4 0.591697 0.000610 0.166880
O O5 0.813915 0.580034 0.857587
O O6 0.025949 0.120068 0.479574
O O7 0.000000 0.000000 0.500000
O O8 0.997604 0.354109 0.018471
O O9 0.705409 0.479480 0.557882
O O10 0.592635 0.939904 0.820300
O O11 0.151748 0.989625 0.306054
O O12 0.373133 0.475028 0.075804
O O13 0.311139 0.578391 0.824752
O O14 0.500000 0.000000 0.500000
O O15 0.000000 0.500000 0.500000
O O16 0.917423 0.481160 0.555081
O O17 0.792411 0.986883 0.939197
O O18 0.000000 0.000000 0.000000
#
# Coordination Sequence:
#
# PCOD8031605 Si02
#       8
#     2   2   2   2   2   2   2   2
#     4  11  26  45  74 110 151 196 248 315 379 449
#     4  12  26  47  75 109 154 197 249 326 381 450
#     4  11  24  47  70 110 151 193 249 307 385 453
#     4  12  25  47  74 111 151 191 261 309 379 462
#     4  11  24  42  76 105 148 201 245 303 378 443
#     4  12  25  47  76 110 151 202 252 317 389 452
#     4  11  22  44  74 108 154 189 251 311 376 460
#     4  12  28  48  75 112 151 202 261 312 388 469
#
# _framework density 22.434805999999998
#
# number of rings (size 3 to 8) (size 9 to 14) (size 15 to 20)
#    0.000    0.500    5.000    4.500    1.750    3.500 
#    0.000    0.000    0.000    0.000    0.000    0.000 
#    0.000    0.000    0.000    0.000    0.000    0.000 
#
# Total GULP energy -198230.760062 kJ/mol
# GULP energy per Si atom -12389.422504 kJ/mol
# Density = 2.238374 g / cm^3
# Si number density = 22.434806 Si / 1000 Ang^3
#
#
#
# Elastic Constant Matrix: (Units=GPa)
#
#
# Indices 1 2 3 4 5 6 
#
# 1 148.1691 69.7519 66.4409 -3.4191 -4.9984 3.9941
# 2 69.7519 137.7077 65.2979 8.3701 2.2042 6.6274
# 3 66.4409 65.2979 135.3946 0.9293 -4.5664 12.8409
# 4 -3.4191 8.3701 0.9293 48.2306 4.0787 -3.1374
# 5 -4.9984 2.2042 -4.5664 4.0787 51.6181 3.9890
# 6 3.9941 6.6274 12.8409 -3.1374 3.9890 36.9311
#
#
#
# Elastic Compliance Matrix: (Units=1/GPa)
#
#
# Indices 1 2 3 4 5 6 
#
# 1 0.009924 -0.003658 -0.003162 0.001390 0.000671 0.000728
# 2 -0.003658 0.010905 -0.003440 -0.002035 -0.000930 -0.000438
# 3 -0.003162 -0.003440 0.010913 -0.000118 0.001044 -0.002958
# 4 0.001390 -0.002035 -0.000118 0.021475 -0.001660 0.002260
# 5 0.000671 -0.000930 0.001044 -0.001660 0.019899 -0.002559
# 6 0.000728 -0.000438 -0.002958 0.002260 -0.002559 0.028574
#
#
# Mechanical properties :
#
#
# Convention : Reuss Voigt Hill
#
# Bulk Modulus (GPa) = 89.10481 91.58365 90.34423
# Shear Modulus (GPa) = 39.69783 42.00800 40.85291
#
# Velocity S-wave (km/s) = 4.21108 4.33187 4.27190
# Velocity P-wave (km/s) = 7.96540 8.11979 8.04297
#
# Compressibility (1/GPa) = 0.01122274
#
# Stress axis : x y z
#
# Youngs Moduli (GPa) = 100.76819 91.69704 91.63230
#
# Poissons Ratio (x) = 0.33539 0.28972
# Poissons Ratio (y) = 0.36857 0.31526
# Poissons Ratio (z) = 0.31860 0.31548
#
# Static dielectric constant tensor:
#      x y z
#    x 5.166470 0.818870 0.286170 
#    y 0.818870 4.693320 0.317200 
#    z 0.286170 0.317200 4.334790 
# 
# 
# High freq. dielectric constant tensor:
#      x y z
#    x 1.875160 0.003490 -0.006940 
#    y 0.003490 1.890890 0.003380 
#    z -0.006940 0.003380 1.910060 
# 
# From -- ./inp_files/354617.got.cif
#   From: 2010.06.25/outbox.cif.g09.slc.cpg/sg2_178_cif.got.tgz:354617.got - 2010.06.27 13:26:56.
