data_PCOD8031919
_publ_section_title
;
Structure prediction by ZEFSAII (Michael W. Deem and Ramdas Pophale) SiO2 
 PCOD8031919
Probable space group: P -1
;
_chemical_formula_sum "Si O2"
_cell_formula_units_Z 16
_cell_length_a 14.526546
_cell_length_b 11.341190
_cell_length_c 8.757513
_cell_angle_alpha 72.265535
_cell_angle_beta 132.055526
_cell_angle_gamma 132.625059
_cell_volume 758.348382
_symmetry_space_group_name_H-M "P -1"
_symmetry_group_IT_number 2
_symmetry_cell_setting 'triclinic'
loop_
_space_group_symop_operation_xyz
x,y,z
-x,-y,-z
loop_
_atom_site_type_symbol
_atom_site_label
_atom_site_fract_x
_atom_site_fract_y
_atom_site_fract_z
Si Si1 0.306838 0.868207 0.821744
Si Si2 0.683304 0.648034 0.579652
Si Si3 0.871059 0.266141 0.033160
Si Si4 0.028215 0.239275 0.938071
Si Si5 0.427905 0.824565 0.428195
Si Si6 0.213197 0.497922 0.470610
Si Si7 0.739592 0.954972 0.541621
Si Si8 0.854733 0.487541 0.284691
O O1 0.281757 0.703770 0.841175
O O2 0.247665 0.914061 0.598696
O O3 0.212325 0.862549 0.866421
O O4 0.500000 0.000000 0.000000
O O5 0.500000 0.500000 0.500000
O O6 0.729594 0.588500 0.516102
O O7 0.712480 0.806309 0.482951
O O8 0.808106 0.718051 0.833793
O O9 0.728407 0.269420 0.825606
O O10 0.909694 0.205040 0.957630
O O11 0.043144 0.438789 0.224935
O O12 0.091429 0.395550 0.845077
O O13 0.913620 0.067949 0.783176
O O14 0.356945 0.697611 0.540053
O O15 0.578020 0.850999 0.509959
O O16 0.500000 0.000000 0.500000
O O17 0.196240 0.459902 0.647876
O O18 0.000000 0.500000 0.500000
#
# Coordination Sequence:
#
# PCOD8031919 Si02
#       8
#     2   2   2   2   2   2   2   2
#     4  12  26  39  66 106 142 166 213 283 345 399
#     4  11  26  47  68  94 133 186 235 269 318 399
#     4  11  23  38  65 104 131 176 211 273 347 400
#     4  11  25  43  71  97 134 180 226 274 331 401
#     4  12  22  36  67 100 136 165 217 279 337 397
#     4  11  24  43  66  97 132 180 224 268 336 399
#     4  12  23  45  66  97 140 176 221 275 329 397
#     4  12  23  43  69 102 138 166 215 284 348 395
#
# _framework density 21.098483999999999
#
# number of rings (size 3 to 8) (size 9 to 14) (size 15 to 20)
#    0.000    0.500    6.250    2.250    5.250    0.000 
#    0.000    7.500    0.000    0.000    0.000    0.000 
#    0.000    0.000    0.000    0.000    0.000    0.000 
#
# Total GULP energy -198295.548981 kJ/mol
# GULP energy per Si atom -12393.471811 kJ/mol
# Density = 2.105046 g / cm^3
# Si number density = 21.098484 Si / 1000 Ang^3
#
#
#
# Elastic Constant Matrix: (Units=GPa)
#
#
# Indices 1 2 3 4 5 6 
#
# 1 121.6900 58.2494 43.4107 11.6603 -10.2852 7.9490
# 2 58.2494 126.6184 29.4137 19.8744 -5.4852 -0.9367
# 3 43.4107 29.4137 84.9377 15.5423 5.1909 8.0956
# 4 11.6603 19.8744 15.5423 32.4311 5.2509 -1.1496
# 5 -10.2852 -5.4852 5.1909 5.2509 37.3105 1.4270
# 6 7.9490 -0.9367 8.0956 -1.1496 1.4270 40.6435
#
#
#
# Elastic Compliance Matrix: (Units=1/GPa)
#
#
# Indices 1 2 3 4 5 6 
#
# 1 0.012522 -0.004474 -0.004896 -0.000048 0.003547 -0.001703
# 2 -0.004474 0.010962 -0.000792 -0.004873 0.001132 0.001108
# 3 -0.004896 -0.000792 0.015849 -0.004963 -0.002886 -0.002257
# 4 -0.000048 -0.004873 -0.004963 0.037158 -0.005350 0.002124
# 5 0.003547 0.001132 -0.002886 -0.005350 0.029149 -0.001267
# 6 -0.001703 0.001108 -0.002257 0.002124 -0.001267 0.025517
#
#
# Mechanical properties :
#
#
# Convention : Reuss Voigt Hill
#
# Bulk Modulus (GPa) = 52.60887 66.15486 59.38187
# Shear Modulus (GPa) = 31.68183 35.55518 33.61851
#
# Velocity S-wave (km/s) = 3.87927 4.10957 3.99608
# Velocity P-wave (km/s) = 6.71223 7.34448 7.03546
#
# Compressibility (1/GPa) = 0.01900820
#
# Stress axis : x y z
#
# Youngs Moduli (GPa) = 79.86263 91.22059 63.09359
#
# Poissons Ratio (x) = 0.40816 0.30889
# Poissons Ratio (y) = 0.35734 0.05000
# Poissons Ratio (z) = 0.39099 0.07229
#
# Static dielectric constant tensor:
#      x y z
#    x 4.676870 1.017630 -0.922020 
#    y 1.017630 4.136370 -0.573980 
#    z -0.922020 -0.573980 5.014520 
# 
# 
# High freq. dielectric constant tensor:
#      x y z
#    x 1.824880 0.018130 -0.003990 
#    y 0.018130 1.834380 0.020480 
#    z -0.003990 0.020480 1.826710 
# 
# From -- ./inp_files/178812.got.cif
#   From: 2010.06.25/outbox.cif.g09.slc.cpg/sg2_90_cif.got.tgz:178812.got - 2010.06.27 13:26:56.
