data_PCOD8031869
_publ_section_title
;
Structure prediction by ZEFSAII (Michael W. Deem and Ramdas Pophale) SiO2 
 PCOD8031869
Probable space group: P -1
;
_chemical_formula_sum "Si O2"
_cell_formula_units_Z 16
_cell_length_a 11.205554
_cell_length_b 5.096130
_cell_length_c 11.526996
_cell_angle_alpha 84.787731
_cell_angle_beta 74.971155
_cell_angle_gamma 70.403975
_cell_volume 598.906849
_symmetry_space_group_name_H-M "P -1"
_symmetry_group_IT_number 2
_symmetry_cell_setting 'triclinic'
loop_
_space_group_symop_operation_xyz
x,y,z
-x,-y,-z
loop_
_atom_site_type_symbol
_atom_site_label
_atom_site_fract_x
_atom_site_fract_y
_atom_site_fract_z
Si Si1 0.458863 0.658503 0.816051
Si Si2 0.249750 0.946464 0.033792
Si Si3 0.711108 0.099422 0.540732
Si Si4 0.818978 0.355665 0.316250
Si Si5 0.569629 0.807157 0.328831
Si Si6 0.928467 0.620379 0.628909
Si Si7 0.135355 0.558783 0.961511
Si Si8 0.734438 0.362621 0.743521
O O1 0.377541 0.727942 0.952278
O O2 0.448001 0.381408 0.767343
O O3 0.609718 0.611722 0.813546
O O4 0.403835 0.918177 0.733000
O O5 0.133018 0.821320 0.031867
O O6 0.235388 0.261156 0.989814
O O7 0.257600 0.916869 0.173186
O O8 0.778489 0.107815 0.398493
O O9 0.561963 0.101973 0.561051
O O10 0.706495 0.363306 0.612061
O O11 0.801371 0.867709 0.612889
O O12 0.701515 0.637399 0.375003
O O13 0.819335 0.353190 0.177388
O O14 0.966537 0.312644 0.318388
O O15 0.873212 0.412683 0.724432
O O16 0.000000 0.500000 0.500000
O O17 0.000000 0.500000 0.000000
#
# Coordination Sequence:
#
# PCOD8031869 Si02
#       8
#     2   2   2   2   2   2   2   2
#     4  11  22  48  72 109 142 191 247 302 367 431
#     4  12  25  47  75 105 146 190 252 301 367 428
#     4  11  26  48  71 110 144 193 247 302 375 431
#     4  12  25  47  75 105 149 188 246 304 366 440
#     4  11  24  47  76 106 150 185 246 307 365 436
#     4  12  26  46  71 108 148 193 244 297 371 443
#     4  12  28  47  70 108 147 198 242 300 367 441
#     4  11  26  45  74 105 148 192 243 310 361 442
#
# _framework density 26.715342
#
# number of rings (size 3 to 8) (size 9 to 14) (size 15 to 20)
#    0.000    0.500    5.000    2.250    3.500    2.000 
#    0.000    5.625    0.000    0.000    0.000    0.000 
#    0.000    0.000    0.000    0.000    0.000    0.000 
#
# Total GULP energy -198243.325365 kJ/mol
# GULP energy per Si atom -12390.207835 kJ/mol
# Density = 2.665454 g / cm^3
# Si number density = 26.715342 Si / 1000 Ang^3
#
#
#
# Elastic Constant Matrix: (Units=GPa)
#
#
# Indices 1 2 3 4 5 6 
#
# 1 123.2275 7.4671 26.5619 -3.3157 -14.9726 -19.5290
# 2 7.4671 53.8624 10.6907 -20.1087 10.6878 -2.7855
# 3 26.5619 10.6907 149.8371 -35.3015 -9.7915 1.6529
# 4 -3.3157 -20.1087 -35.3015 26.7897 -2.8129 -5.0926
# 5 -14.9726 10.6878 -9.7915 -2.8129 42.7784 -1.5228
# 6 -19.5290 -2.7855 1.6529 -5.0926 -1.5228 39.7961
#
#
#
# Elastic Compliance Matrix: (Units=1/GPa)
#
#
# Indices 1 2 3 4 5 6 
#
# 1 0.009746 -0.001935 -0.001689 -0.001201 0.003596 0.004701
# 2 -0.001935 0.029751 0.004521 0.028351 -0.005055 0.004380
# 3 -0.001689 0.004521 0.011074 0.018269 0.002067 0.001444
# 4 -0.001201 0.028351 0.018269 0.085023 0.002682 0.011619
# 5 0.003596 -0.005055 0.002067 0.002682 0.026643 0.002688
# 6 0.004701 0.004380 0.001444 0.011619 0.002688 0.029272
#
#
# Mechanical properties :
#
#
# Convention : Reuss Voigt Hill
#
# Bulk Modulus (GPa) = 19.09666 46.26294 32.67980
# Shear Modulus (GPa) = 24.13482 40.68667 32.41074
#
# Velocity S-wave (km/s) = 3.00893 3.90676 3.48686
# Velocity P-wave (km/s) = 4.38581 6.14043 5.33574
#
# Compressibility (1/GPa) = 0.05236519
#
# Stress axis : x y z
#
# Youngs Moduli (GPa) = 102.60424 33.61262 90.30163
#
# Poissons Ratio (x) = 0.06503 0.15256
# Poissons Ratio (y) = 0.19849 -0.40827
# Poissons Ratio (z) = 0.17334 -0.15197
#
# Static dielectric constant tensor:
#      x y z
#    x 4.713660 0.111190 -0.163980 
#    y 0.111190 4.388290 -0.185220 
#    z -0.163980 -0.185220 4.741040 
# 
# 
# High freq. dielectric constant tensor:
#      x y z
#    x 2.083520 -0.013360 -0.016240 
#    y -0.013360 2.060160 -0.005340 
#    z -0.016240 -0.005340 2.083780 
# 
# From -- ./inp_files/410018.got.cif
#   From: 2010.06.25/outbox.cif.g09.slc.cpg/sg2_206_cif.got.tgz:410018.got - 2010.06.27 13:26:56.
