data_PCOD8031470
_publ_section_title
;
Structure prediction by ZEFSAII (Michael W. Deem and Ramdas Pophale) SiO2 
 PCOD8031470
Probable space group: P -1
;
_chemical_formula_sum "Si O2"
_cell_formula_units_Z 10
_cell_length_a 15.506265
_cell_length_b 15.379391
_cell_length_c 9.777432
_cell_angle_alpha 140.728174
_cell_angle_beta 36.883829
_cell_angle_gamma 161.930745
_cell_volume 432.883365
_symmetry_space_group_name_H-M "P -1"
_symmetry_group_IT_number 2
_symmetry_cell_setting 'triclinic'
loop_
_space_group_symop_operation_xyz
x,y,z
-x,-y,-z
loop_
_atom_site_type_symbol
_atom_site_label
_atom_site_fract_x
_atom_site_fract_y
_atom_site_fract_z
Si Si1 0.338687 0.978126 0.868560
Si Si2 0.725292 0.510992 0.171585
Si Si3 0.154608 0.762265 0.555531
Si Si4 0.054341 0.163907 0.240527
Si Si5 0.547404 0.622836 0.379206
O O1 0.582453 0.060700 0.666642
O O2 0.288108 0.966077 0.757003
O O3 0.450018 0.204634 0.081134
O O4 0.027635 0.678049 0.968020
O O5 0.743059 0.671582 0.267443
O O6 0.675106 0.488791 0.369377
O O7 0.930019 0.672026 0.649135
O O8 0.000000 0.500000 0.500000
O O9 0.360708 0.400970 0.221283
O O10 0.777393 0.927893 0.406810
O O11 0.000000 0.000000 0.000000
#
# Coordination Sequence:
#
# PCOD8031470 Si02
#       5
#     2   2   2   2   2
#     4  11  23  40  71  94 126 181 222 263 323 399
#     4  11  22  44  68  96 132 181 216 266 332 394
#     4  11  25  43  70  98 134 173 224 268 330 398
#     4  12  26  43  69 101 133 167 222 280 329 378
#     4  11  25  42  67  99 136 170 223 270 326 396
#
# _framework density 23.100909999999999
#
# number of rings (size 3 to 8) (size 9 to 14) (size 15 to 20)
#    0.000    0.800    2.000    5.400    5.600    3.200 
#    0.000    6.000    0.000    0.000    0.000    0.000 
#    0.000    0.000    0.000    0.000    0.000    0.000 
#
# Total GULP energy -123992.534695 kJ/mol
# GULP energy per Si atom -12399.253470 kJ/mol
# Density = 2.304833 g / cm^3
# Si number density = 23.100910 Si / 1000 Ang^3
#
#
#
# Elastic Constant Matrix: (Units=GPa)
#
#
# Indices 1 2 3 4 5 6 
#
# 1 90.0998 29.6980 21.3428 2.0378 -6.4942 -13.4797
# 2 29.6980 110.0783 14.8998 -2.0283 -2.0102 1.0336
# 3 21.3428 14.8998 89.4219 -6.4228 8.9822 -1.3625
# 4 2.0378 -2.0283 -6.4228 47.0428 10.7293 0.4574
# 5 -6.4942 -2.0102 8.9822 10.7293 25.1872 2.4461
# 6 -13.4797 1.0336 -1.3625 0.4574 2.4461 31.4150
#
#
#
# Elastic Compliance Matrix: (Units=1/GPa)
#
#
# Indices 1 2 3 4 5 6 
#
# 1 0.014326 -0.003402 -0.003460 -0.002470 0.005151 0.005744
# 2 -0.003402 0.010155 -0.000904 0.000421 0.000257 -0.001859
# 3 -0.003460 -0.000904 0.013121 0.003527 -0.007109 -0.000384
# 4 -0.002470 0.000421 0.003527 0.024683 -0.012345 -0.000319
# 5 0.005151 0.000257 -0.007109 -0.012345 0.049014 -0.001744
# 6 0.005744 -0.001859 -0.000384 -0.000319 -0.001744 0.034482
#
#
# Mechanical properties :
#
#
# Convention : Reuss Voigt Hill
#
# Bulk Modulus (GPa) = 45.30987 46.83123 46.07055
# Shear Modulus (GPa) = 29.64405 35.63962 32.64183
#
# Velocity S-wave (km/s) = 3.58612 3.93208 3.76308
# Velocity P-wave (km/s) = 6.06659 6.39778 6.23438
#
# Compressibility (1/GPa) = 0.02207025
#
# Stress axis : x y z
#
# Youngs Moduli (GPa) = 69.80231 98.47799 76.21462
#
# Poissons Ratio (x) = 0.33504 0.26368
# Poissons Ratio (y) = 0.23748 0.06888
# Poissons Ratio (z) = 0.24149 0.08901
#
# Static dielectric constant tensor:
#      x y z
#    x 3.942390 0.071630 0.167220 
#    y 0.071630 4.179980 -0.125230 
#    z 0.167220 -0.125230 4.310200 
# 
# 
# High freq. dielectric constant tensor:
#      x y z
#    x 1.882620 0.013410 0.012540 
#    y 0.013410 1.921710 -0.006680 
#    z 0.012540 -0.006680 1.923370 
# 
# From -- ./inp_files/16486.got.cif
#   From: 2010.06.25/outbox.cif.g09.slc.cpg/sg2_9_cif.got.tgz:16486.got - 2010.06.27 13:26:56.
