data_PCOD8031101
_publ_section_title
;
Structure prediction by ZEFSAII (Michael W. Deem and Ramdas Pophale) SiO2 
 PCOD8031101
Probable space group: P -1
;
_chemical_formula_sum "Si O2"
_cell_formula_units_Z 12
_cell_length_a 10.642102
_cell_length_b 13.718514
_cell_length_c 9.746212
_cell_angle_alpha 130.456447
_cell_angle_beta 49.220916
_cell_angle_gamma 149.432856
_cell_volume 533.939522
_symmetry_space_group_name_H-M "P -1"
_symmetry_group_IT_number 2
_symmetry_cell_setting 'triclinic'
loop_
_space_group_symop_operation_xyz
x,y,z
-x,-y,-z
loop_
_atom_site_type_symbol
_atom_site_label
_atom_site_fract_x
_atom_site_fract_y
_atom_site_fract_z
Si Si1 0.971301 0.811105 0.495288
Si Si2 0.664736 0.576639 0.746533
Si Si3 0.860634 0.633471 0.949556
Si Si4 0.616351 0.947588 0.944436
Si Si5 0.644999 0.782167 0.522598
Si Si6 0.142192 0.626803 0.150677
O O1 0.824624 0.760166 0.695424
O O2 0.811669 0.754006 0.419746
O O3 0.039269 0.701875 0.344870
O O4 0.221499 0.046285 0.525994
O O5 0.839023 0.646884 0.815881
O O6 0.608864 0.414371 0.551171
O O7 0.398777 0.483954 0.894270
O O8 0.911618 0.512244 0.822951
O O9 0.091346 0.855802 0.043745
O O10 0.588655 0.815644 0.737460
O O11 0.446036 0.816116 0.079112
O O12 0.500000 0.000000 0.000000
O O13 0.000000 0.500000 0.000000
#
# Coordination Sequence:
#
# PCOD8031101 Si02
#       6
#     2   2   2   2   2   2
#     4  11  23  39  68  99 128 171 222 270 321 379
#     4  11  25  45  67  94 137 174 216 267 326 390
#     4  11  26  45  65  98 133 176 216 266 330 386
#     4  12  23  43  69  96 131 169 219 270 320 387
#     4  11  22  42  67  99 127 171 224 264 318 389
#     4  12  22  40  69  99 130 170 217 271 325 382
#
# _framework density 22.474453
#
# number of rings (size 3 to 8) (size 9 to 14) (size 15 to 20)
#    0.000    0.667    3.333    5.500    0.000    2.000 
#    0.000    5.833    0.000    0.000    0.000    0.000 
#    0.000    0.000    0.000    0.000    0.000    0.000 
#
# Total GULP energy -148793.066579 kJ/mol
# GULP energy per Si atom -12399.422215 kJ/mol
# Density = 2.242330 g / cm^3
# Si number density = 22.474453 Si / 1000 Ang^3
#
#
#
# Elastic Constant Matrix: (Units=GPa)
#
#
# Indices 1 2 3 4 5 6 
#
# 1 95.8740 24.2504 42.1701 12.7780 5.2539 -4.7797
# 2 24.2504 84.5607 38.5454 -14.6103 2.0571 -9.7566
# 3 42.1701 38.5454 97.5625 0.5417 2.9433 -1.5506
# 4 12.7780 -14.6103 0.5417 38.6322 -3.0188 1.8266
# 5 5.2539 2.0571 2.9433 -3.0188 34.3475 0.0490
# 6 -4.7797 -9.7566 -1.5506 1.8266 0.0490 37.3942
#
#
#
# Elastic Compliance Matrix: (Units=1/GPa)
#
#
# Indices 1 2 3 4 5 6 
#
# 1 0.014255 -0.002626 -0.005009 -0.005860 -0.002111 0.001218
# 2 -0.002626 0.016683 -0.005456 0.007130 0.000492 0.003442
# 3 -0.005009 -0.005456 0.014557 -0.000559 -0.000202 -0.001433
# 4 -0.005860 0.007130 -0.000559 0.030800 0.003225 -0.000421
# 5 -0.002111 0.000492 -0.000202 0.003225 0.029709 -0.000346
# 6 0.001218 0.003442 -0.001433 -0.000421 -0.000346 0.027758
#
#
# Mechanical properties :
#
#
# Convention : Reuss Voigt Hill
#
# Bulk Modulus (GPa) = 51.77530 54.21432 52.99481
# Shear Modulus (GPa) = 30.05186 33.61020 31.83103
#
# Velocity S-wave (km/s) = 3.66068 3.87135 3.76749
# Velocity P-wave (km/s) = 6.39960 6.64516 6.52353
#
# Compressibility (1/GPa) = 0.01931423
#
# Stress axis : x y z
#
# Youngs Moduli (GPa) = 70.15098 59.94167 68.69670
#
# Poissons Ratio (x) = 0.15738 0.34408
# Poissons Ratio (y) = 0.18419 0.37481
# Poissons Ratio (z) = 0.35136 0.32704
#
# Static dielectric constant tensor:
#      x y z
#    x 4.712970 0.171120 -0.622190 
#    y 0.171120 4.643890 -0.230060 
#    z -0.622190 -0.230060 4.343490 
# 
# 
# High freq. dielectric constant tensor:
#      x y z
#    x 1.872490 -0.009820 -0.014000 
#    y -0.009820 1.904770 -0.009090 
#    z -0.014000 -0.009090 1.880530 
# 
# From -- ./inp_files/189843.got.cif
#   From: 2010.06.25/outbox.cif.g09.slc.cpg/sg2_95_cif.got.tgz:189843.got - 2010.06.27 13:26:56.
