data_PCOD8031088
_publ_section_title
;
Structure prediction by ZEFSAII (Michael W. Deem and Ramdas Pophale) SiO2 
 PCOD8031088
Probable space group: P -1
;
_chemical_formula_sum "Si O2"
_cell_formula_units_Z 16
_cell_length_a 10.676145
_cell_length_b 11.790116
_cell_length_c 13.554689
_cell_angle_alpha 120.805120
_cell_angle_beta 43.124710
_cell_angle_gamma 88.116384
_cell_volume 722.607847
_symmetry_space_group_name_H-M "P -1"
_symmetry_group_IT_number 2
_symmetry_cell_setting 'triclinic'
loop_
_space_group_symop_operation_xyz
x,y,z
-x,-y,-z
loop_
_atom_site_type_symbol
_atom_site_label
_atom_site_fract_x
_atom_site_fract_y
_atom_site_fract_z
Si Si1 0.696714 0.284808 0.283328
Si Si2 0.131944 0.640402 0.254112
Si Si3 0.715940 0.141088 0.412547
Si Si4 0.287157 0.888359 0.997392
Si Si5 0.800115 0.580146 0.063161
Si Si6 0.436607 0.726672 0.049252
Si Si7 0.426951 0.037380 0.235607
Si Si8 0.764133 0.885332 0.150841
O O1 0.500000 0.500000 0.500000
O O2 0.659379 0.209486 0.363648
O O3 0.644078 0.233795 0.190479
O O4 0.984054 0.189784 0.081460
O O5 0.306520 0.477064 0.159534
O O6 0.862043 0.772651 0.521140
O O7 0.123180 0.576294 0.122907
O O8 0.212032 0.753098 0.240737
O O9 0.487106 0.306247 0.684956
O O10 0.725882 0.975462 0.320372
O O11 0.983543 0.060707 0.265028
O O12 0.402805 0.751071 0.961834
O O13 0.415400 0.968899 0.945807
O O14 0.796532 0.714491 0.064094
O O15 0.000000 0.500000 0.000000
O O16 0.445255 0.870682 0.147765
O O17 0.529550 0.033579 0.280498
#
# Coordination Sequence:
#
# PCOD8031088 Si02
#       8
#     2   2   2   2   2   2   2   2
#     4  11  23  41  67 102 145 174 215 288 347 405
#     4  11  28  47  71 103 140 179 233 289 345 404
#     4  11  23  43  67 103 139 177 222 279 351 409
#     4  11  25  44  73 100 133 185 234 274 348 422
#     4  12  26  41  70 106 138 177 231 281 343 416
#     4  11  27  49  68 100 138 184 236 285 340 404
#     4  12  23  48  74  97 139 184 231 286 343 403
#     4  11  22  42  67 102 138 179 223 280 346 408
#
# _framework density 22.142022999999998
#
# number of rings (size 3 to 8) (size 9 to 14) (size 15 to 20)
#    0.000    0.750    3.750    3.375    8.750    2.500 
#    0.000    0.000    0.000    0.000    0.000    0.000 
#    0.000    0.000    0.000    0.000    0.000    0.000 
#
# Total GULP energy -198401.179648 kJ/mol
# GULP energy per Si atom -12400.073728 kJ/mol
# Density = 2.209163 g / cm^3
# Si number density = 22.142023 Si / 1000 Ang^3
#
#
#
# Elastic Constant Matrix: (Units=GPa)
#
#
# Indices 1 2 3 4 5 6 
#
# 1 114.2111 57.7760 43.1568 -4.1712 -21.7406 -9.2196
# 2 57.7760 127.7548 48.2966 -5.0030 -12.4123 2.4985
# 3 43.1568 48.2966 124.9373 -8.5007 -33.3967 -0.9538
# 4 -4.1712 -5.0030 -8.5007 31.6556 3.7812 1.2424
# 5 -21.7406 -12.4123 -33.3967 3.7812 36.4685 8.1317
# 6 -9.2196 2.4985 -0.9538 1.2424 8.1317 54.5137
#
#
#
# Elastic Compliance Matrix: (Units=1/GPa)
#
#
# Indices 1 2 3 4 5 6 
#
# 1 0.012664 -0.004836 -0.001347 -0.000037 0.004296 0.001700
# 2 -0.004836 0.011035 -0.003020 0.000543 -0.001696 -0.001136
# 3 -0.001347 -0.003020 0.012287 0.001556 0.009558 -0.001336
# 4 -0.000037 0.000543 0.001556 0.032305 -0.001652 -0.000494
# 5 0.004296 -0.001696 0.009558 -0.001652 0.039415 -0.004870
# 6 0.001700 -0.001136 -0.001336 -0.000494 -0.004870 0.019398
#
#
# Mechanical properties :
#
#
# Convention : Reuss Voigt Hill
#
# Bulk Modulus (GPa) = 56.87889 73.92912 65.40400
# Shear Modulus (GPa) = 33.03152 39.03912 36.03532
#
# Velocity S-wave (km/s) = 3.86658 4.20351 4.03856
# Velocity P-wave (km/s) = 6.75854 7.55119 7.16583
#
# Compressibility (1/GPa) = 0.01758122
#
# Stress axis : x y z
#
# Youngs Moduli (GPa) = 78.96206 90.62151 81.38433
#
# Poissons Ratio (x) = 0.43821 0.10959
# Poissons Ratio (y) = 0.38183 0.24582
# Poissons Ratio (z) = 0.10633 0.27372
#
# Static dielectric constant tensor:
#      x y z
#    x 4.273730 0.166950 -0.112740 
#    y 0.166950 4.217280 0.022280 
#    z -0.112740 0.022280 4.041940 
# 
# 
# High freq. dielectric constant tensor:
#      x y z
#    x 1.881180 0.005710 -0.012770 
#    y 0.005710 1.885800 0.001470 
#    z -0.012770 0.001470 1.864830 
# 
# From -- ./inp_files/519805.got.cif
#   From: 2010.06.25/outbox.cif.g09.slc.cpg/sg2_260_cif.got.tgz:519805.got - 2010.06.27 13:26:56.
