data_PCOD8031014
_publ_section_title
;
Structure prediction by ZEFSAII (Michael W. Deem and Ramdas Pophale) SiO2 
 PCOD8031014
Probable space group: P -1
;
_chemical_formula_sum "Si O2"
_cell_formula_units_Z 14
_cell_length_a 14.936749
_cell_length_b 24.543625
_cell_length_c 6.634473
_cell_angle_alpha 113.626149
_cell_angle_beta 103.211161
_cell_angle_gamma 18.903740
_cell_volume 622.096339
_symmetry_space_group_name_H-M "P -1"
_symmetry_group_IT_number 2
_symmetry_cell_setting 'triclinic'
loop_
_space_group_symop_operation_xyz
x,y,z
-x,-y,-z
loop_
_atom_site_type_symbol
_atom_site_label
_atom_site_fract_x
_atom_site_fract_y
_atom_site_fract_z
Si Si1 0.626984 0.833110 0.769713
Si Si2 0.274205 0.937125 0.807957
Si Si3 0.677199 0.878915 0.210694
Si Si4 0.145105 0.734219 0.590854
Si Si5 0.625174 0.604567 0.574438
Si Si6 0.745896 0.248783 0.696644
Si Si7 0.733525 0.458069 0.784545
O O1 0.992782 0.623323 0.589945
O O2 0.536791 0.819986 0.673352
O O3 0.371731 0.031613 0.814598
O O4 0.570389 0.885159 0.051721
O O5 0.076186 0.028574 0.659364
O O6 0.464474 0.768016 0.774074
O O7 0.060108 0.106331 0.107913
O O8 0.048296 0.636972 0.098812
O O9 0.500000 0.000000 0.500000
O O10 0.500000 0.500000 0.500000
O O11 0.157162 0.763522 0.436014
O O12 0.027501 0.740414 0.482177
O O13 0.443198 0.688512 0.413298
O O14 0.560847 0.603393 0.735695
O O15 0.529790 0.408596 0.005514
#
# Coordination Sequence:
#
# PCOD8031014 Si02
#       7
#     2   2   2   2   2   2   2
#     4  11  25  44  71 102 140 179 235 279 346 411
#     4  12  28  46  69 102 147 183 228 286 345 412
#     4  11  22  41  72 103 131 178 229 291 340 400
#     4  12  25  43  70 105 136 177 233 290 341 406
#     4  12  26  47  70 104 140 187 232 280 343 423
#     4  12  25  46  73  99 139 185 229 283 350 408
#     4  12  24  44  75 102 139 179 234 289 345 405
#
# _framework density 22.504553000000001
#
# number of rings (size 3 to 8) (size 9 to 14) (size 15 to 20)
#    0.000    0.286    5.714    3.000    4.000    3.429 
#    0.000    0.714    0.000    0.000    0.000    0.000 
#    0.000    0.000    0.000    0.000    0.000    0.000 
#
# Total GULP energy -173451.925159 kJ/mol
# GULP energy per Si atom -12389.423226 kJ/mol
# Density = 2.245333 g / cm^3
# Si number density = 22.504553 Si / 1000 Ang^3
#
#
#
# Elastic Constant Matrix: (Units=GPa)
#
#
# Indices 1 2 3 4 5 6 
#
# 1 85.8274 37.2084 29.5338 -4.9806 5.1202 -1.3979
# 2 37.2084 121.3290 40.4286 -15.1550 4.0032 -1.2963
# 3 29.5338 40.4286 77.4864 -17.6370 -1.9153 5.7142
# 4 -4.9806 -15.1550 -17.6370 30.8813 5.8887 5.8090
# 5 5.1202 4.0032 -1.9153 5.8887 34.5787 1.1528
# 6 -1.3979 -1.2963 5.7142 5.8090 1.1528 42.1218
#
#
#
# Elastic Compliance Matrix: (Units=1/GPa)
#
#
# Indices 1 2 3 4 5 6 
#
# 1 0.014561 -0.003118 -0.004425 -0.001600 -0.001810 0.001258
# 2 -0.003118 0.010915 -0.003934 0.002817 -0.001514 0.000419
# 3 -0.004425 -0.003934 0.018969 0.008804 0.000798 -0.004077
# 4 -0.001600 0.002817 0.008804 0.040997 -0.006362 -0.006641
# 5 -0.001810 -0.001514 0.000798 -0.006362 0.030496 -0.000172
# 6 0.001258 0.000419 -0.004077 -0.006641 -0.000172 0.025269
#
#
# Mechanical properties :
#
#
# Convention : Reuss Voigt Hill
#
# Bulk Modulus (GPa) = 46.52883 55.44272 50.98578
# Shear Modulus (GPa) = 29.18436 33.34783 31.26609
#
# Velocity S-wave (km/s) = 3.60505 3.85363 3.73141
# Velocity P-wave (km/s) = 6.16836 6.67010 6.42413
#
# Compressibility (1/GPa) = 0.02149205
#
# Stress axis : x y z
#
# Youngs Moduli (GPa) = 68.67567 91.61446 52.71784
#
# Poissons Ratio (x) = 0.28564 0.23328
# Poissons Ratio (y) = 0.21412 0.20739
# Poissons Ratio (z) = 0.30389 0.36040
#
# Static dielectric constant tensor:
#      x y z
#    x 8.711100 -0.777850 3.301580 
#    y -0.777850 4.129280 -0.542120 
#    z 3.301580 -0.542120 6.332650 
# 
# 
# High freq. dielectric constant tensor:
#      x y z
#    x 1.881690 -0.015640 -0.004210 
#    y -0.015640 1.903450 -0.015030 
#    z -0.004210 -0.015030 1.886960 
# 
# From -- ./inp_files/60521.got.cif
#   From: 2010.06.25/outbox.cif.g09.slc.cpg/sg2_31_cif.got.tgz:60521.got - 2010.06.27 13:26:56.
