data_PCOD8031302
_publ_section_title
;
Structure prediction by ZEFSAII (Michael W. Deem and Ramdas Pophale) SiO2 
 PCOD8031302
Probable space group: P -1
;
_chemical_formula_sum "Si O2"
_cell_formula_units_Z 14
_cell_length_a 8.353704
_cell_length_b 17.556255
_cell_length_c 9.351630
_cell_angle_alpha 33.215051
_cell_angle_beta 57.038486
_cell_angle_gamma 58.878188
_cell_volume 624.657300
_symmetry_space_group_name_H-M "P -1"
_symmetry_group_IT_number 2
_symmetry_cell_setting 'triclinic'
loop_
_space_group_symop_operation_xyz
x,y,z
-x,-y,-z
loop_
_atom_site_type_symbol
_atom_site_label
_atom_site_fract_x
_atom_site_fract_y
_atom_site_fract_z
Si Si1 0.178775 0.340904 0.860659
Si Si2 0.516326 0.628653 0.559488
Si Si3 0.298651 0.367441 0.072117
Si Si4 0.112469 0.390432 0.414514
Si Si5 0.599444 0.106722 0.377806
Si Si6 0.012502 0.148409 0.035290
Si Si7 0.656510 0.075244 0.725413
O O1 0.386415 0.329611 0.700827
O O2 0.060188 0.491295 0.642801
O O3 0.207447 0.314816 0.055143
O O4 0.059943 0.221441 0.046738
O O5 0.684071 0.575055 0.675589
O O6 0.374327 0.760082 0.483951
O O7 0.384267 0.510471 0.775547
O O8 0.128044 0.388484 0.238479
O O9 0.464719 0.253015 0.231008
O O10 0.068028 0.241083 0.729152
O O11 0.645042 0.044841 0.609959
O O12 0.790116 0.132933 0.159486
O O13 0.500000 0.000000 0.500000
O O14 0.135182 0.994246 0.209541
O O15 0.500000 0.000000 0.000000
#
# Coordination Sequence:
#
# PCOD8031302 Si02
#       7
#     2   2   2   2   2   2   2
#     4  11  23  41  70 100 139 178 227 279 341 405
#     4  11  23  42  72  96 145 183 221 280 337 410
#     4  12  24  43  67 107 139 176 231 285 339 396
#     4  11  22  43  69 102 135 178 226 284 335 407
#     4  12  27  47  72  99 138 177 232 288 345 409
#     4  11  24  47  72  96 137 183 229 279 347 411
#     4  12  23  47  70 102 138 184 230 274 344 411
#
# _framework density 22.412289000000001
#
# number of rings (size 3 to 8) (size 9 to 14) (size 15 to 20)
#    0.000    0.571    4.286    6.000    2.000    0.000 
#    2.571    1.429    0.000    0.000    0.000    0.000 
#    0.000    0.000    0.000    0.000    0.000    0.000 
#
# Total GULP energy -173706.220794 kJ/mol
# GULP energy per Si atom -12407.587200 kJ/mol
# Density = 2.236128 g / cm^3
# Si number density = 22.412289 Si / 1000 Ang^3
#
#
#
# Elastic Constant Matrix: (Units=GPa)
#
#
# Indices 1 2 3 4 5 6 
#
# 1 73.8252 28.8195 36.6916 6.1293 -15.3056 2.7033
# 2 28.8195 104.2020 22.2268 -0.5713 -5.3798 -3.0792
# 3 36.6916 22.2268 68.9843 2.1029 -6.0907 7.1159
# 4 6.1293 -0.5713 2.1029 45.7871 -0.2008 15.7758
# 5 -15.3056 -5.3798 -6.0907 -0.2008 43.2854 -4.4874
# 6 2.7033 -3.0792 7.1159 15.7758 -4.4874 40.7367
#
#
#
# Elastic Compliance Matrix: (Units=1/GPa)
#
#
# Indices 1 2 3 4 5 6 
#
# 1 0.021102 -0.003427 -0.009702 -0.003036 0.005849 0.001855
# 2 -0.003427 0.010981 -0.001854 0.000235 0.000027 0.001293
# 3 -0.009702 -0.001854 0.020497 0.001654 -0.001168 -0.003846
# 4 -0.003036 0.000235 0.001654 0.025683 -0.001751 -0.010209
# 5 0.005849 0.000027 -0.001168 -0.001751 0.025342 0.003287
# 6 0.001855 0.001293 -0.003846 -0.010209 0.003287 0.029510
#
#
# Mechanical properties :
#
#
# Convention : Reuss Voigt Hill
#
# Bulk Modulus (GPa) = 44.21871 46.94305 45.58088
# Shear Modulus (GPa) = 29.30525 36.58007 32.94266
#
# Velocity S-wave (km/s) = 3.61993 4.04436 3.83802
# Velocity P-wave (km/s) = 6.10282 6.54216 6.32630
#
# Compressibility (1/GPa) = 0.02261486
#
# Stress axis : x y z
#
# Youngs Moduli (GPa) = 47.38916 91.06855 48.78789
#
# Poissons Ratio (x) = 0.31205 0.47335
# Poissons Ratio (y) = 0.16238 0.09043
# Poissons Ratio (z) = 0.45978 0.16880
#
# Static dielectric constant tensor:
#      x y z
#    x 3.921780 -0.177860 0.176770 
#    y -0.177860 4.424680 -0.123430 
#    z 0.176770 -0.123430 3.993210 
# 
# 
# High freq. dielectric constant tensor:
#      x y z
#    x 1.871400 -0.010780 0.010080 
#    y -0.010780 1.899150 0.000400 
#    z 0.010080 0.000400 1.888580 
# 
# From -- ./inp_files/216292.got.cif
#   From: 2010.06.25/outbox.cif.g09.slc.cpg/sg2_109_cif.got.tgz:216292.got - 2010.06.27 13:26:56.
