data_PCOD8031446
_publ_section_title
;
Structure prediction by ZEFSAII (Michael W. Deem and Ramdas Pophale) SiO2 
 PCOD8031446
Probable space group: P -1
;
_chemical_formula_sum "Si O2"
_cell_formula_units_Z 16
_cell_length_a 9.551822
_cell_length_b 13.998750
_cell_length_c 11.140201
_cell_angle_alpha 148.776316
_cell_angle_beta 79.892396
_cell_angle_gamma 109.132074
_cell_volume 712.636390
_symmetry_space_group_name_H-M "P -1"
_symmetry_group_IT_number 2
_symmetry_cell_setting 'triclinic'
loop_
_space_group_symop_operation_xyz
x,y,z
-x,-y,-z
loop_
_atom_site_type_symbol
_atom_site_label
_atom_site_fract_x
_atom_site_fract_y
_atom_site_fract_z
Si Si1 0.174605 0.405220 0.116247
Si Si2 0.835980 0.970528 0.154847
Si Si3 0.838485 0.364502 0.177889
Si Si4 0.661132 0.177972 0.530350
Si Si5 0.343771 0.906488 0.296402
Si Si6 0.167277 0.226517 0.418117
Si Si7 0.673975 0.015310 0.986162
Si Si8 0.154265 0.170201 0.633530
O O1 0.305678 0.619692 0.331552
O O2 0.017815 0.426534 0.203153
O O3 0.212051 0.255985 0.040386
O O4 0.171327 0.340725 0.909296
O O5 0.799068 0.097515 0.403164
O O6 0.016875 0.065736 0.208755
O O7 0.734271 0.976997 0.063974
O O8 0.797609 0.559600 0.414835
O O9 0.762619 0.245135 0.943059
O O10 0.777355 0.233161 0.163149
O O11 0.645930 0.211351 0.710863
O O12 0.508818 0.011437 0.324878
O O13 0.289108 0.085285 0.532616
O O14 0.149770 0.252615 0.590008
O O15 0.304358 0.146314 0.283294
O O16 0.500000 0.000000 0.000000
O O17 0.000000 0.000000 0.500000
#
# Coordination Sequence:
#
# PCOD8031446 Si02
#       8
#     2   2   2   2   2   2   2   2
#     4  12  24  42  74 109 137 187 232 286 342 424
#     4  12  24  45  72  99 139 183 236 293 347 411
#     4  12  25  45  75 102 136 186 239 284 353 412
#     4  11  25  42  67 103 145 185 230 283 356 409
#     4  11  22  44  66 101 151 185 222 290 347 419
#     4  12  25  44  74 107 134 186 238 286 344 423
#     4  12  28  50  70  98 143 183 234 301 353 406
#     4  12  20  40  72 101 146 180 226 276 350 411
#
# _framework density 22.451841000000002
#
# number of rings (size 3 to 8) (size 9 to 14) (size 15 to 20)
#    0.000    0.250    7.500    1.875    0.000    3.500 
#    4.500    0.000    0.000    0.000    0.000    0.000 
#    0.000    0.000    0.000    0.000    0.000    0.000 
#
# Total GULP energy -198445.040864 kJ/mol
# GULP energy per Si atom -12402.815054 kJ/mol
# Density = 2.240074 g / cm^3
# Si number density = 22.451841 Si / 1000 Ang^3
#
#
#
# Elastic Constant Matrix: (Units=GPa)
#
#
# Indices 1 2 3 4 5 6 
#
# 1 110.2736 57.7700 28.2035 6.0769 -14.7693 4.9637
# 2 57.7700 145.6351 55.8478 27.5480 -1.5699 -9.5708
# 3 28.2035 55.8478 66.1317 27.2228 -21.0028 5.5564
# 4 6.0769 27.5480 27.2228 47.1348 -9.1827 -3.6793
# 5 -14.7693 -1.5699 -21.0028 -9.1827 37.0052 -2.2188
# 6 4.9637 -9.5708 5.5564 -3.6793 -2.2188 39.2182
#
#
#
# Elastic Compliance Matrix: (Units=1/GPa)
#
#
# Indices 1 2 3 4 5 6 
#
# 1 0.012693 -0.005757 0.000445 0.002345 0.005503 -0.002543
# 2 -0.005757 0.014435 -0.012148 -0.001970 -0.008751 0.005292
# 3 0.000445 -0.012148 0.035693 -0.010953 0.016713 -0.008160
# 4 0.002345 -0.001970 -0.010953 0.029076 0.002068 0.003619
# 5 0.005503 -0.008751 0.016713 0.002068 0.038678 -0.002818
# 6 -0.002543 0.005292 -0.008160 0.003619 -0.002818 0.028448
#
#
# Mechanical properties :
#
#
# Convention : Reuss Voigt Hill
#
# Bulk Modulus (GPa) = 35.84262 67.29810 51.57036
# Shear Modulus (GPa) = 24.60116 36.68625 30.64371
#
# Velocity S-wave (km/s) = 3.31377 4.04666 3.69841
# Velocity P-wave (km/s) = 5.53537 7.20232 6.42315
#
# Compressibility (1/GPa) = 0.02789975
#
# Stress axis : x y z
#
# Youngs Moduli (GPa) = 78.78456 69.27789 28.01695
#
# Poissons Ratio (x) = 0.39882 -0.01246
# Poissons Ratio (y) = 0.45355 0.34035
# Poissons Ratio (z) = -0.03503 0.84159
#
# Static dielectric constant tensor:
#      x y z
#    x 3.746390 0.032630 0.095930 
#    y 0.032630 4.173240 0.192370 
#    z 0.095930 0.192370 3.371810 
# 
# 
# High freq. dielectric constant tensor:
#      x y z
#    x 1.886650 0.000660 -0.011820 
#    y 0.000660 1.899100 0.001890 
#    z -0.011820 0.001890 1.873040 
# 
# From -- ./inp_files/186392.got.cif
#   From: 2010.06.25/outbox.cif.g09.slc.cpg/sg2_94_cif.got.tgz:186392.got - 2010.06.27 13:26:56.
