data_PCOD8031170
_publ_section_title
;
Structure prediction by ZEFSAII (Michael W. Deem and Ramdas Pophale) SiO2 
 PCOD8031170
Probable space group: P -1
;
_chemical_formula_sum "Si O2"
_cell_formula_units_Z 16
_cell_length_a 18.496777
_cell_length_b 8.432049
_cell_length_c 5.069239
_cell_angle_alpha 82.159526
_cell_angle_beta 116.141872
_cell_angle_gamma 113.336029
_cell_volume 650.994460
_symmetry_space_group_name_H-M "P -1"
_symmetry_group_IT_number 2
_symmetry_cell_setting 'triclinic'
loop_
_space_group_symop_operation_xyz
x,y,z
-x,-y,-z
loop_
_atom_site_type_symbol
_atom_site_label
_atom_site_fract_x
_atom_site_fract_y
_atom_site_fract_z
Si Si1 0.576661 0.447908 0.736638
Si Si2 0.202287 0.941474 0.905495
Si Si3 0.093779 0.138080 0.615924
Si Si4 0.702656 0.765742 0.632949
Si Si5 0.556611 0.220362 0.265848
Si Si6 0.061449 0.571331 0.834397
Si Si7 0.629776 0.981648 0.151794
Si Si8 0.149731 0.336628 0.181426
O O1 0.500000 0.500000 0.500000
O O2 0.656337 0.634350 0.827562
O O3 0.588936 0.311491 0.577820
O O4 0.565229 0.365183 0.025526
O O5 0.115574 0.774859 0.865717
O O6 0.280792 0.911505 0.885980
O O7 0.164855 0.061053 0.643046
O O8 0.238932 0.043097 0.211625
O O9 0.095839 0.288558 0.381136
O O10 0.111836 0.190361 0.934601
O O11 0.000000 0.000000 0.500000
O O12 0.753986 0.657132 0.598194
O O13 0.634878 0.805922 0.323443
O O14 0.616914 0.112636 0.316939
O O15 0.455651 0.087056 0.157600
O O16 0.000000 0.500000 0.500000
O O17 0.141371 0.505481 0.005078
O O18 0.000000 0.500000 0.000000
#
# Coordination Sequence:
#
# PCOD8031170 Si02
#       8
#     2   2   2   2   2   2   2   2
#     4  12  25  47  73 104 144 191 241 288 360 411
#     4  11  26  45  72 104 143 190 233 301 364 420
#     4  11  22  42  70  96 132 175 229 283 348 422
#     4  11  26  43  72 103 143 183 240 297 346 429
#     4  11  28  44  75 105 147 197 233 299 346 437
#     4  12  28  49  72 102 144 185 238 296 363 434
#     4  11  25  47  69 108 148 187 245 286 370 416
#     4  11  24  43  65 101 130 177 226 284 348 414
#
# _framework density 24.577781000000002
#
# number of rings (size 3 to 8) (size 9 to 14) (size 15 to 20)
#    0.000    0.750    2.500    3.750    7.000    2.000 
#    0.000    0.000    0.000    0.000    0.000    0.000 
#    0.000    0.000    0.000    0.000    0.000    0.000 
#
# Total GULP energy -198256.620124 kJ/mol
# GULP energy per Si atom -12391.038758 kJ/mol
# Density = 2.452184 g / cm^3
# Si number density = 24.577781 Si / 1000 Ang^3
#
#
#
# Elastic Constant Matrix: (Units=GPa)
#
#
# Indices 1 2 3 4 5 6 
#
# 1 81.0819 9.4600 19.8546 -1.6777 5.0138 -2.5654
# 2 9.4600 93.5328 8.1999 5.0028 5.3666 15.6158
# 3 19.8546 8.1999 66.8038 -4.5410 -0.3736 0.0540
# 4 -1.6777 5.0028 -4.5410 44.1312 -6.8382 3.7932
# 5 5.0138 5.3666 -0.3736 -6.8382 39.2381 -11.8886
# 6 -2.5654 15.6158 0.0540 3.7932 -11.8886 51.2742
#
#
#
# Elastic Compliance Matrix: (Units=1/GPa)
#
#
# Indices 1 2 3 4 5 6 
#
# 1 0.013520 -0.001054 -0.003900 -0.000047 -0.001424 0.000675
# 2 -0.001054 0.011885 -0.001270 -0.001629 -0.003079 -0.004264
# 3 -0.003900 -0.001270 0.016417 0.001851 0.001250 0.000327
# 4 -0.000047 -0.001629 0.001851 0.023722 0.004300 -0.000266
# 5 -0.001424 -0.003079 0.001250 0.004300 0.029057 0.007284
# 6 0.000675 -0.004264 0.000327 -0.000266 0.007284 0.022544
#
#
# Mechanical properties :
#
#
# Convention : Reuss Voigt Hill
#
# Bulk Modulus (GPa) = 34.04512 35.16082 34.60297
# Shear Modulus (GPa) = 35.87206 40.52232 38.19719
#
# Velocity S-wave (km/s) = 3.82453 4.06487 3.94653
# Velocity P-wave (km/s) = 5.77795 6.03058 5.90562
#
# Compressibility (1/GPa) = 0.02937278
#
# Stress axis : x y z
#
# Youngs Moduli (GPa) = 73.96600 84.13887 60.91292
#
# Poissons Ratio (x) = 0.08867 0.23759
# Poissons Ratio (y) = 0.07795 0.07737
# Poissons Ratio (z) = 0.28850 0.10687
#
# Static dielectric constant tensor:
#      x y z
#    x 4.825290 -0.345880 0.707880 
#    y -0.345880 4.053500 1.001090 
#    z 0.707880 1.001090 2.106970 
# 
# 
# High freq. dielectric constant tensor:
#      x y z
#    x 1.991840 -0.004160 0.014960 
#    y -0.004160 1.975860 -0.013830 
#    z 0.014960 -0.013830 1.974880 
# 
# From -- ./inp_files/106788.got.cif
#   From: 2010.06.25/outbox.cif.g09.slc.cpg/sg2_54_cif.got.tgz:106788.got - 2010.06.27 13:26:56.
