data_PCOD8031123
_publ_section_title
;
Structure prediction by ZEFSAII (Michael W. Deem and Ramdas Pophale) SiO2 
 PCOD8031123
Probable space group: P -1
;
_chemical_formula_sum "Si O2"
_cell_formula_units_Z 14
_cell_length_a 9.838608
_cell_length_b 21.463476
_cell_length_c 8.949501
_cell_angle_alpha 132.018434
_cell_angle_beta 135.144469
_cell_angle_gamma 29.205193
_cell_volume 643.339127
_symmetry_space_group_name_H-M "P -1"
_symmetry_group_IT_number 2
_symmetry_cell_setting 'triclinic'
loop_
_space_group_symop_operation_xyz
x,y,z
-x,-y,-z
loop_
_atom_site_type_symbol
_atom_site_label
_atom_site_fract_x
_atom_site_fract_y
_atom_site_fract_z
Si Si1 0.540617 0.252252 0.675010
Si Si2 0.091705 0.276455 0.776518
Si Si3 0.854353 0.285966 0.316953
Si Si4 0.902071 0.865227 0.228704
Si Si5 0.396633 0.477759 0.021974
Si Si6 0.322086 0.158326 0.252923
Si Si7 0.285562 0.851928 0.032049
O O1 0.318114 0.259979 0.436916
O O2 0.699971 0.158079 0.792540
O O3 0.782975 0.196019 0.649799
O O4 0.353801 0.395646 0.806535
O O5 0.115637 0.172713 0.685295
O O6 0.418262 0.204935 0.893864
O O7 0.906053 0.332665 0.568669
O O8 0.916999 0.390185 0.943070
O O9 0.642552 0.403639 0.224200
O O10 0.168695 0.164299 0.284476
O O11 0.730926 0.236281 0.191543
O O12 0.658688 0.017652 0.272120
O O13 0.860105 0.805252 0.977944
O O14 0.500000 0.500000 0.000000
O O15 0.000000 0.000000 0.000000
#
# Coordination Sequence:
#
# PCOD8031123 Si02
#       7
#     2   2   2   2   2   2   2
#     4  11  23  44  69  96 138 180 224 282 337 401
#     4  12  25  44  71 100 135 186 224 278 348 393
#     4  11  24  44  69  99 140 179 224 283 340 399
#     4  11  24  41  68  98 138 177 229 281 335 406
#     4  11  23  49  70  97 141 177 234 283 329 411
#     4  11  22  42  68  98 133 182 221 280 345 394
#     4  11  25  42  68 104 140 173 227 279 341 412
#
# _framework density 21.761462999999999
#
# number of rings (size 3 to 8) (size 9 to 14) (size 15 to 20)
#    0.000    0.857    5.714    1.714    4.000    4.571 
#    2.571    1.429    0.000    0.000    0.000    0.000 
#    0.000    0.000    0.000    0.000    0.000    0.000 
#
# Total GULP energy -173639.825867 kJ/mol
# GULP energy per Si atom -12402.844705 kJ/mol
# Density = 2.171193 g / cm^3
# Si number density = 21.761463 Si / 1000 Ang^3
#
#
#
# Elastic Constant Matrix: (Units=GPa)
#
#
# Indices 1 2 3 4 5 6 
#
# 1 148.2182 56.3154 38.8380 -5.5644 7.1955 -10.6162
# 2 56.3154 77.8044 25.7341 4.4220 3.9231 -0.1907
# 3 38.8380 25.7341 101.2116 5.1460 9.5521 -0.0331
# 4 -5.5644 4.4220 5.1460 21.7181 -2.9938 -0.3687
# 5 7.1955 3.9231 9.5521 -2.9938 30.8366 -2.7286
# 6 -10.6162 -0.1907 -0.0331 -0.3687 -2.7286 43.2920
#
#
#
# Elastic Compliance Matrix: (Units=1/GPa)
#
#
# Indices 1 2 3 4 5 6 
#
# 1 0.010402 -0.006975 -0.002446 0.004694 -0.000100 0.002552
# 2 -0.006975 0.018827 -0.001754 -0.005358 -0.000898 -0.001731
# 3 -0.002446 -0.001754 0.011751 -0.003518 -0.003262 -0.000834
# 4 0.004694 -0.005358 -0.003518 0.049990 0.005698 0.001910
# 5 -0.000100 -0.000898 -0.003262 0.005698 0.034323 0.002181
# 6 0.002552 -0.001731 -0.000834 0.001910 0.002181 0.023870
#
#
# Mechanical properties :
#
#
# Convention : Reuss Voigt Hill
#
# Bulk Modulus (GPa) = 53.67826 63.22324 58.45075
# Shear Modulus (GPa) = 28.13344 32.92580 30.52962
#
# Velocity S-wave (km/s) = 3.59947 3.89399 3.74962
# Velocity P-wave (km/s) = 6.48036 7.02378 6.75754
#
# Compressibility (1/GPa) = 0.01862952
#
# Stress axis : x y z
#
# Youngs Moduli (GPa) = 96.13500 53.11465 85.09651
#
# Poissons Ratio (x) = 0.37050 0.20818
# Poissons Ratio (y) = 0.67058 0.14924
# Poissons Ratio (z) = 0.23518 0.09315
#
# Static dielectric constant tensor:
#      x y z
#    x 4.078040 -0.033870 -0.056060 
#    y -0.033870 3.793580 0.049780 
#    z -0.056060 0.049780 3.997050 
# 
# 
# High freq. dielectric constant tensor:
#      x y z
#    x 1.866720 -0.004830 0.001070 
#    y -0.004830 1.848560 0.002960 
#    z 0.001070 0.002960 1.854800 
# 
# From -- ./inp_files/190434.got.cif
#   From: 2010.06.25/outbox.cif.g09.slc.cpg/sg2_96_cif.got.tgz:190434.got - 2010.06.27 13:26:56.
