data_PCOD8031570
_publ_section_title
;
Structure prediction by ZEFSAII (Michael W. Deem and Ramdas Pophale) SiO2 
 PCOD8031570
Probable space group: P -1
;
_chemical_formula_sum "Si O2"
_cell_formula_units_Z 14
_cell_length_a 21.787232
_cell_length_b 12.061069
_cell_length_c 21.906645
_cell_angle_alpha 159.609713
_cell_angle_beta 18.257182
_cell_angle_gamma 150.693304
_cell_volume 619.599330
_symmetry_space_group_name_H-M "P -1"
_symmetry_group_IT_number 2
_symmetry_cell_setting 'triclinic'
loop_
_space_group_symop_operation_xyz
x,y,z
-x,-y,-z
loop_
_atom_site_type_symbol
_atom_site_label
_atom_site_fract_x
_atom_site_fract_y
_atom_site_fract_z
Si Si1 0.253160 0.289130 0.267318
Si Si2 0.540371 0.843265 0.115769
Si Si3 0.945481 0.819104 0.786920
Si Si4 0.447178 0.644397 0.370312
Si Si5 0.095763 0.779166 0.850923
Si Si6 0.796432 0.359374 0.967957
Si Si7 0.191441 0.281210 0.737054
O O1 0.344177 0.549874 0.356900
O O2 0.050952 0.449257 0.505893
O O3 0.431811 0.150152 0.980382
O O4 0.172590 0.022088 0.246767
O O5 0.371134 0.147319 0.451354
O O6 0.500000 0.500000 0.000000
O O7 0.754163 0.884027 0.959441
O O8 0.123514 0.966001 0.664822
O O9 0.874340 0.970165 0.996244
O O10 0.308121 0.603831 0.538068
O O11 0.645619 0.407935 0.078764
O O12 0.500000 0.000000 0.500000
O O13 0.987559 0.495576 0.832940
O O14 0.000000 0.000000 0.000000
O O15 0.725275 0.530087 0.187991
O O16 0.000000 0.500000 0.000000
#
# Coordination Sequence:
#
# PCOD8031570 Si02
#       7
#     2   2   2   2   2   2   2
#     4  12  26  45  69 108 149 187 239 306 356 423
#     4  12  27  43  75 105 140 196 237 291 368 424
#     4  11  24  46  68 103 145 185 244 292 354 434
#     4  12  24  46  72 101 143 186 244 295 358 435
#     4  11  22  44  72  97 130 196 235 285 367 417
#     4  11  26  44  69 104 143 182 242 303 352 426
#     4  11  25  48  74 104 143 190 238 296 357 428
#
# _framework density 22.595247000000001
#
# number of rings (size 3 to 8) (size 9 to 14) (size 15 to 20)
#    0.000    0.571    4.286    3.429    4.000    5.143 
#    0.000    0.000    0.000    0.000    0.000    0.000 
#    0.000    0.000    0.000    0.000    0.000    0.000 
#
# Total GULP energy -173528.394767 kJ/mol
# GULP energy per Si atom -12394.885341 kJ/mol
# Density = 2.254382 g / cm^3
# Si number density = 22.595247 Si / 1000 Ang^3
#
#
#
# Elastic Constant Matrix: (Units=GPa)
#
#
# Indices 1 2 3 4 5 6 
#
# 1 90.4290 24.5756 42.9613 -2.1115 9.2582 -1.0106
# 2 24.5756 109.1170 36.2412 15.9965 10.7358 -10.1222
# 3 42.9613 36.2412 124.4096 -9.9536 3.2630 -0.0640
# 4 -2.1115 15.9965 -9.9536 35.9728 -13.3169 -4.3260
# 5 9.2582 10.7358 3.2630 -13.3169 49.8687 1.0094
# 6 -1.0106 -10.1222 -0.0640 -4.3260 1.0094 39.0358
#
#
#
# Elastic Compliance Matrix: (Units=1/GPa)
#
#
# Indices 1 2 3 4 5 6 
#
# 1 0.013683 -0.001355 -0.004321 -0.000576 -0.002119 -0.000013
# 2 -0.001355 0.012534 -0.003708 -0.008013 -0.004393 0.002435
# 3 -0.004321 -0.003708 0.010967 0.005211 0.002285 -0.000537
# 4 -0.000576 -0.008013 0.005211 0.037195 0.011388 0.001743
# 5 -0.002119 -0.004393 0.002285 0.011388 0.024295 -0.000556
# 6 -0.000013 0.002435 -0.000537 0.001743 -0.000556 0.026455
#
#
# Mechanical properties :
#
#
# Convention : Reuss Voigt Hill
#
# Bulk Modulus (GPa) = 54.29948 59.05688 56.67818
# Shear Modulus (GPa) = 33.32565 39.65397 36.48981
#
# Velocity S-wave (km/s) = 3.84460 4.19378 4.02298
# Velocity P-wave (km/s) = 6.61752 7.04585 6.83504
#
# Compressibility (1/GPa) = 0.01841638
#
# Stress axis : x y z
#
# Youngs Moduli (GPa) = 73.08494 79.78397 91.18378
#
# Poissons Ratio (x) = 0.10809 0.39398
# Poissons Ratio (y) = 0.09902 0.33810
# Poissons Ratio (z) = 0.31578 0.29583
#
# Static dielectric constant tensor:
#      x y z
#    x 3.878890 0.544820 0.059550 
#    y 0.544820 3.915660 -0.000230 
#    z 0.059550 -0.000230 4.334260 
# 
# 
# High freq. dielectric constant tensor:
#      x y z
#    x 1.903420 -0.003090 0.004650 
#    y -0.003090 1.899440 -0.000430 
#    z 0.004650 -0.000430 1.887750 
# 
# From -- ./inp_files/278996.got.cif
#   From: 2010.06.25/outbox.cif.g09.slc.cpg/sg2_140_cif.got.tgz:278996.got - 2010.06.27 13:26:56.
