data_PCOD8031734
_publ_section_title
;
Structure prediction by ZEFSAII (Michael W. Deem and Ramdas Pophale) SiO2 
 PCOD8031734
Probable space group: P -1
;
_chemical_formula_sum "Si O2"
_cell_formula_units_Z 16
_cell_length_a 13.535182
_cell_length_b 5.552494
_cell_length_c 9.314113
_cell_angle_alpha 103.428924
_cell_angle_beta 86.156397
_cell_angle_gamma 110.477217
_cell_volume 637.754492
_symmetry_space_group_name_H-M "P -1"
_symmetry_group_IT_number 2
_symmetry_cell_setting 'triclinic'
loop_
_space_group_symop_operation_xyz
x,y,z
-x,-y,-z
loop_
_atom_site_type_symbol
_atom_site_label
_atom_site_fract_x
_atom_site_fract_y
_atom_site_fract_z
Si Si1 0.105398 0.884893 0.273363
Si Si2 0.660918 0.664923 0.963108
Si Si3 0.257893 0.627420 0.298872
Si Si4 0.875797 0.720034 0.228706
Si Si5 0.156755 0.877060 0.942176
Si Si6 0.270015 0.328156 0.504275
Si Si7 0.445612 0.106608 0.395979
Si Si8 0.535530 0.268803 0.121543
O O1 0.143265 0.649292 0.293823
O O2 0.984602 0.829701 0.324119
O O3 0.184887 0.143488 0.374860
O O4 0.103829 0.885602 0.101013
O O5 0.645540 0.478484 0.080932
O O6 0.715213 0.974519 0.041625
O O7 0.742874 0.606746 0.838942
O O8 0.552130 0.595962 0.879874
O O9 0.283893 0.604515 0.462872
O O10 0.355710 0.888721 0.280824
O O11 0.866344 0.426011 0.138152
O O12 0.776989 0.698185 0.336897
O O13 0.881670 0.937179 0.136124
O O14 0.384963 0.294431 0.492778
O O15 0.539268 0.241879 0.290022
O O16 0.500000 0.000000 0.500000
O O17 0.500000 0.000000 0.000000
#
# Coordination Sequence:
#
# PCOD8031734 Si02
#       8
#     2   2   2   2   2   2   2   2
#     4  11  25  48  80 106 148 203 254 303 369 461
#     4  11  23  44  71 105 140 197 254 305 364 449
#     4  11  22  45  76 103 146 202 252 303 371 451
#     4  12  30  47  75 120 154 195 252 315 381 441
#     4  12  27  48  76 112 158 194 245 321 382 428
#     4  11  26  49  75 104 152 206 248 305 379 456
#     4  11  25  45  69 108 151 193 242 312 385 441
#     4  11  23  41  72 102 138 189 261 302 362 446
#
# _framework density 25.088024000000001
#
# number of rings (size 3 to 8) (size 9 to 14) (size 15 to 20)
#    0.000    0.750    3.750    2.625    7.000    3.000 
#    0.000    0.000    0.000    0.000    0.000    0.000 
#    0.000    0.000    0.000    0.000    0.000    0.000 
#
# Total GULP energy -198274.768464 kJ/mol
# GULP energy per Si atom -12392.173029 kJ/mol
# Density = 2.503092 g / cm^3
# Si number density = 25.088024 Si / 1000 Ang^3
#
#
#
# Elastic Constant Matrix: (Units=GPa)
#
#
# Indices 1 2 3 4 5 6 
#
# 1 69.6676 8.6163 25.4528 -21.3012 2.6175 -19.9025
# 2 8.6163 87.3450 21.6712 -14.0585 3.0217 -21.2687
# 3 25.4528 21.6712 101.6839 -24.4137 -3.5228 -14.9476
# 4 -21.3012 -14.0585 -24.4137 47.4943 -3.1969 6.5226
# 5 2.6175 3.0217 -3.5228 -3.1969 37.3783 -5.3761
# 6 -19.9025 -21.2687 -14.9476 6.5226 -5.3761 41.5338
#
#
#
# Elastic Compliance Matrix: (Units=1/GPa)
#
#
# Indices 1 2 3 4 5 6 
#
# 1 0.019491 0.001807 -0.002377 0.006914 0.000055 0.008331
# 2 0.001807 0.013857 -0.001656 0.003109 -0.000151 0.006858
# 3 -0.002377 -0.001656 0.012255 0.004615 0.002134 0.001975
# 4 0.006914 0.003109 0.004615 0.027254 0.002404 0.002597
# 5 0.000055 -0.000151 0.002134 0.002404 0.027734 0.003929
# 6 0.008331 0.006858 0.001975 0.002597 0.003929 0.032392
#
#
# Mechanical properties :
#
#
# Convention : Reuss Voigt Hill
#
# Bulk Modulus (GPa) = 24.30207 41.13078 32.71642
# Shear Modulus (GPa) = 33.07923 38.81168 35.94546
#
# Velocity S-wave (km/s) = 3.63509 3.93748 3.78931
# Velocity P-wave (km/s) = 5.22745 6.09113 5.67575
#
# Compressibility (1/GPa) = 0.04114876
#
# Stress axis : x y z
#
# Youngs Moduli (GPa) = 51.30627 72.16549 81.60089
#
# Poissons Ratio (x) = -0.13037 0.19399
# Poissons Ratio (y) = -0.09269 0.13515
# Poissons Ratio (z) = 0.12197 0.11952
#
# Static dielectric constant tensor:
#      x y z
#    x 4.651650 0.040860 0.040070 
#    y 0.040860 4.903830 -0.258020 
#    z 0.040070 -0.258020 4.422110 
# 
# 
# High freq. dielectric constant tensor:
#      x y z
#    x 2.001860 0.002340 0.006700 
#    y 0.002340 2.013370 -0.010020 
#    z 0.006700 -0.010020 1.994720 
# 
# From -- ./inp_files/289039.got.cif
#   From: 2010.06.25/outbox.cif.g09.slc.cpg/sg2_145_cif.got.tgz:289039.got - 2010.06.27 13:26:56.
