data_PCOD8031141
_publ_section_title
;
Structure prediction by ZEFSAII (Michael W. Deem and Ramdas Pophale) SiO2 
 PCOD8031141
Probable space group: P -1
;
_chemical_formula_sum "Si O2"
_cell_formula_units_Z 14
_cell_length_a 9.666802
_cell_length_b 9.512675
_cell_length_c 9.938523
_cell_angle_alpha 104.323274
_cell_angle_beta 112.416873
_cell_angle_gamma 42.949596
_cell_volume 574.916213
_symmetry_space_group_name_H-M "P -1"
_symmetry_group_IT_number 2
_symmetry_cell_setting 'triclinic'
loop_
_space_group_symop_operation_xyz
x,y,z
-x,-y,-z
loop_
_atom_site_type_symbol
_atom_site_label
_atom_site_fract_x
_atom_site_fract_y
_atom_site_fract_z
Si Si1 0.077024 0.124929 0.903670
Si Si2 0.498258 0.730160 0.592175
Si Si3 0.072444 0.596933 0.485014
Si Si4 0.440385 0.766243 0.096672
Si Si5 0.053750 0.027592 0.384147
Si Si6 0.596135 0.497709 0.832044
Si Si7 0.681947 0.890758 0.227928
O O1 0.258324 0.108153 0.903376
O O2 0.037834 0.009274 0.773846
O O3 0.850368 0.357133 0.901579
O O4 0.194793 0.994137 0.054815
O O5 0.311118 0.853957 0.440576
O O6 0.501887 0.595451 0.670931
O O7 0.704449 0.582939 0.543568
O O8 0.490360 0.883331 0.713730
O O9 0.908522 0.760597 0.349744
O O10 0.000000 0.500000 0.500000
O O11 0.062790 0.735358 0.622753
O O12 0.455276 0.634948 0.186542
O O13 0.606401 0.778603 0.194594
O O14 0.486459 0.674206 0.943147
O O15 0.000000 0.000000 0.500000
#
# Coordination Sequence:
#
# PCOD8031141 Si02
#       7
#     2   2   2   2   2   2   2
#     4  12  23  43  67  98 131 174 222 264 328 391
#     4  11  23  44  70  96 131 178 213 271 334 388
#     4  11  26  44  66 102 134 170 223 272 328 394
#     4  11  26  43  66  99 133 171 219 277 315 387
#     4  11  22  42  69  97 130 171 219 270 324 397
#     4  11  24  43  68  99 128 173 226 261 329 388
#     4  11  24  45  66  97 135 172 218 271 330 388
#
# _framework density 24.351375000000001
#
# number of rings (size 3 to 8) (size 9 to 14) (size 15 to 20)
#    0.000    0.857    5.714    0.857    0.000   13.143 
#    0.000    0.000    0.000    0.000    0.000    0.000 
#    0.000    0.000    0.000    0.000    0.000    0.000 
#
# Total GULP energy -173592.434871 kJ/mol
# GULP energy per Si atom -12399.459634 kJ/mol
# Density = 2.429595 g / cm^3
# Si number density = 24.351375 Si / 1000 Ang^3
#
#
#
# Elastic Constant Matrix: (Units=GPa)
#
#
# Indices 1 2 3 4 5 6 
#
# 1 150.0792 64.6652 23.6568 8.0022 -0.2173 10.7987
# 2 64.6652 126.9560 5.0208 -6.9729 -3.0120 -9.3758
# 3 23.6568 5.0208 33.1516 -3.5090 3.3144 -0.8629
# 4 8.0022 -6.9729 -3.5090 18.8982 -0.5530 1.5837
# 5 -0.2173 -3.0120 3.3144 -0.5530 29.2533 2.5606
# 6 10.7987 -9.3758 -0.8629 1.5837 2.5606 53.4548
#
#
#
# Elastic Compliance Matrix: (Units=1/GPa)
#
#
# Indices 1 2 3 4 5 6 
#
# 1 0.011232 -0.006080 -0.008099 -0.008216 0.000504 -0.003247
# 2 -0.006080 0.011475 0.003380 0.007198 0.000622 0.003052
# 3 -0.008099 0.003380 0.037083 0.011222 -0.003936 0.002684
# 4 -0.008216 0.007198 0.011222 0.061040 0.000451 0.001274
# 5 0.000504 0.000622 -0.003936 0.000451 0.034859 -0.001739
# 6 -0.003247 0.003052 0.002684 0.001274 -0.001739 0.019988
#
#
# Mechanical properties :
#
#
# Convention : Reuss Voigt Hill
#
# Bulk Modulus (GPa) = 26.18306 55.20806 40.69556
# Shear Modulus (GPa) = 23.80894 34.77752 29.29323
#
# Velocity S-wave (km/s) = 3.13025 3.78319 3.47210
# Velocity P-wave (km/s) = 4.88264 6.46561 5.72906
#
# Compressibility (1/GPa) = 0.03819263
#
# Stress axis : x y z
#
# Youngs Moduli (GPa) = 89.03321 87.14329 26.96653
#
# Poissons Ratio (x) = 0.52981 0.21839
# Poissons Ratio (y) = 0.54130 -0.09114
# Poissons Ratio (z) = 0.72105 -0.29452
#
# Static dielectric constant tensor:
#      x y z
#    x 4.051630 0.591380 -0.327690 
#    y 0.591380 4.090100 0.390000 
#    z -0.327690 0.390000 3.442280 
# 
# 
# High freq. dielectric constant tensor:
#      x y z
#    x 1.970780 -0.004560 0.003090 
#    y -0.004560 1.987570 -0.010420 
#    z 0.003090 -0.010420 1.953590 
# 
# From -- ./inp_files/241376.got.cif
#   From: 2010.06.25/outbox.cif.g09.slc.cpg/sg2_121_cif.got.tgz:241376.got - 2010.06.27 13:26:56.
