data_PCOD8031550
_publ_section_title
;
Structure prediction by ZEFSAII (Michael W. Deem and Ramdas Pophale) SiO2 
 PCOD8031550
Probable space group: P -1
;
_chemical_formula_sum "Si O2"
_cell_formula_units_Z 16
_cell_length_a 12.983218
_cell_length_b 11.225252
_cell_length_c 11.157056
_cell_angle_alpha 127.784141
_cell_angle_beta 122.811042
_cell_angle_gamma 100.310187
_cell_volume 690.089401
_symmetry_space_group_name_H-M "P -1"
_symmetry_group_IT_number 2
_symmetry_cell_setting 'triclinic'
loop_
_space_group_symop_operation_xyz
x,y,z
-x,-y,-z
loop_
_atom_site_type_symbol
_atom_site_label
_atom_site_fract_x
_atom_site_fract_y
_atom_site_fract_z
Si Si1 0.820956 0.683321 0.531947
Si Si2 0.638915 0.751047 0.301654
Si Si3 0.691976 0.255701 0.071817
Si Si4 0.319357 0.760735 0.459497
Si Si5 0.582751 0.427456 0.452132
Si Si6 0.806469 0.084381 0.176629
Si Si7 0.916345 0.204765 0.593933
Si Si8 0.321536 0.669126 0.145247
O O1 0.766491 0.791381 0.507214
O O2 0.715746 0.448353 0.250035
O O3 0.753884 0.623265 0.589617
O O4 0.051299 0.883462 0.794577
O O5 0.513659 0.761082 0.291443
O O6 0.781422 0.956145 0.420133
O O7 0.500000 0.500000 0.000000
O O8 0.816148 0.261143 0.235322
O O9 0.747099 0.294558 0.989422
O O10 0.468841 0.999147 0.780445
O O11 0.326743 0.593375 0.400974
O O12 0.121324 0.658593 0.300373
O O13 0.365411 0.812265 0.378199
O O14 0.500000 0.500000 0.500000
O O15 0.408197 0.180990 0.121746
O O16 0.891847 0.168669 0.414401
O O17 0.139336 0.385345 0.880992
#
# Coordination Sequence:
#
# PCOD8031550 Si02
#       8
#     2   2   2   2   2   2   2   2
#     4  12  24  44  71  98 135 176 220 279 332 394
#     4  12  24  42  64  97 137 176 218 272 333 396
#     4  11  22  44  71  99 133 176 223 277 332 392
#     4  11  24  44  68  98 139 179 219 276 333 398
#     4  11  26  46  68  98 136 175 220 275 335 401
#     4  11  25  44  72 101 130 172 227 281 328 394
#     4  12  25  43  69 104 130 175 230 272 334 392
#     4  12  25  44  66 100 139 175 224 276 332 392
#
# _framework density 23.185403000000001
#
# number of rings (size 3 to 8) (size 9 to 14) (size 15 to 20)
#    0.000    0.500    3.750    4.125    1.750    6.500 
#    0.000    0.000    0.000    0.000    0.000    0.000 
#    0.000    0.000    0.000    0.000    0.000    0.000 
#
# Total GULP energy -198422.706096 kJ/mol
# GULP energy per Si atom -12401.419131 kJ/mol
# Density = 2.313263 g / cm^3
# Si number density = 23.185403 Si / 1000 Ang^3
#
#
#
# Elastic Constant Matrix: (Units=GPa)
#
#
# Indices 1 2 3 4 5 6 
#
# 1 91.8054 38.8238 -4.7242 4.6312 8.8382 20.2512
# 2 38.8238 133.6956 6.5649 -1.6124 13.6508 1.1693
# 3 -4.7242 6.5649 46.6420 4.5087 11.3673 2.6168
# 4 4.6312 -1.6124 4.5087 24.9461 6.9304 -3.7595
# 5 8.8382 13.6508 11.3673 6.9304 40.1040 4.0620
# 6 20.2512 1.1693 2.6168 -3.7595 4.0620 38.0853
#
#
#
# Elastic Compliance Matrix: (Units=1/GPa)
#
#
# Indices 1 2 3 4 5 6 
#
# 1 0.015159 -0.004435 0.003360 -0.004680 -0.001114 -0.008498
# 2 -0.004435 0.009103 -0.001558 0.002780 -0.002435 0.002720
# 3 0.003360 -0.001558 0.024019 -0.003860 -0.006034 -0.003127
# 4 -0.004680 0.002780 -0.003860 0.045084 -0.007413 0.007909
# 5 -0.001114 -0.002435 -0.006034 -0.007413 0.029282 -0.002773
# 6 -0.008498 0.002720 -0.003127 0.007909 -0.002773 0.031984
#
#
# Mechanical properties :
#
#
# Convention : Reuss Voigt Hill
#
# Bulk Modulus (GPa) = 23.24828 39.27465 31.26146
# Shear Modulus (GPa) = 28.69695 36.05898 32.37797
#
# Velocity S-wave (km/s) = 3.52194 3.94794 3.74101
# Velocity P-wave (km/s) = 5.15632 6.14474 5.67210
#
# Compressibility (1/GPa) = 0.04301394
#
# Stress axis : x y z
#
# Youngs Moduli (GPa) = 65.96650 109.85913 41.63395
#
# Poissons Ratio (x) = 0.48727 -0.13991
# Poissons Ratio (y) = 0.29259 0.06488
# Poissons Ratio (z) = -0.22167 0.17120
#
# Static dielectric constant tensor:
#      x y z
#    x 4.224710 -0.033140 0.240690 
#    y -0.033140 4.455210 0.043660 
#    z 0.240690 0.043660 4.204050 
# 
# 
# High freq. dielectric constant tensor:
#      x y z
#    x 1.917190 0.006790 0.013310 
#    y 0.006790 1.926590 0.001110 
#    z 0.013310 0.001110 1.916400 
# 
# From -- ./inp_files/428975.got.cif
#   From: 2010.06.25/outbox.cif.g09.slc.cpg/sg2_215_cif.got.tgz:428975.got - 2010.06.27 13:26:56.
