data_PCOD8031376
_publ_section_title
;
Structure prediction by ZEFSAII (Michael W. Deem and Ramdas Pophale) SiO2 
 PCOD8031376
Probable space group: P -1
;
_chemical_formula_sum "Si O2"
_cell_formula_units_Z 16
_cell_length_a 15.304266
_cell_length_b 8.986665
_cell_length_c 11.475042
_cell_angle_alpha 101.460867
_cell_angle_beta 110.603879
_cell_angle_gamma 27.580948
_cell_volume 660.223970
_symmetry_space_group_name_H-M "P -1"
_symmetry_group_IT_number 2
_symmetry_cell_setting 'triclinic'
loop_
_space_group_symop_operation_xyz
x,y,z
-x,-y,-z
loop_
_atom_site_type_symbol
_atom_site_label
_atom_site_fract_x
_atom_site_fract_y
_atom_site_fract_z
Si Si1 0.045583 0.110143 0.025972
Si Si2 0.372710 0.133035 0.112923
Si Si3 0.810321 0.625522 0.708080
Si Si4 0.701886 0.886399 0.253869
Si Si5 0.211712 0.080336 0.917245
Si Si6 0.410226 0.860269 0.503783
Si Si7 0.908333 0.878688 0.696860
Si Si8 0.116094 0.802904 0.405260
O O1 0.145519 0.030376 0.178207
O O2 0.192992 0.947683 0.959969
O O3 0.824189 0.501646 0.973617
O O4 0.000000 0.000000 0.000000
O O5 0.380158 0.131117 0.257866
O O6 0.573777 0.935838 0.137194
O O7 0.360213 0.976312 0.043544
O O8 0.930951 0.297171 0.678924
O O9 0.975731 0.480561 0.843585
O O10 0.729660 0.819769 0.584647
O O11 0.697697 0.042752 0.192106
O O12 0.928541 0.489494 0.315221
O O13 0.600450 0.085573 0.356770
O O14 0.640495 0.532515 0.515403
O O15 0.305609 0.849109 0.427396
O O16 0.977165 0.943294 0.691954
O O17 0.000000 0.000000 0.500000
#
# Coordination Sequence:
#
# PCOD8031376 Si02
#       8
#     2   2   2   2   2   2   2   2
#     4  11  24  46  72 100 146 189 236 295 361 417
#     4  11  22  43  72 104 141 183 240 294 347 412
#     4  11  22  45  73 101 137 187 238 290 353 421
#     4  12  25  41  75 105 147 184 247 293 346 427
#     4  11  23  43  73 106 136 185 243 288 345 429
#     4  12  25  47  71 103 140 191 237 295 356 425
#     4  12  25  46  70 104 143 187 233 295 361 419
#     4  12  28  45  68 104 146 181 234 296 365 425
#
# _framework density 24.234200999999999
#
# number of rings (size 3 to 8) (size 9 to 14) (size 15 to 20)
#    0.000    0.500    3.750    6.000    3.500    0.000 
#    0.000    0.625    0.000    0.000    0.000    0.000 
#    0.000    0.000    0.000    0.000    0.000    0.000 
#
# Total GULP energy -198239.260880 kJ/mol
# GULP energy per Si atom -12389.953805 kJ/mol
# Density = 2.417904 g / cm^3
# Si number density = 24.234201 Si / 1000 Ang^3
#
#
#
# Elastic Constant Matrix: (Units=GPa)
#
#
# Indices 1 2 3 4 5 6 
#
# 1 168.1571 31.4417 56.7663 1.3221 -20.0052 -8.0716
# 2 31.4417 63.6508 32.4540 12.6609 -6.2642 -14.0857
# 3 56.7663 32.4540 119.7462 1.8145 -13.3338 -13.4536
# 4 1.3221 12.6609 1.8145 20.0833 -6.6317 0.4456
# 5 -20.0052 -6.2642 -13.3338 -6.6317 53.8982 -8.1421
# 6 -8.0716 -14.0857 -13.4536 0.4456 -8.1421 41.5619
#
#
#
# Elastic Compliance Matrix: (Units=1/GPa)
#
#
# Indices 1 2 3 4 5 6 
#
# 1 0.007569 -0.002540 -0.002679 0.002043 0.002123 0.000136
# 2 -0.002540 0.023323 -0.004217 -0.014327 -0.000105 0.006179
# 3 -0.002679 -0.004217 0.011162 0.002401 0.001875 0.002005
# 4 0.002043 -0.014327 0.002401 0.060755 0.006707 -0.003019
# 5 0.002123 -0.000105 0.001875 0.006707 0.021389 0.005102
# 6 0.000136 0.006179 0.002005 -0.003019 0.005102 0.027862
#
#
# Mechanical properties :
#
#
# Convention : Reuss Voigt Hill
#
# Bulk Modulus (GPa) = 43.13976 65.87533 54.50755
# Shear Modulus (GPa) = 27.98629 38.50148 33.24388
#
# Velocity S-wave (km/s) = 3.40196 3.99021 3.70777
# Velocity P-wave (km/s) = 5.76810 6.96210 6.39303
#
# Compressibility (1/GPa) = 0.02318047
#
# Stress axis : x y z
#
# Youngs Moduli (GPa) = 132.11309 42.87693 89.59305
#
# Poissons Ratio (x) = 0.10893 0.24002
# Poissons Ratio (y) = 0.33563 0.37782
# Poissons Ratio (z) = 0.35393 0.18081
#
# Static dielectric constant tensor:
#      x y z
#    x 4.861400 -0.156060 -0.126360 
#    y -0.156060 3.899750 -0.034970 
#    z -0.126360 -0.034970 4.447510 
# 
# 
# High freq. dielectric constant tensor:
#      x y z
#    x 1.992560 -0.011420 -0.004990 
#    y -0.011420 1.916930 -0.000770 
#    z -0.004990 -0.000770 1.978640 
# 
# From -- ./inp_files/447663.got.cif
#   From: 2010.06.25/outbox.cif.g09.slc.cpg/sg2_224_cif.got.tgz:447663.got - 2010.06.27 13:26:56.
