data_PCOD8031851
_publ_section_title
;
Structure prediction by ZEFSAII (Michael W. Deem and Ramdas Pophale) SiO2 
 PCOD8031851
Probable space group: P -1
;
_chemical_formula_sum "Si O2"
_cell_formula_units_Z 14
_cell_length_a 7.455541
_cell_length_b 9.616063
_cell_length_c 13.914019
_cell_angle_alpha 45.275049
_cell_angle_beta 100.562540
_cell_angle_gamma 76.191001
_cell_volume 592.379774
_symmetry_space_group_name_H-M "P -1"
_symmetry_group_IT_number 2
_symmetry_cell_setting 'triclinic'
loop_
_space_group_symop_operation_xyz
x,y,z
-x,-y,-z
loop_
_atom_site_type_symbol
_atom_site_label
_atom_site_fract_x
_atom_site_fract_y
_atom_site_fract_z
Si Si1 0.372340 0.139262 0.511654
Si Si2 0.653496 0.253368 0.590618
Si Si3 0.368752 0.496480 0.706667
Si Si4 0.902372 0.111848 0.141190
Si Si5 0.262715 0.130826 0.869708
Si Si6 0.163368 0.640938 0.171165
Si Si7 0.176469 0.853970 0.666877
O O1 0.519758 0.134695 0.614313
O O2 0.203990 0.395876 0.329879
O O3 0.500000 0.000000 0.500000
O O4 0.278763 0.006333 0.620804
O O5 0.500000 0.500000 0.500000
O O6 0.737979 0.283275 0.481158
O O7 0.854698 0.098681 0.753784
O O8 0.238160 0.374076 0.724617
O O9 0.628593 0.340311 0.788935
O O10 0.329959 0.596658 0.762930
O O11 0.889935 0.188443 0.213710
O O12 0.744085 0.016228 0.149066
O O13 0.856854 0.322924 0.964301
O O14 0.065906 0.164591 0.901052
O O15 0.500000 0.000000 0.000000
O O16 0.000000 0.000000 0.500000
#
# Coordination Sequence:
#
# PCOD8031851 Si02
#       7
#     2   2   2   2   2   2   2
#     4  11  22  47  73  99 144 197 233 296 370 426
#     4  11  25  42  71 104 144 185 249 296 362 432
#     4  11  24  49  72 102 153 189 234 311 361 427
#     4  12  26  45  76 108 145 193 245 301 363 439
#     4  12  27  46  76 107 148 192 239 306 375 426
#     4  11  25  47  73 107 148 186 245 300 366 428
#     4  12  24  47  72 106 150 191 248 298 361 436
#
# _framework density 23.633485
#
# number of rings (size 3 to 8) (size 9 to 14) (size 15 to 20)
#    0.000    0.571    5.714    3.000    4.000    1.143 
#    0.000    5.000    0.000    0.000    0.000    0.000 
#    0.000    0.000    0.000    0.000    0.000    0.000 
#
# Total GULP energy -173437.375667 kJ/mol
# GULP energy per Si atom -12388.383976 kJ/mol
# Density = 2.357969 g / cm^3
# Si number density = 23.633485 Si / 1000 Ang^3
#
#
#
# Elastic Constant Matrix: (Units=GPa)
#
#
# Indices 1 2 3 4 5 6 
#
# 1 98.6528 19.8003 17.3574 -4.1652 11.0458 7.4347
# 2 19.8003 85.8790 -2.6819 -2.5020 8.7950 6.9876
# 3 17.3574 -2.6819 83.6813 12.2884 13.3018 0.7679
# 4 -4.1652 -2.5020 12.2884 31.7667 0.0256 -2.3623
# 5 11.0458 8.7950 13.3018 0.0256 43.0966 2.6838
# 6 7.4347 6.9876 0.7679 -2.3623 2.6838 43.8792
#
#
#
# Elastic Compliance Matrix: (Units=1/GPa)
#
#
# Indices 1 2 3 4 5 6 
#
# 1 0.011422 -0.002380 -0.002501 0.002183 -0.001590 -0.001298
# 2 -0.002380 0.012586 0.001256 0.000085 -0.002254 -0.001481
# 3 -0.002501 0.001256 0.013959 -0.005632 -0.003915 -0.000084
# 4 0.002183 0.000085 -0.005632 0.034061 0.001049 0.001485
# 5 -0.001590 -0.002254 -0.003915 0.001049 0.025329 -0.000796
# 6 -0.001298 -0.001481 -0.000084 0.001485 -0.000796 0.023376
#
#
# Mechanical properties :
#
#
# Convention : Reuss Voigt Hill
#
# Bulk Modulus (GPa) = 32.55350 37.46272 35.00811
# Shear Modulus (GPa) = 36.17393 39.33099 37.75246
#
# Velocity S-wave (km/s) = 3.91656 4.08389 4.00110
# Velocity P-wave (km/s) = 5.85293 6.17443 6.01583
#
# Compressibility (1/GPa) = 0.03071867
#
# Stress axis : x y z
#
# Youngs Moduli (GPa) = 87.54825 79.45358 71.63638
#
# Poissons Ratio (x) = 0.18907 0.17918
# Poissons Ratio (y) = 0.20833 -0.09000
# Poissons Ratio (z) = 0.21898 -0.09982
#
# Static dielectric constant tensor:
#      x y z
#    x 4.156570 -0.340810 0.097300 
#    y -0.340810 3.827290 0.256200 
#    z 0.097300 0.256200 4.502940 
# 
# 
# High freq. dielectric constant tensor:
#      x y z
#    x 1.941600 -0.000870 0.006250 
#    y -0.000870 1.934400 -0.001610 
#    z 0.006250 -0.001610 1.933690 
# 
# From -- ./inp_files/494422.got.cif
#   From: 2010.06.25/outbox.cif.g09.slc.cpg/sg2_248_cif.got.tgz:494422.got - 2010.06.27 13:26:56.
