data_PCOD8031391
_publ_section_title
;
Structure prediction by ZEFSAII (Michael W. Deem and Ramdas Pophale) SiO2 
 PCOD8031391
Probable space group: P -1
;
_chemical_formula_sum "Si O2"
_cell_formula_units_Z 14
_cell_length_a 8.699102
_cell_length_b 12.171110
_cell_length_c 17.538491
_cell_angle_alpha 149.805775
_cell_angle_beta 126.999190
_cell_angle_gamma 46.219793
_cell_volume 674.248565
_symmetry_space_group_name_H-M "P -1"
_symmetry_group_IT_number 2
_symmetry_cell_setting 'triclinic'
loop_
_space_group_symop_operation_xyz
x,y,z
-x,-y,-z
loop_
_atom_site_type_symbol
_atom_site_label
_atom_site_fract_x
_atom_site_fract_y
_atom_site_fract_z
Si Si1 0.977531 0.171316 0.859138
Si Si2 0.127580 0.229825 0.350360
Si Si3 0.206428 0.698395 0.281697
Si Si4 0.149316 0.136424 0.128987
Si Si5 0.901460 0.543746 0.182563
Si Si6 0.563376 0.992096 0.426655
Si Si7 0.426989 0.158592 0.998949
O O1 0.853405 0.200980 0.761348
O O2 0.208091 0.161407 0.904089
O O3 0.002671 0.924820 0.759096
O O4 0.844476 0.396361 0.010818
O O5 0.145901 0.247674 0.276576
O O6 0.000000 0.500000 0.500000
O O7 0.359081 0.114196 0.386604
O O8 0.003251 0.707362 0.272028
O O9 0.292263 0.863472 0.452878
O O10 0.392551 0.428500 0.170611
O O11 0.075678 0.350996 0.174426
O O12 0.391924 0.946232 0.073393
O O13 0.000000 0.000000 0.000000
O O14 0.693207 0.715897 0.270893
O O15 0.500000 0.000000 0.500000
O O16 0.500000 0.000000 0.000000
#
# Coordination Sequence:
#
# PCOD8031391 Si02
#       7
#     2   2   2   2   2   2   2
#     4  11  24  46  71  99 136 179 227 282 328 410
#     4  12  28  45  66 103 139 176 225 281 341 399
#     4  11  25  45  71  98 140 177 228 278 334 411
#     4  12  25  43  71 102 136 174 225 284 331 405
#     4  11  24  46  68 100 134 177 229 277 336 401
#     4  12  27  45  68  99 137 185 219 279 345 398
#     4  11  22  43  73 102 130 179 227 275 342 391
#
# _framework density 20.763856000000001
#
# number of rings (size 3 to 8) (size 9 to 14) (size 15 to 20)
#    0.000    0.571    5.714    3.000   10.000    0.571 
#    0.000    1.429    0.000    0.000    0.000    0.000 
#    0.000    0.000    0.000    0.000    0.000    0.000 
#
# Total GULP energy -173671.888139 kJ/mol
# GULP energy per Si atom -12405.134867 kJ/mol
# Density = 2.071660 g / cm^3
# Si number density = 20.763856 Si / 1000 Ang^3
#
#
#
# Elastic Constant Matrix: (Units=GPa)
#
#
# Indices 1 2 3 4 5 6 
#
# 1 95.3635 14.5000 55.0951 5.6093 -20.1269 -3.7023
# 2 14.5000 82.3815 27.2530 -2.4340 -13.4683 -6.5880
# 3 55.0951 27.2530 126.6229 5.8693 -7.7776 -18.5878
# 4 5.6093 -2.4340 5.8693 42.0727 -1.6732 -5.8109
# 5 -20.1269 -13.4683 -7.7776 -1.6732 45.4052 6.8652
# 6 -3.7023 -6.5880 -18.5878 -5.8109 6.8652 40.6744
#
#
#
# Elastic Compliance Matrix: (Units=1/GPa)
#
#
# Indices 1 2 3 4 5 6 
#
# 1 0.015697 0.000262 -0.006870 -0.001272 0.006251 -0.002905
# 2 0.000262 0.013710 -0.002825 0.001371 0.003669 0.000530
# 3 -0.006870 -0.002825 0.012060 -0.000368 -0.002558 0.004808
# 4 -0.001272 0.001371 -0.000368 0.024547 0.000168 0.003417
# 5 0.006251 0.003669 -0.002558 0.000168 0.026115 -0.004389
# 6 -0.002905 0.000530 0.004808 0.003417 -0.004389 0.027833
#
#
# Mechanical properties :
#
#
# Convention : Reuss Voigt Hill
#
# Bulk Modulus (GPa) = 44.24569 55.34045 49.79307
# Shear Modulus (GPa) = 34.16198 39.46512 36.81355
#
# Velocity S-wave (km/s) = 4.06058 4.36439 4.21522
# Velocity P-wave (km/s) = 6.58329 7.21854 6.90822
#
# Compressibility (1/GPa) = 0.02260107
#
# Stress axis : x y z
#
# Youngs Moduli (GPa) = 63.70798 72.93984 82.91675
#
# Poissons Ratio (x) = -0.01911 0.56961
# Poissons Ratio (y) = -0.01669 0.23425
# Poissons Ratio (z) = 0.43765 0.20607
#
# Static dielectric constant tensor:
#      x y z
#    x 4.047200 -0.036940 0.032140 
#    y -0.036940 3.930880 0.050430 
#    z 0.032140 0.050430 3.860020 
# 
# 
# High freq. dielectric constant tensor:
#      x y z
#    x 1.822140 0.007140 -0.002010 
#    y 0.007140 1.819150 0.001710 
#    z -0.002010 0.001710 1.820200 
# 
# From -- ./inp_files/153789.got.cif
#   From: 2010.06.25/outbox.cif.g09.slc.cpg/sg2_77_cif.got.tgz:153789.got - 2010.06.27 13:26:56.
