data_PCOD8031856
_publ_section_title
;
Structure prediction by ZEFSAII (Michael W. Deem and Ramdas Pophale) SiO2 
 PCOD8031856
Probable space group: P -1
;
_chemical_formula_sum "Si O2"
_cell_formula_units_Z 16
_cell_length_a 11.682561
_cell_length_b 9.002821
_cell_length_c 10.139839
_cell_angle_alpha 117.098491
_cell_angle_beta 90.317285
_cell_angle_gamma 53.375180
_cell_volume 707.077295
_symmetry_space_group_name_H-M "P -1"
_symmetry_group_IT_number 2
_symmetry_cell_setting 'triclinic'
loop_
_space_group_symop_operation_xyz
x,y,z
-x,-y,-z
loop_
_atom_site_type_symbol
_atom_site_label
_atom_site_fract_x
_atom_site_fract_y
_atom_site_fract_z
Si Si1 0.219559 0.087426 0.215883
Si Si2 0.016814 0.409699 0.634889
Si Si3 0.349892 0.167068 0.477687
Si Si4 0.875581 0.498758 0.945486
Si Si5 0.376311 0.021477 0.930594
Si Si6 0.943564 0.082409 0.883865
Si Si7 0.911534 0.184288 0.462760
Si Si8 0.418558 0.413955 0.415785
O O1 0.345551 0.040852 0.301429
O O2 0.069709 0.350412 0.332739
O O3 0.183048 0.927855 0.172019
O O4 0.267574 0.041091 0.044472
O O5 0.195227 0.285573 0.611355
O O6 0.925271 0.420141 0.762982
O O7 0.004791 0.267438 0.474421
O O8 0.355389 0.353223 0.505281
O O9 0.500000 0.000000 0.500000
O O10 0.869835 0.336720 0.967258
O O11 0.000000 0.500000 0.000000
O O12 0.714471 0.751978 0.063940
O O13 0.453760 0.805496 0.755797
O O14 0.500000 0.000000 0.000000
O O15 0.086847 0.920544 0.718089
O O16 0.000000 0.000000 0.000000
O O17 0.733595 0.385710 0.586140
O O18 0.000000 0.000000 0.500000
O O19 0.500000 0.500000 0.500000
#
# Coordination Sequence:
#
# PCOD8031856 Si02
#       8
#     2   2   2   2   2   2   2   2
#     4  11  23  47  75 103 147 199 246 314 373 447
#     4  11  22  47  75 103 141 197 258 303 371 451
#     4  12  26  44  70 111 153 195 243 312 382 447
#     4  11  26  45  76 102 144 196 246 305 369 455
#     4  11  24  49  74  98 145 200 247 294 386 446
#     4  12  26  44  75 118 148 183 260 318 373 440
#     4  12  25  46  82 107 143 198 258 307 373 454
#     4  12  29  47  73 110 155 196 250 318 379 450
#
# _framework density 22.628360000000001
#
# number of rings (size 3 to 8) (size 9 to 14) (size 15 to 20)
#    0.000    0.500    5.000    3.375    7.000    0.000 
#    0.000    0.625    0.000    0.000    0.000    0.000 
#    0.000    0.000    0.000    0.000    0.000    0.000 
#
# Total GULP energy -198319.953211 kJ/mol
# GULP energy per Si atom -12394.997076 kJ/mol
# Density = 2.257686 g / cm^3
# Si number density = 22.628360 Si / 1000 Ang^3
#
#
#
# Elastic Constant Matrix: (Units=GPa)
#
#
# Indices 1 2 3 4 5 6 
#
# 1 163.7134 78.9984 43.4850 24.3807 24.6361 -2.0978
# 2 78.9984 183.4082 74.9714 18.7724 5.6770 -8.2248
# 3 43.4850 74.9714 139.2211 19.7704 6.2369 -0.1635
# 4 24.3807 18.7724 19.7704 40.4430 -2.2154 -2.0468
# 5 24.6361 5.6770 6.2369 -2.2154 40.5613 3.5370
# 6 -2.0978 -8.2248 -0.1635 -2.0468 3.5370 49.2416
#
#
#
# Elastic Compliance Matrix: (Units=1/GPa)
#
#
# Indices 1 2 3 4 5 6 
#
# 1 0.009167 -0.003236 -0.000291 -0.004169 -0.005303 0.000057
# 2 -0.003236 0.008297 -0.003503 -0.000062 0.001240 0.001145
# 3 -0.000291 -0.003503 0.009624 -0.002986 -0.000922 -0.000623
# 4 -0.004169 -0.000062 -0.002986 0.029011 0.004525 0.000683
# 5 -0.005303 0.001240 -0.000922 0.004525 0.028253 -0.001863
# 6 0.000057 0.001145 -0.000623 0.000683 -0.001863 0.020662
#
#
# Mechanical properties :
#
#
# Convention : Reuss Voigt Hill
#
# Bulk Modulus (GPa) = 76.75041 97.91693 87.33367
# Shear Modulus (GPa) = 40.51356 45.30837 42.91096
#
# Velocity S-wave (km/s) = 4.23589 4.47954 4.35942
# Velocity P-wave (km/s) = 7.61020 8.37381 8.00112
#
# Compressibility (1/GPa) = 0.01302925
#
# Stress axis : x y z
#
# Youngs Moduli (GPa) = 109.09215 120.52132 103.90192
#
# Poissons Ratio (x) = 0.39000 0.03022
# Poissons Ratio (y) = 0.35302 0.36394
# Poissons Ratio (z) = 0.03173 0.42215
#
# Static dielectric constant tensor:
#      x y z
#    x 4.291910 0.105180 -0.198700 
#    y 0.105180 3.998630 -0.076430 
#    z -0.198700 -0.076430 4.893270 
# 
# 
# High freq. dielectric constant tensor:
#      x y z
#    x 1.902730 0.008050 0.003860 
#    y 0.008050 1.891460 -0.004310 
#    z 0.003860 -0.004310 1.902040 
# 
# From -- ./inp_files/419743.got.cif
#   From: 2010.06.25/outbox.cif.g09.slc.cpg/sg2_210_cif.got.tgz:419743.got - 2010.06.27 13:26:56.
