data_PCOD8031832
_publ_section_title
;
Structure prediction by ZEFSAII (Michael W. Deem and Ramdas Pophale) SiO2 
 PCOD8031832
Probable space group: P -1
;
_chemical_formula_sum "Si O2"
_cell_formula_units_Z 16
_cell_length_a 9.480010
_cell_length_b 15.684899
_cell_length_c 11.691807
_cell_angle_alpha 27.401946
_cell_angle_beta 94.488293
_cell_angle_gamma 102.958475
_cell_volume 750.900481
_symmetry_space_group_name_H-M "P -1"
_symmetry_group_IT_number 2
_symmetry_cell_setting 'triclinic'
loop_
_space_group_symop_operation_xyz
x,y,z
-x,-y,-z
loop_
_atom_site_type_symbol
_atom_site_label
_atom_site_fract_x
_atom_site_fract_y
_atom_site_fract_z
Si Si1 0.100303 0.238252 0.932339
Si Si2 0.399310 0.226557 0.575033
Si Si3 0.224191 0.802477 0.135700
Si Si4 0.328410 0.438080 0.523804
Si Si5 0.753299 0.349823 0.445969
Si Si6 0.336662 0.364359 0.176024
Si Si7 0.836441 0.356141 0.187902
Si Si8 0.147274 0.042106 0.385739
O O1 0.220458 0.269887 0.799834
O O2 0.142012 0.429222 0.786472
O O3 0.932737 0.191388 0.929674
O O4 0.110124 0.064886 0.222794
O O5 0.319767 0.345028 0.508754
O O6 0.578477 0.330853 0.462467
O O7 0.329181 0.220729 0.452135
O O8 0.358854 0.001620 0.878595
O O9 0.268415 0.622610 0.299353
O O10 0.212271 0.786641 0.291542
O O11 0.500000 0.500000 0.500000
O O12 0.801742 0.298837 0.386707
O O13 0.271946 0.237046 0.210493
O O14 0.500000 0.500000 0.000000
O O15 0.260695 0.523631 0.014289
O O16 0.799196 0.146489 0.372446
O O17 0.000000 0.500000 0.000000
O O18 0.000000 0.000000 0.500000
#
# Coordination Sequence:
#
# PCOD8031832 Si02
#       8
#     2   2   2   2   2   2   2   2
#     4  11  23  46  71 103 144 180 231 293 340 417
#     4  12  25  44  73 103 142 182 230 287 344 425
#     4  11  26  43  71 106 142 176 234 287 346 414
#     4  11  24  43  71 102 139 187 223 281 358 408
#     4  11  22  47  69 101 146 178 225 293 348 411
#     4  12  26  49  69 106 143 182 239 293 342 416
#     4  12  26  45  77 100 138 194 233 291 358 411
#     4  12  25  47  73 101 143 185 235 290 355 414
#
# _framework density 21.307749999999999
#
# number of rings (size 3 to 8) (size 9 to 14) (size 15 to 20)
#    0.000    0.500    6.250    2.625    1.750    5.000 
#    0.000    0.000    0.000    0.000    0.000    0.000 
#    0.000    0.000    0.000    0.000    0.000    0.000 
#
# Total GULP energy -198389.104807 kJ/mol
# GULP energy per Si atom -12399.319050 kJ/mol
# Density = 2.125925 g / cm^3
# Si number density = 21.307750 Si / 1000 Ang^3
#
#
#
# Elastic Constant Matrix: (Units=GPa)
#
#
# Indices 1 2 3 4 5 6 
#
# 1 115.1023 29.2095 31.6443 -7.0121 -12.5964 2.7282
# 2 29.2095 90.1131 28.4855 8.8490 -3.4504 -4.0375
# 3 31.6443 28.4855 115.1993 5.8986 1.8873 -3.7873
# 4 -7.0121 8.8490 5.8986 36.5730 -2.3140 3.0250
# 5 -12.5964 -3.4504 1.8873 -2.3140 36.2291 5.5418
# 6 2.7282 -4.0375 -3.7873 3.0250 5.5418 42.2143
#
#
#
# Elastic Compliance Matrix: (Units=1/GPa)
#
#
# Indices 1 2 3 4 5 6 
#
# 1 0.010886 -0.003007 -0.002569 0.003661 0.004177 -0.002032
# 2 -0.003007 0.013178 -0.002199 -0.003546 -0.000136 0.001529
# 3 -0.002569 -0.002199 0.010096 -0.001814 -0.001935 0.001246
# 4 0.003661 -0.003546 -0.001814 0.029687 0.003433 -0.003317
# 5 0.004177 -0.000136 -0.001935 0.003433 0.030073 -0.004651
# 6 -0.002032 0.001529 0.001246 -0.003317 -0.004651 0.024926
#
#
# Mechanical properties :
#
#
# Convention : Reuss Voigt Hill
#
# Bulk Modulus (GPa) = 53.73530 55.45482 54.59506
# Shear Modulus (GPa) = 35.56223 38.40832 36.98527
#
# Velocity S-wave (km/s) = 4.08975 4.25025 4.17077
# Velocity P-wave (km/s) = 6.89745 7.08296 6.99082
#
# Compressibility (1/GPa) = 0.01860974
#
# Stress axis : x y z
#
# Youngs Moduli (GPa) = 91.86318 75.88213 99.05304
#
# Poissons Ratio (x) = 0.22818 0.25451
# Poissons Ratio (y) = 0.27623 0.21777
# Poissons Ratio (z) = 0.23603 0.16683
#
# Static dielectric constant tensor:
#      x y z
#    x 2.813200 -1.129460 -0.189590 
#    y -1.129460 2.637950 -0.020730 
#    z -0.189590 -0.020730 3.998680 
# 
# 
# High freq. dielectric constant tensor:
#      x y z
#    x 1.842350 -0.000120 -0.008250 
#    y -0.000120 1.835730 0.007000 
#    z -0.008250 0.007000 1.851340 
# 
# From -- ./inp_files/398228.got.cif
#   From: 2010.06.25/outbox.cif.g09.slc.cpg/sg2_200_cif.got.tgz:398228.got - 2010.06.27 13:26:56.
