data_PCOD8031603
_publ_section_title
;
Structure prediction by ZEFSAII (Michael W. Deem and Ramdas Pophale) SiO2 
 PCOD8031603
Probable space group: P -1
;
_chemical_formula_sum "Si O2"
_cell_formula_units_Z 16
_cell_length_a 11.838797
_cell_length_b 8.813019
_cell_length_c 15.467351
_cell_angle_alpha 129.705227
_cell_angle_beta 69.704934
_cell_angle_gamma 70.182852
_cell_volume 733.168724
_symmetry_space_group_name_H-M "P -1"
_symmetry_group_IT_number 2
_symmetry_cell_setting 'triclinic'
loop_
_space_group_symop_operation_xyz
x,y,z
-x,-y,-z
loop_
_atom_site_type_symbol
_atom_site_label
_atom_site_fract_x
_atom_site_fract_y
_atom_site_fract_z
Si Si1 0.304941 0.326116 0.127658
Si Si2 0.592986 0.590324 0.521283
Si Si3 0.077946 0.342582 0.576449
Si Si4 0.946799 0.277203 0.989818
Si Si5 0.015696 0.842913 0.702587
Si Si6 0.758714 0.777616 0.078748
Si Si7 0.305716 0.733597 0.192737
Si Si8 0.295482 0.319456 0.637993
O O1 0.331265 0.525691 0.178892
O O2 0.116116 0.535579 0.313375
O O3 0.268724 0.258200 0.023974
O O4 0.500000 0.000000 0.000000
O O5 0.500000 0.500000 0.500000
O O6 0.685930 0.539057 0.388040
O O7 0.771079 0.356967 0.456540
O O8 0.447564 0.940046 0.719735
O O9 0.173079 0.290209 0.622768
O O10 0.012655 0.612497 0.634677
O O11 0.244253 0.009609 0.360723
O O12 0.877599 0.470640 0.990734
O O13 0.801443 0.465245 0.174746
O O14 0.143092 0.132127 0.914179
O O15 0.970867 0.016211 0.866775
O O16 0.867284 0.099179 0.763638
O O17 0.500000 0.500000 0.000000
O O18 0.500000 0.000000 0.500000
#
# Coordination Sequence:
#
# PCOD8031603 Si02
#       8
#     2   2   2   2   2   2   2   2
#     4  12  27  49  72 104 140 190 238 298 360 423
#     4  11  24  41  64 107 141 182 224 285 356 428
#     4  11  27  48  66 108 142 185 240 298 350 427
#     4  11  22  44  74 106 140 188 236 293 359 430
#     4  11  25  43  76 100 141 186 235 292 359 424
#     4  11  23  43  71 103 145 182 240 290 360 430
#     4  12  28  49  74  99 136 193 246 295 356 420
#     4  11  24  42  71 100 144 181 232 291 355 418
#
# _framework density 21.823080999999998
#
# number of rings (size 3 to 8) (size 9 to 14) (size 15 to 20)
#    0.000    0.750    5.000    1.500    7.000    4.000 
#    2.250    0.000    0.000    0.000    0.000    0.000 
#    0.000    0.000    0.000    0.000    0.000    0.000 
#
# Total GULP energy -198372.609604 kJ/mol
# GULP energy per Si atom -12398.288100 kJ/mol
# Density = 2.177341 g / cm^3
# Si number density = 21.823081 Si / 1000 Ang^3
#
#
#
# Elastic Constant Matrix: (Units=GPa)
#
#
# Indices 1 2 3 4 5 6 
#
# 1 109.7598 43.4072 47.9534 8.0337 -6.3889 4.8490
# 2 43.4072 86.1241 43.6915 11.7011 -5.5814 3.0396
# 3 47.9534 43.6915 143.2579 7.8516 1.9487 8.6988
# 4 8.0337 11.7011 7.8516 34.5416 -2.7220 -4.3580
# 5 -6.3889 -5.5814 1.9487 -2.7220 53.1704 3.4673
# 6 4.8490 3.0396 8.6988 -4.3580 3.4673 46.6488
#
#
#
# Elastic Compliance Matrix: (Units=1/GPa)
#
#
# Indices 1 2 3 4 5 6 
#
# 1 0.012234 -0.004657 -0.002615 -0.000667 0.001084 -0.000623
# 2 -0.004657 0.016136 -0.003154 -0.003631 0.001090 -0.000399
# 3 -0.002615 -0.003154 0.008933 -0.000575 -0.000926 -0.001173
# 4 -0.000667 -0.003631 -0.000575 0.030948 0.000933 0.003235
# 5 0.001084 0.001090 -0.000926 0.000933 0.019222 -0.001353
# 6 -0.000623 -0.000399 -0.001173 0.003235 -0.001353 0.022149
#
#
# Mechanical properties :
#
#
# Convention : Reuss Voigt Hill
#
# Bulk Modulus (GPa) = 60.78474 67.69400 64.23937
# Shear Modulus (GPa) = 36.77570 40.47813 38.62692
#
# Velocity S-wave (km/s) = 4.10954 4.31145 4.21170
# Velocity P-wave (km/s) = 7.10153 7.47473 7.29052
#
# Compressibility (1/GPa) = 0.01645150
#
# Stress axis : x y z
#
# Youngs Moduli (GPa) = 81.73626 61.97220 111.94180
#
# Poissons Ratio (x) = 0.28858 0.29278
# Poissons Ratio (y) = 0.38061 0.35308
# Poissons Ratio (z) = 0.21378 0.19547
#
# Static dielectric constant tensor:
#      x y z
#    x 4.239190 -0.323270 -0.375780 
#    y -0.323270 4.224540 0.456140 
#    z -0.375780 0.456140 4.339220 
# 
# 
# High freq. dielectric constant tensor:
#      x y z
#    x 1.867160 -0.006440 -0.005050 
#    y -0.006440 1.851650 0.012410 
#    z -0.005050 0.012410 1.876580 
# 
# From -- ./inp_files/307180.got.cif
#   From: 2010.06.25/outbox.cif.g09.slc.cpg/sg2_154_cif.got.tgz:307180.got - 2010.06.27 13:26:56.
