data_PCOD8031426
_publ_section_title
;
Structure prediction by ZEFSAII (Michael W. Deem and Ramdas Pophale) SiO2 
 PCOD8031426
Probable space group: P -1
;
_chemical_formula_sum "Si O2"
_cell_formula_units_Z 12
_cell_length_a 10.429137
_cell_length_b 9.080163
_cell_length_c 8.841901
_cell_angle_alpha 118.131141
_cell_angle_beta 116.303865
_cell_angle_gamma 46.913413
_cell_volume 529.659601
_symmetry_space_group_name_H-M "P -1"
_symmetry_group_IT_number 2
_symmetry_cell_setting 'triclinic'
loop_
_space_group_symop_operation_xyz
x,y,z
-x,-y,-z
loop_
_atom_site_type_symbol
_atom_site_label
_atom_site_fract_x
_atom_site_fract_y
_atom_site_fract_z
Si Si1 0.157194 0.933655 0.934693
Si Si2 0.612345 0.524359 0.192900
Si Si3 0.076717 0.455103 0.686063
Si Si4 0.882542 0.934775 0.344685
Si Si5 0.268175 0.124389 0.279418
Si Si6 0.426068 0.850971 0.507789
O O1 0.233199 0.712511 0.791136
O O2 0.097162 0.087980 0.836607
O O3 0.309926 0.927383 0.108244
O O4 0.000000 0.000000 0.000000
O O5 0.720404 0.612778 0.230999
O O6 0.493000 0.654174 0.339424
O O7 0.500000 0.500000 0.000000
O O8 0.063561 0.287019 0.679502
O O9 0.000000 0.500000 0.500000
O O10 0.929347 0.685245 0.791081
O O11 0.685926 0.127170 0.394926
O O12 0.000000 0.000000 0.500000
O O13 0.407653 0.171665 0.340246
O O14 0.293723 0.065277 0.443621
#
# Coordination Sequence:
#
# PCOD8031426 Si02
#       6
#     2   2   2   2   2   2
#     4  12  26  47  70 104 146 191 239 303 361 422
#     4  12  25  43  78 108 144 192 238 296 365 430
#     4  12  22  45  77 105 140 195 239 290 366 432
#     4  12  28  45  71 107 145 189 249 301 358 432
#     4  11  22  43  75 102 145 186 239 293 362 431
#     4  11  23  44  72 106 139 192 239 295 356 432
#
# _framework density 22.65606
#
# number of rings (size 3 to 8) (size 9 to 14) (size 15 to 20)
#    0.000    0.333    6.667    3.000    0.000    2.000 
#    0.000    0.000    0.000    0.000    0.000    0.000 
#    0.000    0.000    0.000    0.000    0.000    0.000 
#
# Total GULP energy -148712.416212 kJ/mol
# GULP energy per Si atom -12392.701351 kJ/mol
# Density = 2.260449 g / cm^3
# Si number density = 22.656060 Si / 1000 Ang^3
#
#
#
# Elastic Constant Matrix: (Units=GPa)
#
#
# Indices 1 2 3 4 5 6 
#
# 1 142.7808 43.2005 79.5525 1.4006 -2.1543 -2.9417
# 2 43.2005 97.6218 24.6875 15.7030 -13.4370 5.6966
# 3 79.5525 24.6875 133.4830 4.2791 8.9166 4.4428
# 4 1.4006 15.7030 4.2791 39.0212 -0.0202 -3.0997
# 5 -2.1543 -13.4370 8.9166 -0.0202 51.5589 2.4468
# 6 -2.9417 5.6966 4.4428 -3.0997 2.4468 42.5053
#
#
#
# Elastic Compliance Matrix: (Units=1/GPa)
#
#
# Indices 1 2 3 4 5 6 
#
# 1 0.011870 -0.004001 -0.006504 0.002069 0.000476 0.002161
# 2 -0.004001 0.013565 -0.000092 -0.005517 0.003509 -0.002690
# 3 -0.006504 -0.000092 0.011624 -0.001133 -0.002230 -0.001607
# 4 0.002069 -0.005517 -0.001133 0.028145 -0.001293 0.003128
# 5 0.000476 0.003509 -0.002230 -0.001293 0.020786 -0.001495
# 6 0.002161 -0.002690 -0.001607 0.003128 -0.001495 0.024519
#
#
# Mechanical properties :
#
#
# Convention : Reuss Voigt Hill
#
# Bulk Modulus (GPa) = 63.03874 74.30739 68.67306
# Shear Modulus (GPa) = 36.49884 41.71345 39.10615
#
# Velocity S-wave (km/s) = 4.01808 4.29553 4.15912
# Velocity P-wave (km/s) = 7.02931 7.58098 7.31035
#
# Compressibility (1/GPa) = 0.01586326
#
# Stress axis : x y z
#
# Youngs Moduli (GPa) = 84.24874 73.71885 86.03141
#
# Poissons Ratio (x) = 0.29497 0.55955
# Poissons Ratio (y) = 0.33710 0.00794
# Poissons Ratio (z) = 0.54796 0.00680
#
# Static dielectric constant tensor:
#      x y z
#    x 4.274090 -0.298460 -0.045510 
#    y -0.298460 5.203300 0.427430 
#    z -0.045510 0.427430 4.274410 
# 
# 
# High freq. dielectric constant tensor:
#      x y z
#    x 1.890080 -0.009520 0.020740 
#    y -0.009520 1.900960 0.023690 
#    z 0.020740 0.023690 1.895650 
# 
# From -- ./inp_files/154561.got.cif
#   From: 2010.06.25/outbox.cif.g09.slc.cpg/sg2_78_cif.got.tgz:154561.got - 2010.06.27 13:26:56.
