data_PCOD8031018
_publ_section_title
;
Structure prediction by ZEFSAII (Michael W. Deem and Ramdas Pophale) SiO2 
 PCOD8031018
Probable space group: P -1
;
_chemical_formula_sum "Si O2"
_cell_formula_units_Z 14
_cell_length_a 15.256812
_cell_length_b 6.691648
_cell_length_c 11.407183
_cell_angle_alpha 70.278548
_cell_angle_beta 49.207713
_cell_angle_gamma 46.549138
_cell_volume 626.682774
_symmetry_space_group_name_H-M "P -1"
_symmetry_group_IT_number 2
_symmetry_cell_setting 'triclinic'
loop_
_space_group_symop_operation_xyz
x,y,z
-x,-y,-z
loop_
_atom_site_type_symbol
_atom_site_label
_atom_site_fract_x
_atom_site_fract_y
_atom_site_fract_z
Si Si1 0.098856 0.455644 0.264979
Si Si2 0.384454 0.720388 0.895834
Si Si3 0.408276 0.893891 0.093882
Si Si4 0.095961 0.674313 0.462594
Si Si5 0.396639 0.252085 0.411518
Si Si6 0.157206 0.725494 0.969580
Si Si7 0.577240 0.633648 0.384817
O O1 0.075731 0.657139 0.345982
O O2 0.957477 0.461052 0.383394
O O3 0.241358 0.138423 0.243256
O O4 0.124262 0.542650 0.101505
O O5 0.502330 0.382214 0.851911
O O6 0.442423 0.816536 0.729942
O O7 0.216474 0.832865 0.988215
O O8 0.383534 0.836928 0.996857
O O9 0.500000 0.000000 0.000000
O O10 0.273825 0.491053 0.378154
O O11 0.000000 0.000000 0.500000
O O12 0.342652 0.364660 0.568927
O O13 0.436011 0.958748 0.408292
O O14 0.288138 0.534399 0.795653
O O15 0.000000 0.000000 0.000000
O O16 0.500000 0.500000 0.500000
#
# Coordination Sequence:
#
# PCOD8031018 Si02
#       7
#     2   2   2   2   2   2   2
#     4  11  26  45  69 104 147 185 244 297 376 429
#     4  11  24  41  71 109 139 186 243 301 372 431
#     4  11  22  41  72 105 141 177 238 311 365 439
#     4  11  27  45  72 107 145 189 237 311 378 434
#     4  11  25  44  75 101 138 193 249 295 366 436
#     4  12  28  46  73 104 153 199 241 301 365 438
#     4  11  26  48  70 102 145 191 247 296 353 440
#
# _framework density 22.339853999999999
#
# number of rings (size 3 to 8) (size 9 to 14) (size 15 to 20)
#    0.000    0.857    2.857    2.571   10.000    1.143 
#    0.000    2.143    0.000    0.000    0.000    0.000 
#    0.000    0.000    0.000    0.000    0.000    0.000 
#
# Total GULP energy -173598.240999 kJ/mol
# GULP energy per Si atom -12399.874357 kJ/mol
# Density = 2.228901 g / cm^3
# Si number density = 22.339854 Si / 1000 Ang^3
#
#
#
# Elastic Constant Matrix: (Units=GPa)
#
#
# Indices 1 2 3 4 5 6 
#
# 1 106.5451 57.1430 26.1141 2.4362 -7.6606 0.3648
# 2 57.1430 158.6826 44.2048 5.2066 1.4079 4.5643
# 3 26.1141 44.2048 128.8589 -7.6091 -1.3637 9.4399
# 4 2.4362 5.2066 -7.6091 40.1175 4.3663 0.5888
# 5 -7.6606 1.4079 -1.3637 4.3663 28.1605 4.1216
# 6 0.3648 4.5643 9.4399 0.5888 4.1216 40.1869
#
#
#
# Elastic Compliance Matrix: (Units=1/GPa)
#
#
# Indices 1 2 3 4 5 6 
#
# 1 0.012106 -0.004069 -0.001086 -0.000801 0.003531 0.000257
# 2 -0.004069 0.008414 -0.002122 -0.001089 -0.001424 -0.000258
# 3 -0.001086 -0.002122 0.008971 0.002049 0.000207 -0.001908
# 4 -0.000801 -0.001089 0.002049 0.025950 -0.004042 -0.000316
# 5 0.003531 -0.001424 0.000207 -0.004042 0.037725 -0.003729
# 6 0.000257 -0.000258 -0.001908 -0.000316 -0.003729 0.025746
#
#
# Mechanical properties :
#
#
# Convention : Reuss Voigt Hill
#
# Bulk Modulus (GPa) = 66.95174 72.11228 69.53201
# Shear Modulus (GPa) = 36.11525 39.46796 37.79161
#
# Velocity S-wave (km/s) = 4.02509 4.20778 4.11745
# Velocity P-wave (km/s) = 7.18586 7.48044 7.33463
#
# Compressibility (1/GPa) = 0.01493613
#
# Stress axis : x y z
#
# Youngs Moduli (GPa) = 82.60635 118.84620 111.46430
#
# Poissons Ratio (x) = 0.48361 0.12106
# Poissons Ratio (y) = 0.33614 0.23656
# Poissons Ratio (z) = 0.08972 0.25222
#
# Static dielectric constant tensor:
#      x y z
#    x 3.897640 0.445310 -0.065330 
#    y 0.445310 4.305550 0.221570 
#    z -0.065330 0.221570 4.177200 
# 
# 
# High freq. dielectric constant tensor:
#      x y z
#    x 1.882050 0.015330 -0.000640 
#    y 0.015330 1.889320 -0.001620 
#    z -0.000640 -0.001620 1.886060 
# 
# From -- ./inp_files/69144.got.cif
#   From: 2010.06.25/outbox.cif.g09.slc.cpg/sg2_35_cif.got.tgz:69144.got - 2010.06.27 13:26:56.
