data_PCOD8031993
_publ_section_title
;
Structure prediction by ZEFSAII (Michael W. Deem and Ramdas Pophale) SiO2 
 PCOD8031993
Probable space group: P -1
;
_chemical_formula_sum "Si O2"
_cell_formula_units_Z 16
_cell_length_a 22.206869
_cell_length_b 5.080868
_cell_length_c 8.535060
_cell_angle_alpha 115.561533
_cell_angle_beta 95.179350
_cell_angle_gamma 112.014631
_cell_volume 767.978421
_symmetry_space_group_name_H-M "P -1"
_symmetry_group_IT_number 2
_symmetry_cell_setting 'triclinic'
loop_
_space_group_symop_operation_xyz
x,y,z
-x,-y,-z
loop_
_atom_site_type_symbol
_atom_site_label
_atom_site_fract_x
_atom_site_fract_y
_atom_site_fract_z
Si Si1 0.112427 0.346130 0.940176
Si Si2 0.751793 0.076859 0.403469
Si Si3 0.428864 0.968410 0.528617
Si Si4 0.193587 0.969890 0.913071
Si Si5 0.887385 0.338154 0.662947
Si Si6 0.971546 0.966034 0.657621
Si Si7 0.631313 0.584531 0.407447
Si Si8 0.705127 0.553578 0.685878
O O1 0.140792 0.652684 0.910104
O O2 0.032197 0.136255 0.839121
O O3 0.151283 0.131397 0.860150
O O4 0.124170 0.449856 0.150169
O O5 0.768038 0.131513 0.236471
O O6 0.815180 0.074121 0.510001
O O7 0.739786 0.374202 0.544296
O O8 0.684212 0.718603 0.309187
O O9 0.407563 0.806329 0.659073
O O10 0.367423 0.730415 0.336151
O O11 0.500000 0.000000 0.500000
O O12 0.429756 0.320121 0.611227
O O13 0.248293 0.224252 0.110100
O O14 0.923239 0.139703 0.698179
O O15 0.930133 0.582856 0.595429
O O16 0.000000 0.000000 0.500000
O O17 0.682913 0.765596 0.614689
#
# Coordination Sequence:
#
# PCOD8031993 Si02
#       8
#     2   2   2   2   2   2   2   2
#     4  12  25  43  59  90 119 156 212 250 312 366
#     4  11  23  40  62  91 121 161 201 255 311 347
#     4   9  18  34  63  93 120 163 201 238 294 352
#     4  12  25  39  65  88 123 159 204 254 302 369
#     4  12  24  40  66  81 123 158 199 259 309 361
#     4  12  25  42  60  88 116 159 208 250 310 373
#     4   9  20  34  61  87 126 153 203 243 293 354
#     4   9  22  39  60  91 124 155 203 246 296 359
#
# _framework density 20.833921
#
# number of rings (size 3 to 8) (size 9 to 14) (size 15 to 20)
#    0.750    0.500    1.250    5.250    5.250    0.000 
#    0.000    0.000    0.000    3.750    0.000    0.000 
#    0.000    0.000    0.000    0.000    0.000    0.000 
#
# Total GULP energy -198244.523690 kJ/mol
# GULP energy per Si atom -12390.282731 kJ/mol
# Density = 2.078650 g / cm^3
# Si number density = 20.833921 Si / 1000 Ang^3
#
#
#
# Elastic Constant Matrix: (Units=GPa)
#
#
# Indices 1 2 3 4 5 6 
#
# 1 133.7147 29.2761 28.9319 1.8060 -0.6547 -3.5360
# 2 29.2761 70.6283 2.0599 -2.3729 -2.2192 -7.3103
# 3 28.9319 2.0599 68.9520 -9.9395 -17.5304 1.1975
# 4 1.8060 -2.3729 -9.9395 24.4182 1.1374 -3.3278
# 5 -0.6547 -2.2192 -17.5304 1.1374 11.8621 -7.8131
# 6 -3.5360 -7.3103 1.1975 -3.3278 -7.8131 37.9912
#
#
#
# Elastic Compliance Matrix: (Units=1/GPa)
#
#
# Indices 1 2 3 4 5 6 
#
# 1 0.010287 -0.004937 -0.008407 -0.004412 -0.014381 -0.003071
# 2 -0.004937 0.017332 0.006115 0.004668 0.015726 0.006326
# 3 -0.008407 0.006115 0.034655 0.014306 0.058862 0.012660
# 4 -0.004412 0.004668 0.014306 0.047702 0.023104 0.008967
# 5 -0.014381 0.015726 0.058862 0.023104 0.199466 0.042877
# 6 -0.003071 0.006326 0.012660 0.008967 0.042877 0.036458
#
#
# Mechanical properties :
#
#
# Convention : Reuss Voigt Hill
#
# Bulk Modulus (GPa) = 20.91370 43.75899 32.33635
# Shear Modulus (GPa) = 13.28738 29.05612 21.17175
#
# Velocity S-wave (km/s) = 2.52816 3.73856 3.19127
# Velocity P-wave (km/s) = 4.31071 6.29961 5.39756
#
# Compressibility (1/GPa) = 0.04781555
#
# Stress axis : x y z
#
# Youngs Moduli (GPa) = 97.21449 57.69587 28.85552
#
# Poissons Ratio (x) = 0.28482 0.24260
# Poissons Ratio (y) = 0.47991 -0.17644
# Poissons Ratio (z) = 0.81732 -0.35279
#
# Static dielectric constant tensor:
#      x y z
#    x 3.986190 -0.036080 0.055190 
#    y -0.036080 3.916720 -0.041230 
#    z 0.055190 -0.041230 3.448230 
# 
# 
# High freq. dielectric constant tensor:
#      x y z
#    x 1.830690 -0.003910 0.002900 
#    y -0.003910 1.828340 -0.012410 
#    z 0.002900 -0.012410 1.772200 
# 
# From -- ./inp_files/339972.got.cif
#   From: 2010.06.25/outbox.cif.g09.slc.cpg/sg2_170_cif.got.tgz:339972.got - 2010.06.27 13:26:56.
