data_PCOD8031934
_publ_section_title
;
Structure prediction by ZEFSAII (Michael W. Deem and Ramdas Pophale) SiO2 
 PCOD8031934
Probable space group: P -1
;
_chemical_formula_sum "Si O2"
_cell_formula_units_Z 16
_cell_length_a 15.254646
_cell_length_b 8.771179
_cell_length_c 12.542435
_cell_angle_alpha 76.646749
_cell_angle_beta 55.780723
_cell_angle_gamma 40.593767
_cell_volume 840.866054
_symmetry_space_group_name_H-M "P -1"
_symmetry_group_IT_number 2
_symmetry_cell_setting 'triclinic'
loop_
_space_group_symop_operation_xyz
x,y,z
-x,-y,-z
loop_
_atom_site_type_symbol
_atom_site_label
_atom_site_fract_x
_atom_site_fract_y
_atom_site_fract_z
Si Si1 0.416637 0.626350 0.732754
Si Si2 0.265255 0.088601 0.279796
Si Si3 0.555655 0.171889 0.595282
Si Si4 0.945106 0.244239 0.500961
Si Si5 0.829655 0.032514 0.320026
Si Si6 0.694362 0.490557 0.459187
Si Si7 0.188548 0.523636 0.221386
Si Si8 0.529069 0.594670 0.053039
O O1 0.488458 0.417636 0.635169
O O2 0.229271 0.886814 0.775891
O O3 0.555158 0.604458 0.627029
O O4 0.389943 0.594770 0.874235
O O5 0.201218 0.321998 0.234173
O O6 0.107719 0.168190 0.417967
O O7 0.397541 0.979053 0.304705
O O8 0.355049 0.879096 0.162381
O O9 0.731184 0.995589 0.440961
O O10 0.404315 0.286544 0.599225
O O11 0.839904 0.415264 0.438477
O O12 0.823187 0.410481 0.658682
O O13 0.000000 0.000000 0.500000
O O14 0.792169 0.231578 0.381524
O O15 0.028214 0.768680 0.224782
O O16 0.351451 0.408183 0.072233
O O17 0.500000 0.500000 0.000000
#
# Coordination Sequence:
#
# PCOD8031934 Si02
#       8
#     2   2   2   2   2   2   2   2
#     4   8  16  32  54  83 109 142 186 232 272 327
#     4  11  23  39  57  82 118 151 185 226 286 346
#     4   8  15  32  54  80 112 148 180 223 275 333
#     4  12  20  34  59  91 113 142 191 238 272 318
#     4   9  16  30  56  84 110 141 185 229 277 329
#     4   9  16  30  57  86 112 138 186 238 270 314
#     4  12  23  35  57  85 117 150 184 228 286 341
#     4  11  23  39  59  81 108 149 194 238 278 323
#
# _framework density 19.027999999999999
#
# number of rings (size 3 to 8) (size 9 to 14) (size 15 to 20)
#    0.000    2.000    2.500    5.250    0.000    0.500 
#    0.000    0.625    2.750    0.750    0.000    0.000 
#    0.000    0.000    0.000    0.000    0.000    0.000 
#
# Total GULP energy -198230.236072 kJ/mol
# GULP energy per Si atom -12389.389755 kJ/mol
# Density = 1.898469 g / cm^3
# Si number density = 19.028000 Si / 1000 Ang^3
#
#
#
# Elastic Constant Matrix: (Units=GPa)
#
#
# Indices 1 2 3 4 5 6 
#
# 1 75.9567 50.0958 25.9231 -8.6659 8.3029 -20.5013
# 2 50.0958 75.9375 25.8881 -10.0565 2.3860 -16.5117
# 3 25.9231 25.8881 83.2120 -10.6499 5.7403 -2.7775
# 4 -8.6659 -10.0565 -10.6499 17.6784 -0.3952 -2.4592
# 5 8.3029 2.3860 5.7403 -0.3952 27.0720 -1.6200
# 6 -20.5013 -16.5117 -2.7775 -2.4592 -1.6200 33.1985
#
#
#
# Elastic Compliance Matrix: (Units=1/GPa)
#
#
# Indices 1 2 3 4 5 6 
#
# 1 0.027177 -0.014071 -0.002739 0.004876 -0.005867 0.009630
# 2 -0.014071 0.025005 -0.002650 0.006375 0.003015 0.004145
# 3 -0.002739 -0.002650 0.014506 0.005639 -0.002008 -0.001476
# 4 0.004876 0.006375 0.005639 0.067556 -0.001574 0.011581
# 5 -0.005867 0.003015 -0.002008 -0.001574 0.038844 -0.000513
# 6 0.009630 0.004145 -0.001476 0.011581 -0.000513 0.038840
#
#
# Mechanical properties :
#
#
# Convention : Reuss Voigt Hill
#
# Bulk Modulus (GPa) = 36.00988 48.76890 42.38939
# Shear Modulus (GPa) = 19.22306 24.46973 21.84640
#
# Velocity S-wave (km/s) = 3.18189 3.58995 3.39207
# Velocity P-wave (km/s) = 5.69781 6.54747 6.13736
#
# Compressibility (1/GPa) = 0.02777016
#
# Stress axis : x y z
#
# Youngs Moduli (GPa) = 36.79534 39.99137 68.93715
#
# Poissons Ratio (x) = 0.56272 0.18880
# Poissons Ratio (y) = 0.51775 0.18265
# Poissons Ratio (z) = 0.10077 0.10596
#
# Static dielectric constant tensor:
#      x y z
#    x 3.497850 -0.495660 0.151450 
#    y -0.495660 3.821940 -0.236490 
#    z 0.151450 -0.236490 3.518850 
# 
# 
# High freq. dielectric constant tensor:
#      x y z
#    x 1.724530 -0.027920 0.008370 
#    y -0.027920 1.738540 -0.001490 
#    z 0.008370 -0.001490 1.718300 
# 
# From -- ./inp_files/175202.got.cif
#   From: 2010.06.25/outbox.cif.g09.slc.cpg/sg2_88_cif.got.tgz:175202.got - 2010.06.27 13:26:56.
