data_PCOD8031673
_publ_section_title
;
Structure prediction by ZEFSAII (Michael W. Deem and Ramdas Pophale) SiO2 
 PCOD8031673
Probable space group: P -1
;
_chemical_formula_sum "Si O2"
_cell_formula_units_Z 14
_cell_length_a 14.562556
_cell_length_b 6.770312
_cell_length_c 11.479455
_cell_angle_alpha 57.892285
_cell_angle_beta 130.099738
_cell_angle_gamma 134.017548
_cell_volume 615.285925
_symmetry_space_group_name_H-M "P -1"
_symmetry_group_IT_number 2
_symmetry_cell_setting 'triclinic'
loop_
_space_group_symop_operation_xyz
x,y,z
-x,-y,-z
loop_
_atom_site_type_symbol
_atom_site_label
_atom_site_fract_x
_atom_site_fract_y
_atom_site_fract_z
Si Si1 0.331668 0.553128 0.299712
Si Si2 0.333235 0.247664 0.182661
Si Si3 0.141569 0.893342 0.727879
Si Si4 0.812613 0.595935 0.527078
Si Si5 0.568939 0.138985 0.338221
Si Si6 0.366072 0.743441 0.909451
Si Si7 0.848589 0.222784 0.975877
O O1 0.325921 0.318036 0.288905
O O2 0.233055 0.405119 0.377255
O O3 0.495296 0.802854 0.386160
O O4 0.269606 0.700924 0.125645
O O5 0.467440 0.218961 0.292525
O O6 0.345415 0.471631 0.033602
O O7 0.188903 0.958388 0.116075
O O8 0.223508 0.748107 0.801532
O O9 0.155810 0.947569 0.861402
O O10 0.975805 0.685410 0.623321
O O11 0.211316 0.189348 0.629655
O O12 0.714710 0.289004 0.486531
O O13 0.601520 0.259090 0.198248
O O14 0.500000 0.000000 0.000000
O O15 0.000000 0.500000 0.000000
#
# Coordination Sequence:
#
# PCOD8031673 Si02
#       7
#     2   2   2   2   2   2   2
#     4  11  23  45  70 104 133 181 236 282 342 407
#     4  11  23  41  73 103 133 177 229 293 344 385
#     4  11  24  45  70  99 143 181 228 282 344 413
#     4  11  25  45  66 100 148 185 221 281 346 417
#     4  11  24  42  69 102 139 182 229 284 341 409
#     4  12  21  43  73 104 137 176 236 287 337 407
#     4  11  22  45  71 100 136 174 233 291 333 402
#
# _framework density 22.753647999999998
#
# number of rings (size 3 to 8) (size 9 to 14) (size 15 to 20)
#    0.000    0.857    4.286    3.429    0.000    1.714 
#    5.143    0.000    0.000    0.000    0.000    0.000 
#    0.000    0.000    0.000    0.000    0.000    0.000 
#
# Total GULP energy -173646.417590 kJ/mol
# GULP energy per Si atom -12403.315542 kJ/mol
# Density = 2.270186 g / cm^3
# Si number density = 22.753648 Si / 1000 Ang^3
#
#
#
# Elastic Constant Matrix: (Units=GPa)
#
#
# Indices 1 2 3 4 5 6 
#
# 1 95.0975 57.3234 27.0164 23.4630 -19.5209 -2.7978
# 2 57.3234 148.6606 33.7708 36.4108 3.6134 -1.7813
# 3 27.0164 33.7708 90.0603 18.3584 -11.1173 1.4222
# 4 23.4630 36.4108 18.3584 39.1879 7.5778 -5.8597
# 5 -19.5209 3.6134 -11.1173 7.5778 36.4623 3.5538
# 6 -2.7978 -1.7813 1.4222 -5.8597 3.5538 39.2302
#
#
#
# Elastic Compliance Matrix: (Units=1/GPa)
#
#
# Indices 1 2 3 4 5 6 
#
# 1 0.018286 -0.005213 -0.000280 -0.008509 0.012115 -0.001291
# 2 -0.005213 0.010481 -0.001688 -0.005252 -0.003221 -0.000327
# 3 -0.000280 -0.001688 0.013808 -0.006138 0.005701 -0.002030
# 4 -0.008509 -0.005252 -0.006138 0.042412 -0.015414 0.007108
# 5 0.012115 -0.003221 0.005701 -0.015414 0.039698 -0.005387
# 6 -0.001291 -0.000327 -0.002030 0.007108 -0.005387 0.027007
#
#
# Mechanical properties :
#
#
# Convention : Reuss Voigt Hill
#
# Bulk Modulus (GPa) = 35.44590 63.33772 49.39181
# Shear Modulus (GPa) = 28.49676 37.35662 32.92669
#
# Velocity S-wave (km/s) = 3.54277 4.05629 3.80820
# Velocity P-wave (km/s) = 5.68743 7.05937 6.41021
#
# Compressibility (1/GPa) = 0.02821201
#
# Stress axis : x y z
#
# Youngs Moduli (GPa) = 54.68681 95.40833 72.42285
#
# Poissons Ratio (x) = 0.49739 0.02029
# Poissons Ratio (y) = 0.28510 0.12226
# Poissons Ratio (z) = 0.01532 0.16106
#
# Static dielectric constant tensor:
#      x y z
#    x 4.024680 0.188300 -0.089610 
#    y 0.188300 4.051920 0.144830 
#    z -0.089610 0.144830 4.462030 
# 
# 
# High freq. dielectric constant tensor:
#      x y z
#    x 1.893070 0.008600 -0.009130 
#    y 0.008600 1.900080 0.006140 
#    z -0.009130 0.006140 1.916920 
# 
# From -- ./inp_files/68708.got.cif
#   From: 2010.06.25/outbox.cif.g09.slc.cpg/sg2_35_cif.got.tgz:68708.got - 2010.06.27 13:26:56.
