data_PCOD8031085
_publ_section_title
;
Structure prediction by ZEFSAII (Michael W. Deem and Ramdas Pophale) SiO2 
 PCOD8031085
Probable space group: P -1
;
_chemical_formula_sum "Si O2"
_cell_formula_units_Z 16
_cell_length_a 9.134597
_cell_length_b 9.799298
_cell_length_c 11.598519
_cell_angle_alpha 110.585654
_cell_angle_beta 97.786220
_cell_angle_gamma 121.800783
_cell_volume 755.916511
_symmetry_space_group_name_H-M "P -1"
_symmetry_group_IT_number 2
_symmetry_cell_setting 'triclinic'
loop_
_space_group_symop_operation_xyz
x,y,z
-x,-y,-z
loop_
_atom_site_type_symbol
_atom_site_label
_atom_site_fract_x
_atom_site_fract_y
_atom_site_fract_z
Si Si1 0.289871 0.712781 0.329490
Si Si2 0.697090 0.673860 0.625112
Si Si3 0.979086 0.604190 0.627396
Si Si4 0.183319 0.211567 0.067725
Si Si5 0.527441 0.249731 0.034799
Si Si6 0.821178 0.494034 0.962978
Si Si7 0.606171 0.915738 0.597378
Si Si8 0.396153 0.887140 0.789510
O O1 0.104795 0.527438 0.308915
O O2 0.318254 0.667510 0.191438
O O3 0.474924 0.778417 0.439152
O O4 0.262830 0.872079 0.370088
O O5 0.500000 0.500000 0.500000
O O6 0.851465 0.659292 0.584841
O O7 0.718459 0.683545 0.769383
O O8 0.734435 0.862080 0.641672
O O9 0.000000 0.500000 0.500000
O O10 0.177416 0.795510 0.738841
O O11 0.111669 0.309354 0.020141
O O12 0.336808 0.226847 0.007563
O O13 0.000000 0.000000 0.000000
O O14 0.701665 0.443095 0.052784
O O15 0.510645 0.090943 0.913707
O O16 0.575016 0.240540 0.169171
O O17 0.000000 0.500000 0.000000
O O18 0.464694 0.891380 0.670861
#
# Coordination Sequence:
#
# PCOD8031085 Si02
#       8
#     2   2   2   2   2   2   2   2
#     4  11  23  42  69  98 132 176 230 277 349 404
#     4  12  23  44  70 102 134 180 228 283 349 414
#     4  12  23  41  68 100 133 171 228 286 345 414
#     4  12  27  45  71 105 142 185 237 292 347 420
#     4  11  25  42  70  98 141 184 233 281 350 416
#     4  12  26  45  69 102 143 182 232 289 348 419
#     4  11  22  43  72  95 131 181 227 279 343 415
#     4  11  22  42  67 100 131 182 228 280 347 416
#
# _framework density 21.166360000000001
#
# number of rings (size 3 to 8) (size 9 to 14) (size 15 to 20)
#    0.000    0.500    6.250    1.875    5.250    0.000 
#    0.000    0.625    0.000    0.000    0.000    0.000 
#    0.000    0.000    0.000    0.000    0.000    0.000 
#
# Total GULP energy -198429.713016 kJ/mol
# GULP energy per Si atom -12401.857064 kJ/mol
# Density = 2.111818 g / cm^3
# Si number density = 21.166360 Si / 1000 Ang^3
#
#
#
# Elastic Constant Matrix: (Units=GPa)
#
#
# Indices 1 2 3 4 5 6 
#
# 1 145.1927 58.2688 18.6411 -6.7925 10.5714 -15.3875
# 2 58.2688 128.0338 23.4745 -11.2077 14.8387 -14.1021
# 3 18.6411 23.4745 79.0224 -4.3054 3.7910 1.1199
# 4 -6.7925 -11.2077 -4.3054 29.7242 0.3306 5.9467
# 5 10.5714 14.8387 3.7910 0.3306 32.0988 -2.4405
# 6 -15.3875 -14.1021 1.1199 5.9467 -2.4405 41.7519
#
#
#
# Elastic Compliance Matrix: (Units=1/GPa)
#
#
# Indices 1 2 3 4 5 6 
#
# 1 0.008679 -0.003415 -0.001004 0.000163 -0.001011 0.001990
# 2 -0.003415 0.010559 -0.002053 0.002582 -0.003404 0.001796
# 3 -0.001004 -0.002053 0.013618 0.001303 -0.000467 -0.001641
# 4 0.000163 0.002582 0.001303 0.035729 -0.002097 -0.004314
# 5 -0.001011 -0.003404 -0.000467 -0.002097 0.033193 0.000729
# 6 0.001990 0.001796 -0.001641 -0.004314 0.000729 0.025992
#
#
# Mechanical properties :
#
#
# Convention : Reuss Voigt Hill
#
# Bulk Modulus (GPa) = 50.21730 61.44640 55.83185
# Shear Modulus (GPa) = 33.93274 37.50597 35.71935
#
# Velocity S-wave (km/s) = 4.00827 4.21403 4.11244
# Velocity P-wave (km/s) = 6.72296 7.26434 6.99889
#
# Compressibility (1/GPa) = 0.01991346
#
# Stress axis : x y z
#
# Youngs Moduli (GPa) = 115.22101 94.70169 73.43334
#
# Poissons Ratio (x) = 0.32342 0.07370
# Poissons Ratio (y) = 0.39350 0.15073
# Poissons Ratio (z) = 0.11564 0.19439
#
# Static dielectric constant tensor:
#      x y z
#    x 4.038290 -0.145270 0.048540 
#    y -0.145270 4.079480 -0.104610 
#    z 0.048540 -0.104610 3.940110 
# 
# 
# High freq. dielectric constant tensor:
#      x y z
#    x 1.818740 -0.010560 -0.000670 
#    y -0.010560 1.838950 -0.003830 
#    z -0.000670 -0.003830 1.836900 
# 
# From -- ./inp_files/240378.got.cif
#   From: 2010.06.25/outbox.cif.g09.slc.cpg/sg2_121_cif.got.tgz:240378.got - 2010.06.27 13:26:56.
