data_PCOD8031144
_publ_section_title
;
Structure prediction by ZEFSAII (Michael W. Deem and Ramdas Pophale) SiO2 
 PCOD8031144
Probable space group: P -1
;
_chemical_formula_sum "Si O2"
_cell_formula_units_Z 16
_cell_length_a 11.650945
_cell_length_b 13.122539
_cell_length_c 7.861636
_cell_angle_alpha 82.364913
_cell_angle_beta 132.726599
_cell_angle_gamma 123.960044
_cell_volume 669.926799
_symmetry_space_group_name_H-M "P -1"
_symmetry_group_IT_number 2
_symmetry_cell_setting 'triclinic'
loop_
_space_group_symop_operation_xyz
x,y,z
-x,-y,-z
loop_
_atom_site_type_symbol
_atom_site_label
_atom_site_fract_x
_atom_site_fract_y
_atom_site_fract_z
Si Si1 0.137826 0.784008 0.746594
Si Si2 0.986254 0.178684 0.900695
Si Si3 0.157307 0.175919 0.729401
Si Si4 0.298952 0.471060 0.248558
Si Si5 0.760422 0.990042 0.997896
Si Si6 0.150083 0.516774 0.402693
Si Si7 0.579288 0.427441 0.025639
Si Si8 0.703121 0.209749 0.442721
O O1 0.266385 0.903225 0.987231
O O2 0.285330 0.808607 0.741713
O O3 0.972606 0.800726 0.519681
O O4 0.048470 0.640371 0.767567
O O5 0.776225 0.138813 0.627801
O O6 0.138548 0.205699 0.899580
O O7 0.909631 0.053167 0.970345
O O8 0.112306 0.312584 0.111570
O O9 0.386212 0.271126 0.865086
O O10 0.124100 0.037148 0.741855
O O11 0.500000 0.500000 0.500000
O O12 0.270846 0.548816 0.341823
O O13 0.317607 0.525398 0.066267
O O14 0.531786 0.856660 0.743026
O O15 0.131065 0.632503 0.366219
O O16 0.254011 0.537999 0.682036
O O17 0.500000 0.500000 0.000000
#
# Coordination Sequence:
#
# PCOD8031144 Si02
#       8
#     2   2   2   2   2   2   2   2
#     4  11  23  43  68  97 138 175 229 290 342 402
#     4  11  24  45  67  98 140 180 227 287 339 412
#     4  11  22  42  69  98 133 182 224 282 347 408
#     4  12  23  40  72 106 138 175 227 289 357 389
#     4  12  24  44  68 100 136 184 231 276 341 420
#     4  12  23  45  70 102 137 183 229 286 343 410
#     4  12  20  40  71 101 141 172 223 290 349 397
#     4  11  26  45  68  94 139 189 228 275 352 407
#
# _framework density 23.883208
#
# number of rings (size 3 to 8) (size 9 to 14) (size 15 to 20)
#    0.000    0.500    6.250    2.625    0.000    0.500 
#    2.250    1.250    0.000    0.000    0.000    0.000 
#    0.000    0.000    0.000    0.000    0.000    0.000 
#
# Total GULP energy -198251.110893 kJ/mol
# GULP energy per Si atom -12390.694431 kJ/mol
# Density = 2.382885 g / cm^3
# Si number density = 23.883208 Si / 1000 Ang^3
#
#
#
# Elastic Constant Matrix: (Units=GPa)
#
#
# Indices 1 2 3 4 5 6 
#
# 1 82.8999 29.2779 24.2035 -2.3038 -16.8540 15.9014
# 2 29.2779 121.5770 6.3977 9.8730 0.0656 16.0989
# 3 24.2035 6.3977 39.7191 3.6741 1.1979 16.4636
# 4 -2.3038 9.8730 3.6741 31.3764 0.4369 -7.7541
# 5 -16.8540 0.0656 1.1979 0.4369 40.7546 2.3450
# 6 15.9014 16.0989 16.4636 -7.7541 2.3450 40.3276
#
#
#
# Elastic Compliance Matrix: (Units=1/GPa)
#
#
# Indices 1 2 3 4 5 6 
#
# 1 0.018585 -0.004053 -0.010785 0.003520 0.008035 -0.001098
# 2 -0.004053 0.010044 0.003267 -0.004960 -0.001470 -0.004614
# 3 -0.010785 0.003267 0.038164 -0.009742 -0.004664 -0.014234
# 4 0.003520 -0.004960 -0.009742 0.037735 0.000667 0.011786
# 5 0.008035 -0.001470 -0.004664 0.000667 0.028118 -0.002184
# 6 -0.001098 -0.004614 -0.014234 0.011786 -0.002184 0.035276
#
#
# Mechanical properties :
#
#
# Convention : Reuss Voigt Hill
#
# Bulk Modulus (GPa) = 22.90843 40.43937 31.67390
# Shear Modulus (GPa) = 24.31759 34.77951 29.54855
#
# Velocity S-wave (km/s) = 3.19437 3.82020 3.52122
# Velocity P-wave (km/s) = 4.81851 6.03552 5.46102
#
# Compressibility (1/GPa) = 0.04365204
#
# Stress axis : x y z
#
# Youngs Moduli (GPa) = 53.80769 99.56366 26.20248
#
# Poissons Ratio (x) = 0.40351 0.28259
# Poissons Ratio (y) = 0.21807 -0.08561
# Poissons Ratio (z) = 0.58031 -0.32531
#
# Static dielectric constant tensor:
#      x y z
#    x 4.215430 0.149700 -0.107820 
#    y 0.149700 4.581500 0.144700 
#    z -0.107820 0.144700 3.996620 
# 
# 
# High freq. dielectric constant tensor:
#      x y z
#    x 1.949340 0.004200 -0.007580 
#    y 0.004200 1.958310 -0.000750 
#    z -0.007580 -0.000750 1.932640 
# 
# From -- ./inp_files/262633.got.cif
#   From: 2010.06.25/outbox.cif.g09.slc.cpg/sg2_132_cif.got.tgz:262633.got - 2010.06.27 13:26:56.
