data_PCOD8031315
_publ_section_title
;
Structure prediction by ZEFSAII (Michael W. Deem and Ramdas Pophale) SiO2 
 PCOD8031315
Probable space group: P -1
;
_chemical_formula_sum "Si O2"
_cell_formula_units_Z 16
_cell_length_a 16.534141
_cell_length_b 9.108379
_cell_length_c 15.252139
_cell_angle_alpha 38.636814
_cell_angle_beta 142.338934
_cell_angle_gamma 143.500523
_cell_volume 765.703169
_symmetry_space_group_name_H-M "P -1"
_symmetry_group_IT_number 2
_symmetry_cell_setting 'triclinic'
loop_
_space_group_symop_operation_xyz
x,y,z
-x,-y,-z
loop_
_atom_site_type_symbol
_atom_site_label
_atom_site_fract_x
_atom_site_fract_y
_atom_site_fract_z
Si Si1 0.123763 0.472537 0.312327
Si Si2 0.124697 0.424231 0.673991
Si Si3 0.270906 0.719879 0.146062
Si Si4 0.348367 0.291416 0.653360
Si Si5 0.050811 0.852360 0.181371
Si Si6 0.838590 0.991859 0.216109
Si Si7 0.330933 0.288092 0.316869
Si Si8 0.615616 0.997128 0.342431
O O1 0.191346 0.666823 0.196389
O O2 0.255137 0.449968 0.486848
O O3 0.050866 0.597369 0.256900
O O4 0.995446 0.176045 0.314063
O O5 0.149465 0.254418 0.699885
O O6 0.000000 0.500000 0.500000
O O7 0.070450 0.249995 0.796832
O O8 0.284433 0.687388 0.703686
O O9 0.246641 0.438884 0.216684
O O10 0.446999 0.937912 0.203767
O O11 0.188460 0.833832 0.960529
O O12 0.299228 0.121913 0.779862
O O13 0.525996 0.504566 0.714165
O O14 0.315264 0.091031 0.637111
O O15 0.218081 0.053042 0.266585
O O16 0.000000 0.000000 0.000000
O O17 0.390927 0.173109 0.498843
#
# Coordination Sequence:
#
# PCOD8031315 Si02
#       8
#     2   2   2   2   2   2   2   2
#     4  12  22  42  65  92 128 166 213 259 305 385
#     4  12  24  43  66  91 131 172 206 259 319 373
#     4  11  23  43  68  93 128 169 207 260 323 371
#     4  11  23  41  67  97 121 167 216 255 312 377
#     4  12  26  41  65  97 127 166 211 264 321 367
#     4  12  26  40  64 100 129 162 212 268 315 367
#     4  11  22  44  68  91 129 168 211 257 315 383
#     4  11  22  43  69  91 128 169 213 254 313 387
#
# _framework density 20.895824999999999
#
# number of rings (size 3 to 8) (size 9 to 14) (size 15 to 20)
#    0.000    0.500    3.750    6.000    0.000    5.000 
#    0.000    0.000    0.000    0.000    0.000    0.000 
#    0.000    0.000    0.000    0.000    0.000    0.000 
#
# Total GULP energy -198548.799451 kJ/mol
# GULP energy per Si atom -12409.299966 kJ/mol
# Density = 2.084826 g / cm^3
# Si number density = 20.895825 Si / 1000 Ang^3
#
#
#
# Elastic Constant Matrix: (Units=GPa)
#
#
# Indices 1 2 3 4 5 6 
#
# 1 94.1172 37.3137 1.1354 1.4627 -8.6817 2.1952
# 2 37.3137 129.7298 2.2740 -7.4035 7.3685 -8.7817
# 3 1.1354 2.2740 60.6880 -2.7854 -5.8227 -6.6002
# 4 1.4627 -7.4035 -2.7854 20.4262 4.0813 -1.3299
# 5 -8.6817 7.3685 -5.8227 4.0813 36.3856 -9.9443
# 6 2.1952 -8.7817 -6.6002 -1.3299 -9.9443 35.5210
#
#
#
# Elastic Compliance Matrix: (Units=1/GPa)
#
#
# Indices 1 2 3 4 5 6 
#
# 1 0.012698 -0.004121 0.000068 -0.003249 0.004025 -0.000786
# 2 -0.004121 0.009441 -0.000143 0.004399 -0.002887 0.001919
# 3 0.000068 -0.000143 0.017402 0.001837 0.003807 0.004329
# 4 -0.003249 0.004399 0.001837 0.052503 -0.006799 0.001692
# 5 0.004025 -0.002887 0.003807 -0.006799 0.032768 0.008664
# 6 -0.000786 0.001919 0.004329 0.001692 0.008664 0.031968
#
#
# Mechanical properties :
#
#
# Convention : Reuss Voigt Hill
#
# Bulk Modulus (GPa) = 32.10223 40.66459 36.38341
# Shear Modulus (GPa) = 28.48111 34.72069 31.60090
#
# Velocity S-wave (km/s) = 3.69589 4.08071 3.89306
# Velocity P-wave (km/s) = 5.79734 6.45800 6.13657
#
# Compressibility (1/GPa) = 0.03115048
#
# Stress axis : x y z
#
# Youngs Moduli (GPa) = 78.75255 105.92126 57.46415
#
# Poissons Ratio (x) = 0.43647 -0.00393
# Poissons Ratio (y) = 0.32451 0.00822
# Poissons Ratio (z) = -0.00539 0.01516
#
# Static dielectric constant tensor:
#      x y z
#    x 3.994990 0.042240 -0.061860 
#    y 0.042240 3.503340 -0.069630 
#    z -0.061860 -0.069630 3.706120 
# 
# 
# High freq. dielectric constant tensor:
#      x y z
#    x 1.829690 0.004150 -0.004820 
#    y 0.004150 1.828420 -0.001650 
#    z -0.004820 -0.001650 1.819450 
# 
# From -- ./inp_files/185113.got.cif
#   From: 2010.06.25/outbox.cif.g09.slc.cpg/sg2_93_cif.got.tgz:185113.got - 2010.06.27 13:26:56.
