data_PCOD8031841
_publ_section_title
;
Structure prediction by ZEFSAII (Michael W. Deem and Ramdas Pophale) SiO2 
 PCOD8031841
Probable space group: P -1
;
_chemical_formula_sum "Si O2"
_cell_formula_units_Z 16
_cell_length_a 14.270864
_cell_length_b 9.078545
_cell_length_c 10.041131
_cell_angle_alpha 58.831465
_cell_angle_beta 73.643920
_cell_angle_gamma 38.719553
_cell_volume 677.879399
_symmetry_space_group_name_H-M "P -1"
_symmetry_group_IT_number 2
_symmetry_cell_setting 'triclinic'
loop_
_space_group_symop_operation_xyz
x,y,z
-x,-y,-z
loop_
_atom_site_type_symbol
_atom_site_label
_atom_site_fract_x
_atom_site_fract_y
_atom_site_fract_z
Si Si1 0.716567 0.796000 0.547164
Si Si2 0.137824 0.813366 0.924542
Si Si3 0.287720 0.320189 0.681248
Si Si4 0.379454 0.722991 0.763003
Si Si5 0.812555 0.764157 0.793163
Si Si6 0.052496 0.663380 0.840837
Si Si7 0.569135 0.727159 0.814346
Si Si8 0.518596 0.641044 0.337593
O O1 0.782090 0.629692 0.460622
O O2 0.842504 0.659048 0.677511
O O3 0.590717 0.827044 0.633469
O O4 0.646701 0.080235 0.416518
O O5 0.222189 0.882683 0.831466
O O6 0.066142 0.843389 0.798935
O O7 0.272356 0.495751 0.063371
O O8 0.000000 0.000000 0.000000
O O9 0.155633 0.467035 0.769288
O O10 0.342769 0.442051 0.612287
O O11 0.424295 0.005093 0.820034
O O12 0.520012 0.597399 0.859030
O O13 0.436105 0.477559 0.774884
O O14 0.881598 0.856925 0.762977
O O15 0.629107 0.031236 0.761662
O O16 0.901328 0.507949 0.968216
O O17 0.500000 0.500000 0.500000
#
# Coordination Sequence:
#
# PCOD8031841 Si02
#       8
#     2   2   2   2   2   2   2   2
#     4  11  22  47  71 105 136 184 235 290 349 422
#     4  12  27  47  66 102 149 186 232 294 354 417
#     4  11  23  42  75  97 137 175 240 285 337 419
#     4  11  24  41  71 107 141 177 239 289 363 408
#     4  11  25  43  71  98 143 186 233 282 354 420
#     4  11  26  47  65 103 139 191 234 282 350 420
#     4  11  23  46  72 103 137 189 232 288 352 424
#     4  12  21  40  70 105 136 177 229 300 344 411
#
# _framework density 23.603020000000001
#
# number of rings (size 3 to 8) (size 9 to 14) (size 15 to 20)
#    0.000    0.750    5.000    2.625    3.500    5.500 
#    2.250    1.250    0.000    0.000    0.000    0.000 
#    0.000    0.000    0.000    0.000    0.000    0.000 
#
# Total GULP energy -198244.027517 kJ/mol
# GULP energy per Si atom -12390.251720 kJ/mol
# Density = 2.354930 g / cm^3
# Si number density = 23.603020 Si / 1000 Ang^3
#
#
#
# Elastic Constant Matrix: (Units=GPa)
#
#
# Indices 1 2 3 4 5 6 
#
# 1 174.4059 24.0261 45.8419 20.6814 29.4187 7.7708
# 2 24.0261 70.4163 24.9509 32.5272 6.1697 2.8802
# 3 45.8419 24.9509 39.3192 13.5527 -2.4534 -5.9490
# 4 20.6814 32.5272 13.5527 33.6613 16.7660 3.2350
# 5 29.4187 6.1697 -2.4534 16.7660 40.8838 8.1280
# 6 7.7708 2.8802 -5.9490 3.2350 8.1280 38.3576
#
#
#
# Elastic Compliance Matrix: (Units=1/GPa)
#
#
# Indices 1 2 3 4 5 6 
#
# 1 0.011270 0.001133 -0.016331 0.003971 -0.010281 -0.003057
# 2 0.001133 0.030433 -0.010874 -0.028547 0.006267 -0.003122
# 3 -0.016331 -0.010874 0.059304 -0.014764 0.020994 0.010119
# 4 0.003971 -0.028547 -0.014764 0.076047 -0.030440 -0.000914
# 5 -0.010281 0.006267 0.020994 -0.030440 0.045075 -0.002116
# 6 -0.003057 -0.003122 0.010119 -0.000914 -0.002116 0.029019
#
#
# Mechanical properties :
#
#
# Convention : Reuss Voigt Hill
#
# Bulk Modulus (GPa) = 20.46599 52.64211 36.55405
# Shear Modulus (GPa) = 15.64556 35.20205 25.42380
#
# Velocity S-wave (km/s) = 2.57740 3.86608 3.28554
# Velocity P-wave (km/s) = 4.18893 6.50233 5.46934
#
# Compressibility (1/GPa) = 0.04886156
#
# Stress axis : x y z
#
# Youngs Moduli (GPa) = 88.73323 32.85898 16.86236
#
# Poissons Ratio (x) = -0.03723 0.27538
# Poissons Ratio (y) = -0.10053 0.18337
# Poissons Ratio (z) = 1.44910 0.35732
#
# Static dielectric constant tensor:
#      x y z
#    x 4.906130 0.183270 0.199050 
#    y 0.183270 3.922270 0.246720 
#    z 0.199050 0.246720 4.239000 
# 
# 
# High freq. dielectric constant tensor:
#      x y z
#    x 1.968350 0.012850 0.003630 
#    y 0.012850 1.903620 0.013320 
#    z 0.003630 0.013320 1.929260 
# 
# From -- ./inp_files/297858.got.cif
#   From: 2010.06.25/outbox.cif.g09.slc.cpg/sg2_149_cif.got.tgz:297858.got - 2010.06.27 13:26:56.
