data_PCOD8031104
_publ_section_title
;
Structure prediction by ZEFSAII (Michael W. Deem and Ramdas Pophale) SiO2 
 PCOD8031104
Probable space group: P -1
;
_chemical_formula_sum "Si O2"
_cell_formula_units_Z 16
_cell_length_a 9.505387
_cell_length_b 20.798370
_cell_length_c 11.951010
_cell_angle_alpha 151.329721
_cell_angle_beta 40.605842
_cell_angle_gamma 132.672200
_cell_volume 737.247544
_symmetry_space_group_name_H-M "P -1"
_symmetry_group_IT_number 2
_symmetry_cell_setting 'triclinic'
loop_
_space_group_symop_operation_xyz
x,y,z
-x,-y,-z
loop_
_atom_site_type_symbol
_atom_site_label
_atom_site_fract_x
_atom_site_fract_y
_atom_site_fract_z
Si Si1 0.967533 0.551310 0.924042
Si Si2 0.843251 0.537292 0.554773
Si Si3 0.681600 0.113941 0.049179
Si Si4 0.906865 0.728608 0.504236
Si Si5 0.552322 0.643930 0.425168
Si Si6 0.730635 0.187259 0.870899
Si Si7 0.724124 0.805297 0.954667
Si Si8 0.894137 0.019625 0.337361
O O1 0.018155 0.500406 0.693414
O O2 0.017030 0.425264 0.782404
O O3 0.714645 0.584245 0.144209
O O4 0.106444 0.688257 0.070845
O O5 0.606612 0.466967 0.593150
O O6 0.787965 0.692338 0.831951
O O7 0.000000 0.500000 0.500000
O O8 0.599211 0.243198 0.364769
O O9 0.726684 0.158712 0.962047
O O10 0.500000 0.000000 0.000000
O O11 0.894147 0.066350 0.909991
O O12 0.677330 0.721838 0.569354
O O13 0.893644 0.796499 0.737481
O O14 0.071991 0.828270 0.493127
O O15 0.795085 0.045098 0.558964
O O16 0.505106 0.225060 0.010718
O O17 0.735321 0.944234 0.228933
#
# Coordination Sequence:
#
# PCOD8031104 Si02
#       8
#     2   2   2   2   2   2   2   2
#     4  11  24  42  74 104 129 178 235 291 339 401
#     4  11  25  45  67  98 144 178 227 288 347 413
#     4  12  23  43  66 101 137 179 229 284 346 405
#     4  11  22  42  68 100 135 173 234 284 337 411
#     4  12  22  42  73  97 134 176 233 285 338 407
#     4  12  23  44  69 102 137 177 240 282 339 410
#     4  11  24  42  65  96 141 187 221 280 353 405
#     4  12  25  41  67 101 140 183 227 284 343 411
#
# _framework density 21.702344
#
# number of rings (size 3 to 8) (size 9 to 14) (size 15 to 20)
#    0.000    0.500    5.000    3.000    1.750    2.500 
#    0.000    0.000    0.000    0.000    0.000    0.000 
#    0.000    0.000    0.000    0.000    0.000    0.000 
#
# Total GULP energy -198293.052722 kJ/mol
# GULP energy per Si atom -12393.315795 kJ/mol
# Density = 2.165295 g / cm^3
# Si number density = 21.702344 Si / 1000 Ang^3
#
#
#
# Elastic Constant Matrix: (Units=GPa)
#
#
# Indices 1 2 3 4 5 6 
#
# 1 50.1731 15.0361 14.3144 8.7340 -0.2318 -4.0006
# 2 15.0361 103.4124 40.6429 8.9402 0.4151 -8.8201
# 3 14.3144 40.6429 136.4352 -3.2320 1.8455 -5.4029
# 4 8.7340 8.9402 -3.2320 32.0240 7.6679 -2.4230
# 5 -0.2318 0.4151 1.8455 7.6679 34.7508 8.7868
# 6 -4.0006 -8.8201 -5.4029 -2.4230 8.7868 17.5967
#
#
#
# Elastic Compliance Matrix: (Units=1/GPa)
#
#
# Indices 1 2 3 4 5 6 
#
# 1 0.022196 -0.001808 -0.001850 -0.005794 0.000967 0.002292
# 2 -0.001808 0.011802 -0.003208 -0.002671 -0.000507 0.004405
# 3 -0.001850 -0.003208 0.008634 0.002758 -0.001482 0.001742
# 4 -0.005794 -0.002671 0.002758 0.036980 -0.010464 0.008508
# 5 0.000967 -0.000507 -0.001482 -0.010464 0.036240 -0.020027
# 6 0.002292 0.004405 0.001742 0.008508 -0.020027 0.071265
#
#
# Mechanical properties :
#
#
# Convention : Reuss Voigt Hill
#
# Bulk Modulus (GPa) = 34.60125 47.77862 41.18994
# Shear Modulus (GPa) = 23.75499 31.54278 27.64888
#
# Velocity S-wave (km/s) = 3.31204 3.81652 3.57319
# Velocity P-wave (km/s) = 5.53211 6.44083 6.00369
#
# Compressibility (1/GPa) = 0.02890069
#
# Stress axis : x y z
#
# Youngs Moduli (GPa) = 45.05259 84.72854 115.82672
#
# Poissons Ratio (x) = 0.15318 0.21426
# Poissons Ratio (y) = 0.08145 0.37159
# Poissons Ratio (z) = 0.08334 0.27182
#
# Static dielectric constant tensor:
#      x y z
#    x 3.829860 -0.216930 -0.060190 
#    y -0.216930 4.304940 0.044100 
#    z -0.060190 0.044100 4.199120 
# 
# 
# High freq. dielectric constant tensor:
#      x y z
#    x 1.837850 -0.002450 -0.001360 
#    y -0.002450 1.858500 0.002290 
#    z -0.001360 0.002290 1.875780 
# 
# From -- ./inp_files/282956.got.cif
#   From: 2010.06.25/outbox.cif.g09.slc.cpg/sg2_142_cif.got.tgz:282956.got - 2010.06.27 13:26:56.
