data_PCOD8031884
_publ_section_title
;
Structure prediction by ZEFSAII (Michael W. Deem and Ramdas Pophale) SiO2 
 PCOD8031884
Probable space group: P -1
;
_chemical_formula_sum "Si O2"
_cell_formula_units_Z 14
_cell_length_a 12.318378
_cell_length_b 13.324905
_cell_length_c 11.075920
_cell_angle_alpha 123.376633
_cell_angle_beta 23.268701
_cell_angle_gamma 123.419170
_cell_volume 594.046789
_symmetry_space_group_name_H-M "P -1"
_symmetry_group_IT_number 2
_symmetry_cell_setting 'triclinic'
loop_
_space_group_symop_operation_xyz
x,y,z
-x,-y,-z
loop_
_atom_site_type_symbol
_atom_site_label
_atom_site_fract_x
_atom_site_fract_y
_atom_site_fract_z
Si Si1 0.530129 0.799397 0.701521
Si Si2 0.903723 0.607406 0.823893
Si Si3 0.384240 0.694891 0.530260
Si Si4 0.904810 0.037646 0.780924
Si Si5 0.815530 0.337670 0.672591
Si Si6 0.273411 0.229129 0.268529
Si Si7 0.770158 0.049510 0.190295
O O1 0.464128 0.703834 0.595910
O O2 0.605338 0.725762 0.694123
O O3 0.776878 0.905969 0.484627
O O4 0.258732 0.862843 0.049836
O O5 0.132567 0.588790 0.682626
O O6 0.066974 0.679093 0.592450
O O7 0.759523 0.475533 0.841818
O O8 0.661845 0.682686 0.164092
O O9 0.224221 0.806333 0.726581
O O10 0.859924 0.912397 0.668063
O O11 0.773967 0.997669 0.017427
O O12 0.033400 0.304987 0.527089
O O13 0.523983 0.250206 0.929185
O O14 0.500000 0.000000 0.500000
O O15 0.000000 0.000000 0.000000
#
# Coordination Sequence:
#
# PCOD8031884 Si02
#       7
#     2   2   2   2   2   2   2
#     4  11  23  44  62  98 129 172 214 256 314 402
#     4  11  24  46  67  91 132 166 216 267 341 374
#     4  11  23  41  69  90 130 180 198 262 340 374
#     4  11  23  40  62  93 135 173 206 254 325 375
#     4  11  26  43  66  98 122 167 224 277 310 385
#     4  12  24  42  69  93 129 169 224 264 315 370
#     4  11  23  36  58  97 132 158 211 254 301 398
#
# _framework density 23.567164999999999
#
# number of rings (size 3 to 8) (size 9 to 14) (size 15 to 20)
#    0.000    0.857    0.000    8.571    6.000    2.286 
#    0.000    4.286    0.000    0.000    0.000    0.000 
#    0.000    0.000    0.000    0.000    0.000    0.000 
#
# Total GULP energy -173587.242050 kJ/mol
# GULP energy per Si atom -12399.088718 kJ/mol
# Density = 2.351353 g / cm^3
# Si number density = 23.567165 Si / 1000 Ang^3
#
#
#
# Elastic Constant Matrix: (Units=GPa)
#
#
# Indices 1 2 3 4 5 6 
#
# 1 101.9371 10.9271 12.4603 16.0659 -13.3665 10.9513
# 2 10.9271 44.5543 10.1224 0.6887 -3.1859 7.9591
# 3 12.4603 10.1224 111.2654 6.8744 -17.5771 6.9287
# 4 16.0659 0.6887 6.8744 38.8915 4.5742 -5.0463
# 5 -13.3665 -3.1859 -17.5771 4.5742 37.4580 3.1811
# 6 10.9513 7.9591 6.9287 -5.0463 3.1811 35.4295
#
#
#
# Elastic Compliance Matrix: (Units=1/GPa)
#
#
# Indices 1 2 3 4 5 6 
#
# 1 0.012205 -0.001710 0.000365 -0.006363 0.005571 -0.004866
# 2 -0.001710 0.024139 -0.001514 -0.000204 0.001159 -0.004731
# 3 0.000365 -0.001514 0.010288 -0.002928 0.005415 -0.002688
# 4 -0.006363 -0.000204 -0.002928 0.030811 -0.008078 0.007699
# 5 0.005571 0.001159 0.005415 -0.008078 0.032918 -0.007148
# 6 -0.004866 -0.004731 -0.002688 0.007699 -0.007148 0.033056
#
#
# Mechanical properties :
#
#
# Convention : Reuss Voigt Hill
#
# Bulk Modulus (GPa) = 24.44197 36.08625 30.26411
# Shear Modulus (GPa) = 30.71755 37.30560 34.01157
#
# Velocity S-wave (km/s) = 3.61419 3.98294 3.80304
# Velocity P-wave (km/s) = 5.27353 6.04128 5.67042
#
# Compressibility (1/GPa) = 0.04091323
#
# Stress axis : x y z
#
# Youngs Moduli (GPa) = 81.93509 41.42647 97.19945
#
# Poissons Ratio (x) = 0.07085 -0.03548
# Poissons Ratio (y) = 0.14012 0.14719
# Poissons Ratio (z) = -0.02991 0.06273
#
# Static dielectric constant tensor:
#      x y z
#    x 4.439110 0.127430 -0.007370 
#    y 0.127430 3.908650 -0.115830 
#    z -0.007370 -0.115830 4.379950 
# 
# 
# High freq. dielectric constant tensor:
#      x y z
#    x 1.947000 0.009650 -0.004680 
#    y 0.009650 1.905280 -0.002620 
#    z -0.004680 -0.002620 1.954660 
# 
# From -- ./inp_files/434172.got.cif
#   From: 2010.06.25/outbox.cif.g09.slc.cpg/sg2_218_cif.got.tgz:434172.got - 2010.06.27 13:26:56.
