data_PCOD8031453
_publ_section_title
;
Structure prediction by ZEFSAII (Michael W. Deem and Ramdas Pophale) SiO2 
 PCOD8031453
Probable space group: P -1
;
_chemical_formula_sum "Si O2"
_cell_formula_units_Z 14
_cell_length_a 8.953301
_cell_length_b 18.150855
_cell_length_c 11.540054
_cell_angle_alpha 42.270408
_cell_angle_beta 72.904731
_cell_angle_gamma 39.933094
_cell_volume 626.607415
_symmetry_space_group_name_H-M "P -1"
_symmetry_group_IT_number 2
_symmetry_cell_setting 'triclinic'
loop_
_space_group_symop_operation_xyz
x,y,z
-x,-y,-z
loop_
_atom_site_type_symbol
_atom_site_label
_atom_site_fract_x
_atom_site_fract_y
_atom_site_fract_z
Si Si1 0.754358 0.969649 0.851873
Si Si2 0.621804 0.486159 0.708768
Si Si3 0.100001 0.905658 0.459445
Si Si4 0.684262 0.648531 0.345962
Si Si5 0.494916 0.170577 0.248381
Si Si6 0.617250 0.881898 0.446447
Si Si7 0.710267 0.536299 0.224611
O O1 0.908651 0.982312 0.746652
O O2 0.575240 0.106850 0.850638
O O3 0.503106 0.072020 0.705905
O O4 0.023985 0.722766 0.097990
O O5 0.420950 0.649750 0.673588
O O6 0.582784 0.593139 0.487408
O O7 0.527471 0.420574 0.767565
O O8 0.000000 0.000000 0.500000
O O9 0.851196 0.974261 0.383947
O O10 0.676951 0.639645 0.219739
O O11 0.000000 0.500000 0.500000
O O12 0.407132 0.211735 0.356609
O O13 0.417296 0.101094 0.287008
O O14 0.319595 0.375609 0.989625
O O15 0.961182 0.712885 0.554526
#
# Coordination Sequence:
#
# PCOD8031453 Si02
#       7
#     2   2   2   2   2   2   2
#     4  11  24  44  69  99 132 178 224 275 335 395
#     4  11  26  44  69 100 133 180 224 271 345 390
#     4  11  22  44  66  98 139 171 225 277 326 407
#     4  11  26  45  69 101 134 173 232 282 322 398
#     4  11  24  42  68 101 132 180 221 274 335 396
#     4  11  24  43  67 100 140 170 224 278 329 401
#     4  12  24  46  69  96 137 182 221 275 334 396
#
# _framework density 22.34254
#
# number of rings (size 3 to 8) (size 9 to 14) (size 15 to 20)
#    0.000    0.857    5.714    0.857    2.000    2.857 
#    5.143    0.000    0.000    0.000    0.000    0.000 
#    0.000    0.000    0.000    0.000    0.000    0.000 
#
# Total GULP energy -173595.477715 kJ/mol
# GULP energy per Si atom -12399.676980 kJ/mol
# Density = 2.229169 g / cm^3
# Si number density = 22.342540 Si / 1000 Ang^3
#
#
#
# Elastic Constant Matrix: (Units=GPa)
#
#
# Indices 1 2 3 4 5 6 
#
# 1 72.3809 -6.5670 19.9525 -2.4021 3.6600 0.6925
# 2 -6.5670 65.3472 21.5325 -25.4502 10.7669 11.6601
# 3 19.9525 21.5325 94.9948 -19.3249 12.6619 6.1376
# 4 -2.4021 -25.4502 -19.3249 35.9492 -5.9186 0.3809
# 5 3.6600 10.7669 12.6619 -5.9186 30.5441 -2.2651
# 6 0.6925 11.6601 6.1376 0.3809 -2.2651 37.0831
#
#
#
# Elastic Compliance Matrix: (Units=1/GPa)
#
#
# Indices 1 2 3 4 5 6 
#
# 1 0.015240 0.003686 -0.003466 0.001534 -0.001464 -0.000975
# 2 0.003686 0.024961 -0.001850 0.016026 -0.005972 -0.008141
# 3 -0.003466 -0.001850 0.013296 0.005032 -0.003605 -0.001826
# 4 0.001534 0.016026 0.005032 0.041996 -0.000252 -0.006347
# 5 -0.001464 -0.005972 -0.003605 -0.000252 0.036818 0.004753
# 6 -0.000975 -0.008141 -0.001826 -0.006347 0.004753 0.030202
#
#
# Mechanical properties :
#
#
# Convention : Reuss Voigt Hill
#
# Bulk Modulus (GPa) = 19.90554 33.61765 26.76160
# Shear Modulus (GPa) = 27.39436 33.90228 30.64832
#
# Velocity S-wave (km/s) = 3.50538 3.89959 3.70773
# Velocity P-wave (km/s) = 5.03112 5.94600 5.50759
#
# Compressibility (1/GPa) = 0.05023726
#
# Stress axis : x y z
#
# Youngs Moduli (GPa) = 65.61652 40.06269 75.20786
#
# Poissons Ratio (x) = -0.14769 0.26070
# Poissons Ratio (y) = -0.24189 0.13914
# Poissons Ratio (z) = 0.22745 0.07412
#
# Static dielectric constant tensor:
#      x y z
#    x 4.012260 -0.098980 -0.049980 
#    y -0.098980 5.183590 -0.130430 
#    z -0.049980 -0.130430 3.819370 
# 
# 
# High freq. dielectric constant tensor:
#      x y z
#    x 1.889340 -0.009110 -0.005070 
#    y -0.009110 1.883670 -0.006730 
#    z -0.005070 -0.006730 1.867870 
# 
# From -- ./inp_files/27171.got.cif
#   From: 2010.06.25/outbox.cif.g09.slc.cpg/sg2_14_cif.got.tgz:27171.got - 2010.06.27 13:26:56.
