data_PCOD8031016
_publ_section_title
;
Structure prediction by ZEFSAII (Michael W. Deem and Ramdas Pophale) SiO2 
 PCOD8031016
Probable space group: P -1
;
_chemical_formula_sum "Si O2"
_cell_formula_units_Z 16
_cell_length_a 12.106271
_cell_length_b 17.107133
_cell_length_c 9.089077
_cell_angle_alpha 139.293026
_cell_angle_beta 81.873790
_cell_angle_gamma 129.652335
_cell_volume 691.428409
_symmetry_space_group_name_H-M "P -1"
_symmetry_group_IT_number 2
_symmetry_cell_setting 'triclinic'
loop_
_space_group_symop_operation_xyz
x,y,z
-x,-y,-z
loop_
_atom_site_type_symbol
_atom_site_label
_atom_site_fract_x
_atom_site_fract_y
_atom_site_fract_z
Si Si1 0.744482 0.122018 0.806241
Si Si2 0.229014 0.042172 0.188857
Si Si3 0.909621 0.870559 0.187145
Si Si4 0.732680 0.955664 0.292854
Si Si5 0.669719 0.418279 0.620638
Si Si6 0.104021 0.552534 0.210416
Si Si7 0.353585 0.702452 0.863267
Si Si8 0.026083 0.731260 0.536858
O O1 0.758701 0.070329 0.884768
O O2 0.668538 0.961775 0.466971
O O3 0.619644 0.134109 0.862670
O O4 0.962036 0.351988 0.053734
O O5 0.095413 0.026096 0.264754
O O6 0.452309 0.283585 0.471727
O O7 0.118857 0.918665 0.881752
O O8 0.748425 0.825705 0.106882
O O9 0.817268 0.659549 0.929170
O O10 0.000000 0.000000 0.500000
O O11 0.940300 0.195592 0.535575
O O12 0.564384 0.829898 0.026270
O O13 0.703458 0.364204 0.686989
O O14 0.704644 0.367108 0.395525
O O15 0.152500 0.721105 0.520366
O O16 0.000000 0.500000 0.000000
O O17 0.199822 0.498006 0.708840
#
# Coordination Sequence:
#
# PCOD8031016 Si02
#       8
#     2   2   2   2   2   2   2   2
#     4  11  23  45  71 106 148 184 231 298 365 414
#     4  12  25  46  74 104 139 195 239 286 361 424
#     4  12  27  52  71  98 150 191 237 300 343 428
#     4  12  25  46  73 104 148 186 244 293 349 425
#     4  12  26  46  74 108 141 192 241 285 363 426
#     4  11  22  41  72 104 149 182 228 299 355 423
#     4  11  25  44  73 111 145 184 238 297 357 429
#     4  11  24  43  70 108 142 184 233 299 362 404
#
# _framework density 23.140502999999999
#
# number of rings (size 3 to 8) (size 9 to 14) (size 15 to 20)
#    0.000    0.500    6.250    1.125    1.750    7.500 
#    0.000    0.000    0.000    0.000    0.000    0.000 
#    0.000    0.000    0.000    0.000    0.000    0.000 
#
# Total GULP energy -198238.997104 kJ/mol
# GULP energy per Si atom -12389.937319 kJ/mol
# Density = 2.308783 g / cm^3
# Si number density = 23.140503 Si / 1000 Ang^3
#
#
#
# Elastic Constant Matrix: (Units=GPa)
#
#
# Indices 1 2 3 4 5 6 
#
# 1 154.6316 26.5048 45.1456 -11.3428 -10.3349 11.3560
# 2 26.5048 86.5500 20.2679 -7.1685 -8.5575 7.9226
# 3 45.1456 20.2679 78.4043 -17.5949 -14.2307 13.2368
# 4 -11.3428 -7.1685 -17.5949 29.9832 0.8688 -2.5194
# 5 -10.3349 -8.5575 -14.2307 0.8688 30.2422 -3.1296
# 6 11.3560 7.9226 13.2368 -2.5194 -3.1296 38.5364
#
#
#
# Elastic Compliance Matrix: (Units=1/GPa)
#
#
# Indices 1 2 3 4 5 6 
#
# 1 0.007961 -0.001385 -0.003987 0.000276 0.000378 -0.000643
# 2 -0.001385 0.012811 -0.001543 0.001449 0.002237 -0.001419
# 3 -0.003987 -0.001543 0.019338 0.008940 0.006627 -0.004028
# 4 0.000276 0.001449 0.008940 0.038895 0.003530 -0.000621
# 5 0.000378 0.002237 0.006627 0.003530 0.036885 0.000379
# 6 -0.000643 -0.001419 -0.004028 -0.000621 0.000379 0.027804
#
#
# Mechanical properties :
#
#
# Convention : Reuss Voigt Hill
#
# Bulk Modulus (GPa) = 38.05271 55.93584 46.99427
# Shear Modulus (GPa) = 30.06900 34.93022 32.49961
#
# Velocity S-wave (km/s) = 3.60864 3.88942 3.75166
# Velocity P-wave (km/s) = 5.81747 6.66295 6.25451
#
# Compressibility (1/GPa) = 0.02627934
#
# Stress axis : x y z
#
# Youngs Moduli (GPa) = 125.61000 78.05965 51.71138
#
# Poissons Ratio (x) = 0.10813 0.20617
# Poissons Ratio (y) = 0.17400 0.07980
# Poissons Ratio (z) = 0.50079 0.12046
#
# Static dielectric constant tensor:
#      x y z
#    x 2.354500 0.795140 0.665410 
#    y 0.795140 3.991770 -0.287160 
#    z 0.665410 -0.287160 3.786050 
# 
# 
# High freq. dielectric constant tensor:
#      x y z
#    x 1.911630 0.005450 -0.004700 
#    y 0.005450 1.918730 -0.003400 
#    z -0.004700 -0.003400 1.911970 
# 
# From -- ./inp_files/280105.got.cif
#   From: 2010.06.25/outbox.cif.g09.slc.cpg/sg2_141_cif.got.tgz:280105.got - 2010.06.27 13:26:56.
