data_PCOD8031977
_publ_section_title
;
Structure prediction by ZEFSAII (Michael W. Deem and Ramdas Pophale) SiO2 
 PCOD8031977
Probable space group: P -1
;
_chemical_formula_sum "Si O2"
_cell_formula_units_Z 14
_cell_length_a 16.937805
_cell_length_b 8.272396
_cell_length_c 8.831664
_cell_angle_alpha 48.481507
_cell_angle_beta 61.330593
_cell_angle_gamma 40.291687
_cell_volume 598.317996
_symmetry_space_group_name_H-M "P -1"
_symmetry_group_IT_number 2
_symmetry_cell_setting 'triclinic'
loop_
_space_group_symop_operation_xyz
x,y,z
-x,-y,-z
loop_
_atom_site_type_symbol
_atom_site_label
_atom_site_fract_x
_atom_site_fract_y
_atom_site_fract_z
Si Si1 0.204838 0.208023 0.747335
Si Si2 0.622174 0.893317 0.881889
Si Si3 0.115961 0.665481 0.937271
Si Si4 0.019388 0.207999 0.297980
Si Si5 0.372521 0.255530 0.382711
Si Si6 0.958551 0.776544 0.280892
Si Si7 0.709846 0.135836 0.821371
O O1 0.270794 0.282825 0.543752
O O2 0.176319 0.031528 0.795699
O O3 0.060441 0.511089 0.695153
O O4 0.276788 0.049596 0.934128
O O5 0.624841 0.825987 0.743750
O O6 0.627682 0.143436 0.764788
O O7 0.738509 0.599228 0.041729
O O8 0.500000 0.000000 0.000000
O O9 0.043910 0.634338 0.903998
O O10 0.075969 0.971532 0.731951
O O11 0.071412 0.677945 0.137657
O O12 0.161612 0.034192 0.273815
O O13 0.000000 0.000000 0.500000
O O14 0.347078 0.551228 0.253040
O O15 0.500000 0.000000 0.500000
O O16 0.000000 0.500000 0.500000
#
# Coordination Sequence:
#
# PCOD8031977 Si02
#       7
#     2   2   2   2   2   2   2
#     4  12  23  45  71 104 152 194 246 305 375 444
#     4  12  28  50  80 108 147 204 255 306 377 446
#     4  11  24  44  68 109 152 184 249 307 368 452
#     4  12  23  42  75 110 152 193 239 305 380 444
#     4  12  30  51  74 110 148 198 260 308 368 455
#     4  11  23  39  71 107 145 194 239 306 379 439
#     4  12  26  51  78 110 154 198 243 315 383 439
#
# _framework density 23.398928999999999
#
# number of rings (size 3 to 8) (size 9 to 14) (size 15 to 20)
#    0.000    0.286    4.286    4.714    2.000    5.143 
#    0.000    0.000    0.000    0.000    0.000    0.000 
#    0.000    0.000    0.000    0.000    0.000    0.000 
#
# Total GULP energy -173457.288871 kJ/mol
# GULP energy per Si atom -12389.806348 kJ/mol
# Density = 2.334567 g / cm^3
# Si number density = 23.398929 Si / 1000 Ang^3
#
#
#
# Elastic Constant Matrix: (Units=GPa)
#
#
# Indices 1 2 3 4 5 6 
#
# 1 176.3667 79.2113 45.1605 11.9071 -1.8579 6.1166
# 2 79.2113 129.8208 54.9850 3.8088 -7.5115 6.5063
# 3 45.1605 54.9850 104.0638 6.4797 -14.9299 8.5129
# 4 11.9071 3.8088 6.4797 34.9885 -0.3538 -0.6259
# 5 -1.8579 -7.5115 -14.9299 -0.3538 41.3298 3.7237
# 6 6.1166 6.5063 8.5129 -0.6259 3.7237 45.8783
#
#
#
# Elastic Compliance Matrix: (Units=1/GPa)
#
#
# Indices 1 2 3 4 5 6 
#
# 1 0.008091 -0.004429 -0.001149 -0.002071 -0.000856 -0.000196
# 2 -0.004429 0.012358 -0.004581 0.001009 0.000431 -0.000333
# 3 -0.001149 -0.004581 0.013385 -0.001584 0.004121 -0.002037
# 4 -0.002071 0.001009 -0.001584 0.029481 -0.000306 0.000854
# 5 -0.000856 0.000431 0.004121 -0.000306 0.025976 -0.002824
# 6 -0.000196 -0.000333 -0.002037 0.000854 -0.002824 0.022489
#
#
# Mechanical properties :
#
#
# Convention : Reuss Voigt Hill
#
# Bulk Modulus (GPa) = 73.98947 85.44054 79.71501
# Shear Modulus (GPa) = 36.60222 39.83230 38.21726
#
# Velocity S-wave (km/s) = 3.95937 4.13039 4.04578
# Velocity P-wave (km/s) = 7.25202 7.70330 7.48106
#
# Compressibility (1/GPa) = 0.01351544
#
# Stress axis : x y z
#
# Youngs Moduli (GPa) = 123.59347 80.92047 74.70967
#
# Poissons Ratio (x) = 0.35841 0.08583
# Poissons Ratio (y) = 0.54742 0.34226
# Poissons Ratio (z) = 0.14199 0.37072
#
# Static dielectric constant tensor:
#      x y z
#    x 4.803870 0.582360 -0.111690 
#    y 0.582360 4.671890 -0.063460 
#    z -0.111690 -0.063460 4.227760 
# 
# 
# High freq. dielectric constant tensor:
#      x y z
#    x 1.953990 0.020900 -0.002920 
#    y 0.020900 1.928660 0.002480 
#    z -0.002920 0.002480 1.926400 
# 
# From -- ./inp_files/327039.got.cif
#   From: 2010.06.25/outbox.cif.g09.slc.cpg/sg2_164_cif.got.tgz:327039.got - 2010.06.27 13:26:56.
