data_PCOD8031331
_publ_section_title
;
Structure prediction by ZEFSAII (Michael W. Deem and Ramdas Pophale) SiO2 
 PCOD8031331
Probable space group: P -1
;
_chemical_formula_sum "Si O2"
_cell_formula_units_Z 16
_cell_length_a 5.600211
_cell_length_b 12.433746
_cell_length_c 11.819193
_cell_angle_alpha 65.014384
_cell_angle_beta 109.366304
_cell_angle_gamma 112.439264
_cell_volume 675.079059
_symmetry_space_group_name_H-M "P -1"
_symmetry_group_IT_number 2
_symmetry_cell_setting 'triclinic'
loop_
_space_group_symop_operation_xyz
x,y,z
-x,-y,-z
loop_
_atom_site_type_symbol
_atom_site_label
_atom_site_fract_x
_atom_site_fract_y
_atom_site_fract_z
Si Si1 0.077859 0.697854 0.977014
Si Si2 0.725372 0.424292 0.334892
Si Si3 0.977526 0.167253 0.626912
Si Si4 0.906813 0.319962 0.754726
Si Si5 0.363604 0.515100 0.086496
Si Si6 0.993896 0.093815 0.278149
Si Si7 0.367348 0.832667 0.624551
Si Si8 0.469457 0.357501 0.549975
O O1 0.907002 0.593879 0.911978
O O2 0.089122 0.831847 0.872012
O O3 0.986846 0.691880 0.097154
O O4 0.347660 0.656521 0.035390
O O5 0.508881 0.490434 0.232039
O O6 0.746132 0.315464 0.300542
O O7 0.634853 0.344099 0.470272
O O8 0.985373 0.538244 0.337690
O O9 0.166558 0.276547 0.530970
O O10 0.971977 0.217366 0.730696
O O11 0.699758 0.129612 0.530471
O O12 0.090578 0.049387 0.707108
O O13 0.593315 0.303354 0.701429
O O14 0.500000 0.500000 0.000000
O O15 0.312975 0.133626 0.328825
O O16 0.803063 0.104255 0.347804
O O17 0.500000 0.500000 0.500000
#
# Coordination Sequence:
#
# PCOD8031331 Si02
#       8
#     2   2   2   2   2   2   2   2
#     4  11  26  42  69 107 145 193 246 298 369 438
#     4  12  22  43  74 110 145 184 246 311 381 428
#     4  12  28  48  73 103 150 195 245 301 369 442
#     4  12  26  43  69 109 148 190 242 301 371 447
#     4  11  22  43  70 103 146 187 242 312 365 430
#     4  12  29  50  77 108 147 201 250 305 365 439
#     4  12  26  48  79 111 144 192 249 314 368 435
#     4  12  24  44  69 107 145 191 239 302 374 439
#
# _framework density 23.700928000000001
#
# number of rings (size 3 to 8) (size 9 to 14) (size 15 to 20)
#    0.000    0.250    5.000    4.125    3.500    0.500 
#    0.000    0.625    0.000    0.000    0.000    0.000 
#    0.000    0.000    0.000    0.000    0.000    0.000 
#
# Total GULP energy -198221.738506 kJ/mol
# GULP energy per Si atom -12388.858657 kJ/mol
# Density = 2.364698 g / cm^3
# Si number density = 23.700928 Si / 1000 Ang^3
#
#
#
# Elastic Constant Matrix: (Units=GPa)
#
#
# Indices 1 2 3 4 5 6 
#
# 1 103.2650 38.3314 20.6195 3.4405 1.0226 -19.3027
# 2 38.3314 142.8672 31.2169 -17.9120 2.5428 -39.0034
# 3 20.6195 31.2169 104.4594 -9.7957 8.3142 -6.3750
# 4 3.4405 -17.9120 -9.7957 39.6896 -5.9049 6.6702
# 5 1.0226 2.5428 8.3142 -5.9049 38.3118 -0.9841
# 6 -19.3027 -39.0034 -6.3750 6.6702 -0.9841 37.7123
#
#
#
# Elastic Compliance Matrix: (Units=1/GPa)
#
#
# Indices 1 2 3 4 5 6 
#
# 1 0.011647 -0.001999 -0.001722 -0.003058 -0.000169 0.004139
# 2 -0.001999 0.010928 -0.002047 0.003093 0.000490 0.009399
# 3 -0.001722 -0.002047 0.010756 0.001859 -0.001906 -0.001558
# 4 -0.003058 0.003093 0.001859 0.028376 0.003770 -0.002972
# 5 -0.000169 0.000490 -0.001906 0.003770 0.027072 0.000138
# 6 0.004139 0.009399 -0.001558 -0.002972 0.000138 0.038622
#
#
# Mechanical properties :
#
#
# Convention : Reuss Voigt Hill
#
# Bulk Modulus (GPa) = 45.88187 58.99190 52.43688
# Shear Modulus (GPa) = 34.19972 40.50432 37.35202
#
# Velocity S-wave (km/s) = 3.80276 4.13846 3.97416
# Velocity P-wave (km/s) = 6.21949 6.91231 6.57503
#
# Compressibility (1/GPa) = 0.02179510
#
# Stress axis : x y z
#
# Youngs Moduli (GPa) = 85.85913 91.50825 92.97535
#
# Poissons Ratio (x) = 0.18291 0.16013
# Poissons Ratio (y) = 0.17162 0.19028
# Poissons Ratio (z) = 0.14788 0.18728
#
# Static dielectric constant tensor:
#      x y z
#    x 4.552900 -0.684590 -0.671950 
#    y -0.684590 2.185640 -3.662900 
#    z -0.671950 -3.662900 -1.787870 
# 
# 
# High freq. dielectric constant tensor:
#      x y z
#    x 1.943480 -0.019440 0.019080 
#    y -0.019440 1.940300 0.001740 
#    z 0.019080 0.001740 1.933040 
# 
# From -- ./inp_files/83208.got.cif
#   From: 2010.06.25/outbox.cif.g09.slc.cpg/sg2_42_cif.got.tgz:83208.got - 2010.06.27 13:26:56.
