data_PCOD8031744
_publ_section_title
;
Structure prediction by ZEFSAII (Michael W. Deem and Ramdas Pophale) SiO2 
 PCOD8031744
Probable space group: P -1
;
_chemical_formula_sum "Si O2"
_cell_formula_units_Z 16
_cell_length_a 11.693107
_cell_length_b 14.931895
_cell_length_c 9.814872
_cell_angle_alpha 64.244027
_cell_angle_beta 128.209617
_cell_angle_gamma 72.928318
_cell_volume 736.266374
_symmetry_space_group_name_H-M "P -1"
_symmetry_group_IT_number 2
_symmetry_cell_setting 'triclinic'
loop_
_space_group_symop_operation_xyz
x,y,z
-x,-y,-z
loop_
_atom_site_type_symbol
_atom_site_label
_atom_site_fract_x
_atom_site_fract_y
_atom_site_fract_z
Si Si1 0.682564 0.293747 0.866819
Si Si2 0.655594 0.841285 0.811254
Si Si3 0.662551 0.117771 0.824601
Si Si4 0.532784 0.690506 0.717764
Si Si5 0.823010 0.360133 0.707736
Si Si6 0.849727 0.243541 0.537662
Si Si7 0.420248 0.057326 0.749455
Si Si8 0.879419 0.320401 0.218022
O O1 0.724673 0.152187 0.979855
O O2 0.853106 0.252192 0.905969
O O3 0.398754 0.456832 0.515980
O O4 0.744941 0.303623 0.053552
O O5 0.610219 0.751365 0.802125
O O6 0.500000 0.000000 0.500000
O O7 0.584762 0.898719 0.878326
O O8 0.935518 0.707057 0.078201
O O9 0.594375 0.224134 0.577525
O O10 0.446238 0.159329 0.664034
O O11 0.899661 0.925198 0.098705
O O12 0.333971 0.747251 0.631966
O O13 0.756657 0.494482 0.992918
O O14 0.734618 0.374156 0.483875
O O15 0.889310 0.288096 0.404929
O O16 0.144065 0.180995 0.442741
O O17 0.500000 0.000000 0.000000
#
# Coordination Sequence:
#
# PCOD8031744 Si02
#       8
#     2   2   2   2   2   2   2   2
#     4  11  25  41  71 105 136 181 236 288 345 414
#     4  12  25  44  72 102 138 186 237 287 341 425
#     4  12  25  44  74 102 139 189 231 289 351 421
#     4  12  26  44  74 107 133 190 239 284 349 416
#     4  11  22  46  65  98 145 181 224 292 349 411
#     4  12  24  48  72  98 147 182 235 287 352 413
#     4  12  26  49  67 103 149 182 224 292 361 405
#     4  12  27  47  70 105 146 182 231 300 343 416
#
# _framework density 21.731265
#
# number of rings (size 3 to 8) (size 9 to 14) (size 15 to 20)
#    0.000    0.250    6.250    2.250    5.250    2.000 
#    0.000    1.250    0.000    0.000    0.000    0.000 
#    0.000    0.000    0.000    0.000    0.000    0.000 
#
# Total GULP energy -198423.788616 kJ/mol
# GULP energy per Si atom -12401.486789 kJ/mol
# Density = 2.168180 g / cm^3
# Si number density = 21.731265 Si / 1000 Ang^3
#
#
#
# Elastic Constant Matrix: (Units=GPa)
#
#
# Indices 1 2 3 4 5 6 
#
# 1 109.9958 39.1888 42.3472 -1.7102 22.9246 -2.2357
# 2 39.1888 122.1493 30.7152 15.2001 0.5884 9.6859
# 3 42.3472 30.7152 99.1988 -4.0616 12.9696 -3.0923
# 4 -1.7102 15.2001 -4.0616 30.8589 0.7349 1.8083
# 5 22.9246 0.5884 12.9696 0.7349 38.3320 6.8331
# 6 -2.2357 9.6859 -3.0923 1.8083 6.8331 41.4024
#
#
#
# Elastic Compliance Matrix: (Units=1/GPa)
#
#
# Indices 1 2 3 4 5 6 
#
# 1 0.013382 -0.003881 -0.003390 0.002235 -0.007282 0.002481
# 2 -0.003881 0.011070 -0.002607 -0.005903 0.003744 -0.003354
# 3 -0.003390 -0.002607 0.012845 0.002750 -0.002635 0.001701
# 4 0.002235 -0.005903 0.002750 0.035833 -0.002976 0.000633
# 5 -0.007282 0.003744 -0.002635 -0.002976 0.032529 -0.006704
# 6 0.002481 -0.003354 0.001701 0.000633 -0.006704 0.026278
#
#
# Mechanical properties :
#
#
# Convention : Reuss Voigt Hill
#
# Bulk Modulus (GPa) = 57.00668 61.76070 59.38369
# Shear Modulus (GPa) = 31.73833 36.72483 34.23158
#
# Velocity S-wave (km/s) = 3.82578 4.11536 3.97321
# Velocity P-wave (km/s) = 6.76794 7.14588 6.95947
#
# Compressibility (1/GPa) = 0.01754180
#
# Stress axis : x y z
#
# Youngs Moduli (GPa) = 74.72873 90.33674 77.85016
#
# Poissons Ratio (x) = 0.35056 0.26392
# Poissons Ratio (y) = 0.28999 0.20293
# Poissons Ratio (z) = 0.25334 0.23548
#
# Static dielectric constant tensor:
#      x y z
#    x 4.121480 -0.083990 0.211170 
#    y -0.083990 3.993080 -0.012300 
#    z 0.211170 -0.012300 3.862580 
# 
# 
# High freq. dielectric constant tensor:
#      x y z
#    x 1.859880 -0.004960 0.016860 
#    y -0.004960 1.860380 0.005070 
#    z 0.016860 0.005070 1.853050 
# 
# From -- ./inp_files/272697.got.cif
#   From: 2010.06.25/outbox.cif.g09.slc.cpg/sg2_137_cif.got.tgz:272697.got - 2010.06.27 13:26:56.
