data_PCOD8031560
_publ_section_title
;
Structure prediction by ZEFSAII (Michael W. Deem and Ramdas Pophale) SiO2 
 PCOD8031560
Probable space group: P -1
;
_chemical_formula_sum "Si O2"
_cell_formula_units_Z 14
_cell_length_a 14.247416
_cell_length_b 8.918138
_cell_length_c 13.184015
_cell_angle_alpha 54.245143
_cell_angle_beta 64.269111
_cell_angle_gamma 30.907310
_cell_volume 689.142892
_symmetry_space_group_name_H-M "P -1"
_symmetry_group_IT_number 2
_symmetry_cell_setting 'triclinic'
loop_
_space_group_symop_operation_xyz
x,y,z
-x,-y,-z
loop_
_atom_site_type_symbol
_atom_site_label
_atom_site_fract_x
_atom_site_fract_y
_atom_site_fract_z
Si Si1 0.137012 0.320531 0.709121
Si Si2 0.772209 0.140721 0.282706
Si Si3 0.066406 0.798849 0.449865
Si Si4 0.363716 0.619338 0.278023
Si Si5 0.658832 0.657870 0.002354
Si Si6 0.888696 0.663603 0.883927
Si Si7 0.476322 0.339096 0.126277
O O1 0.128755 0.500970 0.563176
O O2 0.995316 0.559239 0.772824
O O3 0.103319 0.183595 0.713624
O O4 0.333698 0.029043 0.783967
O O5 0.577995 0.323368 0.333916
O O6 0.718259 0.390261 0.139756
O O7 0.892941 0.041102 0.358254
O O8 0.243989 0.653885 0.386782
O O9 0.000000 0.000000 0.500000
O O10 0.347889 0.556377 0.198218
O O11 0.282185 0.945159 0.184090
O O12 0.831305 0.536574 0.952726
O O13 0.605743 0.686679 0.901941
O O14 0.500000 0.000000 0.000000
O O15 0.000000 0.500000 0.000000
O O16 0.500000 0.500000 0.000000
#
# Coordination Sequence:
#
# PCOD8031560 Si02
#       7
#     2   2   2   2   2   2   2
#     4  11  25  46  67  99 141 179 224 294 333 410
#     4  11  26  46  69 100 140 177 234 283 341 419
#     4  12  27  47  70  98 137 187 239 284 337 400
#     4  11  24  47  70 100 138 186 227 285 344 411
#     4  12  23  40  71 103 136 178 222 282 355 412
#     4  12  24  40  69 102 140 177 228 282 354 410
#     4  11  22  44  72 103 141 171 226 288 351 415
#
# _framework density 20.315092
#
# number of rings (size 3 to 8) (size 9 to 14) (size 15 to 20)
#    0.000    0.571    5.714    3.000    4.000    3.429 
#    2.571    0.000    0.000    0.000    0.000    0.000 
#    0.000    0.000    0.000    0.000    0.000    0.000 
#
# Total GULP energy -173571.756499 kJ/mol
# GULP energy per Si atom -12397.982607 kJ/mol
# Density = 2.026885 g / cm^3
# Si number density = 20.315092 Si / 1000 Ang^3
#
#
#
# Elastic Constant Matrix: (Units=GPa)
#
#
# Indices 1 2 3 4 5 6 
#
# 1 137.5805 37.5385 36.0870 15.9802 12.5770 8.9043
# 2 37.5385 93.8315 22.4191 6.3705 4.7765 4.6607
# 3 36.0870 22.4191 80.1355 1.9331 -3.7669 -10.4543
# 4 15.9802 6.3705 1.9331 40.3854 1.8553 -7.9892
# 5 12.5770 4.7765 -3.7669 1.8553 46.5723 4.1174
# 6 8.9043 4.6607 -10.4543 -7.9892 4.1174 31.3996
#
#
#
# Elastic Compliance Matrix: (Units=1/GPa)
#
#
# Indices 1 2 3 4 5 6 
#
# 1 0.010104 -0.002314 -0.004535 -0.004265 -0.002262 -0.004820
# 2 -0.002314 0.012484 -0.002757 -0.001364 -0.000613 -0.002381
# 3 -0.004535 -0.002757 0.016309 0.002855 0.002042 0.007584
# 4 -0.004265 -0.001364 0.002855 0.028461 -0.000466 0.009665
# 5 -0.002262 -0.000613 0.002042 -0.000466 0.022476 -0.001653
# 6 -0.004820 -0.002381 0.007584 0.009665 -0.001653 0.038769
#
#
# Mechanical properties :
#
#
# Convention : Reuss Voigt Hill
#
# Bulk Modulus (GPa) = 50.80177 55.95962 53.38070
# Shear Modulus (GPa) = 32.38855 38.03830 35.21342
#
# Velocity S-wave (km/s) = 3.99721 4.33184 4.16788
# Velocity P-wave (km/s) = 6.80917 7.25434 7.03527
#
# Compressibility (1/GPa) = 0.01968435
#
# Stress axis : x y z
#
# Youngs Moduli (GPa) = 98.97519 80.10127 61.31704
#
# Poissons Ratio (x) = 0.18539 0.27805
# Poissons Ratio (y) = 0.22907 0.16905
# Poissons Ratio (z) = 0.44881 0.22084
#
# Static dielectric constant tensor:
#      x y z
#    x 5.835420 1.350020 1.484590 
#    y 1.350020 4.548950 0.823740 
#    z 1.484590 0.823740 4.863440 
# 
# 
# High freq. dielectric constant tensor:
#      x y z
#    x 1.808240 0.012470 -0.001710 
#    y 0.012470 1.805440 -0.001480 
#    z -0.001710 -0.001480 1.799540 
# 
# From -- ./inp_files/156676.got.cif
#   From: 2010.06.25/outbox.cif.g09.slc.cpg/sg2_79_cif.got.tgz:156676.got - 2010.06.27 13:26:56.
