data_PCOD8031485
_publ_section_title
;
Structure prediction by ZEFSAII (Michael W. Deem and Ramdas Pophale) SiO2 
 PCOD8031485
Probable space group: P -1
;
_chemical_formula_sum "Si O2"
_cell_formula_units_Z 14
_cell_length_a 9.325199
_cell_length_b 16.057981
_cell_length_c 15.574138
_cell_angle_alpha 153.613262
_cell_angle_beta 132.975373
_cell_angle_gamma 63.350028
_cell_volume 657.345403
_symmetry_space_group_name_H-M "P -1"
_symmetry_group_IT_number 2
_symmetry_cell_setting 'triclinic'
loop_
_space_group_symop_operation_xyz
x,y,z
-x,-y,-z
loop_
_atom_site_type_symbol
_atom_site_label
_atom_site_fract_x
_atom_site_fract_y
_atom_site_fract_z
Si Si1 0.522978 0.156953 0.378907
Si Si2 0.714163 0.990263 0.547054
Si Si3 0.192854 0.452436 0.562581
Si Si4 0.672051 0.680880 0.673661
Si Si5 0.375764 0.187162 0.841214
Si Si6 0.107176 0.391392 0.000455
Si Si7 0.136470 0.052368 0.256061
O O1 0.403747 0.143929 0.226268
O O2 0.681626 0.414895 0.687954
O O3 0.342554 0.060493 0.293735
O O4 0.662745 0.028964 0.322939
O O5 0.500000 0.000000 0.500000
O O6 0.653970 0.848153 0.305481
O O7 0.789257 0.886558 0.558288
O O8 0.916108 0.234782 0.843536
O O9 0.321682 0.446401 0.525066
O O10 0.072576 0.223485 0.350214
O O11 0.000000 0.500000 0.500000
O O12 0.370633 0.628243 0.863140
O O13 0.500000 0.500000 0.500000
O O14 0.918112 0.814061 0.940422
O O15 0.187298 0.246402 0.846849
O O16 0.000000 0.500000 0.000000
#
# Coordination Sequence:
#
# PCOD8031485 Si02
#       7
#     2   2   2   2   2   2   2
#     4  11  22  46  71  99 139 185 228 291 350 412
#     4  12  26  44  70 104 143 180 237 287 344 422
#     4  11  24  45  70 102 137 182 236 283 352 419
#     4  11  23  44  72  98 138 182 232 295 345 408
#     4  12  24  45  73 103 139 188 232 281 359 415
#     4  12  24  46  68 100 140 186 234 280 347 414
#     4  11  22  44  69 101 140 183 227 291 345 407
#
# _framework density 21.297784
#
# number of rings (size 3 to 8) (size 9 to 14) (size 15 to 20)
#    0.000    0.571    5.714    4.714    0.000    0.571 
#    2.571    1.429    0.000    0.000    0.000    0.000 
#    0.000    0.000    0.000    0.000    0.000    0.000 
#
# Total GULP energy -173573.101517 kJ/mol
# GULP energy per Si atom -12398.078680 kJ/mol
# Density = 2.124931 g / cm^3
# Si number density = 21.297784 Si / 1000 Ang^3
#
#
#
# Elastic Constant Matrix: (Units=GPa)
#
#
# Indices 1 2 3 4 5 6 
#
# 1 103.1227 70.2262 61.5916 9.3255 15.4073 -10.3900
# 2 70.2262 163.0751 36.1674 2.1731 1.1246 -5.0432
# 3 61.5916 36.1674 144.7173 -3.9872 12.9445 12.4893
# 4 9.3255 2.1731 -3.9872 40.0794 1.7007 -2.9939
# 5 15.4073 1.1246 12.9445 1.7007 37.9235 6.0928
# 6 -10.3900 -5.0432 12.4893 -2.9939 6.0928 44.1805
#
#
#
# Elastic Compliance Matrix: (Units=1/GPa)
#
#
# Indices 1 2 3 4 5 6 
#
# 1 0.020948 -0.007098 -0.007248 -0.004418 -0.006719 0.006792
# 2 -0.007098 0.008973 0.000678 0.001042 0.002518 -0.001113
# 3 -0.007248 0.000678 0.010266 0.002344 0.000018 -0.004373
# 4 -0.004418 0.001042 0.002344 0.026182 -0.000246 0.000226
# 5 -0.006719 0.002518 0.000018 -0.000246 0.029903 -0.005438
# 6 0.006792 -0.001113 -0.004373 0.000226 -0.005438 0.026106
#
#
# Mechanical properties :
#
#
# Convention : Reuss Voigt Hill
#
# Bulk Modulus (GPa) = 77.82334 82.98727 80.40530
# Shear Modulus (GPa) = 32.46803 40.63203 36.55003
#
# Velocity S-wave (km/s) = 3.90869 4.37258 4.14713
# Velocity P-wave (km/s) = 7.54920 8.03383 7.79528
#
# Compressibility (1/GPa) = 0.01284962
#
# Stress axis : x y z
#
# Youngs Moduli (GPa) = 47.73741 111.44808 97.41071
#
# Poissons Ratio (x) = 0.79107 0.70607
# Poissons Ratio (y) = 0.33885 -0.06605
# Poissons Ratio (z) = 0.34602 -0.07557
#
# Static dielectric constant tensor:
#      x y z
#    x 3.829030 -0.058240 0.125270 
#    y -0.058240 4.281930 -0.187370 
#    z 0.125270 -0.187370 4.326830 
# 
# 
# High freq. dielectric constant tensor:
#      x y z
#    x 1.815050 -0.010830 0.012440 
#    y -0.010830 1.855840 -0.011420 
#    z 0.012440 -0.011420 1.849140 
# 
# From -- ./inp_files/180806.got.cif
#   From: 2010.06.25/outbox.cif.g09.slc.cpg/sg2_91_cif.got.tgz:180806.got - 2010.06.27 13:26:56.
