data_PCOD8031844
_publ_section_title
;
Structure prediction by ZEFSAII (Michael W. Deem and Ramdas Pophale) SiO2 
 PCOD8031844
Probable space group: P -1
;
_chemical_formula_sum "Si O2"
_cell_formula_units_Z 14
_cell_length_a 21.488164
_cell_length_b 9.039780
_cell_length_c 9.843038
_cell_angle_alpha 83.404821
_cell_angle_beta 39.586935
_cell_angle_gamma 52.249779
_cell_volume 679.925481
_symmetry_space_group_name_H-M "P -1"
_symmetry_group_IT_number 2
_symmetry_cell_setting 'triclinic'
loop_
_space_group_symop_operation_xyz
x,y,z
-x,-y,-z
loop_
_atom_site_type_symbol
_atom_site_label
_atom_site_fract_x
_atom_site_fract_y
_atom_site_fract_z
Si Si1 0.255712 0.530670 0.378458
Si Si2 0.588983 0.545487 0.361134
Si Si3 0.975976 0.088925 0.681495
Si Si4 0.860767 0.639669 0.332946
Si Si5 0.089285 0.274593 0.475515
Si Si6 0.523960 0.183657 0.193603
Si Si7 0.493115 0.142381 0.777313
O O1 0.146666 0.527965 0.616581
O O2 0.406123 0.386354 0.245235
O O3 0.335856 0.389814 0.112258
O O4 0.127051 0.832356 0.550013
O O5 0.500000 0.500000 0.500000
O O6 0.558325 0.649886 0.549637
O O7 0.504945 0.762516 0.370797
O O8 0.793059 0.265064 0.028028
O O9 0.979097 0.262869 0.661269
O O10 0.000000 0.000000 0.500000
O O11 0.920576 0.644422 0.367664
O O12 0.672812 0.939111 0.575726
O O13 0.000000 0.500000 0.000000
O O14 0.000000 0.500000 0.500000
O O15 0.284669 0.990844 0.130178
O O16 0.535333 0.991791 0.201968
#
# Coordination Sequence:
#
# PCOD8031844 Si02
#       7
#     2   2   2   2   2   2   2
#     4  11  23  47  70  96 141 176 220 276 336 405
#     4  12  28  44  67  98 137 178 224 280 337 393
#     4  12  26  44  68  99 135 178 224 276 336 396
#     4  11  25  42  70 103 131 177 227 277 331 394
#     4  12  25  43  71 100 136 176 226 273 333 404
#     4  11  24  45  68 101 134 177 224 274 336 395
#     4  11  22  47  71  95 137 180 221 272 334 404
#
# _framework density 20.590492999999999
#
# number of rings (size 3 to 8) (size 9 to 14) (size 15 to 20)
#    0.000    0.571    4.286    3.857    8.000    2.286 
#    0.000    0.000    0.000    0.000    0.000    0.000 
#    0.000    0.000    0.000    0.000    0.000    0.000 
#
# Total GULP energy -173717.193174 kJ/mol
# GULP energy per Si atom -12408.370941 kJ/mol
# Density = 2.054363 g / cm^3
# Si number density = 20.590493 Si / 1000 Ang^3
#
#
#
# Elastic Constant Matrix: (Units=GPa)
#
#
# Indices 1 2 3 4 5 6 
#
# 1 121.4575 34.8371 52.0823 5.5442 7.8165 -2.9646
# 2 34.8371 119.6783 34.1627 17.0713 -9.9755 -3.7902
# 3 52.0823 34.1627 151.6314 -1.3037 2.4788 2.5278
# 4 5.5442 17.0713 -1.3037 25.5368 -0.4616 -3.7875
# 5 7.8165 -9.9755 2.4788 -0.4616 44.8765 -5.9906
# 6 -2.9646 -3.7902 2.5278 -3.7875 -5.9906 24.2913
#
#
#
# Elastic Compliance Matrix: (Units=1/GPa)
#
#
# Indices 1 2 3 4 5 6 
#
# 1 0.010350 -0.002164 -0.003052 -0.000904 -0.002045 0.000598
# 2 -0.002164 0.010721 -0.001799 -0.006541 0.002967 0.001308
# 3 -0.003052 -0.001799 0.008095 0.002079 -0.000466 -0.001286
# 4 -0.000904 -0.006541 0.002079 0.044656 -0.000209 0.005564
# 5 -0.002045 0.002967 -0.000466 -0.000209 0.024148 0.006184
# 6 0.000598 0.001308 -0.001286 0.005564 0.006184 0.043970
#
#
# Mechanical properties :
#
#
# Convention : Reuss Voigt Hill
#
# Bulk Modulus (GPa) = 66.06226 70.54791 68.30508
# Shear Modulus (GPa) = 31.05285 37.05327 34.05306
#
# Velocity S-wave (km/s) = 3.88766 4.24669 4.07114
# Velocity P-wave (km/s) = 7.23225 7.64085 7.43935
#
# Compressibility (1/GPa) = 0.01513724
#
# Stress axis : x y z
#
# Youngs Moduli (GPa) = 96.61662 93.27579 123.52799
#
# Poissons Ratio (x) = 0.20187 0.37698
# Poissons Ratio (y) = 0.20910 0.22218
# Poissons Ratio (z) = 0.29485 0.16777
#
# Static dielectric constant tensor:
#      x y z
#    x 3.783000 -0.000740 0.082740 
#    y -0.000740 3.718440 -0.238230 
#    z 0.082740 -0.238230 3.492990 
# 
# 
# High freq. dielectric constant tensor:
#      x y z
#    x 1.817620 -0.008610 -0.003100 
#    y -0.008610 1.814460 -0.000020 
#    z -0.003100 -0.000020 1.817750 
# 
# From -- ./inp_files/154500.got.cif
#   From: 2010.06.25/outbox.cif.g09.slc.cpg/sg2_78_cif.got.tgz:154500.got - 2010.06.27 13:26:56.
