data_PCOD8031377
_publ_section_title
;
Structure prediction by ZEFSAII (Michael W. Deem and Ramdas Pophale) SiO2 
 PCOD8031377
Probable space group: P -1
;
_chemical_formula_sum "Si O2"
_cell_formula_units_Z 16
_cell_length_a 11.757464
_cell_length_b 10.298104
_cell_length_c 8.215584
_cell_angle_alpha 102.009563
_cell_angle_beta 126.384035
_cell_angle_gamma 53.400124
_cell_volume 626.390041
_symmetry_space_group_name_H-M "P -1"
_symmetry_group_IT_number 2
_symmetry_cell_setting 'triclinic'
loop_
_space_group_symop_operation_xyz
x,y,z
-x,-y,-z
loop_
_atom_site_type_symbol
_atom_site_label
_atom_site_fract_x
_atom_site_fract_y
_atom_site_fract_z
Si Si1 0.190543 0.534436 0.379900
Si Si2 0.850995 0.011393 0.482280
Si Si3 0.766405 0.258392 0.764930
Si Si4 0.879765 0.575287 0.257920
Si Si5 0.018432 0.228530 0.194775
Si Si6 0.476940 0.219017 0.128791
Si Si7 0.347796 0.170583 0.333420
Si Si8 0.467897 0.514479 0.786226
O O1 0.219726 0.600237 0.257951
O O2 0.295276 0.335804 0.424080
O O3 0.265294 0.582593 0.605580
O O4 0.979778 0.628391 0.245067
O O5 0.780506 0.140428 0.607009
O O6 0.684585 0.061231 0.237565
O O7 0.926869 0.837863 0.589500
O O8 0.000000 0.000000 0.500000
O O9 0.583860 0.345638 0.733530
O O10 0.918470 0.161742 0.006746
O O11 0.000000 0.500000 0.500000
O O12 0.885536 0.428097 0.140209
O O13 0.665794 0.725632 0.126945
O O14 0.181577 0.166970 0.199671
O O15 0.397728 0.176115 0.193881
O O16 0.494454 0.363504 0.226277
O O17 0.500000 0.000000 0.500000
O O18 0.500000 0.500000 0.000000
#
# Coordination Sequence:
#
# PCOD8031377 Si02
#       8
#     2   2   2   2   2   2   2   2
#     4  11  23  42  72 108 144 194 252 317 371 449
#     4  12  29  47  74 113 159 197 250 318 389 455
#     4  12  24  45  76 106 146 199 250 313 378 447
#     4  11  25  45  75 104 146 196 259 311 377 446
#     4  11  25  46  69 110 151 197 253 314 377 455
#     4  12  23  48  77 107 148 198 252 315 377 452
#     4  11  22  43  72 105 151 200 254 306 377 459
#     4  12  25  42  78 115 145 186 259 317 375 445
#
# _framework density 25.543188000000001
#
# number of rings (size 3 to 8) (size 9 to 14) (size 15 to 20)
#    0.000    0.500    5.000    3.000    3.500    2.000 
#    0.000    1.875    0.000    0.000    0.000    0.000 
#    0.000    0.000    0.000    0.000    0.000    0.000 
#
# Total GULP energy -198210.167295 kJ/mol
# GULP energy per Si atom -12388.135456 kJ/mol
# Density = 2.548505 g / cm^3
# Si number density = 25.543188 Si / 1000 Ang^3
#
#
#
# Elastic Constant Matrix: (Units=GPa)
#
#
# Indices 1 2 3 4 5 6 
#
# 1 132.1827 16.9029 32.2865 -18.4668 9.4137 -7.9344
# 2 16.9029 38.5039 12.7838 -6.5272 7.1108 -2.5263
# 3 32.2865 12.7838 157.1109 -29.4732 22.7601 -10.2338
# 4 -18.4668 -6.5272 -29.4732 38.1895 -8.4887 -1.4846
# 5 9.4137 7.1108 22.7601 -8.4887 48.1122 -1.4589
# 6 -7.9344 -2.5263 -10.2338 -1.4846 -1.4589 35.7135
#
#
#
# Elastic Compliance Matrix: (Units=1/GPa)
#
#
# Indices 1 2 3 4 5 6 
#
# 1 0.008678 -0.002855 -0.000829 0.003066 -0.000294 0.001604
# 2 -0.002855 0.028478 -0.000822 0.002267 -0.002827 0.001123
# 3 -0.000829 -0.000822 0.008095 0.005223 -0.002558 0.002190
# 4 0.003066 0.002267 0.005223 0.032788 0.002495 0.003803
# 5 -0.000294 -0.002827 -0.002558 0.002495 0.022912 0.000041
# 6 0.001604 0.001123 0.002190 0.003803 0.000041 0.029224
#
#
# Mechanical properties :
#
#
# Convention : Reuss Voigt Hill
#
# Bulk Modulus (GPa) = 27.59491 50.19377 38.89434
# Shear Modulus (GPa) = 33.05398 42.12466 37.58932
#
# Velocity S-wave (km/s) = 3.60118 4.06538 3.84030
# Velocity P-wave (km/s) = 5.30265 6.45985 5.90964
#
# Compressibility (1/GPa) = 0.03623856
#
# Stress axis : x y z
#
# Youngs Moduli (GPa) = 115.22855 35.11483 123.53090
#
# Poissons Ratio (x) = 0.10026 0.10239
# Poissons Ratio (y) = 0.32901 0.10159
# Poissons Ratio (z) = 0.09551 0.02888
#
# Static dielectric constant tensor:
#      x y z
#    x 4.759440 0.074380 0.290230 
#    y 0.074380 4.642100 -0.468870 
#    z 0.290230 -0.468870 4.768400 
# 
# 
# High freq. dielectric constant tensor:
#      x y z
#    x 2.034070 0.008200 0.015670 
#    y 0.008200 1.998130 -0.022440 
#    z 0.015670 -0.022440 2.028090 
# 
# From -- ./inp_files/259118.got.cif
#   From: 2010.06.25/outbox.cif.g09.slc.cpg/sg2_130_cif.got.tgz:259118.got - 2010.06.27 13:26:56.
