data_PCOD8031040
_publ_section_title
;
Structure prediction by ZEFSAII (Michael W. Deem and Ramdas Pophale) SiO2 
 PCOD8031040
Probable space group: P -1
;
_chemical_formula_sum "Si O2"
_cell_formula_units_Z 16
_cell_length_a 11.100681
_cell_length_b 16.884028
_cell_length_c 19.455700
_cell_angle_alpha 22.118863
_cell_angle_beta 137.020058
_cell_angle_gamma 146.298530
_cell_volume 748.357142
_symmetry_space_group_name_H-M "P -1"
_symmetry_group_IT_number 2
_symmetry_cell_setting 'triclinic'
loop_
_space_group_symop_operation_xyz
x,y,z
-x,-y,-z
loop_
_atom_site_type_symbol
_atom_site_label
_atom_site_fract_x
_atom_site_fract_y
_atom_site_fract_z
Si Si1 0.259823 0.920377 0.452987
Si Si2 0.555223 0.371563 0.721804
Si Si3 0.018605 0.555431 0.183247
Si Si4 0.868868 0.209969 0.649802
Si Si5 0.832973 0.671780 0.888898
Si Si6 0.807359 0.937152 0.071316
Si Si7 0.321849 0.088140 0.715841
Si Si8 0.468958 0.131973 0.107976
O O1 0.163733 0.780024 0.452668
O O2 0.103132 0.723796 0.605832
O O3 0.500000 0.000000 0.500000
O O4 0.268909 0.178356 0.252439
O O5 0.770702 0.386822 0.815680
O O6 0.409113 0.281773 0.800504
O O7 0.412788 0.154665 0.777816
O O8 0.628140 0.655688 0.504124
O O9 0.859669 0.553403 0.063990
O O10 0.095000 0.769787 0.101408
O O11 0.000000 0.500000 0.500000
O O12 0.004076 0.097419 0.811889
O O13 0.629779 0.022526 0.737161
O O14 0.664250 0.436217 0.957310
O O15 0.060781 0.862287 0.789905
O O16 0.730643 0.895687 0.993599
O O17 0.441841 0.996023 0.796683
#
# Coordination Sequence:
#
# PCOD8031040 Si02
#       8
#     2   2   2   2   2   2   2   2
#     4  12  28  47  73 102 140 187 232 283 348 418
#     4  11  22  41  77 104 135 176 240 290 339 406
#     4  12  23  45  76 103 132 182 239 284 341 408
#     4  12  27  47  69 104 142 183 237 288 341 410
#     4  12  26  48  70 104 142 183 231 285 350 421
#     4  12  24  44  72 104 137 182 236 287 342 409
#     4  11  22  44  70 105 139 181 227 291 349 406
#     4  12  27  43  69 101 148 185 223 289 352 409
#
# _framework density 21.380165999999999
#
# number of rings (size 3 to 8) (size 9 to 14) (size 15 to 20)
#    0.000    0.250    5.000    4.125    5.250    1.000 
#    2.250    1.250    0.000    0.000    0.000    0.000 
#    0.000    0.000    0.000    0.000    0.000    0.000 
#
# Total GULP energy -198530.643077 kJ/mol
# GULP energy per Si atom -12408.165192 kJ/mol
# Density = 2.133150 g / cm^3
# Si number density = 21.380166 Si / 1000 Ang^3
#
#
#
# Elastic Constant Matrix: (Units=GPa)
#
#
# Indices 1 2 3 4 5 6 
#
# 1 83.5237 20.8392 36.2703 -2.8500 1.4417 6.6714
# 2 20.8392 116.0564 38.4174 0.0165 16.9419 -0.6000
# 3 36.2703 38.4174 87.9997 -2.7221 6.6708 -4.4151
# 4 -2.8500 0.0165 -2.7221 42.0298 2.9381 0.4782
# 5 1.4417 16.9419 6.6708 2.9381 32.5929 -0.4189
# 6 6.6714 -0.6000 -4.4151 0.4782 -0.4189 33.9779
#
#
#
# Elastic Compliance Matrix: (Units=1/GPa)
#
#
# Indices 1 2 3 4 5 6 
#
# 1 0.015146 -0.000850 -0.006112 0.000610 0.000919 -0.003780
# 2 -0.000850 0.010789 -0.004010 0.000013 -0.004754 -0.000222
# 3 -0.006112 -0.004010 0.015882 0.000643 -0.000913 0.003173
# 4 0.000610 0.000013 0.000643 0.024044 -0.002338 -0.000403
# 5 0.000919 -0.004754 -0.000913 -0.002338 0.033510 0.000063
# 6 -0.003780 -0.000222 0.003173 -0.000403 0.000063 0.030588
#
#
# Mechanical properties :
#
#
# Convention : Reuss Voigt Hill
#
# Bulk Modulus (GPa) = 50.32104 53.18151 51.75128
# Shear Modulus (GPa) = 31.54022 34.52364 33.03193
#
# Velocity S-wave (km/s) = 3.84501 4.02276 3.93489
# Velocity P-wave (km/s) = 6.58024 6.81946 6.70092
#
# Compressibility (1/GPa) = 0.01987240
#
# Stress axis : x y z
#
# Youngs Moduli (GPa) = 66.02518 92.68272 62.96546
#
# Poissons Ratio (x) = 0.07881 0.38483
# Poissons Ratio (y) = 0.05614 0.25250
# Poissons Ratio (z) = 0.40353 0.37168
#
# Static dielectric constant tensor:
#      x y z
#    x 4.150540 0.099960 0.101270 
#    y 0.099960 3.925580 0.098520 
#    z 0.101270 0.098520 4.242360 
# 
# 
# High freq. dielectric constant tensor:
#      x y z
#    x 1.846970 0.009360 -0.000650 
#    y 0.009360 1.841410 0.001670 
#    z -0.000650 0.001670 1.858160 
# 
# From -- ./inp_files/272852.got.cif
#   From: 2010.06.25/outbox.cif.g09.slc.cpg/sg2_137_cif.got.tgz:272852.got - 2010.06.27 13:26:56.
