data_PCOD8031500
_publ_section_title
;
Structure prediction by ZEFSAII (Michael W. Deem and Ramdas Pophale) SiO2 
 PCOD8031500
Probable space group: P -1
;
_chemical_formula_sum "Si O2"
_cell_formula_units_Z 14
_cell_length_a 9.661310
_cell_length_b 14.717785
_cell_length_c 9.185619
_cell_angle_alpha 118.557692
_cell_angle_beta 133.719825
_cell_angle_gamma 94.628972
_cell_volume 631.781966
_symmetry_space_group_name_H-M "P -1"
_symmetry_group_IT_number 2
_symmetry_cell_setting 'triclinic'
loop_
_space_group_symop_operation_xyz
x,y,z
-x,-y,-z
loop_
_atom_site_type_symbol
_atom_site_label
_atom_site_fract_x
_atom_site_fract_y
_atom_site_fract_z
Si Si1 0.565481 0.073521 0.948233
Si Si2 0.265673 0.648628 0.817547
Si Si3 0.088655 0.839616 0.250021
Si Si4 0.823947 0.034746 0.881895
Si Si5 0.723824 0.454224 0.740819
Si Si6 0.575901 0.627946 0.828895
Si Si7 0.649124 0.253924 0.721260
O O1 0.309431 0.980826 0.597197
O O2 0.784652 0.080321 0.040696
O O3 0.679843 0.230638 0.153332
O O4 0.500000 0.000000 0.000000
O O5 0.472922 0.635832 0.912252
O O6 0.000000 0.500000 0.500000
O O7 0.279315 0.680539 0.019632
O O8 0.122689 0.725558 0.184428
O O9 0.060468 0.850886 0.066919
O O10 0.826584 0.779935 0.087611
O O11 0.555750 0.905752 0.526667
O O12 0.000000 0.000000 0.000000
O O13 0.664473 0.540946 0.844942
O O14 0.644587 0.434106 0.499080
O O15 0.546646 0.310314 0.587917
O O16 0.000000 0.500000 0.000000
#
# Coordination Sequence:
#
# PCOD8031500 Si02
#       7
#     2   2   2   2   2   2   2
#     4  11  26  45  71 105 146 188 235 309 365 413
#     4  12  27  45  69 104 148 186 234 300 364 430
#     4  11  22  46  72  99 139 189 246 289 357 436
#     4  11  23  42  71 102 136 189 239 291 358 437
#     4  11  23  44  69 102 142 184 239 292 351 438
#     4  11  27  42  74 107 137 191 241 292 363 433
#     4  11  22  44  69  96 141 187 229 293 360 418
#
# _framework density 22.159545000000001
#
# number of rings (size 3 to 8) (size 9 to 14) (size 15 to 20)
#    0.000    0.857    4.286    2.571    8.000    4.571 
#    0.000    0.000    0.000    0.000    0.000    0.000 
#    0.000    0.000    0.000    0.000    0.000    0.000 
#
# Total GULP energy -173491.988214 kJ/mol
# GULP energy per Si atom -12392.284872 kJ/mol
# Density = 2.210911 g / cm^3
# Si number density = 22.159545 Si / 1000 Ang^3
#
#
#
# Elastic Constant Matrix: (Units=GPa)
#
#
# Indices 1 2 3 4 5 6 
#
# 1 149.8058 43.0641 48.0178 13.2705 13.5421 -9.4411
# 2 43.0641 143.0407 32.8682 5.9530 1.5913 -4.4549
# 3 48.0178 32.8682 76.8869 6.5624 1.9622 -11.8472
# 4 13.2705 5.9530 6.5624 33.1634 -3.9386 -1.5981
# 5 13.5421 1.5913 1.9622 -3.9386 34.4629 -3.7082
# 6 -9.4411 -4.4549 -11.8472 -1.5981 -3.7082 39.5609
#
#
#
# Elastic Compliance Matrix: (Units=1/GPa)
#
#
# Indices 1 2 3 4 5 6 
#
# 1 0.009227 -0.001521 -0.004749 -0.002899 -0.003600 0.000154
# 2 -0.001521 0.008025 -0.002491 -0.000311 0.000313 -0.000189
# 3 -0.004749 -0.002491 0.017684 -0.000805 0.001310 0.003972
# 4 -0.002899 -0.000311 -0.000805 0.032156 0.004960 0.000796
# 5 -0.003600 0.000313 0.001310 0.004960 0.031199 0.002693
# 6 0.000154 -0.000189 0.003972 0.000796 0.002693 0.026767
#
#
# Mechanical properties :
#
#
# Convention : Reuss Voigt Hill
#
# Bulk Modulus (GPa) = 57.42675 68.62598 63.02636
# Shear Modulus (GPa) = 33.69603 37.82300 35.75952
#
# Velocity S-wave (km/s) = 3.90373 4.13589 4.02148
# Velocity P-wave (km/s) = 6.80369 7.33782 7.07580
#
# Compressibility (1/GPa) = 0.01741349
#
# Stress axis : x y z
#
# Youngs Moduli (GPa) = 108.38042 124.61138 56.54738
#
# Poissons Ratio (x) = 0.18954 0.26855
# Poissons Ratio (y) = 0.16485 0.14087
# Poissons Ratio (z) = 0.51470 0.31042
#
# Static dielectric constant tensor:
#      x y z
#    x 4.869840 0.259160 0.594870 
#    y 0.259160 4.703880 0.359840 
#    z 0.594870 0.359840 4.454760 
# 
# 
# High freq. dielectric constant tensor:
#      x y z
#    x 1.884220 0.000080 0.009360 
#    y 0.000080 1.889050 0.015410 
#    z 0.009360 0.015410 1.858070 
# 
# From -- ./inp_files/203886.got.cif
#   From: 2010.06.25/outbox.cif.g09.slc.cpg/sg2_102_cif.got.tgz:203886.got - 2010.06.27 13:26:56.
