data_PCOD8031176
_publ_section_title
;
Structure prediction by ZEFSAII (Michael W. Deem and Ramdas Pophale) SiO2 
 PCOD8031176
Probable space group: P -1
;
_chemical_formula_sum "Si O2"
_cell_formula_units_Z 14
_cell_length_a 24.947663
_cell_length_b 13.818248
_cell_length_c 17.169763
_cell_angle_alpha 24.303192
_cell_angle_beta 16.313742
_cell_angle_gamma 22.090429
_cell_volume 611.431857
_symmetry_space_group_name_H-M "P -1"
_symmetry_group_IT_number 2
_symmetry_cell_setting 'triclinic'
loop_
_space_group_symop_operation_xyz
x,y,z
-x,-y,-z
loop_
_atom_site_type_symbol
_atom_site_label
_atom_site_fract_x
_atom_site_fract_y
_atom_site_fract_z
Si Si1 0.511162 0.939188 0.301167
Si Si2 0.417129 0.571441 0.148919
Si Si3 0.283176 0.563914 0.712895
Si Si4 0.341454 0.894950 0.265042
Si Si5 0.606281 0.357221 0.199818
Si Si6 0.044650 0.316912 0.646250
Si Si7 0.001410 0.560810 0.695693
O O1 0.678522 0.690006 0.204301
O O2 0.482356 0.843425 0.498215
O O3 0.276249 0.070161 0.492195
O O4 0.622710 0.129620 0.005373
O O5 0.585569 0.382104 0.116988
O O6 0.205436 0.532698 0.480421
O O7 0.500000 0.500000 0.000000
O O8 0.500000 0.500000 0.500000
O O9 0.224065 0.816370 0.555417
O O10 0.092963 0.619425 0.998364
O O11 0.471919 0.648928 0.207909
O O12 0.161695 0.132055 0.294685
O O13 0.500000 0.000000 0.000000
O O14 0.852022 0.234547 0.976739
O O15 0.000000 0.500000 0.500000
O O16 0.053357 0.468540 0.601519
#
# Coordination Sequence:
#
# PCOD8031176 Si02
#       7
#     2   2   2   2   2   2   2
#     4  11  25  45  69 101 142 177 234 289 342 411
#     4  12  26  48  66 101 144 190 230 279 348 418
#     4  11  24  42  71 106 139 173 229 295 347 404
#     4  11  22  42  71 103 135 175 227 289 348 406
#     4  11  24  44  72  99 139 181 233 290 347 405
#     4  12  23  44  71 102 134 186 233 290 346 403
#     4  12  25  44  71 103 138 183 234 284 348 412
#
# _framework density 22.897072000000001
#
# number of rings (size 3 to 8) (size 9 to 14) (size 15 to 20)
#    0.000    0.571    5.714    2.143    2.000    4.000 
#    2.571    2.857    0.000    0.000    0.000    0.000 
#    0.000    0.000    0.000    0.000    0.000    0.000 
#
# Total GULP energy -173607.110024 kJ/mol
# GULP energy per Si atom -12400.507859 kJ/mol
# Density = 2.284496 g / cm^3
# Si number density = 22.897072 Si / 1000 Ang^3
#
#
#
# Elastic Constant Matrix: (Units=GPa)
#
#
# Indices 1 2 3 4 5 6 
#
# 1 116.9521 10.2159 43.0898 -10.7894 5.8016 -9.6828
# 2 10.2159 42.2384 8.6211 -2.6826 1.4234 -14.6156
# 3 43.0898 8.6211 139.4945 -11.7255 -2.8296 -3.4464
# 4 -10.7894 -2.6826 -11.7255 35.0743 -8.1567 1.0429
# 5 5.8016 1.4234 -2.8296 -8.1567 49.0335 0.7972
# 6 -9.6828 -14.6156 -3.4464 1.0429 0.7972 22.3128
#
#
#
# Elastic Compliance Matrix: (Units=1/GPa)
#
#
# Indices 1 2 3 4 5 6 
#
# 1 0.010178 -0.000467 -0.002901 0.001756 -0.001125 0.003621
# 2 -0.000467 0.031031 -0.001221 0.000979 -0.001077 0.019928
# 3 -0.002901 -0.001221 0.008320 0.002108 0.001224 -0.000916
# 4 0.001756 0.000979 0.002108 0.031000 0.005041 0.000100
# 5 -0.001125 -0.001077 0.001224 0.005041 0.021500 -0.002008
# 6 0.003621 0.019928 -0.000916 0.000100 -0.002008 0.059368
#
#
# Mechanical properties :
#
#
# Convention : Reuss Voigt Hill
#
# Bulk Modulus (GPa) = 24.78241 46.94872 35.86557
# Shear Modulus (GPa) = 27.17034 37.06802 32.11918
#
# Velocity S-wave (km/s) = 3.44849 4.02792 3.74941
# Velocity P-wave (km/s) = 5.16749 6.49468 5.86873
#
# Compressibility (1/GPa) = 0.04035119
#
# Stress axis : x y z
#
# Youngs Moduli (GPa) = 98.25469 32.22542 120.19837
#
# Poissons Ratio (x) = 0.01506 0.34866
# Poissons Ratio (y) = 0.04591 0.14673
# Poissons Ratio (z) = 0.28501 0.03934
#
# Static dielectric constant tensor:
#      x y z
#    x 5.307220 1.271880 0.295180 
#    y 1.271880 4.684020 -0.749160 
#    z 0.295180 -0.749160 3.650770 
# 
# 
# High freq. dielectric constant tensor:
#      x y z
#    x 1.903990 -0.001210 0.016270 
#    y -0.001210 1.896080 -0.010820 
#    z 0.016270 -0.010820 1.916330 
# 
# From -- ./inp_files/399887.got.cif
#   From: 2010.06.25/outbox.cif.g09.slc.cpg/sg2_200_cif.got.tgz:399887.got - 2010.06.27 13:26:56.
