data_PCOD8031682
_publ_section_title
;
Structure prediction by ZEFSAII (Michael W. Deem and Ramdas Pophale) SiO2 
 PCOD8031682
Probable space group: P -1
;
_chemical_formula_sum "Si O2"
_cell_formula_units_Z 16
_cell_length_a 9.137736
_cell_length_b 8.776053
_cell_length_c 14.541005
_cell_angle_alpha 137.484964
_cell_angle_beta 113.126872
_cell_angle_gamma 77.253815
_cell_volume 720.232738
_symmetry_space_group_name_H-M "P -1"
_symmetry_group_IT_number 2
_symmetry_cell_setting 'triclinic'
loop_
_space_group_symop_operation_xyz
x,y,z
-x,-y,-z
loop_
_atom_site_type_symbol
_atom_site_label
_atom_site_fract_x
_atom_site_fract_y
_atom_site_fract_z
Si Si1 0.462470 0.481714 0.629078
Si Si2 0.242869 0.532503 0.188329
Si Si3 0.930306 0.534248 0.209540
Si Si4 0.841359 0.193584 0.879047
Si Si5 0.628641 0.719366 0.143697
Si Si6 0.824999 0.907292 0.109842
Si Si7 0.549976 0.865033 0.688449
Si Si8 0.875501 0.435147 0.357842
O O1 0.578962 0.406977 0.703676
O O2 0.507875 0.740927 0.720450
O O3 0.492728 0.315089 0.480810
O O4 0.282422 0.443694 0.606218
O O5 0.240801 0.628026 0.125728
O O6 0.105649 0.637983 0.261760
O O7 0.208040 0.256184 0.060085
O O8 0.785008 0.686769 0.228345
O O9 0.955084 0.511491 0.314700
O O10 0.879081 0.303874 0.037459
O O11 0.995609 0.133576 0.833018
O O12 0.736884 0.956758 0.769090
O O13 0.686239 0.811911 0.100940
O O14 0.545596 0.920540 0.259422
O O15 0.500000 0.500000 0.000000
O O16 0.817282 0.170993 0.211324
O O17 0.000000 0.500000 0.500000
#
# Coordination Sequence:
#
# PCOD8031682 Si02
#       8
#     2   2   2   2   2   2   2   2
#     4  11  28  46  67 101 144 190 230 284 350 416
#     4  11  24  43  72 106 143 175 233 287 352 413
#     4  11  25  43  73 102 136 181 226 289 351 407
#     4  11  22  45  71 105 140 178 231 291 346 413
#     4  12  22  44  74 107 138 179 235 289 346 410
#     4  11  23  43  71 100 144 178 228 295 340 410
#     4  11  25  45  71  96 147 185 236 283 349 407
#     4  12  29  48  68 100 143 185 240 285 344 419
#
# _framework density 22.215040999999999
#
# number of rings (size 3 to 8) (size 9 to 14) (size 15 to 20)
#    0.000    0.750    5.000    1.500   10.500    2.000 
#    2.250    1.250    0.000    0.000    0.000    0.000 
#    0.000    0.000    0.000    0.000    0.000    0.000 
#
# Total GULP energy -198287.355844 kJ/mol
# GULP energy per Si atom -12392.959740 kJ/mol
# Density = 2.216448 g / cm^3
# Si number density = 22.215041 Si / 1000 Ang^3
#
#
#
# Elastic Constant Matrix: (Units=GPa)
#
#
# Indices 1 2 3 4 5 6 
#
# 1 136.5289 33.4753 34.6201 -9.6675 6.6264 -6.7874
# 2 33.4753 65.8506 34.2532 -14.9573 -7.6514 -1.8538
# 3 34.6201 34.2532 69.1489 -7.1007 -2.4734 -4.9396
# 4 -9.6675 -14.9573 -7.1007 45.1911 -5.4125 0.3443
# 5 6.6264 -7.6514 -2.4734 -5.4125 35.2724 -2.0317
# 6 -6.7874 -1.8538 -4.9396 0.3443 -2.0317 41.5689
#
#
#
# Elastic Compliance Matrix: (Units=1/GPa)
#
#
# Indices 1 2 3 4 5 6 
#
# 1 0.009053 -0.003360 -0.002894 0.000055 -0.002575 0.000858
# 2 -0.003360 0.023904 -0.009299 0.006470 0.006137 -0.000341
# 3 -0.002894 -0.009299 0.020579 -0.000477 -0.000014 0.001561
# 4 0.000055 0.006470 -0.000477 0.024825 0.005186 0.000289
# 5 -0.002575 0.006137 -0.000014 0.005186 0.031037 0.001326
# 6 0.000858 -0.000341 0.001561 0.000289 0.001326 0.024429
#
#
# Mechanical properties :
#
#
# Convention : Reuss Voigt Hill
#
# Bulk Modulus (GPa) = 44.58121 52.91395 48.74758
# Shear Modulus (GPa) = 29.00060 35.68515 32.34288
#
# Velocity S-wave (km/s) = 3.61702 4.01228 3.81977
# Velocity P-wave (km/s) = 6.12824 6.73314 6.43780
#
# Compressibility (1/GPa) = 0.02243097
#
# Stress axis : x y z
#
# Youngs Moduli (GPa) = 110.45469 41.83393 48.59361
#
# Poissons Ratio (x) = 0.14055 0.14061
# Poissons Ratio (y) = 0.37109 0.45189
# Poissons Ratio (z) = 0.31961 0.38903
#
# Static dielectric constant tensor:
#      x y z
#    x 4.335420 -0.050990 -0.032590 
#    y -0.050990 4.056590 0.199900 
#    z -0.032590 0.199900 3.852780 
# 
# 
# High freq. dielectric constant tensor:
#      x y z
#    x 1.901580 -0.003090 -0.004830 
#    y -0.003090 1.858540 0.005620 
#    z -0.004830 0.005620 1.860690 
# 
# From -- ./inp_files/283514.got.cif
#   From: 2010.06.25/outbox.cif.g09.slc.cpg/sg2_142_cif.got.tgz:283514.got - 2010.06.27 13:26:56.
