data_PCOD8031611
_publ_section_title
;
Structure prediction by ZEFSAII (Michael W. Deem and Ramdas Pophale) SiO2 
 PCOD8031611
Probable space group: P -1
;
_chemical_formula_sum "Si O2"
_cell_formula_units_Z 16
_cell_length_a 6.612406
_cell_length_b 9.569727
_cell_length_c 17.347633
_cell_angle_alpha 63.256872
_cell_angle_beta 122.580935
_cell_angle_gamma 132.094061
_cell_volume 679.393514
_symmetry_space_group_name_H-M "P -1"
_symmetry_group_IT_number 2
_symmetry_cell_setting 'triclinic'
loop_
_space_group_symop_operation_xyz
x,y,z
-x,-y,-z
loop_
_atom_site_type_symbol
_atom_site_label
_atom_site_fract_x
_atom_site_fract_y
_atom_site_fract_z
Si Si1 0.572776 0.992465 0.697270
Si Si2 0.419071 0.871079 0.089978
Si Si3 0.256071 0.172364 0.345315
Si Si4 0.802741 0.211907 0.192097
Si Si5 0.211865 0.299260 0.782310
Si Si6 0.210617 0.139255 0.574782
Si Si7 0.790359 0.558261 0.088248
Si Si8 0.748098 0.527996 0.421649
O O1 0.513696 0.155386 0.627672
O O2 0.897866 0.096139 0.772251
O O3 0.539425 0.878119 0.641416
O O4 0.315036 0.820826 0.736813
O O5 0.537080 0.737357 0.146079
O O6 0.070580 0.747592 0.061740
O O7 0.563571 0.012720 0.154869
O O8 0.500000 0.000000 0.000000
O O9 0.442711 0.317885 0.417657
O O10 0.133438 0.265882 0.241769
O O11 0.960316 0.972833 0.355564
O O12 0.823827 0.389284 0.115934
O O13 0.232791 0.423290 0.829018
O O14 0.236852 0.401701 0.680698
O O15 0.265373 0.344540 0.546057
O O16 0.000000 0.000000 0.500000
O O17 0.500000 0.500000 0.000000
O O18 0.000000 0.500000 0.500000
#
# Coordination Sequence:
#
# PCOD8031611 Si02
#       8
#     2   2   2   2   2   2   2   2
#     4  11  22  44  75  98 137 197 243 299 376 428
#     4  12  27  47  75 108 150 194 247 311 380 449
#     4  11  24  45  71  99 140 188 244 302 368 431
#     4  11  24  44  72 103 139 191 245 300 372 444
#     4  12  25  48  76 103 152 196 244 310 371 440
#     4  11  26  44  67 103 144 186 243 307 362 437
#     4  12  29  46  74 112 151 193 251 308 377 457
#     4  12  27  46  74 110 147 198 249 305 371 440
#
# _framework density 23.550415999999998
#
# number of rings (size 3 to 8) (size 9 to 14) (size 15 to 20)
#    0.000    0.500    3.750    3.750    5.250    6.500 
#    0.000    0.000    0.000    0.000    0.000    0.000 
#    0.000    0.000    0.000    0.000    0.000    0.000 
#
# Total GULP energy -198338.973054 kJ/mol
# GULP energy per Si atom -12396.185816 kJ/mol
# Density = 2.349681 g / cm^3
# Si number density = 23.550416 Si / 1000 Ang^3
#
#
#
# Elastic Constant Matrix: (Units=GPa)
#
#
# Indices 1 2 3 4 5 6 
#
# 1 120.9688 48.0116 39.0689 7.4665 21.8280 -21.0934
# 2 48.0116 122.3869 22.4142 19.3498 27.9182 -15.2582
# 3 39.0689 22.4142 100.9118 3.8452 26.9098 -8.6271
# 4 7.4665 19.3498 3.8452 42.5368 0.0217 8.0654
# 5 21.8280 27.9182 26.9098 0.0217 39.8861 -3.9070
# 6 -21.0934 -15.2582 -8.6271 8.0654 -3.9070 40.5772
#
#
#
# Elastic Compliance Matrix: (Units=1/GPa)
#
#
# Indices 1 2 3 4 5 6 
#
# 1 0.011505 -0.002776 -0.002884 -0.001329 -0.001976 0.004398
# 2 -0.002776 0.012129 0.000834 -0.005815 -0.007161 0.003761
# 3 -0.002884 0.000834 0.013033 -0.001255 -0.007690 0.001094
# 4 -0.001329 -0.005815 -0.001255 0.028064 0.004820 -0.008258
# 5 -0.001976 -0.007161 -0.007690 0.004820 0.036073 -0.002840
# 6 0.004398 0.003761 0.001094 -0.008258 -0.002840 0.029945
#
#
# Mechanical properties :
#
#
# Convention : Reuss Voigt Hill
#
# Bulk Modulus (GPa) = 37.01817 62.58413 49.80115
# Shear Modulus (GPa) = 33.46531 40.25154 36.85842
#
# Velocity S-wave (km/s) = 3.77371 4.13869 3.96041
# Velocity P-wave (km/s) = 5.89412 7.03353 6.48889
#
# Compressibility (1/GPa) = 0.02701376
#
# Stress axis : x y z
#
# Youngs Moduli (GPa) = 86.91640 82.44630 76.72694
#
# Poissons Ratio (x) = 0.22889 0.22130
# Poissons Ratio (y) = 0.24130 -0.06395
# Poissons Ratio (z) = 0.25069 -0.06872
#
# Static dielectric constant tensor:
#      x y z
#    x 7.099200 -2.181230 -1.296810 
#    y -2.181230 6.155660 1.054920 
#    z -1.296810 1.054920 4.929830 
# 
# 
# High freq. dielectric constant tensor:
#      x y z
#    x 1.944480 -0.005670 0.008120 
#    y -0.005670 1.943490 0.006310 
#    z 0.008120 0.006310 1.928800 
# 
# From -- ./inp_files/547995.got.cif
#   From: 2010.06.25/outbox.cif.g09.slc.cpg/sg2_274_cif.got.tgz:547995.got - 2010.06.27 13:26:56.
