data_PCOD8031512
_publ_section_title
;
Structure prediction by ZEFSAII (Michael W. Deem and Ramdas Pophale) SiO2 
 PCOD8031512
Probable space group: P -1
;
_chemical_formula_sum "Si O2"
_cell_formula_units_Z 16
_cell_length_a 12.099040
_cell_length_b 11.181931
_cell_length_c 14.971441
_cell_angle_alpha 122.426948
_cell_angle_beta 149.027590
_cell_angle_gamma 79.509156
_cell_volume 676.581313
_symmetry_space_group_name_H-M "P -1"
_symmetry_group_IT_number 2
_symmetry_cell_setting 'triclinic'
loop_
_space_group_symop_operation_xyz
x,y,z
-x,-y,-z
loop_
_atom_site_type_symbol
_atom_site_label
_atom_site_fract_x
_atom_site_fract_y
_atom_site_fract_z
Si Si1 0.199294 0.328993 0.843254
Si Si2 0.500653 0.617014 0.754895
Si Si3 0.618613 0.149077 0.457187
Si Si4 0.094336 0.648779 0.701177
Si Si5 0.692110 0.911364 0.511572
Si Si6 0.421354 0.279110 0.817853
Si Si7 0.319828 0.600124 0.266231
Si Si8 0.752159 0.989617 0.012809
O O1 0.176472 0.229879 0.695421
O O2 0.900707 0.265864 0.639393
O O3 0.330061 0.292632 0.999323
O O4 0.441354 0.545197 0.079251
O O5 0.639580 0.552368 0.765001
O O6 0.179393 0.435559 0.464393
O O7 0.503618 0.777886 0.782925
O O8 0.563744 0.281764 0.514282
O O9 0.635769 0.056011 0.520932
O O10 0.346645 0.995588 0.147308
O O11 0.000000 0.500000 0.500000
O O12 0.197859 0.851437 0.824623
O O13 0.334860 0.683326 0.939432
O O14 0.724604 0.890534 0.419162
O O15 0.447512 0.721193 0.312849
O O16 0.974079 0.994368 0.793735
O O17 0.000000 0.500000 0.000000
#
# Coordination Sequence:
#
# PCOD8031512 Si02
#       8
#     2   2   2   2   2   2   2   2
#     4  11  22  44  70 107 142 190 243 299 368 441
#     4  12  24  46  71 107 151 187 247 304 368 436
#     4  12  26  47  73 110 147 196 253 297 372 435
#     4  12  25  46  70 107 147 193 243 301 367 440
#     4  12  24  48  72 106 151 190 245 307 363 436
#     4  11  23  43  76 100 147 196 238 302 376 433
#     4  12  24  46  79 106 145 199 244 307 369 432
#     4  12  27  48  71 108 150 191 246 308 360 445
#
# _framework density 23.648301
#
# number of rings (size 3 to 8) (size 9 to 14) (size 15 to 20)
#    0.000    0.250    7.500    1.125    1.750    2.000 
#    2.250    0.000    0.000    0.000    0.000    0.000 
#    0.000    0.000    0.000    0.000    0.000    0.000 
#
# Total GULP energy -198301.487645 kJ/mol
# GULP energy per Si atom -12393.842978 kJ/mol
# Density = 2.359448 g / cm^3
# Si number density = 23.648301 Si / 1000 Ang^3
#
#
#
# Elastic Constant Matrix: (Units=GPa)
#
#
# Indices 1 2 3 4 5 6 
#
# 1 117.3786 36.3192 37.8055 10.3369 -1.5570 -12.4538
# 2 36.3192 119.9054 33.6519 5.3778 -6.5144 -17.0118
# 3 37.8055 33.6519 96.6399 -10.3802 -9.3039 -3.6939
# 4 10.3369 5.3778 -10.3802 40.0526 -6.4315 -10.4866
# 5 -1.5570 -6.5144 -9.3039 -6.4315 31.6867 4.2892
# 6 -12.4538 -17.0118 -3.6939 -10.4866 4.2892 30.3359
#
#
#
# Elastic Compliance Matrix: (Units=1/GPa)
#
#
# Indices 1 2 3 4 5 6 
#
# 1 0.010898 -0.001810 -0.004116 -0.003421 -0.002018 0.002061
# 2 -0.001810 0.010334 -0.002701 -0.000346 0.000560 0.004525
# 3 -0.004116 -0.002701 0.013942 0.005720 0.004520 -0.000169
# 4 -0.003421 -0.000346 0.005720 0.030725 0.006485 0.008802
# 5 -0.002018 0.000560 0.004520 0.006485 0.034572 -0.002611
# 6 0.002061 0.004525 -0.000169 0.008802 -0.002611 0.039739
#
#
# Mechanical properties :
#
#
# Convention : Reuss Voigt Hill
#
# Bulk Modulus (GPa) = 55.80298 61.05300 58.42799
# Shear Modulus (GPa) = 30.59302 35.49152 33.04227
#
# Velocity S-wave (km/s) = 3.60066 3.87823 3.74202
# Velocity P-wave (km/s) = 6.39802 6.77697 6.59022
#
# Compressibility (1/GPa) = 0.01792019
#
# Stress axis : x y z
#
# Youngs Moduli (GPa) = 91.75731 96.76868 71.72826
#
# Poissons Ratio (x) = 0.17512 0.29525
# Poissons Ratio (y) = 0.16605 0.19373
# Poissons Ratio (z) = 0.37770 0.26136
#
# Static dielectric constant tensor:
#      x y z
#    x 4.743110 -0.199000 -0.050090 
#    y -0.199000 4.564550 0.100240 
#    z -0.050090 0.100240 4.235030 
# 
# 
# High freq. dielectric constant tensor:
#      x y z
#    x 1.925420 -0.013430 -0.002760 
#    y -0.013430 1.945410 0.004530 
#    z -0.002760 0.004530 1.942180 
# 
# From -- ./inp_files/519888.got.cif
#   From: 2010.06.25/outbox.cif.g09.slc.cpg/sg2_260_cif.got.tgz:519888.got - 2010.06.27 13:26:56.
