data_PCOD8031390
_publ_section_title
;
Structure prediction by ZEFSAII (Michael W. Deem and Ramdas Pophale) SiO2 
 PCOD8031390
Probable space group: P -1
;
_chemical_formula_sum "Si O2"
_cell_formula_units_Z 14
_cell_length_a 8.522724
_cell_length_b 15.601827
_cell_length_c 15.442657
_cell_angle_alpha 150.170053
_cell_angle_beta 49.525935
_cell_angle_gamma 109.132099
_cell_volume 608.412206
_symmetry_space_group_name_H-M "P -1"
_symmetry_group_IT_number 2
_symmetry_cell_setting 'triclinic'
loop_
_space_group_symop_operation_xyz
x,y,z
-x,-y,-z
loop_
_atom_site_type_symbol
_atom_site_label
_atom_site_fract_x
_atom_site_fract_y
_atom_site_fract_z
Si Si1 0.353218 0.572758 0.207902
Si Si2 0.440502 0.970764 0.783154
Si Si3 0.505175 0.291323 0.306738
Si Si4 0.199233 0.957587 0.187669
Si Si5 0.934430 0.600979 0.797982
Si Si6 0.422017 0.227702 0.620256
Si Si7 0.913591 0.777727 0.134873
O O1 0.314751 0.400048 0.107861
O O2 0.525696 0.595271 0.232954
O O3 0.500000 0.500000 0.000000
O O4 0.057395 0.792333 0.497734
O O5 0.392889 0.848732 0.764117
O O6 0.604757 0.803571 0.498330
O O7 0.584363 0.064607 0.850514
O O8 0.158410 0.184663 0.035998
O O9 0.500000 0.500000 0.500000
O O10 0.206244 0.383522 0.470304
O O11 0.699588 0.119338 0.013727
O O12 0.128082 0.804480 0.115078
O O13 0.028474 0.603030 0.863020
O O14 0.153714 0.309207 0.835772
O O15 0.659681 0.006538 0.388433
#
# Coordination Sequence:
#
# PCOD8031390 Si02
#       7
#     2   2   2   2   2   2   2
#     4  11  22  43  73 101 142 188 225 282 358 407
#     4  11  26  44  69 108 138 182 242 284 341 422
#     4  12  26  49  73  97 143 186 232 293 351 407
#     4  11  24  44  69 101 143 185 233 287 344 414
#     4  11  23  45  71 103 139 184 233 284 350 413
#     4   9  20  39  66 100 141 176 232 282 338 413
#     4   9  18  40  67  97 138 184 219 287 347 397
#
# _framework density 23.010715999999999
#
# number of rings (size 3 to 8) (size 9 to 14) (size 15 to 20)
#    0.000    1.429    4.286    0.429    2.000    2.857 
#    0.000    1.429    0.000    0.000    0.000    0.000 
#    0.000    0.000    0.000    0.000    0.000    0.000 
#
# Total GULP energy -173578.763512 kJ/mol
# GULP energy per Si atom -12398.483108 kJ/mol
# Density = 2.295834 g / cm^3
# Si number density = 23.010716 Si / 1000 Ang^3
#
#
#
# Elastic Constant Matrix: (Units=GPa)
#
#
# Indices 1 2 3 4 5 6 
#
# 1 72.2106 43.1799 20.0490 -3.9892 31.2484 3.8369
# 2 43.1799 134.4510 46.2214 -2.7073 -4.1329 2.5943
# 3 20.0490 46.2214 113.6615 -21.4335 6.5163 -13.1001
# 4 -3.9892 -2.7073 -21.4335 34.8049 4.0237 3.5403
# 5 31.2484 -4.1329 6.5163 4.0237 36.4434 3.3058
# 6 3.8369 2.5943 -13.1001 3.5403 3.3058 43.4218
#
#
#
# Elastic Compliance Matrix: (Units=1/GPa)
#
#
# Indices 1 2 3 4 5 6 
#
# 1 0.036515 -0.013547 0.002720 0.008744 -0.034325 0.000304
# 2 -0.013547 0.014037 -0.005405 -0.005316 0.014940 -0.001976
# 3 0.002720 -0.005405 0.012869 0.008181 -0.006493 0.003792
# 4 0.008744 -0.005316 0.008181 0.035911 -0.013538 0.000116
# 5 -0.034325 0.014940 -0.006493 -0.013538 0.061530 -0.003399
# 6 0.000304 -0.001976 0.003792 0.000116 -0.003399 0.024515
#
#
# Mechanical properties :
#
#
# Convention : Reuss Voigt Hill
#
# Bulk Modulus (GPa) = 32.30499 59.91372 46.10935
# Shear Modulus (GPa) = 21.91450 36.99221 29.45335
#
# Velocity S-wave (km/s) = 3.08938 4.01385 3.58157
# Velocity P-wave (km/s) = 5.17642 6.89747 6.09797
#
# Compressibility (1/GPa) = 0.03095497
#
# Stress axis : x y z
#
# Youngs Moduli (GPa) = 27.38636 71.24077 77.70905
#
# Poissons Ratio (x) = 0.96508 -0.21135
# Poissons Ratio (y) = 0.37100 0.42005
# Poissons Ratio (z) = -0.07448 0.38509
#
# Static dielectric constant tensor:
#      x y z
#    x 4.091610 0.394610 0.186550 
#    y 0.394610 4.291740 -0.114820 
#    z 0.186550 -0.114820 4.219190 
# 
# 
# High freq. dielectric constant tensor:
#      x y z
#    x 1.899530 0.017850 0.007040 
#    y 0.017850 1.912860 -0.003180 
#    z 0.007040 -0.003180 1.916020 
# 
# From -- ./inp_files/447006.got.cif
#   From: 2010.06.25/outbox.cif.g09.slc.cpg/sg2_224_cif.got.tgz:447006.got - 2010.06.27 13:26:56.
