data_PCOD8031134
_publ_section_title
;
Structure prediction by ZEFSAII (Michael W. Deem and Ramdas Pophale) SiO2 
 PCOD8031134
Probable space group: P -1
;
_chemical_formula_sum "Si O2"
_cell_formula_units_Z 14
_cell_length_a 16.650506
_cell_length_b 9.814472
_cell_length_c 16.775113
_cell_angle_alpha 116.636696
_cell_angle_beta 153.537040
_cell_angle_gamma 44.761773
_cell_volume 690.118877
_symmetry_space_group_name_H-M "P -1"
_symmetry_group_IT_number 2
_symmetry_cell_setting 'triclinic'
loop_
_space_group_symop_operation_xyz
x,y,z
-x,-y,-z
loop_
_atom_site_type_symbol
_atom_site_label
_atom_site_fract_x
_atom_site_fract_y
_atom_site_fract_z
Si Si1 0.283380 0.779955 0.877597
Si Si2 0.399148 0.715883 0.420473
Si Si3 0.683999 0.770903 0.796460
Si Si4 0.365193 0.507836 0.594216
Si Si5 0.254058 0.919144 0.059160
Si Si6 0.315270 0.885996 0.627844
Si Si7 0.741366 0.964761 0.208896
O O1 0.355614 0.827737 0.875167
O O2 0.500000 0.500000 0.000000
O O3 0.317140 0.864549 0.007015
O O4 0.957874 0.934715 0.626337
O O5 0.500000 0.500000 0.500000
O O6 0.476674 0.817321 0.564256
O O7 0.557281 0.629176 0.454058
O O8 0.063983 0.925079 0.161715
O O9 0.562331 0.826813 0.792574
O O10 0.687805 0.946744 0.825720
O O11 0.000000 0.500000 0.000000
O O12 0.535340 0.330226 0.773039
O O13 0.443203 0.633934 0.686902
O O14 0.030394 0.703625 0.362974
O O15 0.208822 0.018893 0.652073
O O16 0.500000 0.000000 0.000000
#
# Coordination Sequence:
#
# PCOD8031134 Si02
#       7
#     2   2   2   2   2   2   2
#     4  11  22  42  69  93 130 174 215 268 328 387
#     4  12  22  45  68  95 131 175 218 265 332 386
#     4  12  25  40  71  98 130 174 218 269 323 390
#     4  11  24  43  66  93 133 173 215 270 326 389
#     4  12  24  43  66 102 131 169 222 271 325 387
#     4  11  22  43  66  93 129 175 218 262 331 387
#     4  11  24  41  63  97 130 170 219 272 321 387
#
# _framework density 20.286359999999998
#
# number of rings (size 3 to 8) (size 9 to 14) (size 15 to 20)
#    0.000    0.571    4.286    5.571    2.000    1.714 
#    2.571    2.857    0.000    0.000    0.000    0.000 
#    0.000    0.000    0.000    0.000    0.000    0.000 
#
# Total GULP energy -173681.524980 kJ/mol
# GULP energy per Si atom -12405.823213 kJ/mol
# Density = 2.024019 g / cm^3
# Si number density = 20.286360 Si / 1000 Ang^3
#
#
#
# Elastic Constant Matrix: (Units=GPa)
#
#
# Indices 1 2 3 4 5 6 
#
# 1 127.7447 37.0043 58.4387 -2.6996 7.3782 -13.6937
# 2 37.0043 116.9150 66.7939 -2.0448 3.7394 2.1766
# 3 58.4387 66.7939 118.9869 -3.5998 5.1952 21.2172
# 4 -2.6996 -2.0448 -3.5998 42.8520 -0.4980 -11.0940
# 5 7.3782 3.7394 5.1952 -0.4980 42.0763 4.4304
# 6 -13.6937 2.1766 21.2172 -11.0940 4.4304 33.7614
#
#
#
# Elastic Compliance Matrix: (Units=1/GPa)
#
#
# Indices 1 2 3 4 5 6 
#
# 1 0.013224 0.000843 -0.008960 0.003290 -0.002550 0.012356
# 2 0.000843 0.013236 -0.008756 0.001377 -0.000811 0.005550
# 3 -0.008960 -0.008756 0.020657 -0.003758 0.001597 -0.017496
# 4 0.003290 0.001377 -0.003758 0.026510 -0.001236 0.012481
# 5 -0.002550 -0.000811 0.001597 -0.001236 0.024666 -0.005628
# 6 0.012356 0.005550 -0.017496 0.012481 -0.005628 0.050109
#
#
# Mechanical properties :
#
#
# Convention : Reuss Voigt Hill
#
# Bulk Modulus (GPa) = 74.80213 76.45781 75.62997
# Shear Modulus (GPa) = 26.79425 37.16528 31.97977
#
# Velocity S-wave (km/s) = 3.63823 4.28487 3.97472
# Velocity P-wave (km/s) = 7.38932 7.88994 7.64373
#
# Compressibility (1/GPa) = 0.01336860
#
# Stress axis : x y z
#
# Youngs Moduli (GPa) = 75.61735 75.55272 48.40987
#
# Poissons Ratio (x) = -0.06366 0.43378
# Poissons Ratio (y) = -0.06371 0.42390
# Poissons Ratio (z) = 0.67757 0.66157
#
# Static dielectric constant tensor:
#      x y z
#    x 4.511100 -0.591750 0.016900 
#    y -0.591750 3.956770 0.158500 
#    z 0.016900 0.158500 3.839970 
# 
# 
# High freq. dielectric constant tensor:
#      x y z
#    x 1.807870 -0.012980 0.001230 
#    y -0.012980 1.792930 0.000330 
#    z 0.001230 0.000330 1.796920 
# 
# From -- ./inp_files/188980.got.cif
#   From: 2010.06.25/outbox.cif.g09.slc.cpg/sg2_95_cif.got.tgz:188980.got - 2010.06.27 13:26:56.
