data_PCOD8031800
_publ_section_title
;
Structure prediction by ZEFSAII (Michael W. Deem and Ramdas Pophale) SiO2 
 PCOD8031800
Probable space group: P -1
;
_chemical_formula_sum "Si O2"
_cell_formula_units_Z 16
_cell_length_a 14.020638
_cell_length_b 10.870494
_cell_length_c 9.885110
_cell_angle_alpha 87.296651
_cell_angle_beta 76.708732
_cell_angle_gamma 31.023418
_cell_volume 721.173775
_symmetry_space_group_name_H-M "P -1"
_symmetry_group_IT_number 2
_symmetry_cell_setting 'triclinic'
loop_
_space_group_symop_operation_xyz
x,y,z
-x,-y,-z
loop_
_atom_site_type_symbol
_atom_site_label
_atom_site_fract_x
_atom_site_fract_y
_atom_site_fract_z
Si Si1 0.529052 0.429617 0.148437
Si Si2 0.011173 0.652810 0.354672
Si Si3 0.882878 0.166623 0.161700
Si Si4 0.991308 0.696059 0.824780
Si Si5 0.754685 0.848342 0.669778
Si Si6 0.224178 0.083171 0.850789
Si Si7 0.100053 0.822901 0.353323
Si Si8 0.392984 0.130205 0.672334
O O1 0.647538 0.405194 0.195842
O O2 0.316645 0.644410 0.274722
O O3 0.659512 0.163909 0.124517
O O4 0.500000 0.500000 0.000000
O O5 0.832109 0.806719 0.501325
O O6 0.921959 0.785532 0.231909
O O7 0.169206 0.370994 0.304489
O O8 0.118956 0.655654 0.381342
O O9 0.928536 0.255040 0.185494
O O10 0.955763 0.997578 0.264208
O O11 0.000000 0.000000 0.000000
O O12 0.165605 0.422809 0.715719
O O13 0.811452 0.885833 0.764330
O O14 0.914746 0.721994 0.988724
O O15 0.515772 0.095305 0.723326
O O16 0.386270 0.008294 0.760726
O O17 0.000000 0.000000 0.500000
O O18 0.500000 0.000000 0.500000
#
# Coordination Sequence:
#
# PCOD8031800 Si02
#       8
#     2   2   2   2   2   2   2   2
#     4  12  26  47  76 104 140 197 243 294 371 427
#     4  11  22  46  73  98 147 190 228 299 362 424
#     4  12  24  49  73 102 148 193 237 304 363 428
#     4  12  26  44  72 106 144 185 241 301 353 428
#     4  11  24  45  71 104 144 187 236 290 366 430
#     4  12  24  47  74 102 144 187 241 294 360 429
#     4  12  26  45  73 110 141 186 249 299 358 432
#     4  12  25  46  73 107 145 189 236 292 366 430
#
# _framework density 22.186053000000001
#
# number of rings (size 3 to 8) (size 9 to 14) (size 15 to 20)
#    0.000    0.250    6.250    2.625    0.000    5.000 
#    0.000    0.000    0.000    0.000    0.000    0.000 
#    0.000    0.000    0.000    0.000    0.000    0.000 
#
# Total GULP energy -198443.410554 kJ/mol
# GULP energy per Si atom -12402.713160 kJ/mol
# Density = 2.213556 g / cm^3
# Si number density = 22.186053 Si / 1000 Ang^3
#
#
#
# Elastic Constant Matrix: (Units=GPa)
#
#
# Indices 1 2 3 4 5 6 
#
# 1 152.5543 29.8382 39.7793 3.5052 -2.9117 -23.0463
# 2 29.8382 75.1519 47.0678 -7.7901 -4.6747 -15.2898
# 3 39.7793 47.0678 129.0367 8.7863 -1.2920 -2.8160
# 4 3.5052 -7.7901 8.7863 34.7008 -4.5058 -3.3795
# 5 -2.9117 -4.6747 -1.2920 -4.5058 39.4234 -2.3879
# 6 -23.0463 -15.2898 -2.8160 -3.3795 -2.3879 48.8510
#
#
#
# Elastic Compliance Matrix: (Units=1/GPa)
#
#
# Indices 1 2 3 4 5 6 
#
# 1 0.007780 -0.001282 -0.001841 -0.000230 0.000528 0.003173
# 2 -0.001282 0.020822 -0.007560 0.007760 0.003388 0.006179
# 3 -0.001841 -0.007560 0.011326 -0.004851 -0.001396 -0.002986
# 4 -0.000230 0.007760 -0.004851 0.032874 0.004777 0.004548
# 5 0.000528 0.003388 -0.001396 0.004777 0.026479 0.002854
# 6 0.003173 0.006179 -0.002986 0.004548 0.002854 0.024183
#
#
# Mechanical properties :
#
#
# Convention : Reuss Voigt Hill
#
# Bulk Modulus (GPa) = 53.86699 65.56817 59.71758
# Shear Modulus (GPa) = 33.10863 40.59887 36.85375
#
# Velocity S-wave (km/s) = 3.86724 4.28241 4.08011
# Velocity P-wave (km/s) = 6.65381 7.35323 7.01224
#
# Compressibility (1/GPa) = 0.01856425
#
# Stress axis : x y z
#
# Youngs Moduli (GPa) = 128.52683 48.02602 88.29331
#
# Poissons Ratio (x) = 0.06155 0.16254
# Poissons Ratio (y) = 0.16471 0.66746
# Poissons Ratio (z) = 0.23661 0.36306
#
# Static dielectric constant tensor:
#      x y z
#    x -2.834550 1.998940 0.748420 
#    y 1.998940 3.428540 -0.353810 
#    z 0.748420 -0.353810 3.901090 
# 
# 
# High freq. dielectric constant tensor:
#      x y z
#    x 1.897810 -0.006450 -0.005220 
#    y -0.006450 1.867640 -0.011240 
#    z -0.005220 -0.011240 1.875650 
# 
# From -- ./inp_files/307520.got.cif
#   From: 2010.06.25/outbox.cif.g09.slc.cpg/sg2_154_cif.got.tgz:307520.got - 2010.06.27 13:26:56.
