data_PCOD8031361
_publ_section_title
;
Structure prediction by ZEFSAII (Michael W. Deem and Ramdas Pophale) SiO2 
 PCOD8031361
Probable space group: P -1
;
_chemical_formula_sum "Si O2"
_cell_formula_units_Z 14
_cell_length_a 11.240968
_cell_length_b 15.606930
_cell_length_c 8.872424
_cell_angle_alpha 47.525151
_cell_angle_beta 60.738149
_cell_angle_gamma 27.492882
_cell_volume 501.465171
_symmetry_space_group_name_H-M "P -1"
_symmetry_group_IT_number 2
_symmetry_cell_setting 'triclinic'
loop_
_space_group_symop_operation_xyz
x,y,z
-x,-y,-z
loop_
_atom_site_type_symbol
_atom_site_label
_atom_site_fract_x
_atom_site_fract_y
_atom_site_fract_z
Si Si1 0.516101 0.527245 0.127688
Si Si2 0.909482 0.470936 0.225567
Si Si3 0.706520 0.124222 0.957797
Si Si4 0.182907 0.488876 0.132032
Si Si5 0.600918 0.046315 0.567233
Si Si6 0.259735 0.854335 0.426195
Si Si7 0.084651 0.273783 0.663449
O O1 0.269240 0.787936 0.039691
O O2 0.519484 0.410852 0.368545
O O3 0.500000 0.500000 0.000000
O O4 0.788806 0.408157 0.092935
O O5 0.614266 0.673994 0.092999
O O6 0.014110 0.529875 0.071406
O O7 0.887301 0.470304 0.422184
O O8 0.121274 0.216292 0.346159
O O9 0.809683 0.088100 0.774067
O O10 0.894398 0.880004 0.183175
O O11 0.484158 0.212406 0.304767
O O12 0.037481 0.602441 0.247361
O O13 0.644557 0.092019 0.634632
O O14 0.384944 0.105725 0.667267
O O15 0.000000 0.000000 0.500000
#
# Coordination Sequence:
#
# PCOD8031361 Si02
#       7
#     2   2   2   2   2   2   2
#     4  12  26  46  72  99 146 198 238 292 354 436
#     4  11  24  43  77 109 144 187 236 314 367 425
#     4  12  27  49  74 110 145 186 252 301 364 433
#     4  11  22  45  72 107 144 190 245 296 369 432
#     4  11  22  43  71 107 148 186 242 301 368 433
#     4  12  26  46  69 105 148 193 243 297 356 437
#     4  11  24  43  75 108 145 190 235 308 374 428
#
# _framework density 27.918189999999999
#
# number of rings (size 3 to 8) (size 9 to 14) (size 15 to 20)
#    0.000    0.571    1.429    9.000    0.000    5.714 
#    0.000    1.429    0.000    0.000    0.000    0.000 
#    0.000    0.000    0.000    0.000    0.000    0.000 
#
# Total GULP energy -173633.546415 kJ/mol
# GULP energy per Si atom -12402.396172 kJ/mol
# Density = 2.785465 g / cm^3
# Si number density = 27.918190 Si / 1000 Ang^3
#
#
#
# Elastic Constant Matrix: (Units=GPa)
#
#
# Indices 1 2 3 4 5 6 
#
# 1 118.3486 13.9050 29.3896 2.9714 -2.1032 55.7841
# 2 13.9050 80.2916 -3.0881 -6.0282 0.0197 36.3837
# 3 29.3896 -3.0881 70.0011 -2.3281 -18.4327 12.0444
# 4 2.9714 -6.0282 -2.3281 51.5894 0.1252 -0.1577
# 5 -2.1032 0.0197 -18.4327 0.1252 50.9885 -2.5751
# 6 55.7841 36.3837 12.0444 -0.1577 -2.5751 50.5621
#
#
#
# Elastic Compliance Matrix: (Units=1/GPa)
#
#
# Indices 1 2 3 4 5 6 
#
# 1 0.023832 0.010614 -0.004484 -0.000430 -0.002307 -0.032982
# 2 0.010614 0.024243 0.001649 0.002207 -0.000474 -0.029565
# 3 -0.004484 0.001649 0.017975 0.001246 0.006300 -0.000196
# 4 -0.000430 0.002207 0.001246 0.019718 0.000316 -0.001333
# 5 -0.002307 -0.000474 0.006300 0.000316 0.021920 0.002503
# 6 -0.032982 -0.029565 -0.000196 -0.001333 0.002503 0.077610
#
#
# Mechanical properties :
#
#
# Convention : Reuss Voigt Hill
#
# Bulk Modulus (GPa) = 12.25391 38.78382 25.51886
# Shear Modulus (GPa) = 25.38796 45.85698 35.62247
#
# Velocity S-wave (km/s) = 3.01885 4.05723 3.57593
# Velocity P-wave (km/s) = 4.06817 5.98918 5.11959
#
# Compressibility (1/GPa) = 0.08160658
#
# Stress axis : x y z
#
# Youngs Moduli (GPa) = 41.96035 41.24915 55.63299
#
# Poissons Ratio (x) = -0.43782 0.24948
# Poissons Ratio (y) = -0.44537 -0.09173
# Poissons Ratio (z) = 0.18817 -0.06801
#
# Static dielectric constant tensor:
#      x y z
#    x 6.651100 0.664470 -0.975930 
#    y 0.664470 5.480280 -0.285890 
#    z -0.975930 -0.285890 6.726610 
# 
# 
# High freq. dielectric constant tensor:
#      x y z
#    x 2.143900 0.017700 -0.007110 
#    y 0.017700 2.148290 0.014150 
#    z -0.007110 0.014150 2.142940 
# 
# From -- ./inp_files/271787.got.cif
#   From: 2010.06.25/outbox.cif.g09.slc.cpg/sg2_136_cif.got.tgz:271787.got - 2010.06.27 13:26:56.
