data_PCOD8031857
_publ_section_title
;
Structure prediction by ZEFSAII (Michael W. Deem and Ramdas Pophale) SiO2 
 PCOD8031857
Probable space group: P -1
;
_chemical_formula_sum "Si O2"
_cell_formula_units_Z 16
_cell_length_a 11.512888
_cell_length_b 8.642882
_cell_length_c 16.703880
_cell_angle_alpha 41.169780
_cell_angle_beta 141.527275
_cell_angle_gamma 138.327866
_cell_volume 628.287195
_symmetry_space_group_name_H-M "P -1"
_symmetry_group_IT_number 2
_symmetry_cell_setting 'triclinic'
loop_
_space_group_symop_operation_xyz
x,y,z
-x,-y,-z
loop_
_atom_site_type_symbol
_atom_site_label
_atom_site_fract_x
_atom_site_fract_y
_atom_site_fract_z
Si Si1 0.509450 0.728410 0.594977
Si Si2 0.777636 0.494493 0.897296
Si Si3 0.715348 0.327207 0.656602
Si Si4 0.926990 0.783442 0.170488
Si Si5 0.989339 0.119889 0.363175
Si Si6 0.682379 0.062990 0.901893
Si Si7 0.134910 0.339746 0.636795
Si Si8 0.312527 0.634677 0.919422
O O1 0.729700 0.729467 0.740315
O O2 0.467010 0.668988 0.499850
O O3 0.346088 0.497009 0.646314
O O4 0.500000 0.000000 0.500000
O O5 0.636614 0.247109 0.867777
O O6 0.709634 0.460133 0.965008
O O7 0.000000 0.500000 0.000000
O O8 0.831247 0.600990 0.654095
O O9 0.632602 0.124440 0.761704
O O10 0.852495 0.228644 0.710535
O O11 0.825014 0.704042 0.232825
O O12 0.796165 0.605000 0.100156
O O13 0.912878 0.060610 0.035090
O O14 0.778552 0.150450 0.226849
O O15 0.000000 0.000000 0.500000
O O16 0.997213 0.929036 0.372314
O O17 0.543652 0.772288 0.962863
O O18 0.000000 0.500000 0.500000
#
# Coordination Sequence:
#
# PCOD8031857 Si02
#       8
#     2   2   2   2   2   2   2   2
#     4  12  29  47  76 114 157 194 253 318 376 454
#     4  12  28  51  74 107 148 206 255 310 379 443
#     4  11  26  48  71 113 148 199 246 310 382 449
#     4  11  24  44  75 109 147 198 249 298 381 453
#     4  11  22  47  75 103 151 194 252 306 372 460
#     4  12  26  44  75 107 151 192 250 315 376 450
#     4  12  23  46  77 112 149 201 251 311 379 447
#     4  11  25  47  73 108 146 197 251 313 374 454
#
# _framework density 25.466061
#
# number of rings (size 3 to 8) (size 9 to 14) (size 15 to 20)
#    0.000    0.500    2.500    5.625    5.250    2.500 
#    2.250    0.000    0.000    0.000    0.000    0.000 
#    0.000    0.000    0.000    0.000    0.000    0.000 
#
# Total GULP energy -198380.584306 kJ/mol
# GULP energy per Si atom -12398.786519 kJ/mol
# Density = 2.540810 g / cm^3
# Si number density = 25.466061 Si / 1000 Ang^3
#
#
#
# Elastic Constant Matrix: (Units=GPa)
#
#
# Indices 1 2 3 4 5 6 
#
# 1 126.2228 44.4550 71.7134 0.8102 -34.5856 -17.2619
# 2 44.4550 72.7099 38.8709 -13.3716 -7.9062 -14.4990
# 3 71.7134 38.8709 213.1151 3.6082 -12.9313 -13.4123
# 4 0.8102 -13.3716 3.6082 39.9064 -9.5980 4.8662
# 5 -34.5856 -7.9062 -12.9313 -9.5980 64.1599 -3.0860
# 6 -17.2619 -14.4990 -13.4123 4.8662 -3.0860 47.7412
#
#
#
# Elastic Compliance Matrix: (Units=1/GPa)
#
#
# Indices 1 2 3 4 5 6 
#
# 1 0.013700 -0.005679 -0.003011 -0.000791 0.006097 0.002858
# 2 -0.005679 0.019916 -0.001642 0.006633 0.000192 0.002870
# 3 -0.003011 -0.001642 0.005988 -0.001243 -0.000796 0.000170
# 4 -0.000791 0.006633 -0.001243 0.028611 0.004361 -0.001255
# 5 0.006097 0.000192 -0.000796 0.004361 0.019526 0.002857
# 6 0.002858 0.002870 0.000170 -0.001255 0.002857 0.023212
#
#
# Mechanical properties :
#
#
# Convention : Reuss Voigt Hill
#
# Bulk Modulus (GPa) = 52.79474 80.23628 66.51551
# Shear Modulus (GPa) = 36.25009 47.49540 41.87275
#
# Velocity S-wave (km/s) = 3.77698 4.32330 4.05934
# Velocity P-wave (km/s) = 6.30850 7.51644 6.93880
#
# Compressibility (1/GPa) = 0.01894128
#
# Stress axis : x y z
#
# Youngs Moduli (GPa) = 72.99298 50.21030 166.99021
#
# Poissons Ratio (x) = 0.28515 0.50281
# Poissons Ratio (y) = 0.41453 0.27413
# Poissons Ratio (z) = 0.21978 0.08242
#
# Static dielectric constant tensor:
#      x y z
#    x 4.933410 -0.061980 0.001390 
#    y -0.061980 4.815020 -0.244050 
#    z 0.001390 -0.244050 5.312960 
# 
# 
# High freq. dielectric constant tensor:
#      x y z
#    x 2.018990 -0.019590 0.002060 
#    y -0.019590 2.017520 -0.000480 
#    z 0.002060 -0.000480 2.044770 
# 
# From -- ./inp_files/566459.got.cif
#   From: 2010.06.25/outbox.cif.g09.slc.cpg/sg2_284_cif.got.tgz:566459.got - 2010.06.27 13:26:56.
