data_PCOD8031668
_publ_section_title
;
Structure prediction by ZEFSAII (Michael W. Deem and Ramdas Pophale) SiO2 
 PCOD8031668
Probable space group: P -1
;
_chemical_formula_sum "Si O2"
_cell_formula_units_Z 14
_cell_length_a 14.055841
_cell_length_b 8.491232
_cell_length_c 13.873004
_cell_angle_alpha 105.722136
_cell_angle_beta 30.532450
_cell_angle_gamma 125.322862
_cell_volume 574.204696
_symmetry_space_group_name_H-M "P -1"
_symmetry_group_IT_number 2
_symmetry_cell_setting 'triclinic'
loop_
_space_group_symop_operation_xyz
x,y,z
-x,-y,-z
loop_
_atom_site_type_symbol
_atom_site_label
_atom_site_fract_x
_atom_site_fract_y
_atom_site_fract_z
Si Si1 0.597534 0.687741 0.525040
Si Si2 0.693884 0.241991 0.682153
Si Si3 0.837930 0.174851 0.358723
Si Si4 0.876019 0.154911 0.837430
Si Si5 0.325661 0.525575 0.105830
Si Si6 0.222210 0.000398 0.301941
Si Si7 0.093473 0.495953 0.021249
O O1 0.500000 0.500000 0.500000
O O2 0.863479 0.787201 0.357029
O O3 0.647799 0.900111 0.473117
O O4 0.363855 0.558840 0.786115
O O5 0.735447 0.261469 0.532777
O O6 0.832616 0.466961 0.669478
O O7 0.751170 0.088901 0.639263
O O8 0.386591 0.104562 0.943559
O O9 0.121647 0.304734 0.178499
O O10 0.872099 0.253011 0.230480
O O11 0.862617 0.175632 0.738104
O O12 0.860185 0.320101 0.924428
O O13 0.500000 0.500000 0.000000
O O14 0.494522 0.747332 0.926754
O O15 0.000000 0.000000 0.500000
O O16 0.000000 0.500000 0.000000
#
# Coordination Sequence:
#
# PCOD8031668 Si02
#       7
#     2   2   2   2   2   2   2
#     4  12  27  52  74 108 145 193 261 318 370 437
#     4  11  22  45  70 109 154 193 244 295 374 461
#     4  12  26  45  79 104 149 197 245 308 379 439
#     4  11  23  46  76 104 150 201 237 307 377 431
#     4  11  23  40  67 116 150 189 248 296 365 464
#     4  11  23  40  75 109 155 198 240 297 367 458
#     4  12  27  52  75 105 146 194 260 317 372 435
#
# _framework density 24.381549
#
# number of rings (size 3 to 8) (size 9 to 14) (size 15 to 20)
#    0.000    0.571    2.857    7.286    2.000    2.286 
#    2.571    0.000    0.000    0.000    0.000    0.000 
#    0.000    0.000    0.000    0.000    0.000    0.000 
#
# Total GULP energy -173561.018039 kJ/mol
# GULP energy per Si atom -12397.215574 kJ/mol
# Density = 2.432606 g / cm^3
# Si number density = 24.381549 Si / 1000 Ang^3
#
#
#
# Elastic Constant Matrix: (Units=GPa)
#
#
# Indices 1 2 3 4 5 6 
#
# 1 93.7192 18.2668 60.7863 -1.4974 12.0044 0.2305
# 2 18.2668 129.1321 25.2317 2.9945 23.0077 12.7855
# 3 60.7863 25.2317 110.8823 29.6966 19.2723 0.3717
# 4 -1.4974 2.9945 29.6966 43.0973 -4.3447 -3.6088
# 5 12.0044 23.0077 19.2723 -4.3447 46.5865 4.8213
# 6 0.2305 12.7855 0.3717 -3.6088 4.8213 31.0799
#
#
#
# Elastic Compliance Matrix: (Units=1/GPa)
#
#
# Indices 1 2 3 4 5 6 
#
# 1 0.019661 -0.000798 -0.013735 0.010497 0.001857 0.001278
# 2 -0.000798 0.008992 -0.000755 -0.000770 -0.003663 -0.003205
# 3 -0.013735 -0.000755 0.022341 -0.016565 -0.006800 -0.000723
# 4 0.010497 -0.000770 -0.016565 0.036085 0.007536 0.003458
# 5 0.001857 -0.003663 -0.006800 0.007536 0.026484 -0.001659
# 6 0.001278 -0.003205 -0.000723 0.003458 -0.001659 0.034152
#
#
# Mechanical properties :
#
#
# Convention : Reuss Voigt Hill
#
# Bulk Modulus (GPa) = 48.97705 60.25591 54.61648
# Shear Modulus (GPa) = 27.01297 39.44934 33.23115
#
# Velocity S-wave (km/s) = 3.33216 4.02680 3.69584
# Velocity P-wave (km/s) = 5.91065 6.81084 6.37665
#
# Compressibility (1/GPa) = 0.02041773
#
# Stress axis : x y z
#
# Youngs Moduli (GPa) = 50.86230 111.20583 44.76148
#
# Poissons Ratio (x) = 0.08876 0.61479
# Poissons Ratio (y) = 0.04060 0.03380
# Poissons Ratio (z) = 0.69859 0.08396
#
# Static dielectric constant tensor:
#      x y z
#    x 4.343840 0.137780 0.260860 
#    y 0.137780 4.594380 -0.026920 
#    z 0.260860 -0.026920 5.254400 
# 
# 
# High freq. dielectric constant tensor:
#      x y z
#    x 1.950410 0.012010 -0.001440 
#    y 0.012010 1.973550 0.004780 
#    z -0.001440 0.004780 2.001770 
# 
# From -- ./inp_files/529973.got.cif
#   From: 2010.06.25/outbox.cif.g09.slc.cpg/sg2_265_cif.got.tgz:529973.got - 2010.06.27 13:26:56.
