data_PCOD8031741
_publ_section_title
;
Structure prediction by ZEFSAII (Michael W. Deem and Ramdas Pophale) SiO2 
 PCOD8031741
Probable space group: P -1
;
_chemical_formula_sum "Si O2"
_cell_formula_units_Z 12
_cell_length_a 9.638802
_cell_length_b 5.386225
_cell_length_c 11.321581
_cell_angle_alpha 109.403021
_cell_angle_beta 67.099103
_cell_angle_gamma 94.051027
_cell_volume 509.534862
_symmetry_space_group_name_H-M "P -1"
_symmetry_group_IT_number 2
_symmetry_cell_setting 'triclinic'
loop_
_space_group_symop_operation_xyz
x,y,z
-x,-y,-z
loop_
_atom_site_type_symbol
_atom_site_label
_atom_site_fract_x
_atom_site_fract_y
_atom_site_fract_z
Si Si1 0.451488 0.141748 0.918135
Si Si2 0.748753 0.390419 0.868817
Si Si3 0.094549 0.744098 0.978639
Si Si4 0.090881 0.721001 0.436042
Si Si5 0.401027 0.758709 0.462928
Si Si6 0.629449 0.330329 0.278537
O O1 0.591622 0.301416 0.854715
O O2 0.425807 0.949161 0.787861
O O3 0.294220 0.319493 0.015813
O O4 0.500000 0.000000 0.000000
O O5 0.870731 0.401151 0.725445
O O6 0.815107 0.194157 0.920571
O O7 0.209397 0.627964 0.823717
O O8 0.000000 0.500000 0.000000
O O9 0.000000 0.000000 0.000000
O O10 0.242837 0.814043 0.459597
O O11 0.000000 0.500000 0.500000
O O12 0.000000 0.000000 0.500000
O O13 0.503162 0.555345 0.315277
O O14 0.353135 0.633271 0.582325
O O15 0.500000 0.000000 0.500000
#
# Coordination Sequence:
#
# PCOD8031741 Si02
#       6
#     2   2   2   2   2   2
#     4  11  22  45  79 112 147 189 264 332 380 463
#     4  11  27  46  77 112 151 202 255 322 397 465
#     4  12  29  46  74 112 159 200 251 321 393 470
#     4  12  32  51  80 116 165 210 261 329 404 473
#     4  11  28  50  81 108 153 212 272 323 378 485
#     4  11  26  47  79 108 148 200 270 317 387 459
#
# _framework density 23.550891
#
# number of rings (size 3 to 8) (size 9 to 14) (size 15 to 20)
#    0.000    0.667    1.667    3.000   21.000    0.000 
#    0.000    0.000    0.000    0.000    0.000    0.000 
#    0.000    0.000    0.000    0.000    0.000    0.000 
#
# Total GULP energy -148751.646928 kJ/mol
# GULP energy per Si atom -12395.970577 kJ/mol
# Density = 2.349729 g / cm^3
# Si number density = 23.550891 Si / 1000 Ang^3
#
#
#
# Elastic Constant Matrix: (Units=GPa)
#
#
# Indices 1 2 3 4 5 6 
#
# 1 147.4190 66.4332 58.3082 15.5322 -21.5287 -15.2134
# 2 66.4332 151.8408 70.9358 17.0861 -24.0702 -12.4432
# 3 58.3082 70.9358 185.5220 13.0247 -33.4927 -12.5837
# 4 15.5322 17.0861 13.0247 48.4799 3.3389 0.1225
# 5 -21.5287 -24.0702 -33.4927 3.3389 39.1224 -0.7292
# 6 -15.2134 -12.4432 -12.5837 0.1225 -0.7292 50.5174
#
#
#
# Elastic Compliance Matrix: (Units=1/GPa)
#
#
# Indices 1 2 3 4 5 6 
#
# 1 0.009235 -0.002734 -0.001123 -0.001880 0.002634 0.001871
# 2 -0.002734 0.009507 -0.002053 -0.002118 0.002788 0.001053
# 3 -0.001123 -0.002053 0.007541 -0.001270 0.004704 0.001106
# 4 -0.001880 -0.002118 -0.001270 0.022692 -0.005390 -0.001537
# 5 0.002634 0.002788 0.004704 -0.005390 0.033272 0.003145
# 6 0.001871 0.001053 0.001106 -0.001537 0.003145 0.020942
#
#
# Mechanical properties :
#
#
# Convention : Reuss Voigt Hill
#
# Bulk Modulus (GPa) = 69.12847 97.34847 83.23847
# Shear Modulus (GPa) = 41.72560 46.89759 44.31159
#
# Velocity S-wave (km/s) = 4.21375 4.46727 4.34236
# Velocity P-wave (km/s) = 7.28634 8.24826 7.78218
#
# Compressibility (1/GPa) = 0.01446582
#
# Stress axis : x y z
#
# Youngs Moduli (GPa) = 108.28139 105.18144 132.60183
#
# Poissons Ratio (x) = 0.28752 0.14890
# Poissons Ratio (y) = 0.29599 0.27218
# Poissons Ratio (z) = 0.12159 0.21589
#
# Static dielectric constant tensor:
#      x y z
#    x 4.342650 -0.050370 0.112610 
#    y -0.050370 4.361790 -0.094670 
#    z 0.112610 -0.094670 4.445630 
# 
# 
# High freq. dielectric constant tensor:
#      x y z
#    x 1.945020 -0.006310 -0.005500 
#    y -0.006310 1.936560 -0.006540 
#    z -0.005500 -0.006540 1.949200 
# 
# From -- ./inp_files/48628.got.cif
#   From: 2010.06.25/outbox.cif.g09.slc.cpg/sg2_25_cif.got.tgz:48628.got - 2010.06.27 13:26:56.
