data_PCOD8031696
_publ_section_title
;
Structure prediction by ZEFSAII (Michael W. Deem and Ramdas Pophale) SiO2 
 PCOD8031696
Probable space group: P -1
;
_chemical_formula_sum "Si O2"
_cell_formula_units_Z 10
_cell_length_a 9.422058
_cell_length_b 17.257392
_cell_length_c 11.204927
_cell_angle_alpha 18.931828
_cell_angle_beta 140.584765
_cell_angle_gamma 140.643549
_cell_volume 367.264633
_symmetry_space_group_name_H-M "P -1"
_symmetry_group_IT_number 2
_symmetry_cell_setting 'triclinic'
loop_
_space_group_symop_operation_xyz
x,y,z
-x,-y,-z
loop_
_atom_site_type_symbol
_atom_site_label
_atom_site_fract_x
_atom_site_fract_y
_atom_site_fract_z
Si Si1 0.010541 0.536016 0.711027
Si Si2 0.663940 0.087109 0.768335
Si Si3 0.635832 0.498379 0.333851
Si Si4 0.799228 0.875547 0.691932
Si Si5 0.840041 0.698658 0.592543
O O1 0.766921 0.512855 0.522863
O O2 0.978518 0.530993 0.843857
O O3 0.173982 0.792484 0.409427
O O4 0.130195 0.315595 0.075348
O O5 0.698849 0.272803 0.631840
O O6 0.404216 0.022360 0.649867
O O7 0.728649 0.837291 0.214555
O O8 0.364953 0.464390 0.227278
O O9 0.719481 0.747337 0.952633
O O10 0.004427 0.103311 0.510732
#
# Coordination Sequence:
#
# PCOD8031696 Si02
#       5
#     2   2   2   2   2
#     4  11  22  45  72  96 137 182 221 276 343 400
#     4  11  23  46  71  97 138 179 224 278 340 397
#     4  11  22  45  72  96 137 182 221 276 343 400
#     4  11  25  48  68  97 141 180 219 283 337 402
#     4  12  25  45  70 103 132 180 228 278 335 403
#
# _framework density 27.228324000000001
#
# number of rings (size 3 to 8) (size 9 to 14) (size 15 to 20)
#    0.000    0.800    4.000    5.400    0.000    1.600 
#    7.200    4.000    0.000    0.000    0.000    0.000 
#    0.000    0.000    0.000    0.000    0.000    0.000 
#
# Total GULP energy -124131.627893 kJ/mol
# GULP energy per Si atom -12413.162789 kJ/mol
# Density = 2.716635 g / cm^3
# Si number density = 27.228324 Si / 1000 Ang^3
#
#
#
# Elastic Constant Matrix: (Units=GPa)
#
#
# Indices 1 2 3 4 5 6 
#
# 1 168.8568 42.9575 31.8587 -10.2897 -20.6508 10.1532
# 2 42.9575 136.2681 13.5976 20.5288 -19.7064 23.1066
# 3 31.8587 13.5976 97.2796 -0.3718 -12.3952 16.8623
# 4 -10.2897 20.5288 -0.3718 31.8799 -2.2498 -4.4150
# 5 -20.6508 -19.7064 -12.3952 -2.2498 35.5451 7.0783
# 6 10.1532 23.1066 16.8623 -4.4150 7.0783 54.2086
#
#
#
# Elastic Compliance Matrix: (Units=1/GPa)
#
#
# Indices 1 2 3 4 5 6 
#
# 1 0.007440 -0.002465 -0.001789 0.004178 0.002553 0.000221
# 2 -0.002465 0.011134 0.000998 -0.008382 0.005759 -0.006029
# 3 -0.001789 0.000998 0.012091 -0.001389 0.004550 -0.004558
# 4 0.004178 -0.008382 -0.001389 0.038901 -0.001555 0.006594
# 5 0.002553 0.005759 0.004550 -0.001555 0.036128 -0.009192
# 6 0.000221 -0.006029 -0.004558 0.006594 -0.009192 0.024131
#
#
# Mechanical properties :
#
#
# Convention : Reuss Voigt Hill
#
# Bulk Modulus (GPa) = 41.40346 64.35914 52.88130
# Shear Modulus (GPa) = 34.62899 45.25943 39.94421
#
# Velocity S-wave (km/s) = 3.57010 4.08145 3.83431
# Velocity P-wave (km/s) = 5.67743 6.77489 6.25029
#
# Compressibility (1/GPa) = 0.02415257
#
# Stress axis : x y z
#
# Youngs Moduli (GPa) = 134.40264 89.81693 82.70840
#
# Poissons Ratio (x) = 0.22137 0.14798
# Poissons Ratio (y) = 0.33126 -0.08252
# Poissons Ratio (z) = 0.24046 -0.08961
#
# Static dielectric constant tensor:
#      x y z
#    x 5.197490 0.097650 -0.146070 
#    y 0.097650 4.878630 0.241010 
#    z -0.146070 0.241010 5.231480 
# 
# 
# High freq. dielectric constant tensor:
#      x y z
#    x 2.109110 -0.000200 -0.011940 
#    y -0.000200 2.112610 0.023000 
#    z -0.011940 0.023000 2.122930 
# 
# From -- ./inp_files/146212.got.cif
#   From: 2010.06.25/outbox.cif.g09.slc.cpg/sg2_74_cif.got.tgz:146212.got - 2010.06.27 13:26:56.
