data_PCOD8031733
_publ_section_title
;
Structure prediction by ZEFSAII (Michael W. Deem and Ramdas Pophale) SiO2 
 PCOD8031733
Probable space group: P -1
;
_chemical_formula_sum "Si O2"
_cell_formula_units_Z 16
_cell_length_a 17.881478
_cell_length_b 7.639877
_cell_length_c 14.590795
_cell_angle_alpha 95.730609
_cell_angle_beta 20.152046
_cell_angle_gamma 92.706585
_cell_volume 676.958308
_symmetry_space_group_name_H-M "P -1"
_symmetry_group_IT_number 2
_symmetry_cell_setting 'triclinic'
loop_
_space_group_symop_operation_xyz
x,y,z
-x,-y,-z
loop_
_atom_site_type_symbol
_atom_site_label
_atom_site_fract_x
_atom_site_fract_y
_atom_site_fract_z
Si Si1 0.550365 0.073374 0.687908
Si Si2 0.176890 0.259121 0.019278
Si Si3 0.011726 0.938856 0.086614
Si Si4 0.688853 0.416049 0.209695
Si Si5 0.531627 0.679150 0.924418
Si Si6 0.945649 0.859472 0.479014
Si Si7 0.385957 0.732219 0.904008
Si Si8 0.186218 0.826154 0.455617
O O1 0.624342 0.202878 0.687159
O O2 0.758198 0.939582 0.404722
O O3 0.427324 0.208583 0.762160
O O4 0.384686 0.944657 0.909350
O O5 0.004546 0.294171 0.305132
O O6 0.162080 0.431512 0.980391
O O7 0.113674 0.090297 0.030636
O O8 0.156650 0.747753 0.928723
O O9 0.000000 0.000000 0.000000
O O10 0.500000 0.500000 0.500000
O O11 0.571346 0.360445 0.248710
O O12 0.733768 0.763877 0.740692
O O13 0.500000 0.500000 0.000000
O O14 0.557852 0.656899 0.782493
O O15 0.298483 0.794371 0.224556
O O16 0.146662 0.706057 0.217227
O O17 0.910075 0.965495 0.428153
O O18 0.000000 0.000000 0.500000
#
# Coordination Sequence:
#
# PCOD8031733 Si02
#       8
#     2   2   2   2   2   2   2   2
#     4  11  22  45  76 103 145 195 245 307 375 447
#     4  11  26  47  77 110 150 192 252 312 380 455
#     4  11  26  49  76 107 144 194 251 315 381 449
#     4  12  29  50  76 114 151 200 252 315 383 448
#     4  12  29  42  68 110 155 195 248 310 376 453
#     4  12  23  44  73 103 143 199 254 304 377 450
#     4  12  25  46  74 102 151 199 246 312 374 450
#     4  11  23  43  70 108 138 194 249 296 373 453
#
# _framework density 23.635133
#
# number of rings (size 3 to 8) (size 9 to 14) (size 15 to 20)
#    0.000    0.500    5.000    2.625    5.250    2.000 
#    2.250    0.000    0.000    0.000    0.000    0.000 
#    0.000    0.000    0.000    0.000    0.000    0.000 
#
# Total GULP energy -198257.961620 kJ/mol
# GULP energy per Si atom -12391.122601 kJ/mol
# Density = 2.358134 g / cm^3
# Si number density = 23.635133 Si / 1000 Ang^3
#
#
#
# Elastic Constant Matrix: (Units=GPa)
#
#
# Indices 1 2 3 4 5 6 
#
# 1 142.2839 46.2733 51.5058 2.1765 -1.3431 -4.9524
# 2 46.2733 130.9647 45.9887 -23.5635 -8.2881 -16.9653
# 3 51.5058 45.9887 124.8424 -9.0259 -0.4286 6.4241
# 4 2.1765 -23.5635 -9.0259 37.8829 -2.3345 6.2926
# 5 -1.3431 -8.2881 -0.4286 -2.3345 37.2472 1.8590
# 6 -4.9524 -16.9653 6.4241 6.2926 1.8590 33.9013
#
#
#
# Elastic Compliance Matrix: (Units=1/GPa)
#
#
# Indices 1 2 3 4 5 6 
#
# 1 0.009058 -0.002543 -0.003088 -0.003076 -0.000529 0.001236
# 2 -0.002543 0.011400 -0.002953 0.005917 0.002550 0.004655
# 3 -0.003088 -0.002953 0.010702 0.001572 -0.000336 -0.004231
# 4 -0.003076 0.005917 0.001572 0.031471 0.003387 -0.003813
# 5 -0.000529 0.002550 -0.000336 0.003387 0.027648 -0.000883
# 6 0.001236 0.004655 -0.004231 -0.003813 -0.000883 0.033565
#
#
# Mechanical properties :
#
#
# Convention : Reuss Voigt Hill
#
# Bulk Modulus (GPa) = 71.47010 76.18075 73.82542
# Shear Modulus (GPa) = 34.32214 38.76116 36.54165
#
# Velocity S-wave (km/s) = 3.81486 4.05406 3.93628
# Velocity P-wave (km/s) = 7.05045 7.36314 7.20849
#
# Compressibility (1/GPa) = 0.01399187
#
# Stress axis : x y z
#
# Youngs Moduli (GPa) = 110.39783 87.71730 93.43742
#
# Poissons Ratio (x) = 0.22305 0.28855
# Poissons Ratio (y) = 0.28073 0.27596
# Poissons Ratio (z) = 0.34092 0.25907
#
# Static dielectric constant tensor:
#      x y z
#    x 5.292070 -0.095100 1.043760 
#    y -0.095100 3.918420 -0.245520 
#    z 1.043760 -0.245520 5.342970 
# 
# 
# High freq. dielectric constant tensor:
#      x y z
#    x 1.945460 -0.012000 -0.002740 
#    y -0.012000 1.926300 -0.004720 
#    z -0.002740 -0.004720 1.943490 
# 
# From -- ./inp_files/537382.got.cif
#   From: 2010.06.25/outbox.cif.g09.slc.cpg/sg2_269_cif.got.tgz:537382.got - 2010.06.27 13:26:56.
