data_PCOD8031197
_publ_section_title
;
Structure prediction by ZEFSAII (Michael W. Deem and Ramdas Pophale) SiO2 
 PCOD8031197
Probable space group: P -1
;
_chemical_formula_sum "Si O2"
_cell_formula_units_Z 12
_cell_length_a 10.783973
_cell_length_b 11.487197
_cell_length_c 19.444166
_cell_angle_alpha 22.316142
_cell_angle_beta 136.932071
_cell_angle_gamma 126.129786
_cell_volume 589.030857
_symmetry_space_group_name_H-M "P -1"
_symmetry_group_IT_number 2
_symmetry_cell_setting 'triclinic'
loop_
_space_group_symop_operation_xyz
x,y,z
-x,-y,-z
loop_
_atom_site_type_symbol
_atom_site_label
_atom_site_fract_x
_atom_site_fract_y
_atom_site_fract_z
Si Si1 0.088489 0.725091 0.352400
Si Si2 0.370063 0.020388 0.871322
Si Si3 0.751766 0.850786 0.049806
Si Si4 0.726504 0.386452 0.647696
Si Si5 0.995478 0.810603 0.531834
Si Si6 0.959705 0.174341 0.176285
O O1 0.182529 0.343305 0.615536
O O2 0.212355 0.797008 0.300564
O O3 0.866204 0.797197 0.198467
O O4 0.100797 0.922918 0.317045
O O5 0.268021 0.746076 0.977381
O O6 0.500000 0.000000 0.000000
O O7 0.519628 0.976909 0.892862
O O8 0.815066 0.509909 0.220508
O O9 0.815737 0.121419 0.887771
O O10 0.500000 0.500000 0.500000
O O11 0.809776 0.687373 0.521956
O O12 0.997455 0.047313 0.339410
O O13 0.000000 0.000000 0.500000
O O14 0.000000 0.500000 0.000000
#
# Coordination Sequence:
#
# PCOD8031197 Si02
#       6
#     2   2   2   2   2   2
#     4  11  22  43  69  95 135 168 227 278 323 393
#     4  12  22  42  73  96 125 175 231 275 323 399
#     4  11  22  42  74  97 129 174 229 274 330 395
#     4  11  22  42  72 101 124 173 231 271 329 400
#     4  11  25  44  66  96 142 175 214 277 340 392
#     4  12  26  43  64 101 141 175 218 279 339 387
#
# _framework density 20.372447000000001
#
# number of rings (size 3 to 8) (size 9 to 14) (size 15 to 20)
#    0.000    0.667    6.667    3.500    4.667    0.000 
#    3.000    3.333    0.000    0.000    0.000    0.000 
#    0.000    0.000    0.000    0.000    0.000    0.000 
#
# Total GULP energy -148702.407117 kJ/mol
# GULP energy per Si atom -12391.867260 kJ/mol
# Density = 2.032608 g / cm^3
# Si number density = 20.372447 Si / 1000 Ang^3
#
#
#
# Elastic Constant Matrix: (Units=GPa)
#
#
# Indices 1 2 3 4 5 6 
#
# 1 147.5952 83.5097 59.5091 -10.8752 -11.4947 4.4346
# 2 83.5097 121.0109 62.1115 -10.8325 -6.6568 -11.9463
# 3 59.5091 62.1115 117.0524 -6.0312 -20.0330 5.3393
# 4 -10.8752 -10.8325 -6.0312 33.2120 -0.0196 0.0953
# 5 -11.4947 -6.6568 -20.0330 -0.0196 44.6275 0.8161
# 6 4.4346 -11.9463 5.3393 0.0953 0.8161 48.3632
#
#
#
# Elastic Compliance Matrix: (Units=1/GPa)
#
#
# Indices 1 2 3 4 5 6 
#
# 1 0.011964 -0.007477 -0.001714 0.001176 0.001248 -0.002778
# 2 -0.007477 0.016965 -0.005700 0.002033 -0.002054 0.005536
# 3 -0.001714 -0.005700 0.013384 0.000021 0.004768 -0.002809
# 4 0.001176 0.002033 0.000021 0.031161 0.000623 0.000320
# 5 0.001248 -0.002054 0.004768 0.000623 0.024592 -0.001565
# 6 -0.002778 0.005536 -0.002809 0.000320 -0.001565 0.022635
#
#
# Mechanical properties :
#
#
# Convention : Reuss Voigt Hill
#
# Bulk Modulus (GPa) = 79.80180 88.43547 84.11863
# Shear Modulus (GPa) = 32.32874 37.27575 34.80225
#
# Velocity S-wave (km/s) = 3.98789 4.28216 4.13764
# Velocity P-wave (km/s) = 7.77566 8.24334 8.01292
#
# Compressibility (1/GPa) = 0.01253105
#
# Stress axis : x y z
#
# Youngs Moduli (GPa) = 83.58204 58.94548 74.71334
#
# Poissons Ratio (x) = 0.44074 0.12807
# Poissons Ratio (y) = 0.62495 0.42588
# Poissons Ratio (z) = 0.14327 0.33600
#
# Static dielectric constant tensor:
#      x y z
#    x 4.220210 0.134330 -0.032140 
#    y 0.134330 3.505800 0.177450 
#    z -0.032140 0.177450 3.824640 
# 
# 
# High freq. dielectric constant tensor:
#      x y z
#    x 1.832530 -0.005450 -0.006500 
#    y -0.005450 1.767380 0.015000 
#    z -0.006500 0.015000 1.797660 
# 
# From -- ./inp_files/402487.got.cif
#   From: 2010.06.25/outbox.cif.g09.slc.cpg/sg2_202_cif.got.tgz:402487.got - 2010.06.27 13:26:56.
