data_PCOD8031265
_publ_section_title
;
Structure prediction by ZEFSAII (Michael W. Deem and Ramdas Pophale) SiO2 
 PCOD8031265
Probable space group: P -1
;
_chemical_formula_sum "Si O2"
_cell_formula_units_Z 16
_cell_length_a 9.251248
_cell_length_b 13.113362
_cell_length_c 8.620127
_cell_angle_alpha 107.176513
_cell_angle_beta 49.073994
_cell_angle_gamma 102.806585
_cell_volume 754.306923
_symmetry_space_group_name_H-M "P -1"
_symmetry_group_IT_number 2
_symmetry_cell_setting 'triclinic'
loop_
_space_group_symop_operation_xyz
x,y,z
-x,-y,-z
loop_
_atom_site_type_symbol
_atom_site_label
_atom_site_fract_x
_atom_site_fract_y
_atom_site_fract_z
Si Si1 0.274679 0.832807 0.411264
Si Si2 0.421449 0.717297 0.689337
Si Si3 0.828553 0.368562 0.425063
Si Si4 0.255738 0.384138 0.060574
Si Si5 0.337112 0.908484 0.057470
Si Si6 0.039134 0.013197 0.798300
Si Si7 0.523798 0.543162 0.779023
Si Si8 0.344359 0.194398 0.706710
O O1 0.210148 0.709556 0.435396
O O2 0.290821 0.849442 0.224344
O O3 0.477398 0.862791 0.364519
O O4 0.112707 0.904366 0.628402
O O5 0.222106 0.694915 0.727641
O O6 0.472664 0.613812 0.701692
O O7 0.588759 0.733505 0.452818
O O8 0.407271 0.821938 0.848856
O O9 0.694002 0.467508 0.580784
O O10 0.047206 0.411714 0.282973
O O11 0.405521 0.380208 0.095534
O O12 0.330911 0.475917 0.930784
O O13 0.245212 0.268367 0.936393
O O14 0.150294 0.962573 0.150611
O O15 0.500000 0.000000 0.000000
O O16 0.196370 0.107113 0.703545
O O17 0.000000 0.000000 0.000000
#
# Coordination Sequence:
#
# PCOD8031265 Si02
#       8
#     2   2   2   2   2   2   2   2
#     4  11  23  42  68  94 136 170 218 276 327 393
#     4  11  24  43  68  94 135 171 218 274 324 388
#     4  11  24  45  66 101 132 172 226 266 328 392
#     4  11  23  41  68  92 135 173 218 268 330 385
#     4  12  26  44  65  98 132 174 220 272 332 392
#     4  12  24  42  68  98 129 173 222 269 331 399
#     4  11  24  44  65  97 136 172 222 270 328 385
#     4  11  22  43  66  97 131 174 219 268 333 391
#
# _framework density 21.211525000000002
#
# number of rings (size 3 to 8) (size 9 to 14) (size 15 to 20)
#    0.000    0.750    2.500    6.750    1.750    2.500 
#    2.250    0.000    0.000    0.000    0.000    0.000 
#    0.000    0.000    0.000    0.000    0.000    0.000 
#
# Total GULP energy -198496.080673 kJ/mol
# GULP energy per Si atom -12406.005042 kJ/mol
# Density = 2.116325 g / cm^3
# Si number density = 21.211525 Si / 1000 Ang^3
#
#
#
# Elastic Constant Matrix: (Units=GPa)
#
#
# Indices 1 2 3 4 5 6 
#
# 1 110.9224 48.2907 34.3675 -18.1178 -12.0244 -13.8251
# 2 48.2907 90.4763 27.8717 -4.2053 -5.0976 -22.2819
# 3 34.3675 27.8717 94.5551 -3.9346 -1.7265 -10.8212
# 4 -18.1178 -4.2053 -3.9346 39.9095 2.4145 8.4445
# 5 -12.0244 -5.0976 -1.7265 2.4145 47.9597 -5.4280
# 6 -13.8251 -22.2819 -10.8212 8.4445 -5.4280 37.7826
#
#
#
# Elastic Compliance Matrix: (Units=1/GPa)
#
#
# Indices 1 2 3 4 5 6 
#
# 1 0.013636 -0.006056 -0.002939 0.005168 0.002382 -0.000237
# 2 -0.006056 0.016773 -0.001932 -0.002931 0.001243 0.007956
# 3 -0.002939 -0.001932 0.012344 -0.000601 -0.000308 0.001411
# 4 0.005168 -0.002931 -0.000601 0.028495 -0.001214 -0.006552
# 5 0.002382 0.001243 -0.000308 -0.001214 0.022193 0.004976
# 6 -0.000237 0.007956 0.001411 -0.006552 0.004976 0.033656
#
#
# Mechanical properties :
#
#
# Convention : Reuss Voigt Hill
#
# Bulk Modulus (GPa) = 47.85016 57.44596 52.64806
# Shear Modulus (GPa) = 32.06806 37.49197 34.78002
#
# Velocity S-wave (km/s) = 3.89243 4.20876 4.05368
# Velocity P-wave (km/s) = 6.54285 7.12457 6.83990
#
# Compressibility (1/GPa) = 0.02089857
#
# Stress axis : x y z
#
# Youngs Moduli (GPa) = 73.33784 59.61836 81.00801
#
# Poissons Ratio (x) = 0.36106 0.23812
# Poissons Ratio (y) = 0.44415 0.15649
# Poissons Ratio (z) = 0.21557 0.11517
#
# Static dielectric constant tensor:
#      x y z
#    x 4.080420 0.102230 0.129320 
#    y 0.102230 3.879990 -0.011600 
#    z 0.129320 -0.011600 3.951680 
# 
# 
# High freq. dielectric constant tensor:
#      x y z
#    x 1.834910 0.002030 0.005150 
#    y 0.002030 1.839350 0.000960 
#    z 0.005150 0.000960 1.846090 
# 
# From -- ./inp_files/188150.got.cif
#   From: 2010.06.25/outbox.cif.g09.slc.cpg/sg2_95_cif.got.tgz:188150.got - 2010.06.27 13:26:56.
