data_PCOD8031356
_publ_section_title
;
Structure prediction by ZEFSAII (Michael W. Deem and Ramdas Pophale) SiO2 
 PCOD8031356
Probable space group: P -1
;
_chemical_formula_sum "Si O2"
_cell_formula_units_Z 16
_cell_length_a 11.098147
_cell_length_b 9.673537
_cell_length_c 9.478948
_cell_angle_alpha 115.251306
_cell_angle_beta 112.845851
_cell_angle_gamma 106.660583
_cell_volume 712.433383
_symmetry_space_group_name_H-M "P -1"
_symmetry_group_IT_number 2
_symmetry_cell_setting 'triclinic'
loop_
_space_group_symop_operation_xyz
x,y,z
-x,-y,-z
loop_
_atom_site_type_symbol
_atom_site_label
_atom_site_fract_x
_atom_site_fract_y
_atom_site_fract_z
Si Si1 0.071021 0.137385 0.845646
Si Si2 0.646445 0.694061 0.601564
Si Si3 0.439326 0.150194 0.141475
Si Si4 0.267311 0.062175 0.512741
Si Si5 0.379010 0.313467 0.934672
Si Si6 0.840850 0.160360 0.230791
Si Si7 0.092286 0.351620 0.218965
Si Si8 0.738909 0.243417 0.491723
O O1 0.226772 0.309721 0.920614
O O2 0.114547 0.989197 0.826067
O O3 0.034291 0.215637 0.001031
O O4 0.917477 0.041429 0.639013
O O5 0.500000 0.500000 0.500000
O O6 0.678959 0.836313 0.800875
O O7 0.628376 0.778282 0.483996
O O8 0.795156 0.679874 0.645710
O O9 0.589790 0.204447 0.321493
O O10 0.476881 0.289557 0.090794
O O11 0.341574 0.942127 0.947452
O O12 0.310208 0.146471 0.723638
O O13 0.306724 0.905651 0.470414
O O14 0.500000 0.500000 0.000000
O O15 0.856927 0.241993 0.429801
O O16 0.949650 0.316775 0.237045
O O17 0.181252 0.563421 0.307906
#
# Coordination Sequence:
#
# PCOD8031356 Si02
#       8
#     2   2   2   2   2   2   2   2
#     4  11  23  45  75  99 138 188 251 288 343 427
#     4  12  23  44  76 103 136 187 248 292 341 430
#     4  11  23  45  71 100 141 187 239 278 361 432
#     4  12  26  44  72 106 145 187 232 300 361 416
#     4  11  24  42  73 107 137 182 242 301 341 411
#     4  11  22  43  71 103 133 192 237 290 349 424
#     4  12  24  45  73 105 136 190 245 293 348 422
#     4  12  27  44  68 107 153 183 227 297 371 422
#
# _framework density 22.45824
#
# number of rings (size 3 to 8) (size 9 to 14) (size 15 to 20)
#    0.000    0.500    7.500    3.000    0.000    1.000 
#    2.250    0.000    0.000    0.000    0.000    0.000 
#    0.000    0.000    0.000    0.000    0.000    0.000 
#
# Total GULP energy -198303.482215 kJ/mol
# GULP energy per Si atom -12393.967638 kJ/mol
# Density = 2.240712 g / cm^3
# Si number density = 22.458240 Si / 1000 Ang^3
#
#
#
# Elastic Constant Matrix: (Units=GPa)
#
#
# Indices 1 2 3 4 5 6 
#
# 1 59.1568 45.8577 20.0342 1.8021 9.8120 12.5610
# 2 45.8577 136.3182 25.1277 -11.7401 12.6500 5.1046
# 3 20.0342 25.1277 72.6819 -2.2714 6.3274 -14.2818
# 4 1.8021 -11.7401 -2.2714 33.1156 -2.6978 -2.9576
# 5 9.8120 12.6500 6.3274 -2.6978 46.2288 4.5569
# 6 12.5610 5.1046 -14.2818 -2.9576 4.5569 35.1024
#
#
#
# Elastic Compliance Matrix: (Units=1/GPa)
#
#
# Indices 1 2 3 4 5 6 
#
# 1 0.029111 -0.008267 -0.007668 -0.006330 -0.001993 -0.012609
# 2 -0.008267 0.010678 -0.000900 0.004232 -0.000947 0.001519
# 3 -0.007668 -0.000900 0.018513 0.002203 -0.001596 0.010800
# 4 -0.006330 0.004232 0.002203 0.032757 0.001289 0.005138
# 5 -0.001993 -0.000947 -0.001596 0.001289 0.022870 -0.002659
# 6 -0.012609 0.001519 0.010800 0.005138 -0.002659 0.037951
#
#
# Mechanical properties :
#
#
# Convention : Reuss Voigt Hill
#
# Bulk Modulus (GPa) = 40.59721 50.02178 45.30950
# Shear Modulus (GPa) = 25.80510 34.69852 30.25181
#
# Velocity S-wave (km/s) = 3.39341 3.93494 3.67417
# Velocity P-wave (km/s) = 5.78529 6.55489 6.18208
#
# Compressibility (1/GPa) = 0.02463223
#
# Stress axis : x y z
#
# Youngs Moduli (GPa) = 34.35182 93.64814 54.01587
#
# Poissons Ratio (x) = 0.77423 0.41418
# Poissons Ratio (y) = 0.28400 0.04860
# Poissons Ratio (z) = 0.26340 0.08425
#
# Static dielectric constant tensor:
#      x y z
#    x 4.391480 0.067250 -0.006810 
#    y 0.067250 4.086330 0.144090 
#    z -0.006810 0.144090 4.241010 
# 
# 
# High freq. dielectric constant tensor:
#      x y z
#    x 1.880440 0.009140 -0.002740 
#    y 0.009140 1.876690 0.007630 
#    z -0.002740 0.007630 1.894980 
# 
# From -- ./inp_files/245141.got.cif
#   From: 2010.06.25/outbox.cif.g09.slc.cpg/sg2_123_cif.got.tgz:245141.got - 2010.06.27 13:26:56.
