data_PCOD8031622
_publ_section_title
;
Structure prediction by ZEFSAII (Michael W. Deem and Ramdas Pophale) SiO2 
 PCOD8031622
Probable space group: P -1
;
_chemical_formula_sum "Si O2"
_cell_formula_units_Z 14
_cell_length_a 9.071405
_cell_length_b 11.708751
_cell_length_c 7.968004
_cell_angle_alpha 57.820136
_cell_angle_beta 98.471132
_cell_angle_gamma 124.404910
_cell_volume 576.524427
_symmetry_space_group_name_H-M "P -1"
_symmetry_group_IT_number 2
_symmetry_cell_setting 'triclinic'
loop_
_space_group_symop_operation_xyz
x,y,z
-x,-y,-z
loop_
_atom_site_type_symbol
_atom_site_label
_atom_site_fract_x
_atom_site_fract_y
_atom_site_fract_z
Si Si1 0.940511 0.702486 0.420722
Si Si2 0.735442 0.993755 0.597009
Si Si3 0.843853 0.097092 0.003993
Si Si4 0.393097 0.886721 0.813906
Si Si5 0.268322 0.554504 0.170743
Si Si6 0.812153 0.737877 0.851520
Si Si7 0.328131 0.266758 0.824175
O O1 0.886226 0.533526 0.637951
O O2 0.747129 0.678548 0.380920
O O3 0.060660 0.849293 0.457943
O O4 0.053652 0.747776 0.231021
O O5 0.648199 0.032173 0.404119
O O6 0.603502 0.946543 0.778476
O O7 0.749878 0.844397 0.667528
O O8 0.649410 0.058036 0.061509
O O9 0.971896 0.149102 0.151179
O O10 0.807128 0.934621 0.036656
O O11 0.257246 0.683933 0.954189
O O12 0.243799 0.413370 0.158339
O O13 0.460954 0.659109 0.221838
O O14 0.695889 0.665000 0.059842
#
# Coordination Sequence:
#
# PCOD8031622 Si02
#       7
#     2   2   2   2   2   2   2
#     4  11  23  42  70 102 134 180 231 282 331 408
#     4  11  23  47  71 101 132 184 240 265 337 414
#     4  11  23  45  73  99 138 180 234 274 338 408
#     4  11  27  44  68 105 141 180 219 290 342 408
#     4  12  26  42  70 106 145 170 226 287 354 385
#     4  11  22  44  77  98 131 182 235 284 320 409
#     4  11  22  45  69 104 132 180 231 289 325 404
#
# _framework density 24.283446000000001
#
# number of rings (size 3 to 8) (size 9 to 14) (size 15 to 20)
#    0.000    0.857    4.286    2.571    2.000    6.286 
#    0.000    2.857    0.000    0.000    0.000    0.000 
#    0.000    0.000    0.000    0.000    0.000    0.000 
#
# Total GULP energy -173508.444189 kJ/mol
# GULP energy per Si atom -12393.460299 kJ/mol
# Density = 2.422818 g / cm^3
# Si number density = 24.283446 Si / 1000 Ang^3
#
#
#
# Elastic Constant Matrix: (Units=GPa)
#
#
# Indices 1 2 3 4 5 6 
#
# 1 53.1404 9.6528 11.9271 -1.0419 -6.8113 -6.6215
# 2 9.6528 67.7855 11.8097 -6.2627 0.9225 10.6153
# 3 11.9271 11.8097 94.3271 -26.9313 -13.0224 -1.4137
# 4 -1.0419 -6.2627 -26.9313 27.5867 1.2505 2.2180
# 5 -6.8113 0.9225 -13.0224 1.2505 41.5012 1.9130
# 6 -6.6215 10.6153 -1.4137 2.2180 1.9130 31.1587
#
#
#
# Elastic Compliance Matrix: (Units=1/GPa)
#
#
# Indices 1 2 3 4 5 6 
#
# 1 0.021078 -0.003764 -0.002689 -0.003257 0.002534 0.005716
# 2 -0.003764 0.016832 -0.000917 0.003375 -0.001070 -0.006750
# 3 -0.002689 -0.000917 0.015938 0.015131 0.004164 -0.000869
# 4 -0.003257 0.003375 0.015131 0.051941 0.002805 -0.005025
# 5 0.002534 -0.001070 0.004164 0.002805 0.025789 -0.000691
# 6 0.005716 -0.006750 -0.000869 -0.005025 -0.000691 0.035969
#
#
# Mechanical properties :
#
#
# Convention : Reuss Voigt Hill
#
# Bulk Modulus (GPa) = 25.56879 31.33690 28.45285
# Shear Modulus (GPa) = 25.59883 32.17356 28.88620
#
# Velocity S-wave (km/s) = 3.25032 3.64389 3.45272
# Velocity P-wave (km/s) = 4.96369 5.53503 5.25713
#
# Compressibility (1/GPa) = 0.03911018
#
# Stress axis : x y z
#
# Youngs Moduli (GPa) = 47.44209 59.41220 62.74313
#
# Poissons Ratio (x) = 0.22361 0.16869
# Poissons Ratio (y) = 0.17856 0.05751
# Poissons Ratio (z) = 0.12755 0.05446
#
# Static dielectric constant tensor:
#      x y z
#    x 4.609310 0.177900 -0.077760 
#    y 0.177900 3.994460 -0.048800 
#    z -0.077760 -0.048800 4.607990 
# 
# 
# High freq. dielectric constant tensor:
#      x y z
#    x 1.966920 0.013520 -0.003460 
#    y 0.013520 1.942440 0.004350 
#    z -0.003460 0.004350 1.979690 
# 
# From -- ./inp_files/158848.got.cif
#   From: 2010.06.25/outbox.cif.g09.slc.cpg/sg2_80_cif.got.tgz:158848.got - 2010.06.27 13:26:56.
