data_PCOD8031998
_publ_section_title
;
Structure prediction by ZEFSAII (Michael W. Deem and Ramdas Pophale) SiO2 
 PCOD8031998
Probable space group: P -1
;
_chemical_formula_sum "Si O2"
_cell_formula_units_Z 16
_cell_length_a 8.991224
_cell_length_b 11.984720
_cell_length_c 12.289619
_cell_angle_alpha 68.116954
_cell_angle_beta 127.515649
_cell_angle_gamma 135.752439
_cell_volume 728.094497
_symmetry_space_group_name_H-M "P -1"
_symmetry_group_IT_number 2
_symmetry_cell_setting 'triclinic'
loop_
_space_group_symop_operation_xyz
x,y,z
-x,-y,-z
loop_
_atom_site_type_symbol
_atom_site_label
_atom_site_fract_x
_atom_site_fract_y
_atom_site_fract_z
Si Si1 0.557985 0.875984 0.271012
Si Si2 0.845715 0.899177 0.865575
Si Si3 0.491681 0.946326 0.636695
Si Si4 0.415025 0.599578 0.910915
Si Si5 0.999214 0.828258 0.763443
Si Si6 0.220317 0.675125 0.988240
Si Si7 0.945315 0.431038 0.383444
Si Si8 0.504505 0.635087 0.486786
O O1 0.577140 0.753088 0.377045
O O2 0.463656 0.929771 0.300191
O O3 0.378729 0.798269 0.113427
O O4 0.835256 0.030466 0.301211
O O5 0.742198 0.973554 0.734479
O O6 0.609449 0.725874 0.863319
O O7 0.027148 0.898002 0.869829
O O8 0.000000 0.000000 0.000000
O O9 0.238221 0.764238 0.622121
O O10 0.500000 0.000000 0.500000
O O11 0.399269 0.670645 0.990441
O O12 0.153045 0.506027 0.764672
O O13 0.500000 0.500000 0.000000
O O14 0.707754 0.729041 0.640310
O O15 0.090956 0.728431 0.843153
O O16 0.000000 0.500000 0.000000
O O17 0.000000 0.500000 0.500000
O O18 0.220467 0.527118 0.430577
O O19 0.500000 0.500000 0.500000
#
# Coordination Sequence:
#
# PCOD8031998 Si02
#       8
#     2   2   2   2   2   2   2   2
#     4  12  25  44  68  98 136 182 230 290 349 411
#     4  11  23  40  63  94 127 168 218 273 331 401
#     4  11  24  44  68  97 135 180 229 281 344 411
#     4  11  24  44  66  96 132 174 225 279 339 407
#     4  12  24  43  68  99 136 177 227 283 344 412
#     4  12  25  44  69 101 138 181 229 288 351 415
#     4  11  24  44  68  97 135 177 226 283 340 408
#     4  12  25  43  66  96 132 175 224 279 341 411
#
# _framework density 21.975168
#
# number of rings (size 3 to 8) (size 9 to 14) (size 15 to 20)
#    0.000    0.500    0.000   10.500    0.000    4.000 
#    0.000    0.000    0.000    0.000    0.000    0.000 
#    0.000    0.000    0.000    0.000    0.000    0.000 
#
# Total GULP energy -198287.918544 kJ/mol
# GULP energy per Si atom -12392.994909 kJ/mol
# Density = 2.192515 g / cm^3
# Si number density = 21.975168 Si / 1000 Ang^3
#
#
#
# Elastic Constant Matrix: (Units=GPa)
#
#
# Indices 1 2 3 4 5 6 
#
# 1 160.3323 55.3496 58.5756 -16.4872 -1.1138 -14.1906
# 2 55.3496 116.4034 61.1669 -18.9346 10.2356 -4.8766
# 3 58.5756 61.1669 161.1996 -5.9612 10.3799 -9.6128
# 4 -16.4872 -18.9346 -5.9612 47.4531 -2.7734 -2.1283
# 5 -1.1138 10.2356 10.3799 -2.7734 45.7702 2.4971
# 6 -14.1906 -4.8766 -9.6128 -2.1283 2.4971 37.2530
#
#
#
# Elastic Compliance Matrix: (Units=1/GPa)
#
#
# Indices 1 2 3 4 5 6 
#
# 1 0.008226 -0.002663 -0.001853 0.001737 0.001194 0.002326
# 2 -0.002663 0.012425 -0.003498 0.003487 -0.001841 0.000032
# 3 -0.001853 -0.003498 0.008307 -0.001024 -0.001264 0.001006
# 4 0.001737 0.003487 -0.001024 0.023080 0.000778 0.002120
# 5 0.001194 -0.001841 -0.001264 0.000778 0.022709 -0.001590
# 6 0.002326 0.000032 0.001006 0.002120 -0.001590 0.028221
#
#
# Mechanical properties :
#
#
# Convention : Reuss Voigt Hill
#
# Bulk Modulus (GPa) = 77.32655 87.56884 82.44770
# Shear Modulus (GPa) = 40.54921 43.61814 42.08367
#
# Velocity S-wave (km/s) = 4.30027 4.46004 4.38088
# Velocity P-wave (km/s) = 7.74087 8.15218 7.94918
#
# Compressibility (1/GPa) = 0.01293217
#
# Stress axis : x y z
#
# Youngs Moduli (GPa) = 121.56660 80.47968 120.37478
#
# Poissons Ratio (x) = 0.21432 0.22300
# Poissons Ratio (y) = 0.32373 0.42104
# Poissons Ratio (z) = 0.22521 0.28150
#
# Static dielectric constant tensor:
#      x y z
#    x 3.233520 0.034240 -0.586380 
#    y 0.034240 3.626900 0.082640 
#    z -0.586380 0.082640 3.630200 
# 
# 
# High freq. dielectric constant tensor:
#      x y z
#    x 1.880920 0.001780 -0.002380 
#    y 0.001780 1.871870 -0.000810 
#    z -0.002380 -0.000810 1.882800 
# 
# From -- ./inp_files/392486.got.cif
#   From: 2010.06.25/outbox.cif.g09.slc.cpg/sg2_197_cif.got.tgz:392486.got - 2010.06.27 13:26:56.
