data_PCOD8031046
_publ_section_title
;
Structure prediction by ZEFSAII (Michael W. Deem and Ramdas Pophale) SiO2 
 PCOD8031046
Probable space group: P -1
;
_chemical_formula_sum "Si O2"
_cell_formula_units_Z 16
_cell_length_a 8.072731
_cell_length_b 19.388642
_cell_length_c 17.838394
_cell_angle_alpha 26.572156
_cell_angle_beta 54.297385
_cell_angle_gamma 39.942198
_cell_volume 749.430371
_symmetry_space_group_name_H-M "P -1"
_symmetry_group_IT_number 2
_symmetry_cell_setting 'triclinic'
loop_
_space_group_symop_operation_xyz
x,y,z
-x,-y,-z
loop_
_atom_site_type_symbol
_atom_site_label
_atom_site_fract_x
_atom_site_fract_y
_atom_site_fract_z
Si Si1 0.320627 0.357414 0.050712
Si Si2 0.423063 0.865889 0.646315
Si Si3 0.098279 0.465401 0.259340
Si Si4 0.831899 0.031385 0.082374
Si Si5 0.305622 0.165600 0.100478
Si Si6 0.393943 0.542997 0.201997
Si Si7 0.195095 0.862857 0.416642
Si Si8 0.201509 0.674956 0.448698
O O1 0.477310 0.265977 0.176399
O O2 0.407623 0.179636 0.141384
O O3 0.380901 0.504505 0.869497
O O4 0.000000 0.500000 0.000000
O O5 0.586291 0.727228 0.663693
O O6 0.500000 0.000000 0.500000
O O7 0.092130 0.021862 0.576124
O O8 0.138584 0.577376 0.201479
O O9 0.923305 0.414314 0.391025
O O10 0.943812 0.607881 0.087964
O O11 0.581552 0.060186 0.082951
O O12 0.739401 0.235778 0.946194
O O13 0.997869 0.831755 0.285701
O O14 0.000000 0.000000 0.000000
O O15 0.240119 0.020760 0.259949
O O16 0.552155 0.357937 0.399674
O O17 0.199808 0.811356 0.378558
O O18 0.500000 0.500000 0.500000
#
# Coordination Sequence:
#
# PCOD8031046 Si02
#       8
#     2   2   2   2   2   2   2   2
#     4  11  22  42  62  94 131 178 216 269 325 381
#     4  12  25  40  68  94 141 175 226 267 328 395
#     4  12  25  44  66 102 132 180 219 274 330 390
#     4  11  24  47  72  97 130 173 218 277 333 390
#     4  11  24  42  69  97 138 170 226 269 328 394
#     4  11  26  42  66  98 138 171 228 266 325 397
#     4  12  25  44  65 103 133 179 221 271 328 392
#     4  12  25  47  73  97 132 169 220 277 335 392
#
# _framework density 21.349550000000001
#
# number of rings (size 3 to 8) (size 9 to 14) (size 15 to 20)
#    0.000    0.500    2.500    7.500    3.500    2.500 
#    0.000    5.000    0.000    0.000    0.000    0.000 
#    0.000    0.000    0.000    0.000    0.000    0.000 
#
# Total GULP energy -198266.193415 kJ/mol
# GULP energy per Si atom -12391.637088 kJ/mol
# Density = 2.130096 g / cm^3
# Si number density = 21.349550 Si / 1000 Ang^3
#
#
#
# Elastic Constant Matrix: (Units=GPa)
#
#
# Indices 1 2 3 4 5 6 
#
# 1 95.3531 30.9897 27.9675 8.2121 -21.3681 -14.9149
# 2 30.9897 128.8387 23.8518 -2.1416 -17.6393 -15.8027
# 3 27.9675 23.8518 109.3496 1.0676 -15.4625 -1.5996
# 4 8.2121 -2.1416 1.0676 36.6059 -8.9864 3.4009
# 5 -21.3681 -17.6393 -15.4625 -8.9864 44.4996 5.4560
# 6 -14.9149 -15.8027 -1.5996 3.4009 5.4560 24.8638
#
#
#
# Elastic Compliance Matrix: (Units=1/GPa)
#
#
# Indices 1 2 3 4 5 6 
#
# 1 0.013886 -0.001575 -0.002550 -0.002835 0.003760 0.006727
# 2 -0.001575 0.009200 -0.001248 0.001067 0.002157 0.004203
# 3 -0.002550 -0.001248 0.010360 0.000992 0.002364 -0.002311
# 4 -0.002835 0.001067 0.000992 0.030130 0.006283 -0.006458
# 5 0.003760 0.002157 0.002364 0.006283 0.027608 -0.003139
# 6 0.006727 0.004203 -0.002311 -0.006458 -0.003139 0.048349
#
#
# Mechanical properties :
#
#
# Convention : Reuss Voigt Hill
#
# Bulk Modulus (GPa) = 44.05229 55.46214 49.75721
# Shear Modulus (GPa) = 31.67625 37.90936 34.79280
#
# Velocity S-wave (km/s) = 3.85606 4.21842 4.04130
# Velocity P-wave (km/s) = 6.36429 7.05417 6.71809
#
# Compressibility (1/GPa) = 0.02270030
#
# Stress axis : x y z
#
# Youngs Moduli (GPa) = 72.01334 108.69467 96.52267
#
# Poissons Ratio (x) = 0.17121 0.24616
# Poissons Ratio (y) = 0.11343 0.12044
# Poissons Ratio (z) = 0.18365 0.13563
#
# Static dielectric constant tensor:
#      x y z
#    x 3.590720 0.103060 -0.613100 
#    y 0.103060 5.032200 0.239330 
#    z -0.613100 0.239330 2.816320 
# 
# 
# High freq. dielectric constant tensor:
#      x y z
#    x 1.842450 -0.013590 -0.001670 
#    y -0.013590 1.848790 0.003910 
#    z -0.001670 0.003910 1.851620 
# 
# From -- ./inp_files/591940.got.cif
#   From: 2010.06.25/outbox.cif.g09.slc.cpg/sg2_296_cif.got.tgz:591940.got - 2010.06.27 13:26:56.
