data_PCOD8031174
_publ_section_title
;
Structure prediction by ZEFSAII (Michael W. Deem and Ramdas Pophale) SiO2 
 PCOD8031174
Probable space group: P -1
;
_chemical_formula_sum "Si O2"
_cell_formula_units_Z 16
_cell_length_a 8.896934
_cell_length_b 15.294825
_cell_length_c 9.969315
_cell_angle_alpha 133.559665
_cell_angle_beta 74.381995
_cell_angle_gamma 77.257368
_cell_volume 769.982718
_symmetry_space_group_name_H-M "P -1"
_symmetry_group_IT_number 2
_symmetry_cell_setting 'triclinic'
loop_
_space_group_symop_operation_xyz
x,y,z
-x,-y,-z
loop_
_atom_site_type_symbol
_atom_site_label
_atom_site_fract_x
_atom_site_fract_y
_atom_site_fract_z
Si Si1 0.581640 0.824434 0.945409
Si Si2 0.904025 0.151109 0.499021
Si Si3 0.945169 0.170751 0.821560
Si Si4 0.679894 0.842331 0.239402
Si Si5 0.761812 0.840398 0.658978
Si Si6 0.530512 0.417664 0.769628
Si Si7 0.536075 0.398953 0.260280
Si Si8 0.221271 0.370452 0.788567
O O1 0.733350 0.799177 0.770456
O O2 0.538761 0.702898 0.807028
O O3 0.673299 0.812181 0.053707
O O4 0.385637 0.986117 0.151966
O O5 0.701684 0.244616 0.568491
O O6 0.879687 0.185807 0.699569
O O7 0.028100 0.198176 0.446304
O O8 0.996687 0.978989 0.277476
O O9 0.123819 0.179178 0.794666
O O10 0.764235 0.301595 0.082769
O O11 0.684750 0.715513 0.185501
O O12 0.500000 0.000000 0.500000
O O13 0.738554 0.745375 0.457221
O O14 0.579484 0.493138 0.723405
O O15 0.335411 0.439135 0.792962
O O16 0.500000 0.500000 0.000000
O O17 0.500000 0.500000 0.500000
O O18 0.000000 0.500000 0.000000
#
# Coordination Sequence:
#
# PCOD8031174 Si02
#       8
#     2   2   2   2   2   2   2   2
#     4  11  25  45  70  99 139 181 230 281 339 420
#     4  11  22  42  71 101 135 177 229 288 339 405
#     4  11  23  42  70 102 138 176 229 285 348 403
#     4  12  23  42  70 106 136 175 233 285 344 409
#     4  11  23  46  69  99 138 180 225 284 348 398
#     4  12  24  41  68 103 136 176 230 278 335 408
#     4  12  26  48  68  99 144 186 224 280 354 410
#     4  12  24  42  68 103 141 176 225 281 342 407
#
# _framework density 20.779688
#
# number of rings (size 3 to 8) (size 9 to 14) (size 15 to 20)
#    0.000    0.500    5.000    3.750    1.750    1.000 
#    0.000    3.125    0.000    0.000    0.000    0.000 
#    0.000    0.000    0.000    0.000    0.000    0.000 
#
# Total GULP energy -198458.340370 kJ/mol
# GULP energy per Si atom -12403.646273 kJ/mol
# Density = 2.073239 g / cm^3
# Si number density = 20.779688 Si / 1000 Ang^3
#
#
#
# Elastic Constant Matrix: (Units=GPa)
#
#
# Indices 1 2 3 4 5 6 
#
# 1 79.4215 16.0649 30.4869 11.6104 -2.2246 2.4911
# 2 16.0649 129.8320 63.6119 2.3809 2.7392 -5.0035
# 3 30.4869 63.6119 133.0272 0.9664 3.6370 -2.8686
# 4 11.6104 2.3809 0.9664 34.6267 -3.6944 1.6129
# 5 -2.2246 2.7392 3.6370 -3.6944 41.2147 4.3459
# 6 2.4911 -5.0035 -2.8686 1.6129 4.3459 35.2546
#
#
#
# Elastic Compliance Matrix: (Units=1/GPa)
#
#
# Indices 1 2 3 4 5 6 
#
# 1 0.014628 -0.000181 -0.003280 -0.004659 0.000801 -0.001212
# 2 -0.000181 0.010119 -0.004757 -0.000602 -0.000437 0.001143
# 3 -0.003280 -0.004757 0.010566 0.001030 -0.000750 0.000462
# 4 -0.004659 -0.000602 0.001030 0.030798 0.002606 -0.001403
# 5 0.000801 -0.000437 -0.000750 0.002606 0.024992 -0.003380
# 6 -0.001212 0.001143 0.000462 -0.001403 -0.003380 0.029131
#
#
# Mechanical properties :
#
#
# Convention : Reuss Voigt Hill
#
# Bulk Modulus (GPa) = 52.96941 62.51203 57.74072
# Shear Modulus (GPa) = 34.97401 37.69365 36.33383
#
# Velocity S-wave (km/s) = 4.10699 4.26369 4.18607
# Velocity P-wave (km/s) = 6.93081 7.37477 7.15624
#
# Compressibility (1/GPa) = 0.01887882
#
# Stress axis : x y z
#
# Youngs Moduli (GPa) = 68.36058 98.81922 94.63915
#
# Poissons Ratio (x) = 0.01790 0.31042
# Poissons Ratio (y) = 0.01238 0.45015
# Poissons Ratio (z) = 0.22423 0.47004
#
# Static dielectric constant tensor:
#      x y z
#    x 3.836940 0.097030 -0.068570 
#    y 0.097030 4.057260 0.105060 
#    z -0.068570 0.105060 3.866010 
# 
# 
# High freq. dielectric constant tensor:
#      x y z
#    x 1.816430 0.009740 -0.003180 
#    y 0.009740 1.830230 0.008210 
#    z -0.003180 0.008210 1.818080 
# 
# From -- ./inp_files/206507.got.cif
#   From: 2010.06.25/outbox.cif.g09.slc.cpg/sg2_104_cif.got.tgz:206507.got - 2010.06.27 13:26:56.
