data_PCOD8031231
_publ_section_title
;
Structure prediction by ZEFSAII (Michael W. Deem and Ramdas Pophale) SiO2 
 PCOD8031231
Probable space group: P -1
;
_chemical_formula_sum "Si O2"
_cell_formula_units_Z 16
_cell_length_a 15.486751
_cell_length_b 12.043398
_cell_length_c 18.643532
_cell_angle_alpha 28.665865
_cell_angle_beta 149.347678
_cell_angle_gamma 131.238205
_cell_volume 782.686598
_symmetry_space_group_name_H-M "P -1"
_symmetry_group_IT_number 2
_symmetry_cell_setting 'triclinic'
loop_
_space_group_symop_operation_xyz
x,y,z
-x,-y,-z
loop_
_atom_site_type_symbol
_atom_site_label
_atom_site_fract_x
_atom_site_fract_y
_atom_site_fract_z
Si Si1 0.014106 0.240795 0.909788
Si Si2 0.972178 0.244440 0.039125
Si Si3 0.573317 0.257116 0.972122
Si Si4 0.432071 0.561392 0.838017
Si Si5 0.444264 0.035285 0.357629
Si Si6 0.728540 0.542200 0.820230
Si Si7 0.767410 0.715799 0.371523
Si Si8 0.973597 0.279154 0.564833
O O1 0.910329 0.484229 0.649137
O O2 0.918579 0.299032 0.886514
O O3 0.229227 0.185158 0.104344
O O4 0.000000 0.000000 0.000000
O O5 0.140278 0.322519 0.134767
O O6 0.797505 0.399538 0.875633
O O7 0.020347 0.949120 0.251014
O O8 0.656697 0.953764 0.208069
O O9 0.544726 0.348476 0.981770
O O10 0.715352 0.354178 0.979110
O O11 0.378623 0.366710 0.728393
O O12 0.440061 0.822633 0.674741
O O13 0.226092 0.588500 0.685210
O O14 0.500000 0.500000 0.000000
O O15 0.500000 0.000000 0.500000
O O16 0.524329 0.755641 0.538710
O O17 0.877140 0.818477 0.336028
O O18 0.000000 0.500000 0.500000
#
# Coordination Sequence:
#
# PCOD8031231 Si02
#       8
#     2   2   2   2   2   2   2   2
#     4  12  25  44  68 105 135 177 233 285 329 401
#     4  11  24  42  67 103 131 180 227 273 344 400
#     4  11  23  46  68  95 137 187 219 276 351 407
#     4  12  25  40  65 102 132 171 227 282 334 398
#     4  12  22  43  69  96 134 181 225 270 339 406
#     4  11  22  42  73  94 134 184 225 272 335 419
#     4  11  25  43  69  97 137 181 227 273 347 407
#     4  12  22  43  68  98 136 178 225 274 339 412
#
# _framework density 20.442408
#
# number of rings (size 3 to 8) (size 9 to 14) (size 15 to 20)
#    0.000    0.500    6.250    2.250    0.000    1.000 
#    0.000    4.375    0.000    0.000    0.000    0.000 
#    0.000    0.000    0.000    0.000    0.000    0.000 
#
# Total GULP energy -198386.335827 kJ/mol
# GULP energy per Si atom -12399.145989 kJ/mol
# Density = 2.039588 g / cm^3
# Si number density = 20.442408 Si / 1000 Ang^3
#
#
#
# Elastic Constant Matrix: (Units=GPa)
#
#
# Indices 1 2 3 4 5 6 
#
# 1 127.3191 50.2266 43.5244 1.9944 0.3047 -10.6678
# 2 50.2266 115.3952 50.7760 -3.5453 -5.5995 -1.7916
# 3 43.5244 50.7760 136.2374 1.5684 -3.4930 -6.2672
# 4 1.9944 -3.5453 1.5684 33.6367 0.1389 4.8337
# 5 0.3047 -5.5995 -3.4930 0.1389 38.2103 -4.1978
# 6 -10.6678 -1.7916 -6.2672 4.8337 -4.1978 42.6985
#
#
#
# Elastic Compliance Matrix: (Units=1/GPa)
#
#
# Indices 1 2 3 4 5 6 
#
# 1 0.010102 -0.003649 -0.001766 -0.001215 -0.000531 0.002197
# 2 -0.003649 0.011792 -0.003259 0.001744 0.001347 -0.000960
# 3 -0.001766 -0.003259 0.009182 -0.000799 0.000478 0.000907
# 4 -0.001215 0.001744 -0.000799 0.030576 -0.000341 -0.003843
# 5 -0.000531 0.001347 0.000478 -0.000341 0.026710 0.002659
# 6 0.002197 -0.000960 0.000907 -0.003843 0.002659 0.024758
#
#
# Mechanical properties :
#
#
# Convention : Reuss Voigt Hill
#
# Bulk Modulus (GPa) = 72.84031 74.22286 73.53159
# Shear Modulus (GPa) = 37.02514 38.53741 37.78127
#
# Velocity S-wave (km/s) = 4.26043 4.34656 4.30371
# Velocity P-wave (km/s) = 7.74022 7.84712 7.79385
#
# Compressibility (1/GPa) = 0.01372866
#
# Stress axis : x y z
#
# Youngs Moduli (GPa) = 98.99256 84.80275 108.90752
#
# Poissons Ratio (x) = 0.30943 0.19232
# Poissons Ratio (y) = 0.36121 0.35492
# Poissons Ratio (z) = 0.17481 0.27637
#
# Static dielectric constant tensor:
#      x y z
#    x 4.160860 0.069010 0.439680 
#    y 0.069010 3.807140 -0.023530 
#    z 0.439680 -0.023530 3.839940 
# 
# 
# High freq. dielectric constant tensor:
#      x y z
#    x 1.811560 0.007260 0.013260 
#    y 0.007260 1.809780 -0.011710 
#    z 0.013260 -0.011710 1.795160 
# 
# From -- ./inp_files/207323.got.cif
#   From: 2010.06.25/outbox.cif.g09.slc.cpg/sg2_104_cif.got.tgz:207323.got - 2010.06.27 13:26:56.
