data_PCOD8031614
_publ_section_title
;
Structure prediction by ZEFSAII (Michael W. Deem and Ramdas Pophale) SiO2 
 PCOD8031614
Probable space group: P -1
;
_chemical_formula_sum "Si O2"
_cell_formula_units_Z 16
_cell_length_a 11.495565
_cell_length_b 11.154335
_cell_length_c 8.730864
_cell_angle_alpha 75.800811
_cell_angle_beta 125.739675
_cell_angle_gamma 128.951848
_cell_volume 693.359644
_symmetry_space_group_name_H-M "P -1"
_symmetry_group_IT_number 2
_symmetry_cell_setting 'triclinic'
loop_
_space_group_symop_operation_xyz
x,y,z
-x,-y,-z
loop_
_atom_site_type_symbol
_atom_site_label
_atom_site_fract_x
_atom_site_fract_y
_atom_site_fract_z
Si Si1 0.150233 0.053604 0.972830
Si Si2 0.818425 0.454608 0.445357
Si Si3 0.764382 0.703805 0.267758
Si Si4 0.880374 0.078323 0.335944
Si Si5 0.653707 0.177419 0.206118
Si Si6 0.185740 0.612290 0.201215
Si Si7 0.624491 0.043519 0.727417
Si Si8 0.484000 0.252212 0.795836
O O1 0.089617 0.938290 0.815014
O O2 0.226868 0.225279 0.914651
O O3 0.301168 0.056825 0.181382
O O4 0.000000 0.000000 0.000000
O O5 0.768444 0.559326 0.297900
O O6 0.675305 0.272520 0.345917
O O7 0.835622 0.477923 0.632708
O O8 0.000000 0.500000 0.500000
O O9 0.574770 0.642297 0.222884
O O10 0.936473 0.850772 0.450420
O O11 0.833265 0.199753 0.280877
O O12 0.709790 0.917014 0.333850
O O13 0.491311 0.996724 0.189909
O O14 0.594043 0.237899 0.011924
O O15 0.209969 0.770970 0.203734
O O16 0.373729 0.657904 0.261195
O O17 0.000000 0.500000 0.000000
O O18 0.500000 0.000000 0.500000
#
# Coordination Sequence:
#
# PCOD8031614 Si02
#       8
#     2   2   2   2   2   2   2   2
#     4  11  26  44  70 111 147 186 238 306 367 432
#     4  12  27  46  70 101 151 198 243 297 371 448
#     4  11  26  47  72 109 149 195 240 301 378 435
#     4  11  22  44  76 106 141 191 244 296 366 445
#     4  12  22  45  74 103 141 194 248 301 359 442
#     4  12  28  45  73 110 145 194 252 306 367 441
#     4  12  25  45  76 110 143 191 254 304 363 441
#     4  11  23  45  71 105 142 189 244 305 370 429
#
# _framework density 23.076046000000002
#
# number of rings (size 3 to 8) (size 9 to 14) (size 15 to 20)
#    0.000    0.500    6.250    3.375    5.250    2.000 
#    0.000    0.000    0.000    0.000    0.000    0.000 
#    0.000    0.000    0.000    0.000    0.000    0.000 
#
# Total GULP energy -198316.315507 kJ/mol
# GULP energy per Si atom -12394.769719 kJ/mol
# Density = 2.302352 g / cm^3
# Si number density = 23.076046 Si / 1000 Ang^3
#
#
#
# Elastic Constant Matrix: (Units=GPa)
#
#
# Indices 1 2 3 4 5 6 
#
# 1 193.4455 52.6585 64.6838 -22.6790 11.2409 12.9192
# 2 52.6585 100.7164 47.0656 -12.0872 0.3695 -5.4230
# 3 64.6838 47.0656 128.8600 -18.9961 15.8887 -3.3879
# 4 -22.6790 -12.0872 -18.9961 44.0824 -5.9020 5.6707
# 5 11.2409 0.3695 15.8887 -5.9020 40.2873 -3.4080
# 6 12.9192 -5.4230 -3.3879 5.6707 -3.4080 40.7260
#
#
#
# Elastic Compliance Matrix: (Units=1/GPa)
#
#
# Indices 1 2 3 4 5 6 
#
# 1 0.007176 -0.002581 -0.002283 0.002278 -0.001016 -0.003212
# 2 -0.002581 0.013185 -0.003639 0.000728 0.002341 0.002366
# 3 -0.002283 -0.003639 0.010958 0.002031 -0.003304 0.000592
# 4 0.002278 0.000728 0.002031 0.025696 0.001994 -0.003868
# 5 -0.001016 0.002341 -0.003304 0.001994 0.026876 0.002331
# 6 -0.003212 0.002366 0.000592 -0.003868 0.002331 0.026671
#
#
# Mechanical properties :
#
#
# Convention : Reuss Voigt Hill
#
# Bulk Modulus (GPa) = 69.86814 83.53750 76.70282
# Shear Modulus (GPa) = 37.78164 42.26006 40.02085
#
# Velocity S-wave (km/s) = 4.05070 4.28406 4.16901
# Velocity P-wave (km/s) = 7.22639 7.79426 7.51569
#
# Compressibility (1/GPa) = 0.01431267
#
# Stress axis : x y z
#
# Youngs Moduli (GPa) = 139.35568 75.84231 91.25866
#
# Poissons Ratio (x) = 0.19575 0.20832
# Poissons Ratio (y) = 0.35967 0.33213
# Poissons Ratio (z) = 0.31812 0.27602
#
# Static dielectric constant tensor:
#      x y z
#    x 3.442300 0.406030 0.996790 
#    y 0.406030 4.349140 -0.192790 
#    z 0.996790 -0.192790 3.716540 
# 
# 
# High freq. dielectric constant tensor:
#      x y z
#    x 1.922920 -0.003980 0.013860 
#    y -0.003980 1.905380 -0.006920 
#    z 0.013860 -0.006920 1.915790 
# 
# From -- ./inp_files/262341.got.cif
#   From: 2010.06.25/outbox.cif.g09.slc.cpg/sg2_132_cif.got.tgz:262341.got - 2010.06.27 13:26:56.
