data_PCOD8031707
_publ_section_title
;
Structure prediction by ZEFSAII (Michael W. Deem and Ramdas Pophale) SiO2 
 PCOD8031707
Probable space group: P -1
;
_chemical_formula_sum "Si O2"
_cell_formula_units_Z 16
_cell_length_a 5.807778
_cell_length_b 16.572359
_cell_length_c 15.914062
_cell_angle_alpha 34.335837
_cell_angle_beta 55.657024
_cell_angle_gamma 65.540189
_cell_volume 708.916334
_symmetry_space_group_name_H-M "P -1"
_symmetry_group_IT_number 2
_symmetry_cell_setting 'triclinic'
loop_
_space_group_symop_operation_xyz
x,y,z
-x,-y,-z
loop_
_atom_site_type_symbol
_atom_site_label
_atom_site_fract_x
_atom_site_fract_y
_atom_site_fract_z
Si Si1 0.832337 0.236384 0.877497
Si Si2 0.633610 0.997461 0.883005
Si Si3 0.739336 0.617937 0.877989
Si Si4 0.832803 0.153301 0.126846
Si Si5 0.132268 0.394886 0.953489
Si Si6 0.317761 0.068461 0.403783
Si Si7 0.540915 0.446356 0.670628
Si Si8 0.413213 0.273862 0.673600
O O1 0.819570 0.390460 0.700927
O O2 0.108466 0.180894 0.826995
O O3 0.557478 0.124458 0.022293
O O4 0.852592 0.261861 0.950620
O O5 0.953242 0.964546 0.836186
O O6 0.629211 0.158510 0.708070
O O7 0.500000 0.000000 0.000000
O O8 0.725494 0.767494 0.702830
O O9 0.026475 0.550806 0.856184
O O10 0.500000 0.500000 0.000000
O O11 0.704231 0.644661 0.962247
O O12 0.524157 0.068582 0.279938
O O13 0.898902 0.257403 0.104585
O O14 0.313809 0.404625 0.824288
O O15 0.500000 0.000000 0.500000
O O16 0.000000 0.000000 0.500000
O O17 0.467105 0.358416 0.676801
O O18 0.578001 0.616361 0.500497
#
# Coordination Sequence:
#
# PCOD8031707 Si02
#       8
#     2   2   2   2   2   2   2   2
#     4  12  21  40  70  95 135 191 245 281 356 436
#     4  12  23  42  66 101 139 183 246 291 345 443
#     4  11  25  45  80 103 138 192 252 309 367 453
#     4  12  25  44  77 101 136 199 242 299 370 451
#     4  11  22  45  73 105 139 190 257 305 364 452
#     4  12  29  51  76 110 155 190 242 321 392 443
#     4  11  23  41  65  95 146 180 234 297 360 425
#     4  11  24  41  63 103 143 189 229 298 360 422
#
# _framework density 22.569659999999999
#
# number of rings (size 3 to 8) (size 9 to 14) (size 15 to 20)
#    0.000    0.500    6.250    2.250    3.500    1.000 
#    0.000    0.000    0.000    0.000    0.000    0.000 
#    0.000    0.000    0.000    0.000    0.000    0.000 
#
# Total GULP energy -198217.660923 kJ/mol
# GULP energy per Si atom -12388.603808 kJ/mol
# Density = 2.251829 g / cm^3
# Si number density = 22.569660 Si / 1000 Ang^3
#
#
#
# Elastic Constant Matrix: (Units=GPa)
#
#
# Indices 1 2 3 4 5 6 
#
# 1 118.3655 41.7823 57.3330 -4.4589 9.8741 -1.4206
# 2 41.7823 102.4059 45.7052 -12.4524 11.3608 -15.8893
# 3 57.3330 45.7052 122.5006 -17.6561 21.0103 -4.2147
# 4 -4.4589 -12.4524 -17.6561 35.7555 -8.4475 4.5321
# 5 9.8741 11.3608 21.0103 -8.4475 50.8252 -1.2468
# 6 -1.4206 -15.8893 -4.2147 4.5321 -1.2468 45.3803
#
#
#
# Elastic Compliance Matrix: (Units=1/GPa)
#
#
# Indices 1 2 3 4 5 6 
#
# 1 0.011690 -0.003076 -0.004612 -0.001768 0.000006 -0.000963
# 2 -0.003076 0.013305 -0.002961 0.002108 -0.000703 0.004058
# 3 -0.004612 -0.002961 0.012483 0.003920 -0.002963 -0.000495
# 4 -0.001768 0.002108 0.003920 0.031483 0.003435 -0.002003
# 5 0.000006 -0.000703 -0.002963 0.003435 0.021620 -0.000270
# 6 -0.000963 0.004058 -0.000495 -0.002003 -0.000270 0.023573
#
#
# Mechanical properties :
#
#
# Convention : Reuss Voigt Hill
#
# Bulk Modulus (GPa) = 61.80501 70.32365 66.06433
# Shear Modulus (GPa) = 35.50002 39.62229 37.56116
#
# Velocity S-wave (km/s) = 3.97029 4.19448 4.08393
# Velocity P-wave (km/s) = 6.96141 7.39489 7.18142
#
# Compressibility (1/GPa) = 0.01617992
#
# Stress axis : x y z
#
# Youngs Moduli (GPa) = 85.54615 75.15798 80.11086
#
# Poissons Ratio (x) = 0.23118 0.36949
# Poissons Ratio (y) = 0.26313 0.23719
# Poissons Ratio (z) = 0.39456 0.22252
#
# Static dielectric constant tensor:
#      x y z
#    x 4.698200 -0.342290 0.260050 
#    y -0.342290 4.367790 -0.238030 
#    z 0.260050 -0.238030 4.257880 
# 
# 
# High freq. dielectric constant tensor:
#      x y z
#    x 1.905560 -0.015750 0.013470 
#    y -0.015750 1.886890 -0.003770 
#    z 0.013470 -0.003770 1.881650 
# 
# From -- ./inp_files/484199.got.cif
#   From: 2010.06.25/outbox.cif.g09.slc.cpg/sg2_243_cif.got.tgz:484199.got - 2010.06.27 13:26:56.
