data_PCOD8031635
_publ_section_title
;
Structure prediction by ZEFSAII (Michael W. Deem and Ramdas Pophale) SiO2 
 PCOD8031635
Probable space group: P -1
;
_chemical_formula_sum "Si O2"
_cell_formula_units_Z 16
_cell_length_a 9.730454
_cell_length_b 15.676485
_cell_length_c 9.224145
_cell_angle_alpha 96.583295
_cell_angle_beta 88.749603
_cell_angle_gamma 34.705296
_cell_volume 778.887946
_symmetry_space_group_name_H-M "P -1"
_symmetry_group_IT_number 2
_symmetry_cell_setting 'triclinic'
loop_
_space_group_symop_operation_xyz
x,y,z
-x,-y,-z
loop_
_atom_site_type_symbol
_atom_site_label
_atom_site_fract_x
_atom_site_fract_y
_atom_site_fract_z
Si Si1 0.718810 0.380519 0.854235
Si Si2 0.253247 0.154057 0.197996
Si Si3 0.091335 0.530819 0.597881
Si Si4 0.953812 0.132585 0.180798
Si Si5 0.528184 0.566063 0.610480
Si Si6 0.265571 0.808428 0.109214
Si Si7 0.244361 0.183071 0.878633
Si Si8 0.230753 0.377871 0.866843
O O1 0.653720 0.472864 0.738562
O O2 0.746638 0.264747 0.790787
O O3 0.978949 0.278285 0.886776
O O4 0.500000 0.500000 0.000000
O O5 0.113943 0.287942 0.341330
O O6 0.118479 0.132661 0.175760
O O7 0.534354 0.993838 0.215613
O O8 0.273421 0.190555 0.049645
O O9 0.314480 0.446957 0.480297
O O10 0.188762 0.452309 0.736364
O O11 0.000000 0.500000 0.500000
O O12 0.736892 0.254617 0.324247
O O13 0.839593 0.174670 0.034382
O O14 0.109067 0.970324 0.200243
O O15 0.500000 0.500000 0.500000
O O16 0.546434 0.694286 0.063186
O O17 0.277634 0.254030 0.802279
O O18 0.000000 0.500000 0.000000
#
# Coordination Sequence:
#
# PCOD8031635 Si02
#       8
#     2   2   2   2   2   2   2   2
#     4  12  23  43  69 105 130 176 236 276 321 401
#     4  11  22  45  67 101 141 174 221 279 347 392
#     4  12  28  45  66 101 140 179 223 277 341 407
#     4  11  23  43  67 103 138 175 221 282 341 393
#     4  12  25  44  70  94 139 185 218 273 348 399
#     4  11  24  40  72 103 133 169 234 284 322 396
#     4  11  23  40  72 100 134 176 222 283 338 386
#     4  12  24  43  68 104 134 173 230 282 325 396
#
# _framework density 20.542107000000001
#
# number of rings (size 3 to 8) (size 9 to 14) (size 15 to 20)
#    0.000    0.500    6.250    2.250    1.750    1.000 
#    0.000    7.500    0.000    0.000    0.000    0.000 
#    0.000    0.000    0.000    0.000    0.000    0.000 
#
# Total GULP energy -198391.005275 kJ/mol
# GULP energy per Si atom -12399.437830 kJ/mol
# Density = 2.049535 g / cm^3
# Si number density = 20.542107 Si / 1000 Ang^3
#
#
#
# Elastic Constant Matrix: (Units=GPa)
#
#
# Indices 1 2 3 4 5 6 
#
# 1 153.0613 66.0693 39.9704 3.8861 -3.8033 -5.7248
# 2 66.0693 145.4855 53.2114 10.4623 -6.0539 -5.9653
# 3 39.9704 53.2114 94.5252 10.0499 -12.7798 -1.8956
# 4 3.8861 10.4623 10.0499 30.7769 7.7710 -2.0479
# 5 -3.8033 -6.0539 -12.7798 7.7710 41.8977 -0.0414
# 6 -5.7248 -5.9653 -1.8956 -2.0479 -0.0414 47.2471
#
#
#
# Elastic Compliance Matrix: (Units=1/GPa)
#
#
# Indices 1 2 3 4 5 6 
#
# 1 0.008385 -0.003166 -0.001891 0.000778 -0.000417 0.000574
# 2 -0.003166 0.009944 -0.004037 -0.001678 0.000230 0.000637
# 3 -0.001891 -0.004037 0.014723 -0.004367 0.004546 -0.000333
# 4 0.000778 -0.001678 -0.004367 0.036567 -0.008285 0.001285
# 5 -0.000417 0.000230 0.004546 -0.008285 0.026786 -0.000175
# 6 0.000574 0.000637 -0.000333 0.001285 -0.000175 0.021357
#
#
# Mechanical properties :
#
#
# Convention : Reuss Voigt Hill
#
# Bulk Modulus (GPa) = 67.27270 79.06382 73.16826
# Shear Modulus (GPa) = 35.48452 39.57240 37.52846
#
# Velocity S-wave (km/s) = 4.16071 4.39384 4.27887
# Velocity P-wave (km/s) = 7.47675 8.01956 7.75291
#
# Compressibility (1/GPa) = 0.01486487
#
# Stress axis : x y z
#
# Youngs Moduli (GPa) = 119.25855 100.56094 67.91901
#
# Poissons Ratio (x) = 0.31839 0.12844
# Poissons Ratio (y) = 0.37759 0.27418
# Poissons Ratio (z) = 0.22552 0.40595
#
# Static dielectric constant tensor:
#      x y z
#    x 3.913720 0.129550 -0.058180 
#    y 0.129550 4.181150 0.107710 
#    z -0.058180 0.107710 3.528220 
# 
# 
# High freq. dielectric constant tensor:
#      x y z
#    x 1.824990 0.003000 -0.006350 
#    y 0.003000 1.825990 0.005420 
#    z -0.006350 0.005420 1.775180 
# 
# From -- ./inp_files/207780.got.cif
#   From: 2010.06.25/outbox.cif.g09.slc.cpg/sg2_104_cif.got.tgz:207780.got - 2010.06.27 13:26:56.
