data_PCOD8031918
_publ_section_title
;
Structure prediction by ZEFSAII (Michael W. Deem and Ramdas Pophale) SiO2 
 PCOD8031918
Probable space group: P -1
;
_chemical_formula_sum "Si O2"
_cell_formula_units_Z 14
_cell_length_a 9.396263
_cell_length_b 9.604888
_cell_length_c 11.475312
_cell_angle_alpha 80.947068
_cell_angle_beta 141.193372
_cell_angle_gamma 109.560664
_cell_volume 602.099880
_symmetry_space_group_name_H-M "P -1"
_symmetry_group_IT_number 2
_symmetry_cell_setting 'triclinic'
loop_
_space_group_symop_operation_xyz
x,y,z
-x,-y,-z
loop_
_atom_site_type_symbol
_atom_site_label
_atom_site_fract_x
_atom_site_fract_y
_atom_site_fract_z
Si Si1 0.357347 0.671785 0.331692
Si Si2 0.782748 0.913367 0.792289
Si Si3 0.579830 0.676088 0.030748
Si Si4 0.843583 0.669784 0.728617
Si Si5 0.620697 0.190698 0.919803
Si Si6 0.870198 0.169890 0.649170
Si Si7 0.387977 0.869456 0.726278
O O1 0.636044 0.676193 0.504640
O O2 0.175416 0.500324 0.237917
O O3 0.312677 0.750435 0.176296
O O4 0.298288 0.753011 0.397872
O O5 0.788166 0.745994 0.800697
O O6 0.544610 0.913452 0.703109
O O7 0.803576 0.997457 0.670151
O O8 0.000000 0.000000 0.000000
O O9 0.411031 0.728161 0.827284
O O10 0.500000 0.500000 0.000000
O O11 0.543883 0.729805 0.130516
O O12 0.852802 0.743016 0.151650
O O13 0.119542 0.768173 0.851755
O O14 0.466437 0.012223 0.844355
O O15 0.864057 0.175364 0.500821
#
# Coordination Sequence:
#
# PCOD8031918 Si02
#       7
#     2   2   2   2   2   2   2
#     4  11  24  39  68 101 131 171 221 277 330 385
#     4  12  20  40  72 103 130 167 219 286 330 382
#     4  12  30  46  66  96 139 185 220 265 335 403
#     4  11  23  38  65 100 134 167 219 275 332 381
#     4  12  25  44  66  96 136 175 221 270 330 396
#     4  12  24  45  72 102 131 174 224 278 331 394
#     4  12  25  43  72  98 134 173 226 275 334 390
#
# _framework density 23.251954999999999
#
# number of rings (size 3 to 8) (size 9 to 14) (size 15 to 20)
#    0.000    0.286    5.714    3.000    2.000    2.286 
#    0.000    0.000    0.000    0.000    0.000    0.000 
#    0.000    0.000    0.000    0.000    0.000    0.000 
#
# Total GULP energy -173545.340334 kJ/mol
# GULP energy per Si atom -12396.095738 kJ/mol
# Density = 2.319903 g / cm^3
# Si number density = 23.251955 Si / 1000 Ang^3
#
#
#
# Elastic Constant Matrix: (Units=GPa)
#
#
# Indices 1 2 3 4 5 6 
#
# 1 78.8690 32.8658 16.1863 0.0812 -2.0189 -14.1287
# 2 32.8658 155.6594 26.4842 2.7163 -20.0672 -23.0445
# 3 16.1863 26.4842 87.6687 -6.4689 -16.6571 -2.2917
# 4 0.0812 2.7163 -6.4689 31.1620 -0.6339 -4.5317
# 5 -2.0189 -20.0672 -16.6571 -0.6339 39.0023 0.1697
# 6 -14.1287 -23.0445 -2.2917 -4.5317 0.1697 32.1863
#
#
#
# Elastic Compliance Matrix: (Units=1/GPa)
#
#
# Indices 1 2 3 4 5 6 
#
# 1 0.014889 -0.002234 -0.002170 0.000383 -0.001321 0.004842
# 2 -0.002234 0.008295 -0.001305 -0.000215 0.003571 0.004816
# 3 -0.002170 -0.001305 0.013345 0.002910 0.004965 -0.000553
# 4 0.000383 -0.000215 0.002910 0.033462 0.001675 0.004924
# 5 -0.001321 0.003571 0.004965 0.001675 0.029546 0.002410
# 6 0.004842 0.004816 -0.000553 0.004924 0.002410 0.037284
#
#
# Mechanical properties :
#
#
# Convention : Reuss Voigt Hill
#
# Bulk Modulus (GPa) = 39.82407 52.58552 46.20479
# Shear Modulus (GPa) = 31.92634 36.91418 34.42026
#
# Velocity S-wave (km/s) = 3.70950 3.98876 3.85166
# Velocity P-wave (km/s) = 5.95916 6.62406 6.30039
#
# Compressibility (1/GPa) = 0.02511044
#
# Stress axis : x y z
#
# Youngs Moduli (GPa) = 67.16369 120.55207 74.93355
#
# Poissons Ratio (x) = 0.26937 0.16261
# Poissons Ratio (y) = 0.15008 0.09778
# Poissons Ratio (z) = 0.14575 0.15731
#
# Static dielectric constant tensor:
#      x y z
#    x 3.994050 -0.166500 0.085950 
#    y -0.166500 4.261060 0.094130 
#    z 0.085950 0.094130 4.306730 
# 
# 
# High freq. dielectric constant tensor:
#      x y z
#    x 1.899430 -0.015170 0.002670 
#    y -0.015170 1.922870 0.006990 
#    z 0.002670 0.006990 1.939270 
# 
# From -- ./inp_files/243458.got.cif
#   From: 2010.06.25/outbox.cif.g09.slc.cpg/sg2_122_cif.got.tgz:243458.got - 2010.06.27 13:26:56.
