data_PCOD8031836
_publ_section_title
;
Structure prediction by ZEFSAII (Michael W. Deem and Ramdas Pophale) SiO2 
 PCOD8031836
Probable space group: P -1
;
_chemical_formula_sum "Si O2"
_cell_formula_units_Z 16
_cell_length_a 12.797689
_cell_length_b 9.554552
_cell_length_c 21.448065
_cell_angle_alpha 150.395456
_cell_angle_beta 145.108356
_cell_angle_gamma 44.904756
_cell_volume 740.999194
_symmetry_space_group_name_H-M "P -1"
_symmetry_group_IT_number 2
_symmetry_cell_setting 'triclinic'
loop_
_space_group_symop_operation_xyz
x,y,z
-x,-y,-z
loop_
_atom_site_type_symbol
_atom_site_label
_atom_site_fract_x
_atom_site_fract_y
_atom_site_fract_z
Si Si1 0.910737 0.206433 0.329770
Si Si2 0.502752 0.251629 0.146945
Si Si3 0.475591 0.197528 0.335609
Si Si4 0.945313 0.858623 0.759166
Si Si5 0.185538 0.805411 0.363436
Si Si6 0.136352 0.747180 0.459920
Si Si7 0.440410 0.882762 0.318295
Si Si8 0.776340 0.774166 0.892055
O O1 0.707882 0.257421 0.274134
O O2 0.000000 0.500000 0.500000
O O3 0.930636 0.115796 0.232092
O O4 0.006775 0.987586 0.337399
O O5 0.441616 0.547280 0.200654
O O6 0.374840 0.165189 0.107457
O O7 0.500000 0.000000 0.000000
O O8 0.500000 0.500000 0.500000
O O9 0.667717 0.157244 0.377672
O O10 0.307131 0.168338 0.194690
O O11 0.441370 0.940941 0.267506
O O12 0.938137 0.534655 0.652483
O O13 0.744067 0.977020 0.690429
O O14 0.043245 0.037590 0.931763
O O15 0.175832 0.688214 0.383485
O O16 0.169810 0.554047 0.208020
O O17 0.377043 0.971164 0.506301
O O18 0.000000 0.000000 0.500000
#
# Coordination Sequence:
#
# PCOD8031836 Si02
#       8
#     2   2   2   2   2   2   2   2
#     4  12  26  43  69  98 136 178 238 282 339 410
#     4  12  28  48  65 100 146 182 228 296 350 399
#     4  11  22  47  70 103 135 178 230 280 340 420
#     4  12  26  44  68 105 136 183 230 280 348 412
#     4  11  24  44  69 104 130 186 229 279 349 412
#     4  11  24  43  72 101 138 174 231 286 339 409
#     4  11  24  46  73  97 140 181 236 282 338 419
#     4  12  26  45  71  99 145 181 229 284 347 414
#
# _framework density 21.592466999999999
#
# number of rings (size 3 to 8) (size 9 to 14) (size 15 to 20)
#    0.000    0.500    6.250    1.500    8.750    4.000 
#    0.000    1.250    0.000    0.000    0.000    0.000 
#    0.000    0.000    0.000    0.000    0.000    0.000 
#
# Total GULP energy -198351.411559 kJ/mol
# GULP energy per Si atom -12396.963222 kJ/mol
# Density = 2.154332 g / cm^3
# Si number density = 21.592467 Si / 1000 Ang^3
#
#
#
# Elastic Constant Matrix: (Units=GPa)
#
#
# Indices 1 2 3 4 5 6 
#
# 1 73.5842 21.3854 6.5741 2.3034 5.1920 -14.0403
# 2 21.3854 147.2587 34.3037 6.1713 4.0391 -17.7013
# 3 6.5741 34.3037 81.2341 -0.2579 -6.1715 -5.6829
# 4 2.3034 6.1713 -0.2579 37.9901 -2.7081 -1.7473
# 5 5.1920 4.0391 -6.1715 -2.7081 33.2556 -1.0710
# 6 -14.0403 -17.7013 -5.6829 -1.7473 -1.0710 43.9469
#
#
#
# Elastic Compliance Matrix: (Units=1/GPa)
#
#
# Indices 1 2 3 4 5 6 
#
# 1 0.015014 -0.001498 -0.000466 -0.000638 -0.002170 0.004055
# 2 -0.001498 0.008134 -0.003263 -0.001246 -0.001387 0.002292
# 3 -0.000466 -0.003263 0.014000 0.000899 0.003155 0.000460
# 4 -0.000638 -0.001246 0.000899 0.026781 0.002616 0.000539
# 5 -0.002170 -0.001387 0.003155 0.002616 0.031377 0.000025
# 6 0.004055 0.002292 0.000460 0.000539 0.000025 0.025055
#
#
# Mechanical properties :
#
#
# Convention : Reuss Voigt Hill
#
# Bulk Modulus (GPa) = 37.45986 47.40039 42.43013
# Shear Modulus (GPa) = 35.78781 39.02611 37.40696
#
# Velocity S-wave (km/s) = 4.07556 4.25596 4.16674
# Velocity P-wave (km/s) = 6.28754 6.79344 6.54538
#
# Compressibility (1/GPa) = 0.02669524
#
# Stress axis : x y z
#
# Youngs Moduli (GPa) = 66.60619 122.93745 71.42709
#
# Poissons Ratio (x) = 0.18419 0.03325
# Poissons Ratio (y) = 0.09979 0.23304
# Poissons Ratio (z) = 0.03101 0.40110
#
# Static dielectric constant tensor:
#      x y z
#    x 4.211460 0.015260 -0.050570 
#    y 0.015260 4.142070 -0.138850 
#    z -0.050570 -0.138850 3.920850 
# 
# 
# High freq. dielectric constant tensor:
#      x y z
#    x 1.853760 -0.010450 0.005850 
#    y -0.010450 1.866640 -0.004120 
#    z 0.005850 -0.004120 1.840280 
# 
# From -- ./inp_files/342797.got.cif
#   From: 2010.06.25/outbox.cif.g09.slc.cpg/sg2_172_cif.got.tgz:342797.got - 2010.06.27 13:26:56.
