data_PCOD8031404
_publ_section_title
;
Structure prediction by ZEFSAII (Michael W. Deem and Ramdas Pophale) SiO2 
 PCOD8031404
Probable space group: P -1
;
_chemical_formula_sum "Si O2"
_cell_formula_units_Z 16
_cell_length_a 18.072117
_cell_length_b 9.218686
_cell_length_c 11.798373
_cell_angle_alpha 128.295833
_cell_angle_beta 39.696077
_cell_angle_gamma 99.049854
_cell_volume 759.169787
_symmetry_space_group_name_H-M "P -1"
_symmetry_group_IT_number 2
_symmetry_cell_setting 'triclinic'
loop_
_space_group_symop_operation_xyz
x,y,z
-x,-y,-z
loop_
_atom_site_type_symbol
_atom_site_label
_atom_site_fract_x
_atom_site_fract_y
_atom_site_fract_z
Si Si1 0.153754 0.736652 0.185776
Si Si2 0.386015 0.398474 0.175054
Si Si3 0.596863 0.500113 0.050052
Si Si4 0.386038 0.897469 0.650456
Si Si5 0.827326 0.707939 0.076511
Si Si6 0.919702 0.260832 0.170367
Si Si7 0.720099 0.376769 0.262637
Si Si8 0.559900 0.893324 0.640743
O O1 0.253102 0.707540 0.159860
O O2 0.122900 0.549246 0.138353
O O3 0.240270 0.698949 0.950974
O O4 0.000000 0.000000 0.500000
O O5 0.475977 0.458319 0.170191
O O6 0.224521 0.534112 0.486992
O O7 0.357183 0.491809 0.126127
O O8 0.484235 0.111905 0.923290
O O9 0.519712 0.751633 0.328610
O O10 0.362229 0.717480 0.638439
O O11 0.437417 0.976032 0.728886
O O12 0.236079 0.130992 0.884182
O O13 0.707229 0.834439 0.381307
O O14 0.970700 0.676151 0.933499
O O15 0.870820 0.266661 0.102303
O O16 0.000000 0.000000 0.000000
O O17 0.604936 0.665647 0.547791
#
# Coordination Sequence:
#
# PCOD8031404 Si02
#       8
#     2   2   2   2   2   2   2   2
#     4  11  27  44  67 102 142 180 225 280 348 411
#     4  11  25  41  71 106 130 179 230 289 327 403
#     4  11  22  43  73  98 134 177 232 278 338 402
#     4  12  20  45  73  98 134 178 236 276 337 408
#     4  11  23  43  70  95 136 188 221 277 342 410
#     4  12  26  45  65 100 145 178 228 280 346 408
#     4  11  25  43  69  98 134 184 220 286 346 395
#     4  11  24  41  71 103 132 172 235 285 339 402
#
# _framework density 21.075652999999999
#
# number of rings (size 3 to 8) (size 9 to 14) (size 15 to 20)
#    0.000    0.750    6.250    1.500    3.500    4.500 
#    0.000    1.875    0.000    0.000    0.000    0.000 
#    0.000    0.000    0.000    0.000    0.000    0.000 
#
# Total GULP energy -198491.098301 kJ/mol
# GULP energy per Si atom -12405.693644 kJ/mol
# Density = 2.102768 g / cm^3
# Si number density = 21.075653 Si / 1000 Ang^3
#
#
#
# Elastic Constant Matrix: (Units=GPa)
#
#
# Indices 1 2 3 4 5 6 
#
# 1 97.5858 18.4229 14.5748 -3.0504 -18.5889 -7.2828
# 2 18.4229 111.5421 39.5697 1.6512 -6.9296 -0.3925
# 3 14.5748 39.5697 113.6151 19.8833 -8.5585 1.6244
# 4 -3.0504 1.6512 19.8833 37.2819 5.9193 -9.4895
# 5 -18.5889 -6.9296 -8.5585 5.9193 33.9806 -3.0130
# 6 -7.2828 -0.3925 1.6244 -9.4895 -3.0130 26.5769
#
#
#
# Elastic Compliance Matrix: (Units=1/GPa)
#
#
# Indices 1 2 3 4 5 6 
#
# 1 0.012254 -0.001274 -0.001044 0.001832 0.006285 0.004769
# 2 -0.001274 0.010504 -0.003752 0.001544 0.000286 0.000619
# 3 -0.001044 -0.003752 0.011805 -0.007511 0.002640 -0.003446
# 4 0.001832 0.001544 -0.007511 0.035068 -0.005542 0.012877
# 5 0.006285 0.000286 0.002640 -0.005542 0.034869 0.003539
# 6 0.004769 0.000619 -0.003446 0.012877 0.003539 0.044152
#
#
# Mechanical properties :
#
#
# Convention : Reuss Voigt Hill
#
# Bulk Modulus (GPa) = 44.59602 51.98642 48.29122
# Shear Modulus (GPa) = 29.71486 36.24626 32.98056
#
# Velocity S-wave (km/s) = 3.75896 4.15157 3.96013
# Velocity P-wave (km/s) = 6.32816 6.90658 6.62368
#
# Compressibility (1/GPa) = 0.02242353
#
# Stress axis : x y z
#
# Youngs Moduli (GPa) = 81.60545 95.20327 84.70925
#
# Poissons Ratio (x) = 0.12125 0.08842
# Poissons Ratio (y) = 0.10393 0.31786
# Poissons Ratio (z) = 0.08518 0.35724
#
# Static dielectric constant tensor:
#      x y z
#    x 4.092350 -0.061000 0.026330 
#    y -0.061000 3.904320 0.118350 
#    z 0.026330 0.118350 3.786760 
# 
# 
# High freq. dielectric constant tensor:
#      x y z
#    x 1.839760 -0.002140 -0.003600 
#    y -0.002140 1.836590 0.007640 
#    z -0.003600 0.007640 1.815750 
# 
# From -- ./inp_files/298127.got.cif
#   From: 2010.06.25/outbox.cif.g09.slc.cpg/sg2_150_cif.got.tgz:298127.got - 2010.06.27 13:26:56.
