data_PCOD8031314
_publ_section_title
;
Structure prediction by ZEFSAII (Michael W. Deem and Ramdas Pophale) SiO2 
 PCOD8031314
Probable space group: P -1
;
_chemical_formula_sum "Si O2"
_cell_formula_units_Z 16
_cell_length_a 11.519694
_cell_length_b 10.089872
_cell_length_c 11.793857
_cell_angle_alpha 104.743325
_cell_angle_beta 37.634035
_cell_angle_gamma 79.834018
_cell_volume 621.865325
_symmetry_space_group_name_H-M "P -1"
_symmetry_group_IT_number 2
_symmetry_cell_setting 'triclinic'
loop_
_space_group_symop_operation_xyz
x,y,z
-x,-y,-z
loop_
_atom_site_type_symbol
_atom_site_label
_atom_site_fract_x
_atom_site_fract_y
_atom_site_fract_z
Si Si1 0.143228 0.740015 0.924001
Si Si2 0.291860 0.893066 0.678267
Si Si3 0.705900 0.122724 0.762869
Si Si4 0.805883 0.218918 0.493724
Si Si5 0.796235 0.575011 0.266354
Si Si6 0.632653 0.399668 0.039723
Si Si7 0.755493 0.802590 0.788301
Si Si8 0.020475 0.546030 0.323402
O O1 0.188406 0.704285 0.014727
O O2 0.256583 0.829628 0.811116
O O3 0.261081 0.561372 0.721284
O O4 0.844370 0.896379 0.171297
O O5 0.174896 0.855354 0.660139
O O6 0.585168 0.770311 0.418872
O O7 0.649237 0.187514 0.689929
O O8 0.592859 0.280064 0.974571
O O9 0.553715 0.051047 0.905099
O O10 0.000000 0.000000 0.500000
O O11 0.087350 0.127286 0.299052
O O12 0.639786 0.433601 0.668109
O O13 0.868972 0.587838 0.336431
O O14 0.000000 0.500000 0.000000
O O15 0.757551 0.449716 0.868461
O O16 0.820059 0.707142 0.596571
O O17 0.855441 0.650773 0.772535
#
# Coordination Sequence:
#
# PCOD8031314 Si02
#       8
#     2   2   2   2   2   2   2   2
#     4  11  25  45  70 104 140 194 244 297 365 437
#     4  11  26  46  70 106 146 193 243 302 370 432
#     4  12  27  45  68 104 149 189 236 306 373 432
#     4  12  23  47  75 103 144 190 247 301 364 442
#     4  12  24  44  73 104 146 192 244 298 365 435
#     4  12  22  45  71  99 144 191 243 301 368 431
#     4  11  25  42  75 106 139 188 249 297 361 447
#     4  11  22  43  69 109 139 185 251 300 355 438
#
# _framework density 25.729043999999998
#
# number of rings (size 3 to 8) (size 9 to 14) (size 15 to 20)
#    0.000    0.500    5.000    3.750    3.500    1.000 
#    0.000    0.000    0.000    0.000    0.000    0.000 
#    0.000    0.000    0.000    0.000    0.000    0.000 
#
# Total GULP energy -198312.688270 kJ/mol
# GULP energy per Si atom -12394.543017 kJ/mol
# Density = 2.567048 g / cm^3
# Si number density = 25.729044 Si / 1000 Ang^3
#
#
#
# Elastic Constant Matrix: (Units=GPa)
#
#
# Indices 1 2 3 4 5 6 
#
# 1 108.3992 13.5754 33.1646 -17.0573 1.6061 -17.2122
# 2 13.5754 80.0377 34.4803 -38.2119 -12.1964 0.0945
# 3 33.1646 34.4803 144.4157 -5.9621 -25.0944 -13.6161
# 4 -17.0573 -38.2119 -5.9621 44.8481 -6.0522 -4.5695
# 5 1.6061 -12.1964 -25.0944 -6.0522 43.4751 0.6833
# 6 -17.2122 0.0945 -13.6161 -4.5695 0.6833 33.8131
#
#
#
# Elastic Compliance Matrix: (Units=1/GPa)
#
#
# Indices 1 2 3 4 5 6 
#
# 1 0.011646 0.002034 -0.002430 0.006369 -0.000467 0.005814
# 2 0.002034 0.026987 -0.004196 0.024598 0.008460 0.002423
# 3 -0.002430 -0.004196 0.009247 -0.002537 0.003864 0.002077
# 4 0.006369 0.024598 -0.002537 0.047775 0.011720 0.008371
# 5 -0.000467 0.008460 0.003864 0.011720 0.029218 0.002288
# 6 0.005814 0.002423 0.002077 0.008371 0.002288 0.034449
#
#
# Mechanical properties :
#
#
# Convention : Reuss Voigt Hill
#
# Bulk Modulus (GPa) = 25.84305 55.03260 40.43782
# Shear Modulus (GPa) = 27.56258 41.20274 34.38266
#
# Velocity S-wave (km/s) = 3.27657 4.00610 3.65956
# Velocity P-wave (km/s) = 4.93768 6.54478 5.79719
#
# Compressibility (1/GPa) = 0.03869513
#
# Stress axis : x y z
#
# Youngs Moduli (GPa) = 85.86444 37.05523 108.14254
#
# Poissons Ratio (x) = -0.07538 0.26282
# Poissons Ratio (y) = -0.17467 0.45382
# Poissons Ratio (z) = 0.20867 0.15550
#
# Static dielectric constant tensor:
#      x y z
#    x 4.615420 0.893010 -0.552950 
#    y 0.893010 9.138590 -0.585250 
#    z -0.552950 -0.585250 5.675150 
# 
# 
# High freq. dielectric constant tensor:
#      x y z
#    x 2.009810 -0.020920 -0.005630 
#    y -0.020920 2.058290 0.002470 
#    z -0.005630 0.002470 2.053830 
# 
# From -- ./inp_files/428318.got.cif
#   From: 2010.06.25/outbox.cif.g09.slc.cpg/sg2_215_cif.got.tgz:428318.got - 2010.06.27 13:26:56.
