data_PCOD8031607
_publ_section_title
;
Structure prediction by ZEFSAII (Michael W. Deem and Ramdas Pophale) SiO2 
 PCOD8031607
Probable space group: P -1
;
_chemical_formula_sum "Si O2"
_cell_formula_units_Z 16
_cell_length_a 6.697428
_cell_length_b 21.447283
_cell_length_c 19.879829
_cell_angle_alpha 158.250916
_cell_angle_beta 135.472733
_cell_angle_gamma 54.794199
_cell_volume 700.527279
_symmetry_space_group_name_H-M "P -1"
_symmetry_group_IT_number 2
_symmetry_cell_setting 'triclinic'
loop_
_space_group_symop_operation_xyz
x,y,z
-x,-y,-z
loop_
_atom_site_type_symbol
_atom_site_label
_atom_site_fract_x
_atom_site_fract_y
_atom_site_fract_z
Si Si1 0.260139 0.810000 0.748023
Si Si2 0.362470 0.117063 0.881117
Si Si3 0.230259 0.628317 0.424371
Si Si4 0.272204 0.091742 0.417532
Si Si5 0.578546 0.509389 0.105902
Si Si6 0.321395 0.133675 0.729141
Si Si7 0.647249 0.423217 0.354338
Si Si8 0.306085 0.125733 0.303649
O O1 0.165505 0.759387 0.596748
O O2 0.394408 0.674064 0.681411
O O3 0.976348 0.819750 0.734888
O O4 0.500000 0.000000 0.000000
O O5 0.353769 0.150617 0.833784
O O6 0.640476 0.042594 0.889056
O O7 0.452174 0.301409 0.125972
O O8 0.045894 0.975440 0.687330
O O9 0.468632 0.562148 0.456590
O O10 0.385487 0.714897 0.478619
O O11 0.908264 0.495196 0.189521
O O12 0.446610 0.300806 0.685939
O O13 0.237313 0.077389 0.315553
O O14 0.452950 0.955460 0.342577
O O15 0.500000 0.500000 0.000000
O O16 0.353038 0.331696 0.908173
O O17 0.000000 0.000000 0.500000
O O18 0.000000 0.500000 0.500000
#
# Coordination Sequence:
#
# PCOD8031607 Si02
#       8
#     2   2   2   2   2   2   2   2
#     4  12  26  45  72 106 144 197 245 297 367 438
#     4  11  25  47  72 103 150 194 242 309 370 434
#     4  12  26  47  71 106 151 184 251 308 358 444
#     4  11  24  49  75 107 148 193 247 305 373 442
#     4  12  27  48  80 109 145 198 248 304 379 444
#     4  11  28  48  76 111 147 192 247 313 377 445
#     4  12  27  43  70 107 146 196 240 300 370 436
#     4  11  22  44  75 100 144 193 244 297 368 429
#
# _framework density 22.839938
#
# number of rings (size 3 to 8) (size 9 to 14) (size 15 to 20)
#    0.000    0.500    3.750    3.375    7.000    5.500 
#    0.000    0.000    0.000    0.000    0.000    0.000 
#    0.000    0.000    0.000    0.000    0.000    0.000 
#
# Total GULP energy -198242.853383 kJ/mol
# GULP energy per Si atom -12390.178336 kJ/mol
# Density = 2.278795 g / cm^3
# Si number density = 22.839938 Si / 1000 Ang^3
#
#
#
# Elastic Constant Matrix: (Units=GPa)
#
#
# Indices 1 2 3 4 5 6 
#
# 1 121.7664 43.8252 38.8926 2.3365 8.6699 -1.9326
# 2 43.8252 97.2311 24.7783 -0.2799 6.4890 4.3964
# 3 38.8926 24.7783 126.5653 0.8887 15.4140 2.8735
# 4 2.3365 -0.2799 0.8887 44.7646 0.1794 3.1355
# 5 8.6699 6.4890 15.4140 0.1794 31.3354 6.3907
# 6 -1.9326 4.3964 2.8735 3.1355 6.3907 40.6758
#
#
#
# Elastic Compliance Matrix: (Units=1/GPa)
#
#
# Indices 1 2 3 4 5 6 
#
# 1 0.010566 -0.004156 -0.002314 -0.000621 -0.001196 0.001350
# 2 -0.004156 0.012538 -0.001071 0.000418 -0.000635 -0.001409
# 3 -0.002314 -0.001071 0.009272 -0.000051 -0.003685 -0.000066
# 4 -0.000621 0.000418 -0.000051 0.022504 0.000361 -0.001863
# 5 -0.001196 -0.000635 -0.003685 0.000361 0.035266 -0.005297
# 6 0.001350 -0.001409 -0.000066 -0.001863 -0.005297 0.025782
#
#
# Mechanical properties :
#
#
# Convention : Reuss Voigt Hill
#
# Bulk Modulus (GPa) = 57.82063 62.28391 60.05227
# Shear Modulus (GPa) = 36.55649 39.22629 37.89139
#
# Velocity S-wave (km/s) = 4.00503 4.14870 4.07750
# Velocity P-wave (km/s) = 6.83795 7.09069 6.96547
#
# Compressibility (1/GPa) = 0.01729487
#
# Stress axis : x y z
#
# Youngs Moduli (GPa) = 94.64603 79.75659 107.84598
#
# Poissons Ratio (x) = 0.33144 0.24953
# Poissons Ratio (y) = 0.39332 0.11554
# Poissons Ratio (z) = 0.21899 0.08544
#
# Static dielectric constant tensor:
#      x y z
#    x 4.989590 0.153660 0.007900 
#    y 0.153660 4.669330 0.311090 
#    z 0.007900 0.311090 4.083270 
# 
# 
# High freq. dielectric constant tensor:
#      x y z
#    x 1.913450 -0.005330 0.000610 
#    y -0.005330 1.918500 0.011270 
#    z 0.000610 0.011270 1.895030 
# 
# From -- ./inp_files/323529.got.cif
#   From: 2010.06.25/outbox.cif.g09.slc.cpg/sg2_162_cif.got.tgz:323529.got - 2010.06.27 13:26:56.
