data_PCOD8031311
_publ_section_title
;
Structure prediction by ZEFSAII (Michael W. Deem and Ramdas Pophale) SiO2 
 PCOD8031311
Probable space group: P -1
;
_chemical_formula_sum "Si O2"
_cell_formula_units_Z 14
_cell_length_a 9.503670
_cell_length_b 11.394826
_cell_length_c 15.178203
_cell_angle_alpha 151.674523
_cell_angle_beta 131.117742
_cell_angle_gamma 54.996031
_cell_volume 587.479652
_symmetry_space_group_name_H-M "P -1"
_symmetry_group_IT_number 2
_symmetry_cell_setting 'triclinic'
loop_
_space_group_symop_operation_xyz
x,y,z
-x,-y,-z
loop_
_atom_site_type_symbol
_atom_site_label
_atom_site_fract_x
_atom_site_fract_y
_atom_site_fract_z
Si Si1 0.751611 0.606098 0.263047
Si Si2 0.826906 0.282221 0.916395
Si Si3 0.495896 0.964603 0.621773
Si Si4 0.416085 0.482558 0.164071
Si Si5 0.239175 0.097852 0.957067
Si Si6 0.367511 0.267834 0.310158
Si Si7 0.090999 0.595816 0.512353
O O1 0.818342 0.399621 0.086740
O O2 0.605447 0.470270 0.178027
O O3 0.931968 0.705228 0.455512
O O4 0.661517 0.831190 0.321587
O O5 0.034055 0.203203 0.927513
O O6 0.761729 0.478941 0.946918
O O7 0.683640 0.046289 0.700012
O O8 0.425224 0.704685 0.384179
O O9 0.528911 0.933747 0.719543
O O10 0.386643 0.231845 0.041532
O O11 0.301314 0.128517 0.103398
O O12 0.241203 0.810782 0.740028
O O13 0.500000 0.500000 0.500000
O O14 0.189000 0.364706 0.354264
O O15 0.000000 0.500000 0.500000
#
# Coordination Sequence:
#
# PCOD8031311 Si02
#       7
#     2   2   2   2   2   2   2
#     4  11  24  46  73 109 138 190 244 292 349 427
#     4  11  23  43  74 107 140 189 241 296 350 421
#     4  11  23  44  73 100 148 185 238 292 349 428
#     4  11  22  43  69 106 142 186 236 292 363 416
#     4  12  26  47  73 105 149 186 234 301 355 425
#     4  12  27  49  71 110 146 187 237 296 363 417
#     4  12  28  49  76 106 143 191 241 290 358 429
#
# _framework density 23.830611999999999
#
# number of rings (size 3 to 8) (size 9 to 14) (size 15 to 20)
#    0.000    0.571    2.857    7.286    2.000    4.000 
#    2.571    2.143    0.000    0.000    0.000    0.000 
#    0.000    0.000    0.000    0.000    0.000    0.000 
#
# Total GULP energy -173703.618916 kJ/mol
# GULP energy per Si atom -12407.401351 kJ/mol
# Density = 2.377637 g / cm^3
# Si number density = 23.830612 Si / 1000 Ang^3
#
#
#
# Elastic Constant Matrix: (Units=GPa)
#
#
# Indices 1 2 3 4 5 6 
#
# 1 73.0427 41.0578 21.8700 -4.5385 -0.4493 11.1760
# 2 41.0578 121.2788 42.6098 -15.8129 1.9304 17.5077
# 3 21.8700 42.6098 128.3391 -6.7679 1.3500 11.0939
# 4 -4.5385 -15.8129 -6.7679 46.8302 6.2081 6.8022
# 5 -0.4493 1.9304 1.3500 6.2081 32.6981 0.1812
# 6 11.1760 17.5077 11.0939 6.8022 0.1812 42.2964
#
#
#
# Elastic Compliance Matrix: (Units=1/GPa)
#
#
# Indices 1 2 3 4 5 6 
#
# 1 0.017241 -0.005169 -0.001042 0.000008 0.000596 -0.002146
# 2 -0.005169 0.011925 -0.002557 0.003849 -0.001381 -0.003513
# 3 -0.001042 -0.002557 0.008945 0.000531 -0.000327 -0.001096
# 4 0.000008 0.003849 0.000531 0.024182 -0.004809 -0.005603
# 5 0.000596 -0.001381 -0.000327 -0.004809 0.031593 0.001138
# 6 -0.002146 -0.003513 -0.001096 -0.005603 0.001138 0.026848
#
#
# Mechanical properties :
#
#
# Convention : Reuss Voigt Hill
#
# Bulk Modulus (GPa) = 48.60643 59.30398 53.95520
# Shear Modulus (GPa) = 34.45241 38.83980 36.64610
#
# Velocity S-wave (km/s) = 3.80639 4.04149 3.92570
# Velocity P-wave (km/s) = 6.30548 6.83505 6.57560
#
# Compressibility (1/GPa) = 0.02057341
#
# Stress axis : x y z
#
# Youngs Moduli (GPa) = 58.00180 83.85863 111.79901
#
# Poissons Ratio (x) = 0.43349 0.11650
# Poissons Ratio (y) = 0.29983 0.28588
# Poissons Ratio (z) = 0.06044 0.21444
#
# Static dielectric constant tensor:
#      x y z
#    x 4.320380 -0.063090 -0.017100 
#    y -0.063090 4.587780 -0.181930 
#    z -0.017100 -0.181930 4.552290 
# 
# 
# High freq. dielectric constant tensor:
#      x y z
#    x 1.942270 0.000750 -0.007870 
#    y 0.000750 1.958990 -0.012300 
#    z -0.007870 -0.012300 1.954750 
# 
# From -- ./inp_files/188253.got.cif
#   From: 2010.06.25/outbox.cif.g09.slc.cpg/sg2_95_cif.got.tgz:188253.got - 2010.06.27 13:26:56.
