data_PCOD8031569
_publ_section_title
;
Structure prediction by ZEFSAII (Michael W. Deem and Ramdas Pophale) SiO2 
 PCOD8031569
Probable space group: P -1
;
_chemical_formula_sum "Si O2"
_cell_formula_units_Z 16
_cell_length_a 9.861411
_cell_length_b 12.993342
_cell_length_c 9.287039
_cell_angle_alpha 134.880395
_cell_angle_beta 71.346666
_cell_angle_gamma 109.987785
_cell_volume 786.857986
_symmetry_space_group_name_H-M "P -1"
_symmetry_group_IT_number 2
_symmetry_cell_setting 'triclinic'
loop_
_space_group_symop_operation_xyz
x,y,z
-x,-y,-z
loop_
_atom_site_type_symbol
_atom_site_label
_atom_site_fract_x
_atom_site_fract_y
_atom_site_fract_z
Si Si1 0.357495 0.933513 0.895082
Si Si2 0.154647 0.377347 0.263977
Si Si3 0.069225 0.898674 0.489103
Si Si4 0.162348 0.641725 0.734007
Si Si5 0.357172 0.565652 0.150963
Si Si6 0.632210 0.089450 0.458893
Si Si7 0.141355 0.613206 0.039110
Si Si8 0.888732 0.903645 0.835846
O O1 0.300710 0.757779 0.746550
O O2 0.380405 0.974375 0.760908
O O3 0.500000 0.000000 0.000000
O O4 0.230644 0.002943 0.082408
O O5 0.149547 0.491050 0.505074
O O6 0.267199 0.451442 0.180143
O O7 0.200211 0.236265 0.186326
O O8 0.996021 0.312345 0.186046
O O9 0.225899 0.960883 0.567624
O O10 0.098196 0.764175 0.252281
O O11 0.963654 0.853269 0.616462
O O12 0.000000 0.000000 0.500000
O O13 0.195400 0.617267 0.863191
O O14 0.376399 0.735211 0.367688
O O15 0.271080 0.561069 0.028251
O O16 0.500000 0.500000 0.000000
O O17 0.500000 0.000000 0.500000
O O18 0.000000 0.500000 0.000000
O O19 0.000000 0.000000 0.000000
#
# Coordination Sequence:
#
# PCOD8031569 Si02
#       8
#     2   2   2   2   2   2   2   2
#     4  12  27  45  68 102 139 182 227 281 350 405
#     4  11  23  43  73  98 133 181 229 284 338 405
#     4  11  25  43  69 104 133 172 232 283 341 404
#     4  11  22  44  72  96 134 178 227 283 344 400
#     4  11  26  45  67  98 138 181 226 276 350 406
#     4  11  26  47  67  96 142 182 226 282 345 417
#     4  11  23  41  67 101 132 171 221 280 336 403
#     4  12  24  43  71 103 135 177 235 283 334 414
#
# _framework density 20.334036999999999
#
# number of rings (size 3 to 8) (size 9 to 14) (size 15 to 20)
#    0.000    0.750    5.000    1.500   10.500    1.000 
#    2.250    1.250    0.000    0.000    0.000    0.000 
#    0.000    0.000    0.000    0.000    0.000    0.000 
#
# Total GULP energy -198299.962476 kJ/mol
# GULP energy per Si atom -12393.747655 kJ/mol
# Density = 2.028776 g / cm^3
# Si number density = 20.334037 Si / 1000 Ang^3
#
#
#
# Elastic Constant Matrix: (Units=GPa)
#
#
# Indices 1 2 3 4 5 6 
#
# 1 152.6806 54.3720 66.3972 -1.5248 7.5776 -5.6717
# 2 54.3720 146.3764 48.1065 -15.0239 8.3718 5.9718
# 3 66.3972 48.1065 71.8750 -26.9920 5.3650 -7.7953
# 4 -1.5248 -15.0239 -26.9920 40.7015 -0.8956 0.1581
# 5 7.5776 8.3718 5.3650 -0.8956 36.1392 2.1634
# 6 -5.6717 5.9718 -7.7953 0.1581 2.1634 41.6665
#
#
#
# Elastic Compliance Matrix: (Units=1/GPa)
#
#
# Indices 1 2 3 4 5 6 
#
# 1 0.013765 -0.000800 -0.016205 -0.010533 -0.000498 -0.000978
# 2 -0.000800 0.009120 -0.005738 -0.000481 -0.000959 -0.002438
# 3 -0.016205 -0.005738 0.043296 0.025929 -0.001459 0.006694
# 4 -0.010533 -0.000481 0.025929 0.041164 -0.000711 0.003367
# 5 -0.000498 -0.000959 -0.001459 -0.000711 0.028296 -0.001670
# 6 -0.000978 -0.002438 0.006694 0.003367 -0.001670 0.025543
#
#
# Mechanical properties :
#
#
# Convention : Reuss Voigt Hill
#
# Bulk Modulus (GPa) = 48.32267 78.74261 63.53264
# Shear Modulus (GPa) = 23.41181 37.17186 30.29184
#
# Velocity S-wave (km/s) = 3.39685 4.28022 3.86386
# Velocity P-wave (km/s) = 6.26106 7.95209 7.15669
#
# Compressibility (1/GPa) = 0.02069422
#
# Stress axis : x y z
#
# Youngs Moduli (GPa) = 72.64870 109.65286 23.09689
#
# Poissons Ratio (x) = 0.08773 0.37428
# Poissons Ratio (y) = 0.05812 0.13253
# Poissons Ratio (z) = 1.17727 0.62920
#
# Static dielectric constant tensor:
#      x y z
#    x 3.408300 -0.203880 0.238320 
#    y -0.203880 3.902970 -0.027880 
#    z 0.238320 -0.027880 3.757400 
# 
# 
# High freq. dielectric constant tensor:
#      x y z
#    x 1.791040 0.001110 0.005180 
#    y 0.001110 1.808780 -0.005640 
#    z 0.005180 -0.005640 1.806900 
# 
# From -- ./inp_files/186618.got.cif
#   From: 2010.06.25/outbox.cif.g09.slc.cpg/sg2_94_cif.got.tgz:186618.got - 2010.06.27 13:26:56.
