data_PCOD8031970
_publ_section_title
;
Structure prediction by ZEFSAII (Michael W. Deem and Ramdas Pophale) SiO2 
 PCOD8031970
Probable space group: P -1
;
_chemical_formula_sum "Si O2"
_cell_formula_units_Z 12
_cell_length_a 7.367544
_cell_length_b 8.150469
_cell_length_c 10.619079
_cell_angle_alpha 103.137314
_cell_angle_beta 111.891038
_cell_angle_gamma 55.248617
_cell_volume 486.057225
_symmetry_space_group_name_H-M "P -1"
_symmetry_group_IT_number 2
_symmetry_cell_setting 'triclinic'
loop_
_space_group_symop_operation_xyz
x,y,z
-x,-y,-z
loop_
_atom_site_type_symbol
_atom_site_label
_atom_site_fract_x
_atom_site_fract_y
_atom_site_fract_z
Si Si1 0.340450 0.711640 0.058239
Si Si2 0.051127 0.266482 0.873407
Si Si3 0.516163 0.089158 0.683481
Si Si4 0.135958 0.068295 0.459753
Si Si5 0.765243 0.153909 0.211383
Si Si6 0.277955 0.302598 0.178642
O O1 0.168598 0.714160 0.113349
O O2 0.503399 0.773324 0.181023
O O3 0.500000 0.500000 0.000000
O O4 0.196113 0.858790 0.931300
O O5 0.944242 0.476748 0.805772
O O6 0.166916 0.074209 0.776490
O O7 0.238134 0.236846 0.020190
O O8 0.651909 0.106544 0.601059
O O9 0.669072 0.855996 0.725800
O O10 0.252329 0.164748 0.587077
O O11 0.934672 0.211770 0.332252
O O12 0.000000 0.000000 0.500000
O O13 0.507545 0.311447 0.220560
#
# Coordination Sequence:
#
# PCOD8031970 Si02
#       6
#     2   2   2   2   2   2
#     4  12  24  43  72 106 142 183 238 296 360 419
#     4  11  23  40  66 107 141 181 232 297 356 419
#     4  11  24  45  72 105 142 189 237 297 352 426
#     4  11  24  44  75  98 142 196 237 284 365 421
#     4  12  22  42  72 101 142 186 229 299 355 416
#     4  11  23  39  69 104 140 183 237 290 360 420
#
# _framework density 24.688455000000001
#
# number of rings (size 3 to 8) (size 9 to 14) (size 15 to 20)
#    0.000    0.667    6.667    2.000    0.000    0.000 
#    0.000    1.667    7.333    0.000    0.000    0.000 
#    0.000    0.000    0.000    0.000    0.000    0.000 
#
# Total GULP energy -148692.277733 kJ/mol
# GULP energy per Si atom -12391.023144 kJ/mol
# Density = 2.463226 g / cm^3
# Si number density = 24.688455 Si / 1000 Ang^3
#
#
#
# Elastic Constant Matrix: (Units=GPa)
#
#
# Indices 1 2 3 4 5 6 
#
# 1 104.8775 -0.3304 59.4639 -8.1083 27.3949 -2.4931
# 2 -0.3304 89.7044 37.0796 -6.3078 9.7227 -0.5223
# 3 59.4639 37.0796 188.2257 -1.9699 46.9227 3.6332
# 4 -8.1083 -6.3078 -1.9699 13.5843 -6.3821 4.9920
# 5 27.3949 9.7227 46.9227 -6.3821 54.7593 -5.8220
# 6 -2.4931 -0.5223 3.6332 4.9920 -5.8220 25.4289
#
#
#
# Elastic Compliance Matrix: (Units=1/GPa)
#
#
# Indices 1 2 3 4 5 6 
#
# 1 0.012978 0.002416 -0.003781 0.007032 -0.002881 -0.000178
# 2 0.002416 0.012999 -0.003257 0.007195 0.000067 -0.000428
# 3 -0.003781 -0.003257 0.008532 -0.004389 -0.005573 -0.002071
# 4 0.007032 0.007195 -0.004389 0.089469 0.007873 -0.014297
# 5 -0.002881 0.000067 -0.005573 0.007873 0.025906 0.004901
# 6 -0.000178 -0.000428 -0.002071 -0.014297 0.004901 0.043524
#
#
# Mechanical properties :
#
#
# Convention : Reuss Voigt Hill
#
# Bulk Modulus (GPa) = 39.57870 63.91487 51.74679
# Shear Modulus (GPa) = 23.68844 37.86080 30.77462
#
# Velocity S-wave (km/s) = 3.10093 3.92030 3.53444
# Velocity P-wave (km/s) = 5.37467 6.81443 6.13692
#
# Compressibility (1/GPa) = 0.02526611
#
# Stress axis : x y z
#
# Youngs Moduli (GPa) = 77.05204 76.92772 117.20267
#
# Poissons Ratio (x) = -0.18588 0.44311
# Poissons Ratio (y) = -0.18618 0.38178
# Poissons Ratio (z) = 0.29131 0.25058
#
# Static dielectric constant tensor:
#      x y z
#    x 4.770070 -0.073380 -0.064900 
#    y -0.073380 4.955920 -0.051510 
#    z -0.064900 -0.051510 5.308330 
# 
# 
# High freq. dielectric constant tensor:
#      x y z
#    x 1.999850 -0.006170 0.010440 
#    y -0.006170 1.941880 -0.013830 
#    z 0.010440 -0.013830 1.990210 
# 
# From -- ./inp_files/383005.got.cif
#   From: 2010.06.25/outbox.cif.g09.slc.cpg/sg2_192_cif.got.tgz:383005.got - 2010.06.27 13:26:56.
