data_PCOD8031424
_publ_section_title
;
Structure prediction by ZEFSAII (Michael W. Deem and Ramdas Pophale) SiO2 
 PCOD8031424
Probable space group: P -1
;
_chemical_formula_sum "Si O2"
_cell_formula_units_Z 14
_cell_length_a 12.142823
_cell_length_b 22.122523
_cell_length_c 9.258876
_cell_angle_alpha 35.209049
_cell_angle_beta 51.687413
_cell_angle_gamma 27.743156
_cell_volume 616.257070
_symmetry_space_group_name_H-M "P -1"
_symmetry_group_IT_number 2
_symmetry_cell_setting 'triclinic'
loop_
_space_group_symop_operation_xyz
x,y,z
-x,-y,-z
loop_
_atom_site_type_symbol
_atom_site_label
_atom_site_fract_x
_atom_site_fract_y
_atom_site_fract_z
Si Si1 0.903143 0.071496 0.778719
Si Si2 0.104845 0.130354 0.983083
Si Si3 0.901504 0.666524 0.835436
Si Si4 0.547533 0.997033 0.274008
Si Si5 0.395257 0.469261 0.325909
Si Si6 0.751553 0.021298 0.518921
Si Si7 0.615935 0.561597 0.932036
O O1 0.594100 0.273709 0.635362
O O2 0.988687 0.913548 0.937344
O O3 0.018328 0.099599 0.544607
O O4 0.000000 0.000000 0.000000
O O5 0.128973 0.086997 0.215471
O O6 0.369766 0.008792 0.937484
O O7 0.879490 0.357954 0.707536
O O8 0.808835 0.814084 0.509639
O O9 0.651798 0.799116 0.882433
O O10 0.000000 0.500000 0.000000
O O11 0.117223 0.584348 0.919576
O O12 0.419522 0.964180 0.430804
O O13 0.349715 0.446015 0.252144
O O14 0.504731 0.517730 0.139542
O O15 0.586093 0.228359 0.258879
#
# Coordination Sequence:
#
# PCOD8031424 Si02
#       7
#     2   2   2   2   2   2   2
#     4  12  28  44  73 107 140 180 241 300 354 421
#     4  12  26  46  72 106 140 189 237 290 356 426
#     4  11  24  45  71 101 147 190 233 290 359 421
#     4  11  27  44  71 105 144 189 235 290 356 422
#     4  11  24  45  72 100 141 183 240 296 352 416
#     4  12  23  50  73 101 146 190 236 295 353 423
#     4  11  22  43  75 102 133 195 240 287 355 423
#
# _framework density 22.717791999999999
#
# number of rings (size 3 to 8) (size 9 to 14) (size 15 to 20)
#    0.000    0.571    4.286    4.286    6.000    2.857 
#    0.000    1.429    0.000    0.000    0.000    0.000 
#    0.000    0.000    0.000    0.000    0.000    0.000 
#
# Total GULP energy -173601.837434 kJ/mol
# GULP energy per Si atom -12400.131245 kJ/mol
# Density = 2.266609 g / cm^3
# Si number density = 22.717792 Si / 1000 Ang^3
#
#
#
# Elastic Constant Matrix: (Units=GPa)
#
#
# Indices 1 2 3 4 5 6 
#
# 1 122.2217 34.1873 41.4612 -1.7034 17.0408 8.2570
# 2 34.1873 149.6938 54.8917 -2.0907 4.9673 8.3589
# 3 41.4612 54.8917 85.8318 -15.4410 25.5873 16.8416
# 4 -1.7034 -2.0907 -15.4410 50.4164 -2.6041 -3.1137
# 5 17.0408 4.9673 25.5873 -2.6041 40.9695 1.8617
# 6 8.2570 8.3589 16.8416 -3.1137 1.8617 28.8685
#
#
#
# Elastic Compliance Matrix: (Units=1/GPa)
#
#
# Indices 1 2 3 4 5 6 
#
# 1 0.009975 -0.000768 -0.003958 -0.001012 -0.001633 -0.000325
# 2 -0.000768 0.009259 -0.007128 -0.001564 0.003490 0.001303
# 3 -0.003958 -0.007128 0.024717 0.005910 -0.012105 -0.009806
# 4 -0.001012 -0.001564 0.005910 0.021440 -0.001705 -0.000283
# 5 -0.001633 0.003490 -0.012105 -0.001705 0.031922 0.004276
# 6 -0.000325 0.001303 -0.009806 -0.000283 0.004276 0.039770
#
#
# Mechanical properties :
#
#
# Convention : Reuss Voigt Hill
#
# Bulk Modulus (GPa) = 49.40206 68.75866 59.08036
# Shear Modulus (GPa) = 29.84362 39.19801 34.52082
#
# Velocity S-wave (km/s) = 3.62839 4.15834 3.90237
# Velocity P-wave (km/s) = 6.27270 7.30670 6.80935
#
# Compressibility (1/GPa) = 0.02024207
#
# Stress axis : x y z
#
# Youngs Moduli (GPa) = 100.24881 108.00222 40.45782
#
# Poissons Ratio (x) = 0.08299 0.16015
# Poissons Ratio (y) = 0.07703 0.28837
# Poissons Ratio (z) = 0.39683 0.76982
#
# Static dielectric constant tensor:
#      x y z
#    x 3.997520 -0.139940 0.062890 
#    y -0.139940 3.870740 -0.409590 
#    z 0.062890 -0.409590 4.083910 
# 
# 
# High freq. dielectric constant tensor:
#      x y z
#    x 1.905260 0.011500 0.006930 
#    y 0.011500 1.904690 -0.022210 
#    z 0.006930 -0.022210 1.894770 
# 
# From -- ./inp_files/263788.got.cif
#   From: 2010.06.25/outbox.cif.g09.slc.cpg/sg2_132_cif.got.tgz:263788.got - 2010.06.27 13:26:56.
