data_PCOD8031702
_publ_section_title
;
Structure prediction by ZEFSAII (Michael W. Deem and Ramdas Pophale) SiO2 
 PCOD8031702
Probable space group: P -1
;
_chemical_formula_sum "Si O2"
_cell_formula_units_Z 14
_cell_length_a 11.429784
_cell_length_b 10.257344
_cell_length_c 8.435031
_cell_angle_alpha 56.637751
_cell_angle_beta 98.418467
_cell_angle_gamma 130.369117
_cell_volume 594.099996
_symmetry_space_group_name_H-M "P -1"
_symmetry_group_IT_number 2
_symmetry_cell_setting 'triclinic'
loop_
_space_group_symop_operation_xyz
x,y,z
-x,-y,-z
loop_
_atom_site_type_symbol
_atom_site_label
_atom_site_fract_x
_atom_site_fract_y
_atom_site_fract_z
Si Si1 0.340129 0.416157 0.439751
Si Si2 0.236992 0.785185 0.789223
Si Si3 0.243181 0.085471 0.392718
Si Si4 0.967265 0.861308 0.232360
Si Si5 0.074732 0.506233 0.682532
Si Si6 0.730219 0.290189 0.801681
Si Si7 0.403966 0.973649 0.329876
O O1 0.500000 0.500000 0.500000
O O2 0.313707 0.304108 0.342437
O O3 0.204212 0.252562 0.649973
O O4 0.345071 0.605120 0.274701
O O5 0.107128 0.540491 0.857596
O O6 0.185241 0.912072 0.635949
O O7 0.418020 0.927022 0.648356
O O8 0.244698 0.771835 0.985282
O O9 0.381546 0.132190 0.276108
O O10 0.094862 0.995865 0.310020
O O11 0.969584 0.698429 0.257308
O O12 0.000000 0.000000 0.000000
O O13 0.246060 0.729703 0.509213
O O14 0.913520 0.467474 0.638459
O O15 0.605868 0.059854 0.840792
#
# Coordination Sequence:
#
# PCOD8031702 Si02
#       7
#     2   2   2   2   2   2   2
#     4  12  28  47  73 106 150 186 233 300 363 412
#     4  11  26  40  78 106 140 181 243 293 355 419
#     4  11  25  46  71 104 144 187 236 293 354 424
#     4  12  28  47  74 102 147 193 239 290 359 427
#     4  11  23  45  72 102 138 186 245 286 349 421
#     4  12  24  46  73 106 142 187 238 293 350 426
#     4  11  22  45  73 102 139 188 234 292 348 422
#
# _framework density 23.565056999999999
#
# number of rings (size 3 to 8) (size 9 to 14) (size 15 to 20)
#    0.000    0.571    2.857    6.000    6.000    1.143 
#    0.000    1.429    0.000    0.000    0.000    0.000 
#    0.000    0.000    0.000    0.000    0.000    0.000 
#
# Total GULP energy -173497.874464 kJ/mol
# GULP energy per Si atom -12392.705319 kJ/mol
# Density = 2.351142 g / cm^3
# Si number density = 23.565057 Si / 1000 Ang^3
#
#
#
# Elastic Constant Matrix: (Units=GPa)
#
#
# Indices 1 2 3 4 5 6 
#
# 1 132.0116 71.7526 38.9402 7.7450 21.3566 -5.5060
# 2 71.7526 185.1360 33.5692 31.1095 20.6217 -8.5577
# 3 38.9402 33.5692 91.3363 23.3256 23.5909 1.8608
# 4 7.7450 31.1095 23.3256 30.7716 9.4151 -0.8271
# 5 21.3566 20.6217 23.5909 9.4151 17.5549 5.7900
# 6 -5.5060 -8.5577 1.8608 -0.8271 5.7900 63.4378
#
#
#
# Elastic Compliance Matrix: (Units=1/GPa)
#
#
# Indices 1 2 3 4 5 6 
#
# 1 0.011812 -0.003940 -0.002575 0.006082 -0.010061 0.001567
# 2 -0.003940 0.008327 0.001284 -0.007450 -0.003022 0.000922
# 3 -0.002575 0.001284 0.018801 -0.009016 -0.019145 0.001028
# 4 0.006082 -0.007450 -0.009016 0.049560 -0.013666 0.001681
# 5 -0.010061 -0.003022 -0.019145 -0.013666 0.109400 -0.010882
# 6 0.001567 0.000922 0.001028 0.001681 -0.010882 0.017009
#
#
# Mechanical properties :
#
#
# Convention : Reuss Voigt Hill
#
# Bulk Modulus (GPa) = 35.11469 77.44532 56.28001
# Shear Modulus (GPa) = 21.28901 39.96765 30.62833
#
# Velocity S-wave (km/s) = 3.00895 4.12279 3.60909
# Velocity P-wave (km/s) = 5.19665 7.45647 6.42667
#
# Compressibility (1/GPa) = 0.02847811
#
# Stress axis : x y z
#
# Youngs Moduli (GPa) = 84.65748 120.09276 53.18944
#
# Poissons Ratio (x) = 0.47319 0.13694
# Poissons Ratio (y) = 0.33357 -0.06829
# Poissons Ratio (z) = 0.21795 -0.15418
#
# Static dielectric constant tensor:
#      x y z
#    x 4.180290 -0.099130 -0.674760 
#    y -0.099130 5.361790 0.632720 
#    z -0.674760 0.632720 4.035030 
# 
# 
# High freq. dielectric constant tensor:
#      x y z
#    x 1.939380 0.005830 -0.018350 
#    y 0.005830 1.972400 0.032270 
#    z -0.018350 0.032270 1.921080 
# 
# From -- ./inp_files/246898.got.cif
#   From: 2010.06.25/outbox.cif.g09.slc.cpg/sg2_124_cif.got.tgz:246898.got - 2010.06.27 13:26:56.
