data_PCOD8031546
_publ_section_title
;
Structure prediction by ZEFSAII (Michael W. Deem and Ramdas Pophale) SiO2 
 PCOD8031546
Probable space group: P -1
;
_chemical_formula_sum "Si O2"
_cell_formula_units_Z 16
_cell_length_a 12.299801
_cell_length_b 22.092819
_cell_length_c 18.064086
_cell_angle_alpha 151.301293
_cell_angle_beta 19.110634
_cell_angle_gamma 150.636083
_cell_volume 742.701626
_symmetry_space_group_name_H-M "P -1"
_symmetry_group_IT_number 2
_symmetry_cell_setting 'triclinic'
loop_
_space_group_symop_operation_xyz
x,y,z
-x,-y,-z
loop_
_atom_site_type_symbol
_atom_site_label
_atom_site_fract_x
_atom_site_fract_y
_atom_site_fract_z
Si Si1 0.216120 0.960755 0.385542
Si Si2 0.149274 0.810189 0.761775
Si Si3 0.384131 0.365825 0.728161
Si Si4 0.421175 0.619129 0.219643
Si Si5 0.780576 0.932711 0.773042
Si Si6 0.382885 0.755821 0.963065
Si Si7 0.277041 0.371624 0.276002
Si Si8 0.287530 0.106804 0.740975
O O1 0.962325 0.888052 0.536647
O O2 0.499481 0.080944 0.370058
O O3 0.429711 0.868547 0.115019
O O4 0.000000 0.000000 0.500000
O O5 0.303518 0.691929 0.565564
O O6 0.896346 0.760924 0.801524
O O7 0.937439 0.872831 0.022419
O O8 0.344650 0.346372 0.820794
O O9 0.464382 0.520075 0.824470
O O10 0.018644 0.293332 0.850457
O O11 0.467057 0.749808 0.281359
O O12 0.022698 0.565257 0.438698
O O13 0.500000 0.500000 0.000000
O O14 0.619558 0.807069 0.793783
O O15 0.036467 0.052721 0.777934
O O16 0.500000 0.000000 0.000000
O O17 0.523503 0.647797 0.798579
O O18 0.500000 0.000000 0.500000
#
# Coordination Sequence:
#
# PCOD8031546 Si02
#       8
#     2   2   2   2   2   2   2   2
#     4  12  23  42  69 102 133 183 221 277 345 418
#     4  11  22  44  71  97 134 185 227 271 350 415
#     4  11  23  46  70  93 132 187 235 274 338 424
#     4  11  23  45  70  97 133 184 238 279 339 423
#     4  12  23  42  65  99 136 176 228 271 343 420
#     4  12  25  44  68 101 142 174 226 289 351 400
#     4  11  25  44  68  97 133 179 232 290 339 403
#     4  12  25  40  66 106 143 172 224 301 346 394
#
# _framework density 21.542971000000001
#
# number of rings (size 3 to 8) (size 9 to 14) (size 15 to 20)
#    0.000    0.500    3.750    6.375    1.750    0.500 
#    4.500    0.625    0.000    0.000    0.000    0.000 
#    0.000    0.000    0.000    0.000    0.000    0.000 
#
# Total GULP energy -198332.633255 kJ/mol
# GULP energy per Si atom -12395.789578 kJ/mol
# Density = 2.149394 g / cm^3
# Si number density = 21.542971 Si / 1000 Ang^3
#
#
#
# Elastic Constant Matrix: (Units=GPa)
#
#
# Indices 1 2 3 4 5 6 
#
# 1 115.3286 41.2557 71.3819 3.6545 -3.4322 -9.9244
# 2 41.2557 119.0744 42.9071 1.5144 -2.7044 -13.0992
# 3 71.3819 42.9071 97.1086 1.5985 20.6151 1.5378
# 4 3.6545 1.5144 1.5985 32.5159 -1.3003 5.7406
# 5 -3.4322 -2.7044 20.6151 -1.3003 40.3306 -5.2086
# 6 -9.9244 -13.0992 1.5378 5.7406 -5.2086 37.9014
#
#
#
# Elastic Compliance Matrix: (Units=1/GPa)
#
#
# Indices 1 2 3 4 5 6 
#
# 1 0.021045 0.000601 -0.018435 -0.002502 0.012276 0.008532
# 2 0.000601 0.011196 -0.006456 -0.000981 0.004727 0.005087
# 3 -0.018435 -0.006456 0.030921 0.002074 -0.019195 -0.011265
# 4 -0.002502 -0.000981 0.002074 0.032008 -0.001092 -0.006076
# 5 0.012276 0.004727 -0.019195 -0.001092 0.037344 0.010924
# 6 0.008532 0.005087 -0.011265 -0.006076 0.010924 0.033255
#
#
# Mechanical properties :
#
#
# Convention : Reuss Voigt Hill
#
# Bulk Modulus (GPa) = 68.58593 71.40013 69.99303
# Shear Modulus (GPa) = 22.80915 33.88070 28.34493
#
# Velocity S-wave (km/s) = 3.25741 3.97003 3.63125
# Velocity P-wave (km/s) = 6.78628 7.36410 7.08108
#
# Compressibility (1/GPa) = 0.01458025
#
# Stress axis : x y z
#
# Youngs Moduli (GPa) = 47.51716 89.31815 32.34090
#
# Poissons Ratio (x) = -0.05364 0.59620
# Poissons Ratio (y) = -0.02854 0.20880
# Poissons Ratio (z) = 0.87597 0.57667
#
# Static dielectric constant tensor:
#      x y z
#    x 3.923730 0.087210 0.032580 
#    y 0.087210 3.667010 -0.021630 
#    z 0.032580 -0.021630 4.089070 
# 
# 
# High freq. dielectric constant tensor:
#      x y z
#    x 1.849750 0.003070 -0.003670 
#    y 0.003070 1.847390 -0.008090 
#    z -0.003670 -0.008090 1.849250 
# 
# From -- ./inp_files/570745.got.cif
#   From: 2010.06.25/outbox.cif.g09.slc.cpg/sg2_286_cif.got.tgz:570745.got - 2010.06.27 13:26:56.
