data_PCOD8031621
_publ_section_title
;
Structure prediction by ZEFSAII (Michael W. Deem and Ramdas Pophale) SiO2 
 PCOD8031621
Probable space group: P -1
;
_chemical_formula_sum "Si O2"
_cell_formula_units_Z 16
_cell_length_a 12.556396
_cell_length_b 26.891573
_cell_length_c 9.269394
_cell_angle_alpha 154.265046
_cell_angle_beta 34.917516
_cell_angle_gamma 151.105619
_cell_volume 649.330676
_symmetry_space_group_name_H-M "P -1"
_symmetry_group_IT_number 2
_symmetry_cell_setting 'triclinic'
loop_
_space_group_symop_operation_xyz
x,y,z
-x,-y,-z
loop_
_atom_site_type_symbol
_atom_site_label
_atom_site_fract_x
_atom_site_fract_y
_atom_site_fract_z
Si Si1 0.912094 0.133550 0.817283
Si Si2 0.557364 0.487524 0.740250
Si Si3 0.475910 0.678971 0.173386
Si Si4 0.013760 0.570920 0.517955
Si Si5 0.665522 0.960761 0.385749
Si Si6 0.222082 0.880446 0.599174
Si Si7 0.263806 0.069277 0.271021
Si Si8 0.267064 0.262256 0.249480
O O1 0.124547 0.130244 0.526002
O O2 0.699443 0.019983 0.664039
O O3 0.873607 0.079803 0.885077
O O4 0.950298 0.279956 0.125058
O O5 0.354208 0.362476 0.551256
O O6 0.770611 0.474777 0.463180
O O7 0.500000 0.500000 0.000000
O O8 0.611707 0.625311 0.962463
O O9 0.207325 0.577802 0.224198
O O10 0.542019 0.820748 0.549356
O O11 0.546102 0.689368 0.956368
O O12 0.000000 0.500000 0.500000
O O13 0.400380 0.842895 0.346270
O O14 0.766537 0.090894 0.508278
O O15 0.797346 0.887208 0.020765
O O16 0.965865 0.761368 0.611812
O O17 0.335953 0.030463 0.943576
#
# Coordination Sequence:
#
# PCOD8031621 Si02
#       8
#     2   2   2   2   2   2   2   2
#     4  11  23  44  77 107 148 188 242 304 367 435
#     4  12  29  50  74 101 145 202 248 305 365 440
#     4  12  26  48  74 110 145 193 249 305 370 434
#     4  12  28  47  77 110 146 198 252 300 360 445
#     4  11  25  43  70 111 145 193 236 305 371 435
#     4  11  26  42  69 111 149 186 238 301 369 440
#     4  11  22  44  77 111 144 190 239 301 375 434
#     4  12  27  47  72 104 150 190 249 302 370 436
#
# _framework density 24.640758999999999
#
# number of rings (size 3 to 8) (size 9 to 14) (size 15 to 20)
#    0.000    0.500    5.000    2.250    5.250    4.500 
#    0.000    0.000    0.000    0.000    0.000    0.000 
#    0.000    0.000    0.000    0.000    0.000    0.000 
#
# Total GULP energy -198244.249186 kJ/mol
# GULP energy per Si atom -12390.265574 kJ/mol
# Density = 2.458468 g / cm^3
# Si number density = 24.640759 Si / 1000 Ang^3
#
#
#
# Elastic Constant Matrix: (Units=GPa)
#
#
# Indices 1 2 3 4 5 6 
#
# 1 117.6474 38.1189 36.0714 2.2346 0.6659 4.7154
# 2 38.1189 101.5889 20.6727 -16.5515 2.0334 16.3237
# 3 36.0714 20.6727 75.7202 9.2766 16.0679 -5.8402
# 4 2.2346 -16.5515 9.2766 45.0069 -1.6944 -6.8837
# 5 0.6659 2.0334 16.0679 -1.6944 50.3772 9.8241
# 6 4.7154 16.3237 -5.8402 -6.8837 9.8241 43.8056
#
#
#
# Elastic Compliance Matrix: (Units=1/GPa)
#
#
# Indices 1 2 3 4 5 6 
#
# 1 0.011028 -0.003162 -0.004734 -0.000847 0.001688 -0.001152
# 2 -0.003162 0.013279 -0.003461 0.005107 0.001687 -0.004645
# 3 -0.004734 -0.003461 0.018820 -0.004387 -0.006958 0.005180
# 4 -0.000847 0.005107 -0.004387 0.025291 0.001827 0.001168
# 5 0.001688 0.001687 -0.006958 0.001827 0.023344 -0.006686
# 6 -0.001152 -0.004645 0.005180 0.001168 -0.006686 0.027057
#
#
# Mechanical properties :
#
#
# Convention : Reuss Voigt Hill
#
# Bulk Modulus (GPa) = 48.98558 53.85361 51.41960
# Shear Modulus (GPa) = 33.70705 41.17749 37.44227
#
# Velocity S-wave (km/s) = 3.70258 4.09236 3.90234
# Velocity P-wave (km/s) = 6.18076 6.65078 6.42007
#
# Compressibility (1/GPa) = 0.02041417
#
# Stress axis : x y z
#
# Youngs Moduli (GPa) = 90.67442 75.30714 53.13521
#
# Poissons Ratio (x) = 0.23809 0.25153
# Poissons Ratio (y) = 0.28668 0.18391
# Poissons Ratio (z) = 0.42923 0.26065
#
# Static dielectric constant tensor:
#      x y z
#    x 4.745910 0.240800 -0.225770 
#    y 0.240800 4.354820 -0.086270 
#    z -0.225770 -0.086270 4.298610 
# 
# 
# High freq. dielectric constant tensor:
#      x y z
#    x 1.998950 0.010120 -0.007830 
#    y 0.010120 1.969070 -0.011150 
#    z -0.007830 -0.011150 1.967100 
# 
# From -- ./inp_files/285868.got.cif
#   From: 2010.06.25/outbox.cif.g09.slc.cpg/sg2_143_cif.got.tgz:285868.got - 2010.06.27 13:26:56.
