data_PCOD8031156
_publ_section_title
;
Structure prediction by ZEFSAII (Michael W. Deem and Ramdas Pophale) SiO2 
 PCOD8031156
Probable space group: P -1
;
_chemical_formula_sum "Si O2"
_cell_formula_units_Z 14
_cell_length_a 20.757402
_cell_length_b 20.215651
_cell_length_c 8.416879
_cell_angle_alpha 31.798456
_cell_angle_beta 32.730956
_cell_angle_gamma 20.588531
_cell_volume 634.337325
_symmetry_space_group_name_H-M "P -1"
_symmetry_group_IT_number 2
_symmetry_cell_setting 'triclinic'
loop_
_space_group_symop_operation_xyz
x,y,z
-x,-y,-z
loop_
_atom_site_type_symbol
_atom_site_label
_atom_site_fract_x
_atom_site_fract_y
_atom_site_fract_z
Si Si1 0.172277 0.427754 0.697249
Si Si2 0.964867 0.305910 0.091272
Si Si3 0.948724 0.069269 0.784263
Si Si4 0.642169 0.914384 0.237490
Si Si5 0.369395 0.329072 0.799453
Si Si6 0.171478 0.664529 0.018203
Si Si7 0.541558 0.461120 0.809713
O O1 0.283722 0.257335 0.679756
O O2 0.333765 0.340727 0.662374
O O3 0.090595 0.619108 0.390100
O O4 0.000000 0.500000 0.000000
O O5 0.998177 0.172631 0.429073
O O6 0.835261 0.524290 0.988469
O O7 0.848255 0.351763 0.090634
O O8 0.171330 0.184527 0.861571
O O9 0.729959 0.225203 0.881009
O O10 0.000000 0.000000 0.000000
O O11 0.059972 0.883948 0.821543
O O12 0.500000 0.000000 0.500000
O O13 0.534833 0.099956 0.970166
O O14 0.434152 0.414383 0.546555
O O15 0.389505 0.513412 0.912574
O O16 0.500000 0.500000 0.000000
#
# Coordination Sequence:
#
# PCOD8031156 Si02
#       7
#     2   2   2   2   2   2   2
#     4  12  26  46  74 101 138 195 242 287 351 421
#     4  11  26  46  68 106 147 183 231 298 363 418
#     4  11  23  41  73 101 136 184 232 289 358 423
#     4  12  28  46  71 103 143 192 240 289 354 419
#     4  11  24  47  73  99 140 181 238 297 344 421
#     4  12  25  43  69 101 144 182 230 294 357 420
#     4  11  22  42  70 102 132 175 235 291 352 414
#
# _framework density 22.070276
#
# number of rings (size 3 to 8) (size 9 to 14) (size 15 to 20)
#    0.000    0.571    4.286    3.429    2.000    5.714 
#    0.000    0.000    0.000    0.000    0.000    0.000 
#    0.000    0.000    0.000    0.000    0.000    0.000 
#
# Total GULP energy -173558.019612 kJ/mol
# GULP energy per Si atom -12397.001401 kJ/mol
# Density = 2.202004 g / cm^3
# Si number density = 22.070276 Si / 1000 Ang^3
#
#
#
# Elastic Constant Matrix: (Units=GPa)
#
#
# Indices 1 2 3 4 5 6 
#
# 1 148.0716 42.8006 25.5416 8.5837 1.9731 -9.7722
# 2 42.8006 143.5597 23.0391 11.4306 -11.5766 -6.0680
# 3 25.5416 23.0391 72.9278 13.9281 -1.6058 -15.0947
# 4 8.5837 11.4306 13.9281 42.1227 0.8406 2.9915
# 5 1.9731 -11.5766 -1.6058 0.8406 27.3245 1.4633
# 6 -9.7722 -6.0680 -15.0947 2.9915 1.4633 40.5383
#
#
#
# Elastic Compliance Matrix: (Units=1/GPa)
#
#
# Indices 1 2 3 4 5 6 
#
# 1 0.007779 -0.002078 -0.001812 -0.000460 -0.001587 0.000981
# 2 -0.002078 0.008232 -0.001496 -0.001398 0.003585 0.000148
# 3 -0.001812 -0.001496 0.017103 -0.005319 0.000340 0.006088
# 4 -0.000460 -0.001398 -0.005319 0.026299 -0.001456 -0.004189
# 5 -0.001587 0.003585 0.000340 -0.001456 0.038349 -0.000996
# 6 0.000981 0.000148 0.006088 -0.004189 -0.000996 0.027539
#
#
# Mechanical properties :
#
#
# Convention : Reuss Voigt Hill
#
# Bulk Modulus (GPa) = 44.76092 60.81352 52.78722
# Shear Modulus (GPa) = 34.83816 40.20895 37.52356
#
# Velocity S-wave (km/s) = 3.97736 4.27296 4.12780
# Velocity P-wave (km/s) = 6.43565 7.20823 6.83287
#
# Compressibility (1/GPa) = 0.02234092
#
# Stress axis : x y z
#
# Youngs Moduli (GPa) = 128.54493 121.47496 58.46951
#
# Poissons Ratio (x) = 0.25248 0.10595
# Poissons Ratio (y) = 0.26717 0.08749
# Poissons Ratio (z) = 0.23293 0.18176
#
# Static dielectric constant tensor:
#      x y z
#    x 3.968320 -0.228010 -0.094340 
#    y -0.228010 4.094790 0.029140 
#    z -0.094340 0.029140 4.155570 
# 
# 
# High freq. dielectric constant tensor:
#      x y z
#    x 1.876330 -0.002780 0.005750 
#    y -0.002780 1.883820 -0.002140 
#    z 0.005750 -0.002140 1.867550 
# 
# From -- ./inp_files/349653.got.cif
#   From: 2010.06.25/outbox.cif.g09.slc.cpg/sg2_175_cif.got.tgz:349653.got - 2010.06.27 13:26:56.
