data_PCOD8031878
_publ_section_title
;
Structure prediction by ZEFSAII (Michael W. Deem and Ramdas Pophale) SiO2 
 PCOD8031878
Probable space group: P -1
;
_chemical_formula_sum "Si O2"
_cell_formula_units_Z 16
_cell_length_a 14.707992
_cell_length_b 18.602860
_cell_length_c 5.391184
_cell_angle_alpha 92.138527
_cell_angle_beta 111.364204
_cell_angle_gamma 40.361685
_cell_volume 815.993607
_symmetry_space_group_name_H-M "P -1"
_symmetry_group_IT_number 2
_symmetry_cell_setting 'triclinic'
loop_
_space_group_symop_operation_xyz
x,y,z
-x,-y,-z
loop_
_atom_site_type_symbol
_atom_site_label
_atom_site_fract_x
_atom_site_fract_y
_atom_site_fract_z
Si Si1 0.614522 0.354527 0.834184
Si Si2 0.706497 0.359914 0.425666
Si Si3 0.767168 0.800763 0.708230
Si Si4 0.083904 0.628063 0.323211
Si Si5 0.548849 0.027545 0.255061
Si Si6 0.589923 0.750532 0.938586
Si Si7 0.893006 0.633390 0.412833
Si Si8 0.398282 0.348025 0.555871
O O1 0.726948 0.303606 0.696356
O O2 0.468438 0.498089 0.719858
O O3 0.549014 0.312526 0.744214
O O4 0.716967 0.302129 0.186319
O O5 0.852103 0.331266 0.538866
O O6 0.596612 0.885040 0.680298
O O7 0.800208 0.706169 0.584241
O O8 0.725869 0.896516 0.514738
O O9 0.931649 0.725624 0.001036
O O10 0.231167 0.490759 0.349248
O O11 0.010349 0.632634 0.491331
O O12 0.560984 0.102748 0.172177
O O13 0.500000 0.000000 0.000000
O O14 0.564592 0.717779 0.665700
O O15 0.756282 0.701293 0.070998
O O16 0.612639 0.692279 0.208614
O O17 0.000000 0.500000 0.500000
#
# Coordination Sequence:
#
# PCOD8031878 Si02
#       8
#     2   2   2   2   2   2   2   2
#     4   9  18  37  54  82 117 153 197 247 304 357
#     4   9  19  33  58  81 116 158 194 245 300 365
#     4  11  23  39  58  84 122 166 212 249 297 349
#     4  11  23  34  58  90 125 161 201 242 306 375
#     4  11  23  40  60  78 120 170 216 260 284 341
#     4  12  23  38  58  88 119 166 205 241 301 355
#     4  12  23  36  55  87 135 162 194 242 304 370
#     4  11  24  37  61  90 124 160 202 249 307 379
#
# _framework density 19.607997000000001
#
# number of rings (size 3 to 8) (size 9 to 14) (size 15 to 20)
#    0.000    1.250    3.750    2.250    3.500    3.000 
#    0.000    0.000    0.000    0.000    0.000    5.250 
#    0.000    0.000    0.000    0.000    0.000    0.000 
#
# Total GULP energy -198236.008145 kJ/mol
# GULP energy per Si atom -12389.750509 kJ/mol
# Density = 1.956337 g / cm^3
# Si number density = 19.607997 Si / 1000 Ang^3
#
#
#
# Elastic Constant Matrix: (Units=GPa)
#
#
# Indices 1 2 3 4 5 6 
#
# 1 97.2147 15.6099 35.0742 11.8014 12.6063 -7.4813
# 2 15.6099 98.3599 46.8198 8.7626 2.3766 -1.7660
# 3 35.0742 46.8198 119.6949 16.0453 2.9286 -4.5676
# 4 11.8014 8.7626 16.0453 45.3513 5.2090 -6.8823
# 5 12.6063 2.3766 2.9286 5.2090 28.4996 8.9407
# 6 -7.4813 -1.7660 -4.5676 -6.8823 8.9407 9.0204
#
#
#
# Elastic Compliance Matrix: (Units=1/GPa)
#
#
# Indices 1 2 3 4 5 6 
#
# 1 0.015679 -0.000236 -0.003417 0.003827 -0.016983 0.030980
# 2 -0.000236 0.012524 -0.004748 -0.000755 -0.000126 -0.000599
# 3 -0.003417 -0.004748 0.011466 -0.002735 0.001805 -0.001834
# 4 0.003827 -0.000755 -0.002735 0.032055 -0.022342 0.048243
# 5 -0.016983 -0.000126 0.001805 -0.022342 0.081266 -0.110791
# 6 0.030980 -0.000599 -0.001834 0.048243 -0.110791 0.282129
#
#
# Mechanical properties :
#
#
# Convention : Reuss Voigt Hill
#
# Bulk Modulus (GPa) = 43.73359 56.69746 50.21552
# Shear Modulus (GPa) = 10.88035 31.09196 20.98616
#
# Velocity S-wave (km/s) = 2.35817 3.98638 3.27507
# Velocity P-wave (km/s) = 5.45592 7.08283 6.32193
#
# Compressibility (1/GPa) = 0.02286572
#
# Stress axis : x y z
#
# Youngs Moduli (GPa) = 63.77872 79.84700 87.21525
#
# Poissons Ratio (x) = 0.01884 0.29805
# Poissons Ratio (y) = 0.01505 0.41412
# Poissons Ratio (z) = 0.21796 0.37914
#
# Static dielectric constant tensor:
#      x y z
#    x 3.719300 0.269080 -0.263640 
#    y 0.269080 3.727910 -0.208870 
#    z -0.263640 -0.208870 3.940070 
# 
# 
# High freq. dielectric constant tensor:
#      x y z
#    x 1.754930 0.011830 -0.013160 
#    y 0.011830 1.745190 0.013800 
#    z -0.013160 0.013800 1.770860 
# 
# From -- ./inp_files/99403.got.cif
#   From: 2010.06.25/outbox.cif.g09.slc.cpg/sg2_50_cif.got.tgz:99403.got - 2010.06.27 13:26:56.
