data_PCOD8031460
_publ_section_title
;
Structure prediction by ZEFSAII (Michael W. Deem and Ramdas Pophale) SiO2 
 PCOD8031460
Probable space group: P -1
;
_chemical_formula_sum "Si O2"
_cell_formula_units_Z 16
_cell_length_a 14.409748
_cell_length_b 12.504274
_cell_length_c 7.685063
_cell_angle_alpha 81.289824
_cell_angle_beta 77.135138
_cell_angle_gamma 30.807722
_cell_volume 689.194770
_symmetry_space_group_name_H-M "P -1"
_symmetry_group_IT_number 2
_symmetry_cell_setting 'triclinic'
loop_
_space_group_symop_operation_xyz
x,y,z
-x,-y,-z
loop_
_atom_site_type_symbol
_atom_site_label
_atom_site_fract_x
_atom_site_fract_y
_atom_site_fract_z
Si Si1 0.177182 0.933618 0.262358
Si Si2 0.005472 0.482214 0.800876
Si Si3 0.674900 0.221577 0.122926
Si Si4 0.742466 0.921303 0.672993
Si Si5 0.390584 0.198012 0.592176
Si Si6 0.051486 0.204686 0.715279
Si Si7 0.323234 0.477507 0.364361
Si Si8 0.764946 0.270503 0.389153
O O1 0.238545 0.825236 0.448733
O O2 0.211979 0.029267 0.219334
O O3 0.292676 0.769644 0.091979
O O4 0.963470 0.117523 0.283102
O O5 0.848467 0.706989 0.721075
O O6 0.971989 0.389510 0.792846
O O7 0.205443 0.327876 0.706140
O O8 0.000000 0.500000 0.000000
O O9 0.477567 0.355041 0.187109
O O10 0.668517 0.327023 0.236768
O O11 0.844031 0.975169 0.150380
O O12 0.801172 0.905870 0.463349
O O13 0.521917 0.115480 0.712743
O O14 0.338204 0.338312 0.438799
O O15 0.500000 0.000000 0.500000
O O16 0.881015 0.301780 0.682364
O O17 0.346003 0.524280 0.522296
#
# Coordination Sequence:
#
# PCOD8031460 Si02
#       8
#     2   2   2   2   2   2   2   2
#     4  11  23  43  70  97 134 176 222 274 333 393
#     4  12  26  41  64 101 134 170 225 276 325 396
#     4  12  25  43  69 101 131 174 226 276 327 397
#     4  12  22  43  69  93 132 176 221 271 329 395
#     4  12  23  41  70  96 127 181 219 263 339 392
#     4  12  22  43  68  95 131 176 218 270 334 391
#     4  12  24  41  70  98 130 175 224 272 331 399
#     4  11  22  44  67  96 135 178 219 270 339 392
#
# _framework density 23.215496999999999
#
# number of rings (size 3 to 8) (size 9 to 14) (size 15 to 20)
#    0.000    0.250    6.250    3.375    0.000    2.000 
#    0.000    1.250    0.000    0.000    0.000    0.000 
#    0.000    0.000    0.000    0.000    0.000    0.000 
#
# Total GULP energy -198449.901614 kJ/mol
# GULP energy per Si atom -12403.118851 kJ/mol
# Density = 2.316266 g / cm^3
# Si number density = 23.215497 Si / 1000 Ang^3
#
#
#
# Elastic Constant Matrix: (Units=GPa)
#
#
# Indices 1 2 3 4 5 6 
#
# 1 93.4115 14.1939 8.5741 -0.5901 6.7009 -1.4167
# 2 14.1939 63.5360 -8.7105 -4.7486 -6.7661 -6.2043
# 3 8.5741 -8.7105 90.3370 10.3478 6.2750 -6.6555
# 4 -0.5901 -4.7486 10.3478 23.0523 0.0980 0.3995
# 5 6.7009 -6.7661 6.2750 0.0980 32.1647 9.2809
# 6 -1.4167 -6.2043 -6.6555 0.3995 9.2809 45.6539
#
#
#
# Elastic Compliance Matrix: (Units=1/GPa)
#
#
# Indices 1 2 3 4 5 6 
#
# 1 0.011481 -0.002982 -0.001173 0.000212 -0.002897 0.000367
# 2 -0.002982 0.017362 0.001530 0.002768 0.003458 0.001763
# 3 -0.001173 0.001530 0.012295 -0.005267 -0.002546 0.002527
# 4 0.000212 0.002768 -0.005267 0.046332 0.001756 -0.001147
# 5 -0.002897 0.003458 -0.002546 0.001756 0.034965 -0.007114
# 6 0.000367 0.001763 0.002527 -0.001147 -0.007114 0.023980
#
#
# Mechanical properties :
#
#
# Convention : Reuss Voigt Hill
#
# Bulk Modulus (GPa) = 27.86591 30.59994 29.23293
# Shear Modulus (GPa) = 30.55696 35.72266 33.13981
#
# Velocity S-wave (km/s) = 3.63193 3.92694 3.78231
# Velocity P-wave (km/s) = 5.44216 5.81124 5.62972
#
# Compressibility (1/GPa) = 0.03588614
#
# Stress axis : x y z
#
# Youngs Moduli (GPa) = 87.10107 57.59568 81.33483
#
# Poissons Ratio (x) = 0.17178 0.09543
# Poissons Ratio (y) = 0.25978 -0.12442
# Poissons Ratio (z) = 0.10220 -0.08811
#
# Static dielectric constant tensor:
#      x y z
#    x 4.847550 0.149030 -0.071570 
#    y 0.149030 4.287810 0.054980 
#    z -0.071570 0.054980 4.029180 
# 
# 
# High freq. dielectric constant tensor:
#      x y z
#    x 1.936460 0.001230 -0.002190 
#    y 0.001230 1.924240 0.010260 
#    z -0.002190 0.010260 1.904690 
# 
# From -- ./inp_files/307306.got.cif
#   From: 2010.06.25/outbox.cif.g09.slc.cpg/sg2_154_cif.got.tgz:307306.got - 2010.06.27 13:26:56.
