data_PCOD8031787
_publ_section_title
;
Structure prediction by ZEFSAII (Michael W. Deem and Ramdas Pophale) SiO2 
 PCOD8031787
Probable space group: P -1
;
_chemical_formula_sum "Si O2"
_cell_formula_units_Z 16
_cell_length_a 11.259121
_cell_length_b 9.021982
_cell_length_c 11.118878
_cell_angle_alpha 122.671614
_cell_angle_beta 127.142410
_cell_angle_gamma 73.603753
_cell_volume 756.269762
_symmetry_space_group_name_H-M "P -1"
_symmetry_group_IT_number 2
_symmetry_cell_setting 'triclinic'
loop_
_space_group_symop_operation_xyz
x,y,z
-x,-y,-z
loop_
_atom_site_type_symbol
_atom_site_label
_atom_site_fract_x
_atom_site_fract_y
_atom_site_fract_z
Si Si1 0.873272 0.939470 0.489394
Si Si2 0.961705 0.312241 0.346268
Si Si3 0.677339 0.198146 0.613661
Si Si4 0.676039 0.808828 0.100971
Si Si5 0.099326 0.180785 0.153848
Si Si6 0.620117 0.980665 0.714673
Si Si7 0.347806 0.858045 0.935616
Si Si8 0.836583 0.569022 0.915034
O O1 0.738578 0.838037 0.287943
O O2 0.947074 0.823609 0.583203
O O3 0.816889 0.104482 0.601621
O O4 0.000000 0.000000 0.500000
O O5 0.784327 0.286484 0.233748
O O6 0.000000 0.500000 0.500000
O O7 0.008290 0.311640 0.234956
O O8 0.533698 0.140231 0.418963
O O9 0.721036 0.407718 0.731687
O O10 0.624588 0.137826 0.688840
O O11 0.680512 0.993121 0.114417
O O12 0.498957 0.754061 0.972366
O O13 0.768875 0.656380 0.030879
O O14 0.251639 0.145598 0.301340
O O15 0.145804 0.271732 0.097456
O O16 0.000000 0.000000 0.000000
O O17 0.664750 0.059727 0.905006
O O18 0.000000 0.500000 0.000000
#
# Coordination Sequence:
#
# PCOD8031787 Si02
#       8
#     2   2   2   2   2   2   2   2
#     4  12  24  44  68  98 141 179 225 280 349 414
#     4  12  28  43  68 106 136 179 232 287 340 407
#     4  11  26  43  70 103 135 181 231 284 346 406
#     4  11  24  44  71 102 135 184 224 282 351 407
#     4  12  24  45  72  93 137 186 229 277 342 413
#     4  11  22  46  72  95 133 190 229 275 345 418
#     4  11  23  46  72  98 139 184 227 278 351 414
#     4  12  27  43  70 107 138 173 234 292 335 408
#
# _framework density 21.156472000000001
#
# number of rings (size 3 to 8) (size 9 to 14) (size 15 to 20)
#    0.000    0.500    6.250    1.500    3.500    1.500 
#    0.000    1.250    0.000    0.000    0.000    0.000 
#    0.000    0.000    0.000    0.000    0.000    0.000 
#
# Total GULP energy -198354.025322 kJ/mol
# GULP energy per Si atom -12397.126583 kJ/mol
# Density = 2.110832 g / cm^3
# Si number density = 21.156472 Si / 1000 Ang^3
#
#
#
# Elastic Constant Matrix: (Units=GPa)
#
#
# Indices 1 2 3 4 5 6 
#
# 1 107.1093 17.6181 38.6440 8.2017 14.4812 -13.9524
# 2 17.6181 50.7923 27.0318 5.4378 16.9303 -4.6850
# 3 38.6440 27.0318 125.3614 9.1797 19.0607 -0.6192
# 4 8.2017 5.4378 9.1797 39.0903 -2.4312 1.7600
# 5 14.4812 16.9303 19.0607 -2.4312 46.4916 -2.6473
# 6 -13.9524 -4.6850 -0.6192 1.7600 -2.6473 42.1756
#
#
#
# Elastic Compliance Matrix: (Units=1/GPa)
#
#
# Indices 1 2 3 4 5 6 
#
# 1 0.011415 -0.001342 -0.002803 -0.001823 -0.001811 0.003548
# 2 -0.001342 0.024995 -0.003658 -0.002874 -0.007224 0.001946
# 3 -0.002803 -0.003658 0.010032 -0.001330 -0.002049 -0.001259
# 4 -0.001823 -0.002874 -0.001330 0.026975 0.003465 -0.001850
# 5 -0.001811 -0.007224 -0.002049 0.003465 0.025728 0.000039
# 6 0.003548 0.001946 -0.001259 -0.001850 0.000039 0.025162
#
#
# Mechanical properties :
#
#
# Convention : Reuss Voigt Hill
#
# Bulk Modulus (GPa) = 32.42790 49.98342 41.20566
# Shear Modulus (GPa) = 33.29102 38.88277 36.08690
#
# Velocity S-wave (km/s) = 3.97112 4.29169 4.13451
# Velocity P-wave (km/s) = 6.03219 6.94514 6.50470
#
# Compressibility (1/GPa) = 0.03083764
#
# Stress axis : x y z
#
# Youngs Moduli (GPa) = 87.60477 40.00787 99.67614
#
# Poissons Ratio (x) = 0.05367 0.27941
# Poissons Ratio (y) = 0.11752 0.36459
# Poissons Ratio (z) = 0.24557 0.14634
#
# Static dielectric constant tensor:
#      x y z
#    x 4.257250 -0.043450 0.085860 
#    y -0.043450 3.792590 -0.256660 
#    z 0.085860 -0.256660 4.005420 
# 
# 
# High freq. dielectric constant tensor:
#      x y z
#    x 1.852610 -0.007010 0.004060 
#    y -0.007010 1.815790 -0.013950 
#    z 0.004060 -0.013950 1.836450 
# 
# From -- ./inp_files/217015.got.cif
#   From: 2010.06.25/outbox.cif.g09.slc.cpg/sg2_109_cif.got.tgz:217015.got - 2010.06.27 13:26:56.
