data_PCOD8031229
_publ_section_title
;
Structure prediction by ZEFSAII (Michael W. Deem and Ramdas Pophale) SiO2 
 PCOD8031229
Probable space group: P -1
;
_chemical_formula_sum "Si O2"
_cell_formula_units_Z 14
_cell_length_a 16.692098
_cell_length_b 11.683206
_cell_length_c 11.289888
_cell_angle_alpha 120.885639
_cell_angle_beta 158.082918
_cell_angle_gamma 50.719806
_cell_volume 614.905735
_symmetry_space_group_name_H-M "P -1"
_symmetry_group_IT_number 2
_symmetry_cell_setting 'triclinic'
loop_
_space_group_symop_operation_xyz
x,y,z
-x,-y,-z
loop_
_atom_site_type_symbol
_atom_site_label
_atom_site_fract_x
_atom_site_fract_y
_atom_site_fract_z
Si Si1 0.811045 0.174229 0.853994
Si Si2 0.612977 0.093355 0.761943
Si Si3 0.616009 0.126002 0.331272
Si Si4 0.168071 0.313679 0.431403
Si Si5 0.827151 0.794662 0.381500
Si Si6 0.208638 0.596557 0.631800
Si Si7 0.939053 0.125441 0.582915
O O1 0.673513 0.190170 0.798957
O O2 0.621934 0.215739 0.504834
O O3 0.942714 0.278938 0.080975
O O4 0.000000 0.000000 0.000000
O O5 0.420661 0.208208 0.653554
O O6 0.500000 0.000000 0.500000
O O7 0.847676 0.955143 0.071649
O O8 0.686611 0.179039 0.335653
O O9 0.799166 0.941962 0.494717
O O10 0.339371 0.159483 0.941992
O O11 0.232278 0.298787 0.651656
O O12 0.087495 0.488605 0.383146
O O13 0.105539 0.695336 0.663806
O O14 0.108646 0.713684 0.447824
O O15 0.500000 0.500000 0.000000
O O16 0.000000 0.000000 0.500000
#
# Coordination Sequence:
#
# PCOD8031229 Si02
#       7
#     2   2   2   2   2   2   2
#     4  12  23  44  72 104 147 186 240 295 358 425
#     4  12  24  44  77 104 142 190 247 297 346 431
#     4  11  22  42  73 109 135 182 244 306 346 425
#     4  12  26  46  71 108 144 195 236 299 372 424
#     4  11  23  43  74 103 143 181 243 300 363 422
#     4  12  28  44  70 109 152 190 235 305 374 431
#     4  12  23  42  71 104 137 182 245 297 353 424
#
# _framework density 22.767717999999999
#
# number of rings (size 3 to 8) (size 9 to 14) (size 15 to 20)
#    0.000    0.286    5.714    3.000    6.000    0.000 
#    0.000    3.571    0.000    0.000    0.000    0.000 
#    0.000    0.000    0.000    0.000    0.000    0.000 
#
# Total GULP energy -173495.919211 kJ/mol
# GULP energy per Si atom -12392.565658 kJ/mol
# Density = 2.271590 g / cm^3
# Si number density = 22.767718 Si / 1000 Ang^3
#
#
#
# Elastic Constant Matrix: (Units=GPa)
#
#
# Indices 1 2 3 4 5 6 
#
# 1 156.5248 39.4007 52.1823 -13.2264 9.0563 14.1125
# 2 39.4007 127.9041 47.1225 4.0842 -4.2753 32.5640
# 3 52.1823 47.1225 112.8810 13.8260 -7.4189 -3.0683
# 4 -13.2264 4.0842 13.8260 33.1290 -4.9812 6.2445
# 5 9.0563 -4.2753 -7.4189 -4.9812 42.0187 0.3703
# 6 14.1125 32.5640 -3.0683 6.2445 0.3703 39.7679
#
#
#
# Elastic Compliance Matrix: (Units=1/GPa)
#
#
# Indices 1 2 3 4 5 6 
#
# 1 0.009268 0.000056 -0.005374 0.006512 -0.002127 -0.004752
# 2 0.000056 0.012910 -0.006082 0.003259 0.000716 -0.011578
# 3 -0.005374 -0.006082 0.015418 -0.009313 0.002074 0.009520
# 4 0.006512 0.003259 -0.009313 0.038794 0.001987 -0.011808
# 5 -0.002127 0.000716 0.002074 0.001987 0.024934 -0.000216
# 6 -0.004752 -0.011578 0.009520 -0.011808 -0.000216 0.038904
#
#
# Mechanical properties :
#
#
# Convention : Reuss Voigt Hill
#
# Bulk Modulus (GPa) = 67.59025 74.96898 71.27962
# Shear Modulus (GPa) = 29.76892 40.22341 34.99617
#
# Velocity S-wave (km/s) = 3.61987 4.20776 3.92483
# Velocity P-wave (km/s) = 6.87187 7.52371 7.20516
#
# Compressibility (1/GPa) = 0.01479503
#
# Stress axis : x y z
#
# Youngs Moduli (GPa) = 107.89512 77.46230 64.85936
#
# Poissons Ratio (x) = -0.00432 0.34858
# Poissons Ratio (y) = -0.00602 0.39446
# Poissons Ratio (z) = 0.57987 0.47111
#
# Static dielectric constant tensor:
#      x y z
#    x 5.640850 -0.146060 -0.074160 
#    y -0.146060 4.176150 0.245100 
#    z -0.074160 0.245100 4.058290 
# 
# 
# High freq. dielectric constant tensor:
#      x y z
#    x 1.919720 0.006210 0.004670 
#    y 0.006210 1.882580 0.012990 
#    z 0.004670 0.012990 1.898900 
# 
# From -- ./inp_files/285861.got.cif
#   From: 2010.06.25/outbox.cif.g09.slc.cpg/sg2_143_cif.got.tgz:285861.got - 2010.06.27 13:26:56.
