data_PCOD8031965
_publ_section_title
;
Structure prediction by ZEFSAII (Michael W. Deem and Ramdas Pophale) SiO2 
 PCOD8031965
Probable space group: P -1
;
_chemical_formula_sum "Si O2"
_cell_formula_units_Z 14
_cell_length_a 6.572778
_cell_length_b 12.131522
_cell_length_c 12.214555
_cell_angle_alpha 50.108384
_cell_angle_beta 100.788911
_cell_angle_gamma 114.583773
_cell_volume 675.103697
_symmetry_space_group_name_H-M "P -1"
_symmetry_group_IT_number 2
_symmetry_cell_setting 'triclinic'
loop_
_space_group_symop_operation_xyz
x,y,z
-x,-y,-z
loop_
_atom_site_type_symbol
_atom_site_label
_atom_site_fract_x
_atom_site_fract_y
_atom_site_fract_z
Si Si1 0.647634 0.179428 0.422106
Si Si2 0.707813 0.974229 0.093287
Si Si3 0.854037 0.655657 0.643356
Si Si4 0.546397 0.781661 0.398243
Si Si5 0.875040 0.757237 0.115914
Si Si6 0.523492 0.452501 0.155788
Si Si7 0.134961 0.592444 0.354299
O O1 0.617049 0.205593 0.530884
O O2 0.582384 0.299088 0.264720
O O3 0.903030 0.205582 0.400836
O O4 0.500000 0.000000 0.500000
O O5 0.667799 0.941186 0.240682
O O6 0.724728 0.830273 0.119442
O O7 0.500000 0.000000 0.000000
O O8 0.949198 0.119588 0.027247
O O9 0.723656 0.718366 0.503936
O O10 0.718707 0.596416 0.779514
O O11 0.900632 0.511936 0.690431
O O12 0.397184 0.663185 0.366154
O O13 0.712284 0.599705 0.140285
O O14 0.039015 0.724137 0.239308
O O15 0.500000 0.500000 0.000000
O O16 0.000000 0.500000 0.500000
#
# Coordination Sequence:
#
# PCOD8031965 Si02
#       7
#     2   2   2   2   2   2   2
#     4  11  26  46  66  98 133 175 233 279 328 407
#     4  11  24  40  64  99 141 177 213 274 344 402
#     4  11  23  43  69  97 134 167 226 279 335 398
#     4  11  23  39  67  99 130 177 217 269 347 398
#     4  11  24  42  64  99 137 170 228 272 327 413
#     4  11  26  46  68  97 131 183 230 279 335 397
#     4  12  19  39  69  97 133 168 216 277 335 395
#
# _framework density 20.737552999999998
#
# number of rings (size 3 to 8) (size 9 to 14) (size 15 to 20)
#    0.000    0.857    4.286    3.000    0.000    6.286 
#    0.000    0.000    0.000    0.000    0.000    0.000 
#    0.000    0.000    0.000    0.000    0.000    0.000 
#
# Total GULP energy -173579.393586 kJ/mol
# GULP energy per Si atom -12398.528113 kJ/mol
# Density = 2.069035 g / cm^3
# Si number density = 20.737553 Si / 1000 Ang^3
#
#
#
# Elastic Constant Matrix: (Units=GPa)
#
#
# Indices 1 2 3 4 5 6 
#
# 1 151.2277 49.1040 69.1148 -3.6884 -4.7756 9.5795
# 2 49.1040 103.9610 41.7212 -19.2848 2.7789 17.1430
# 3 69.1148 41.7212 174.6924 2.2035 -8.1781 -1.0919
# 4 -3.6884 -19.2848 2.2035 32.9936 -0.2994 -4.0100
# 5 -4.7756 2.7789 -8.1781 -0.2994 41.8583 -9.3620
# 6 9.5795 17.1430 -1.0919 -4.0100 -9.3620 32.6108
#
#
#
# Elastic Compliance Matrix: (Units=1/GPa)
#
#
# Indices 1 2 3 4 5 6 
#
# 1 0.008948 -0.003084 -0.002780 -0.000742 0.000439 -0.001065
# 2 -0.003084 0.014765 -0.002602 0.007582 -0.003345 -0.006971
# 3 -0.002780 -0.002602 0.007579 -0.001986 0.001937 0.002750
# 4 -0.000742 0.007582 -0.001986 0.034815 -0.000670 0.000255
# 5 0.000439 -0.003345 0.001937 -0.000670 0.026605 0.009250
# 6 -0.001065 -0.006971 0.002750 0.000255 0.009250 0.037421
#
#
# Mechanical properties :
#
#
# Convention : Reuss Voigt Hill
#
# Bulk Modulus (GPa) = 69.64311 83.30677 76.47494
# Shear Modulus (GPa) = 32.92675 39.48862 36.20769
#
# Velocity S-wave (km/s) = 3.98902 4.36846 4.18305
# Velocity P-wave (km/s) = 7.40759 8.10578 7.76454
#
# Compressibility (1/GPa) = 0.01435892
#
# Stress axis : x y z
#
# Youngs Moduli (GPa) = 111.75756 67.72600 131.94965
#
# Poissons Ratio (x) = 0.20889 0.36685
# Poissons Ratio (y) = 0.34470 0.34332
# Poissons Ratio (z) = 0.31072 0.17622
#
# Static dielectric constant tensor:
#      x y z
#    x 3.905600 0.151410 -0.220530 
#    y 0.151410 3.495360 -0.123760 
#    z -0.220530 -0.123760 3.930890 
# 
# 
# High freq. dielectric constant tensor:
#      x y z
#    x 1.832250 0.007250 -0.008580 
#    y 0.007250 1.792850 -0.014460 
#    z -0.008580 -0.014460 1.824730 
# 
# From -- ./inp_files/27208.got.cif
#   From: 2010.06.25/outbox.cif.g09.slc.cpg/sg2_14_cif.got.tgz:27208.got - 2010.06.27 13:26:56.
