data_PCOD8031284
_publ_section_title
;
Structure prediction by ZEFSAII (Michael W. Deem and Ramdas Pophale) SiO2 
 PCOD8031284
Probable space group: P -1
;
_chemical_formula_sum "Si O2"
_cell_formula_units_Z 16
_cell_length_a 13.981369
_cell_length_b 9.322593
_cell_length_c 12.893205
_cell_angle_alpha 137.371963
_cell_angle_beta 42.686954
_cell_angle_gamma 113.216565
_cell_volume 731.231340
_symmetry_space_group_name_H-M "P -1"
_symmetry_group_IT_number 2
_symmetry_cell_setting 'triclinic'
loop_
_space_group_symop_operation_xyz
x,y,z
-x,-y,-z
loop_
_atom_site_type_symbol
_atom_site_label
_atom_site_fract_x
_atom_site_fract_y
_atom_site_fract_z
Si Si1 0.316234 0.347198 0.348635
Si Si2 0.942036 0.037445 0.875638
Si Si3 0.266197 0.791889 0.525822
Si Si4 0.475757 0.759905 0.161675
Si Si5 0.028087 0.563274 0.822570
Si Si6 0.081509 0.831426 0.259007
Si Si7 0.749320 0.891742 0.105960
Si Si8 0.624586 0.140728 0.935975
O O1 0.318212 0.520254 0.346412
O O2 0.194029 0.485887 0.600622
O O3 0.287169 0.111414 0.225149
O O4 0.494623 0.258818 0.185978
O O5 0.927423 0.020083 0.756279
O O6 0.089389 0.849046 0.695758
O O7 0.961601 0.276081 0.008363
O O8 0.799521 0.010271 0.032086
O O9 0.334591 0.865929 0.407466
O O10 0.310179 0.921339 0.657207
O O11 0.618577 0.802949 0.123012
O O12 0.439444 0.871101 0.135893
O O13 0.500000 0.500000 0.000000
O O14 0.993984 0.358097 0.794558
O O15 0.893801 0.685474 0.916061
O O16 0.256843 0.724670 0.091053
O O17 0.000000 0.000000 0.500000
#
# Coordination Sequence:
#
# PCOD8031284 Si02
#       8
#     2   2   2   2   2   2   2   2
#     4  11  22  43  68  88 142 170 207 275 321 371
#     4  11  24  43  71  97 126 167 222 266 323 385
#     4  11  22  46  66  98 130 167 211 277 322 377
#     4  12  25  43  67  94 134 173 215 262 323 384
#     4  11  22  46  66  98 130 167 211 277 322 377
#     4  12  25  43  67  94 134 173 215 262 323 384
#     4  11  24  43  71  97 126 167 222 266 323 385
#     4  11  26  44  60  99 136 174 213 266 318 388
#
# _framework density 21.880901000000001
#
# number of rings (size 3 to 8) (size 9 to 14) (size 15 to 20)
#    0.000    0.750    5.000    3.000    3.500    0.000 
#    0.000    3.750    0.000    0.000    0.000    0.000 
#    0.000    0.000    0.000    0.000    0.000    0.000 
#
# Total GULP energy -198213.290662 kJ/mol
# GULP energy per Si atom -12388.330666 kJ/mol
# Density = 2.183110 g / cm^3
# Si number density = 21.880901 Si / 1000 Ang^3
#
#
#
# Elastic Constant Matrix: (Units=GPa)
#
#
# Indices 1 2 3 4 5 6 
#
# 1 98.6448 36.5659 34.3130 -7.9797 2.9320 15.2875
# 2 36.5659 116.2194 41.0852 -3.4053 6.6743 8.2380
# 3 34.3130 41.0852 103.8317 -5.4188 -9.2675 11.0765
# 4 -7.9797 -3.4053 -5.4188 43.9694 -0.4401 -9.5618
# 5 2.9320 6.6743 -9.2675 -0.4401 26.3809 -8.6421
# 6 15.2875 8.2380 11.0765 -9.5618 -8.6421 28.0763
#
#
#
# Elastic Compliance Matrix: (Units=1/GPa)
#
#
# Indices 1 2 3 4 5 6 
#
# 1 0.013238 -0.002374 -0.003093 0.000405 -0.004047 -0.006399
# 2 -0.002374 0.011094 -0.003823 -0.000532 -0.004563 -0.002040
# 3 -0.003093 -0.003823 0.012737 0.000724 0.005729 -0.000209
# 4 0.000405 -0.000532 0.000724 0.024928 0.003810 0.009312
# 5 -0.004047 -0.004563 0.005729 0.003810 0.047190 0.017105
# 6 -0.006399 -0.002040 -0.000209 0.009312 0.017105 0.048219
#
#
# Mechanical properties :
#
#
# Convention : Reuss Voigt Hill
#
# Bulk Modulus (GPa) = 54.08272 60.29156 57.18714
# Shear Modulus (GPa) = 27.45029 33.46743 30.45886
#
# Velocity S-wave (km/s) = 3.54578 3.91516 3.73504
# Velocity P-wave (km/s) = 6.44468 6.93197 6.69276
#
# Compressibility (1/GPa) = 0.01849020
#
# Stress axis : x y z
#
# Youngs Moduli (GPa) = 75.54100 90.14128 78.51113
#
# Poissons Ratio (x) = 0.21398 0.24282
# Poissons Ratio (y) = 0.17932 0.30012
# Poissons Ratio (z) = 0.23363 0.34457
#
# Static dielectric constant tensor:
#      x y z
#    x 3.854200 0.150570 -0.107320 
#    y 0.150570 4.192310 -0.065690 
#    z -0.107320 -0.065690 4.204550 
# 
# 
# High freq. dielectric constant tensor:
#      x y z
#    x 1.838340 0.009610 -0.013500 
#    y 0.009610 1.878480 -0.013360 
#    z -0.013500 -0.013360 1.873090 
# 
# From -- ./inp_files/448150.got.cif
#   From: 2010.06.25/outbox.cif.g09.slc.cpg/sg2_225_cif.got.tgz:448150.got - 2010.06.27 13:26:56.
