data_PCOD8031185
_publ_section_title
;
Structure prediction by ZEFSAII (Michael W. Deem and Ramdas Pophale) SiO2 
 PCOD8031185
Probable space group: P -1
;
_chemical_formula_sum "Si O2"
_cell_formula_units_Z 16
_cell_length_a 8.163171
_cell_length_b 11.540320
_cell_length_c 12.231909
_cell_angle_alpha 48.436091
_cell_angle_beta 46.526699
_cell_angle_gamma 69.232941
_cell_volume 614.563361
_symmetry_space_group_name_H-M "P -1"
_symmetry_group_IT_number 2
_symmetry_cell_setting 'triclinic'
loop_
_space_group_symop_operation_xyz
x,y,z
-x,-y,-z
loop_
_atom_site_type_symbol
_atom_site_label
_atom_site_fract_x
_atom_site_fract_y
_atom_site_fract_z
Si Si1 0.434939 0.398053 0.698210
Si Si2 0.052754 0.601468 0.519491
Si Si3 0.215760 0.935231 0.487976
Si Si4 0.775426 0.868617 0.444110
Si Si5 0.190058 0.086668 0.048598
Si Si6 0.484901 0.890125 0.920454
Si Si7 0.318858 0.661863 0.733134
Si Si8 0.294191 0.596689 0.037413
O O1 0.500000 0.500000 0.500000
O O2 0.240720 0.244765 0.852703
O O3 0.332086 0.492676 0.782496
O O4 0.673282 0.342226 0.650609
O O5 0.952872 0.760300 0.467862
O O6 0.000000 0.500000 0.500000
O O7 0.942481 0.501447 0.739558
O O8 0.154626 0.756469 0.677873
O O9 0.334046 0.061455 0.444939
O O10 0.405487 0.951224 0.296159
O O11 0.000000 0.000000 0.500000
O O12 0.571112 0.769202 0.530883
O O13 0.916807 0.024549 0.221206
O O14 0.279461 0.936206 0.054771
O O15 0.314407 0.148796 0.067521
O O16 0.384327 0.745773 0.978965
O O17 0.240678 0.641819 0.908268
O O18 0.500000 0.500000 0.000000
#
# Coordination Sequence:
#
# PCOD8031185 Si02
#       8
#     2   2   2   2   2   2   2   2
#     4  12  28  50  72 109 156 198 257 319 384 462
#     4  12  23  46  78 111 147 201 248 309 385 451
#     4  12  26  48  73 106 152 201 253 320 386 450
#     4  12  24  45  78 109 147 193 253 315 385 455
#     4  11  24  44  74 109 148 200 250 313 379 462
#     4  11  22  42  71 107 150 197 254 306 376 457
#     4  12  27  49  76 114 153 200 259 320 383 464
#     4  12  23  44  76 115 158 203 251 319 386 461
#
# _framework density 26.034742999999999
#
# number of rings (size 3 to 8) (size 9 to 14) (size 15 to 20)
#    0.000    0.250    5.000    4.875    1.750    1.000 
#    0.000    2.500    0.000    0.000    0.000    0.000 
#    0.000    0.000    0.000    0.000    0.000    0.000 
#
# Total GULP energy -198309.156299 kJ/mol
# GULP energy per Si atom -12394.322269 kJ/mol
# Density = 2.597549 g / cm^3
# Si number density = 26.034743 Si / 1000 Ang^3
#
#
#
# Elastic Constant Matrix: (Units=GPa)
#
#
# Indices 1 2 3 4 5 6 
#
# 1 48.7764 11.6053 28.2203 -2.4470 0.6499 -8.6928
# 2 11.6053 124.1935 32.9163 -0.7262 2.1360 6.2720
# 3 28.2203 32.9163 166.7828 -9.0036 -2.1538 3.1095
# 4 -2.4470 -0.7262 -9.0036 40.9415 3.7095 4.2860
# 5 0.6499 2.1360 -2.1538 3.7095 44.3214 -6.4922
# 6 -8.6928 6.2720 3.1095 4.2860 -6.4922 38.5033
#
#
#
# Elastic Compliance Matrix: (Units=1/GPa)
#
#
# Indices 1 2 3 4 5 6 
#
# 1 0.024208 -0.001544 -0.003906 -0.000120 0.000436 0.006119
# 2 -0.001544 0.008676 -0.001428 -0.000002 -0.000724 -0.001768
# 3 -0.003906 -0.001428 0.007042 0.001417 0.000152 -0.001350
# 4 -0.000120 -0.000002 0.001417 0.025315 -0.002544 -0.003388
# 5 0.000436 -0.000724 0.000152 -0.002544 0.023462 0.004443
# 6 0.006119 -0.001768 -0.001350 -0.003388 0.004443 0.028877
#
#
# Mechanical properties :
#
#
# Convention : Reuss Voigt Hill
#
# Bulk Modulus (GPa) = 38.21069 53.91516 46.06292
# Shear Modulus (GPa) = 35.69913 42.55395 39.12654
#
# Velocity S-wave (km/s) = 3.70700 4.04729 3.88088
# Velocity P-wave (km/s) = 5.74728 6.52645 6.14922
#
# Compressibility (1/GPa) = 0.02617069
#
# Stress axis : x y z
#
# Youngs Moduli (GPa) = 41.30893 115.25580 142.00162
#
# Poissons Ratio (x) = 0.17796 0.55469
# Poissons Ratio (y) = 0.06378 0.20272
# Poissons Ratio (z) = 0.16136 0.16454
#
# Static dielectric constant tensor:
#      x y z
#    x 4.391220 0.190010 0.236040 
#    y 0.190010 4.784730 0.081250 
#    z 0.236040 0.081250 5.184320 
# 
# 
# High freq. dielectric constant tensor:
#      x y z
#    x 2.019610 0.000030 -0.000570 
#    y 0.000030 2.058230 0.000370 
#    z -0.000570 0.000370 2.063980 
# 
# From -- ./inp_files/391958.got.cif
#   From: 2010.06.25/outbox.cif.g09.slc.cpg/sg2_196_cif.got.tgz:391958.got - 2010.06.27 13:26:56.
