data_PCOD8031349
_publ_section_title
;
Structure prediction by ZEFSAII (Michael W. Deem and Ramdas Pophale) SiO2 
 PCOD8031349
Probable space group: P -1
;
_chemical_formula_sum "Si O2"
_cell_formula_units_Z 16
_cell_length_a 13.749754
_cell_length_b 9.496646
_cell_length_c 8.955382
_cell_angle_alpha 85.533364
_cell_angle_beta 134.454169
_cell_angle_gamma 114.056504
_cell_volume 722.509999
_symmetry_space_group_name_H-M "P -1"
_symmetry_group_IT_number 2
_symmetry_cell_setting 'triclinic'
loop_
_space_group_symop_operation_xyz
x,y,z
-x,-y,-z
loop_
_atom_site_type_symbol
_atom_site_label
_atom_site_fract_x
_atom_site_fract_y
_atom_site_fract_z
Si Si1 0.724358 0.901555 0.937735
Si Si2 0.844540 0.678905 0.218314
Si Si3 0.848715 0.247649 0.605752
Si Si4 0.538588 0.382976 0.461955
Si Si5 0.496307 0.013768 0.821102
Si Si6 0.712053 0.354584 0.911494
Si Si7 0.063154 0.750281 0.960190
Si Si8 0.787319 0.535561 0.492263
O O1 0.623618 0.785189 0.704537
O O2 0.609614 0.949521 0.892752
O O3 0.870198 0.058762 0.009752
O O4 0.785253 0.806886 0.115804
O O5 0.810967 0.635507 0.359240
O O6 0.030430 0.768145 0.374865
O O7 0.752768 0.517133 0.032144
O O8 0.677885 0.087305 0.428178
O O9 0.920977 0.281917 0.846988
O O10 0.836345 0.400681 0.522036
O O11 0.500000 0.500000 0.500000
O O12 0.669508 0.361922 0.692904
O O13 0.606561 0.447769 0.362840
O O14 0.562383 0.202601 0.838353
O O15 0.500000 0.000000 0.000000
O O16 0.856946 0.321672 0.060410
O O17 0.883342 0.656504 0.722319
#
# Coordination Sequence:
#
# PCOD8031349 Si02
#       8
#     2   2   2   2   2   2   2   2
#     4  11  26  46  67 103 143 179 229 290 346 404
#     4  12  27  43  69 103 146 180 228 284 348 414
#     4  12  23  45  73 102 134 184 236 280 340 413
#     4  12  24  44  71 101 136 180 234 287 345 401
#     4  11  25  44  73 102 138 180 234 283 348 410
#     4  11  22  43  71 100 131 186 233 284 340 408
#     4  11  24  44  72  97 136 180 239 284 333 409
#     4  12  25  43  69 101 138 185 233 282 340 413
#
# _framework density 22.145022000000001
#
# number of rings (size 3 to 8) (size 9 to 14) (size 15 to 20)
#    0.000    0.500    5.000    3.000    3.500    4.500 
#    2.250    0.000    0.000    0.000    0.000    0.000 
#    0.000    0.000    0.000    0.000    0.000    0.000 
#
# Total GULP energy -198429.971674 kJ/mol
# GULP energy per Si atom -12401.873230 kJ/mol
# Density = 2.209462 g / cm^3
# Si number density = 22.145022 Si / 1000 Ang^3
#
#
#
# Elastic Constant Matrix: (Units=GPa)
#
#
# Indices 1 2 3 4 5 6 
#
# 1 75.4009 20.5513 5.4331 -10.3933 2.5345 11.9346
# 2 20.5513 107.8601 10.7958 -8.5911 15.1262 6.0600
# 3 5.4331 10.7958 64.0865 -9.4111 1.4170 4.6836
# 4 -10.3933 -8.5911 -9.4111 40.6494 7.5095 -0.3840
# 5 2.5345 15.1262 1.4170 7.5095 36.4767 -1.0763
# 6 11.9346 6.0600 4.6836 -0.3840 -1.0763 31.9726
#
#
#
# Elastic Compliance Matrix: (Units=1/GPa)
#
#
# Indices 1 2 3 4 5 6 
#
# 1 0.015215 -0.002172 0.000009 0.003577 -0.001048 -0.005261
# 2 -0.002172 0.010714 -0.001087 0.002326 -0.004764 -0.001193
# 3 0.000009 -0.001087 0.016524 0.003768 -0.001033 -0.002207
# 4 0.003577 0.002326 0.003768 0.028194 -0.007230 -0.002233
# 5 -0.001048 -0.004764 -0.001033 -0.007230 0.031063 0.002404
# 6 -0.005261 -0.001193 -0.002207 -0.002233 0.002404 0.033844
#
#
# Mechanical properties :
#
#
# Convention : Reuss Voigt Hill
#
# Bulk Modulus (GPa) = 27.81398 35.65645 31.73521
# Shear Modulus (GPa) = 32.45953 35.85756 34.15854
#
# Velocity S-wave (km/s) = 3.83269 4.02831 3.93172
# Velocity P-wave (km/s) = 5.67214 6.14595 5.91379
#
# Compressibility (1/GPa) = 0.03595315
#
# Stress axis : x y z
#
# Youngs Moduli (GPa) = 65.72476 93.33260 60.51917
#
# Poissons Ratio (x) = 0.20275 -0.00055
# Poissons Ratio (y) = 0.14278 0.06576
# Poissons Ratio (z) = -0.00059 0.10142
#
# Static dielectric constant tensor:
#      x y z
#    x 3.896330 0.260440 0.088610 
#    y 0.260440 3.958840 0.521040 
#    z 0.088610 0.521040 3.645740 
# 
# 
# High freq. dielectric constant tensor:
#      x y z
#    x 1.870680 0.010690 0.003700 
#    y 0.010690 1.883860 0.008070 
#    z 0.003700 0.008070 1.873090 
# 
# From -- ./inp_files/261486.got.cif
#   From: 2010.06.25/outbox.cif.g09.slc.cpg/sg2_131_cif.got.tgz:261486.got - 2010.06.27 13:26:56.
