data_PCOD8031935
_publ_section_title
;
Structure prediction by ZEFSAII (Michael W. Deem and Ramdas Pophale) SiO2 
 PCOD8031935
Probable space group: P -1
;
_chemical_formula_sum "Si O2"
_cell_formula_units_Z 16
_cell_length_a 20.671679
_cell_length_b 8.704525
_cell_length_c 20.600575
_cell_angle_alpha 50.055340
_cell_angle_beta 19.868728
_cell_angle_gamma 40.864380
_cell_volume 783.338880
_symmetry_space_group_name_H-M "P -1"
_symmetry_group_IT_number 2
_symmetry_cell_setting 'triclinic'
loop_
_space_group_symop_operation_xyz
x,y,z
-x,-y,-z
loop_
_atom_site_type_symbol
_atom_site_label
_atom_site_fract_x
_atom_site_fract_y
_atom_site_fract_z
Si Si1 0.482474 0.310577 0.759722
Si Si2 0.746630 0.875582 0.534808
Si Si3 0.943751 0.646454 0.791764
Si Si4 0.160605 0.862237 0.194617
Si Si5 0.843910 0.233093 0.540675
Si Si6 0.724379 0.144056 0.231322
Si Si7 0.640846 0.884614 0.482140
Si Si8 0.669488 0.505163 0.753021
O O1 0.722275 0.198353 0.603980
O O2 0.395251 0.567221 0.740026
O O3 0.536822 0.125396 0.700215
O O4 0.291067 0.338304 0.982375
O O5 0.675591 0.872998 0.529068
O O6 0.795654 0.643226 0.592599
O O7 0.985503 0.854158 0.314650
O O8 0.980839 0.699597 0.668329
O O9 0.169943 0.368552 0.667568
O O10 0.927356 0.854477 0.795735
O O11 0.174645 0.746795 0.283541
O O12 0.413647 0.694639 0.970334
O O13 0.643544 0.443725 0.720034
O O14 0.000000 0.000000 0.500000
O O15 0.614038 0.058153 0.305746
O O16 0.664774 0.092333 0.373035
O O17 0.000000 0.000000 0.000000
#
# Coordination Sequence:
#
# PCOD8031935 Si02
#       8
#     2   2   2   2   2   2   2   2
#     4  12  25  42  68  94 133 174 212 268 328 378
#     4  12  23  42  64  94 130 168 212 268 326 374
#     4  12  22  43  63  96 127 175 214 260 319 384
#     4  11  24  40  61  91 134 172 213 270 315 379
#     4  12  24  43  65  95 134 175 218 266 312 385
#     4  11  23  46  70  96 124 166 215 269 327 384
#     4  11  25  41  72  96 123 165 219 266 322 395
#     4  11  23  39  60  94 129 172 224 260 316 379
#
# _framework density 20.425387000000001
#
# number of rings (size 3 to 8) (size 9 to 14) (size 15 to 20)
#    0.000    0.500    7.500    0.375    1.750    2.000 
#    0.000    0.625    0.000    0.000    0.000    0.000 
#    0.000    0.000    0.000    0.000    0.000    0.000 
#
# Total GULP energy -198346.263423 kJ/mol
# GULP energy per Si atom -12396.641464 kJ/mol
# Density = 2.037890 g / cm^3
# Si number density = 20.425387 Si / 1000 Ang^3
#
#
#
# Elastic Constant Matrix: (Units=GPa)
#
#
# Indices 1 2 3 4 5 6 
#
# 1 92.4187 47.1344 49.6960 1.8417 5.6859 -1.6654
# 2 47.1344 132.0008 46.1939 -13.7060 -0.2286 -9.6148
# 3 49.6960 46.1939 112.3646 -8.2238 -6.2283 -3.8217
# 4 1.8417 -13.7060 -8.2238 37.0786 -2.2338 5.0255
# 5 5.6859 -0.2286 -6.2283 -2.2338 31.3331 2.5189
# 6 -1.6654 -9.6148 -3.8217 5.0255 2.5189 30.5488
#
#
#
# Elastic Compliance Matrix: (Units=1/GPa)
#
#
# Indices 1 2 3 4 5 6 
#
# 1 0.016654 -0.004219 -0.006183 -0.004011 -0.004555 -0.000158
# 2 -0.004219 0.010292 -0.002022 0.003301 0.000500 0.002172
# 3 -0.006183 -0.002022 0.012870 0.002663 0.003865 -0.000120
# 4 -0.004011 0.003301 0.002663 0.029753 0.003728 -0.004049
# 5 -0.004555 0.000500 0.003865 0.003728 0.034023 -0.003026
# 6 -0.000158 0.002172 -0.000120 -0.004049 -0.003026 0.034310
#
#
# Mechanical properties :
#
#
# Convention : Reuss Voigt Hill
#
# Bulk Modulus (GPa) = 66.80480 69.20365 68.00422
# Shear Modulus (GPa) = 29.80839 32.70943 31.25891
#
# Velocity S-wave (km/s) = 3.82433 4.00610 3.91627
# Velocity P-wave (km/s) = 7.23038 7.43998 7.33593
#
# Compressibility (1/GPa) = 0.01496898
#
# Stress axis : x y z
#
# Youngs Moduli (GPa) = 60.04605 97.16677 77.69854
#
# Poissons Ratio (x) = 0.40995 0.48037
# Poissons Ratio (y) = 0.25333 0.15709
# Poissons Ratio (z) = 0.37124 0.19646
#
# Static dielectric constant tensor:
#      x y z
#    x 5.553520 1.106620 -0.282970 
#    y 1.106620 4.695800 -0.364410 
#    z -0.282970 -0.364410 4.006320 
# 
# 
# High freq. dielectric constant tensor:
#      x y z
#    x 1.776430 -0.000090 0.010280 
#    y -0.000090 1.819200 -0.005740 
#    z 0.010280 -0.005740 1.811890 
# 
# From -- ./inp_files/218493.got.cif
#   From: 2010.06.25/outbox.cif.g09.slc.cpg/sg2_110_cif.got.tgz:218493.got - 2010.06.27 13:26:56.
