data_PCOD8031301
_publ_section_title
;
Structure prediction by ZEFSAII (Michael W. Deem and Ramdas Pophale) SiO2 
 PCOD8031301
Probable space group: P -1
;
_chemical_formula_sum "Si O2"
_cell_formula_units_Z 14
_cell_length_a 15.887253
_cell_length_b 21.424095
_cell_length_c 12.573027
_cell_angle_alpha 20.643178
_cell_angle_beta 28.035504
_cell_angle_gamma 25.599587
_cell_volume 630.470000
_symmetry_space_group_name_H-M "P -1"
_symmetry_group_IT_number 2
_symmetry_cell_setting 'triclinic'
loop_
_space_group_symop_operation_xyz
x,y,z
-x,-y,-z
loop_
_atom_site_type_symbol
_atom_site_label
_atom_site_fract_x
_atom_site_fract_y
_atom_site_fract_z
Si Si1 0.570916 0.655519 0.628643
Si Si2 0.268663 0.234888 0.332432
Si Si3 0.784472 0.958260 0.694093
Si Si4 0.815160 0.541593 0.331818
Si Si5 0.204475 0.914331 0.295067
Si Si6 0.491299 0.485879 0.657664
Si Si7 0.397094 0.077423 0.659871
O O1 0.401765 0.845221 0.453811
O O2 0.753979 0.544111 0.519536
O O3 0.641776 0.731366 0.531598
O O4 0.500000 0.500000 0.000000
O O5 0.256190 0.152050 0.594107
O O6 0.051255 0.399766 0.276121
O O7 0.365818 0.053333 0.428010
O O8 0.434112 0.315874 0.028684
O O9 0.800135 0.945377 0.825885
O O10 0.984633 0.961616 0.421481
O O11 0.764422 0.762464 0.993242
O O12 0.702068 0.448891 0.533419
O O13 0.315301 0.690746 0.573109
O O14 0.327792 0.934827 0.026667
O O15 0.500000 0.500000 0.500000
#
# Coordination Sequence:
#
# PCOD8031301 Si02
#       7
#     2   2   2   2   2   2   2
#     4  12  26  44  71 104 137 182 238 289 348 422
#     4  11  27  47  67 106 143 188 232 284 352 427
#     4  11  24  42  72 107 136 180 238 295 347 415
#     4  12  25  46  74 102 140 185 236 292 349 414
#     4  11  22  43  69 101 142 181 231 294 349 405
#     4  12  24  43  69 100 140 179 236 291 341 418
#     4  11  25  47  68  97 150 183 227 293 353 412
#
# _framework density 22.205656000000001
#
# number of rings (size 3 to 8) (size 9 to 14) (size 15 to 20)
#    0.000    0.571    5.714    2.143    2.000    2.286 
#    0.000    2.143    0.000    0.000    0.000    0.000 
#    0.000    0.000    0.000    0.000    0.000    0.000 
#
# Total GULP energy -173643.224327 kJ/mol
# GULP energy per Si atom -12403.087452 kJ/mol
# Density = 2.215512 g / cm^3
# Si number density = 22.205656 Si / 1000 Ang^3
#
#
#
# Elastic Constant Matrix: (Units=GPa)
#
#
# Indices 1 2 3 4 5 6 
#
# 1 92.5216 37.1937 28.4944 13.9752 -8.0733 10.0546
# 2 37.1937 105.0493 22.0949 9.0350 -0.1556 -4.9155
# 3 28.4944 22.0949 82.2261 0.9651 7.4382 0.1735
# 4 13.9752 9.0350 0.9651 32.1720 1.5191 2.0679
# 5 -8.0733 -0.1556 7.4382 1.5191 35.5837 3.1472
# 6 10.0546 -4.9155 0.1735 2.0679 3.1472 39.2219
#
#
#
# Elastic Compliance Matrix: (Units=1/GPa)
#
#
# Indices 1 2 3 4 5 6 
#
# 1 0.015789 -0.004346 -0.004700 -0.005440 0.005194 -0.004701
# 2 -0.004346 0.011634 -0.001537 -0.001471 -0.000792 0.002720
# 3 -0.004700 -0.001537 0.014566 0.002164 -0.004314 0.001180
# 4 -0.005440 -0.001471 0.002164 0.033963 -0.003113 -0.000340
# 5 0.005194 -0.000792 -0.004314 -0.003113 0.030640 -0.003706
# 6 -0.004701 0.002720 0.001180 -0.000340 -0.003706 0.027352
#
#
# Mechanical properties :
#
#
# Convention : Reuss Voigt Hill
#
# Bulk Modulus (GPa) = 48.02390 50.59589 49.30989
# Shear Modulus (GPa) = 30.85482 34.19646 32.52564
#
# Velocity S-wave (km/s) = 3.73165 3.92853 3.83135
# Velocity P-wave (km/s) = 6.34356 6.58881 6.46735
#
# Compressibility (1/GPa) = 0.02082297
#
# Stress axis : x y z
#
# Youngs Moduli (GPa) = 63.33715 85.95532 68.65523
#
# Poissons Ratio (x) = 0.37357 0.32265
# Poissons Ratio (y) = 0.27527 0.10552
# Poissons Ratio (z) = 0.29765 0.13211
#
# Static dielectric constant tensor:
#      x y z
#    x 3.902430 0.237740 -0.109460 
#    y 0.237740 4.124590 -0.027210 
#    z -0.109460 -0.027210 4.118560 
# 
# 
# High freq. dielectric constant tensor:
#      x y z
#    x 1.867680 0.013010 -0.001100 
#    y 0.013010 1.881340 -0.000470 
#    z -0.001100 -0.000470 1.880510 
# 
# From -- ./inp_files/400169.got.cif
#   From: 2010.06.25/outbox.cif.g09.slc.cpg/sg2_201_cif.got.tgz:400169.got - 2010.06.27 13:26:56.
