data_PCOD8031409
_publ_section_title
;
Structure prediction by ZEFSAII (Michael W. Deem and Ramdas Pophale) SiO2 
 PCOD8031409
Probable space group: P -1
;
_chemical_formula_sum "Si O2"
_cell_formula_units_Z 16
_cell_length_a 9.362807
_cell_length_b 8.478040
_cell_length_c 22.649195
_cell_angle_alpha 32.750597
_cell_angle_beta 122.696298
_cell_angle_gamma 130.219108
_cell_volume 742.647143
_symmetry_space_group_name_H-M "P -1"
_symmetry_group_IT_number 2
_symmetry_cell_setting 'triclinic'
loop_
_space_group_symop_operation_xyz
x,y,z
-x,-y,-z
loop_
_atom_site_type_symbol
_atom_site_label
_atom_site_fract_x
_atom_site_fract_y
_atom_site_fract_z
Si Si1 0.315600 0.549882 0.931934
Si Si2 0.926780 0.635749 0.616914
Si Si3 0.505930 0.199416 0.341746
Si Si4 0.040735 0.210945 0.077428
Si Si5 0.216307 0.468561 0.799355
Si Si6 0.531883 0.559355 0.557484
Si Si7 0.106804 0.916707 0.295183
Si Si8 0.295794 0.197954 0.720488
O O1 0.251412 0.484833 0.870976
O O2 0.345712 0.908013 0.843947
O O3 0.500000 0.500000 0.000000
O O4 0.155310 0.291208 0.017383
O O5 0.716219 0.515215 0.632347
O O6 0.931202 0.443783 0.618843
O O7 0.052802 0.584083 0.712490
O O8 0.000000 0.000000 0.500000
O O9 0.594647 0.305215 0.263357
O O10 0.585882 0.496176 0.309950
O O11 0.557703 0.917781 0.466654
O O12 0.282050 0.067245 0.330645
O O13 0.156599 0.133536 0.179034
O O14 0.847061 0.896911 0.122385
O O15 0.000000 0.500000 0.000000
O O16 0.500000 0.500000 0.500000
O O17 0.356104 0.290977 0.636786
O O18 0.925711 0.911598 0.289619
#
# Coordination Sequence:
#
# PCOD8031409 Si02
#       8
#     2   2   2   2   2   2   2   2
#     4  12  27  45  70 102 139 185 242 295 352 418
#     4  11  22  43  74 102 144 186 231 287 354 418
#     4  12  23  46  72 105 143 185 232 287 358 418
#     4  11  22  47  70  96 141 179 232 293 351 413
#     4  11  24  43  74 103 141 183 238 291 351 422
#     4  12  25  44  71 103 143 186 228 288 352 418
#     4  11  24  44  73  99 141 188 231 292 351 417
#     4  12  27  47  67 105 144 179 241 291 346 434
#
# _framework density 21.544553000000001
#
# number of rings (size 3 to 8) (size 9 to 14) (size 15 to 20)
#    0.000    0.500    6.250    2.250    3.500    2.500 
#    0.000    2.500    0.000    0.000    0.000    0.000 
#    0.000    0.000    0.000    0.000    0.000    0.000 
#
# Total GULP energy -198474.250802 kJ/mol
# GULP energy per Si atom -12404.640675 kJ/mol
# Density = 2.149552 g / cm^3
# Si number density = 21.544553 Si / 1000 Ang^3
#
#
#
# Elastic Constant Matrix: (Units=GPa)
#
#
# Indices 1 2 3 4 5 6 
#
# 1 150.2858 50.9435 65.6718 10.5045 3.3780 23.6964
# 2 50.9435 104.2738 38.6157 13.4725 20.8353 19.1620
# 3 65.6718 38.6157 126.0436 -8.3542 6.4375 8.7745
# 4 10.5045 13.4725 -8.3542 39.2234 -9.4354 2.0666
# 5 3.3780 20.8353 6.4375 -9.4354 52.1227 -0.9420
# 6 23.6964 19.1620 8.7745 2.0666 -0.9420 32.2697
#
#
#
# Elastic Compliance Matrix: (Units=1/GPa)
#
#
# Indices 1 2 3 4 5 6 
#
# 1 0.010337 -0.002139 -0.004578 -0.002709 0.000172 -0.004897
# 2 -0.002139 0.015223 -0.003195 -0.006653 -0.006871 -0.006374
# 3 -0.004578 -0.003195 0.011439 0.004923 0.001086 0.001865
# 4 -0.002709 -0.006653 0.004923 0.031317 0.007947 0.002828
# 5 0.000172 -0.006871 0.001086 0.007947 0.023295 0.003830
# 6 -0.004897 -0.006374 0.001865 0.002828 0.003830 0.037794
#
#
# Mechanical properties :
#
#
# Convention : Reuss Voigt Hill
#
# Bulk Modulus (GPa) = 58.22923 76.78503 67.50713
# Shear Modulus (GPa) = 32.26749 39.74795 36.00772
#
# Velocity S-wave (km/s) = 3.87422 4.29991 4.09261
# Velocity P-wave (km/s) = 6.86286 7.76980 7.33037
#
# Compressibility (1/GPa) = 0.01717351
#
# Stress axis : x y z
#
# Youngs Moduli (GPa) = 96.73630 65.69171 87.42022
#
# Poissons Ratio (x) = 0.14053 0.40021
# Poissons Ratio (y) = 0.20694 0.27935
# Poissons Ratio (z) = 0.44286 0.20991
#
# Static dielectric constant tensor:
#      x y z
#    x 4.447680 0.340630 0.059480 
#    y 0.340630 4.248450 0.041000 
#    z 0.059480 0.041000 3.751110 
# 
# 
# High freq. dielectric constant tensor:
#      x y z
#    x 1.854190 -0.000110 0.001700 
#    y -0.000110 1.842330 -0.011640 
#    z 0.001700 -0.011640 1.860670 
# 
# From -- ./inp_files/606569.got.cif
#   From: 2010.06.25/outbox.cif.g09.slc.cpg/sg2_304_cif.got.tgz:606569.got - 2010.06.27 13:26:56.
