data_PCOD8031507
_publ_section_title
;
Structure prediction by ZEFSAII (Michael W. Deem and Ramdas Pophale) SiO2 
 PCOD8031507
Probable space group: P -1
;
_chemical_formula_sum "Si O2"
_cell_formula_units_Z 14
_cell_length_a 21.502584
_cell_length_b 11.431916
_cell_length_c 15.373268
_cell_angle_alpha 31.598838
_cell_angle_beta 17.925764
_cell_angle_gamma 31.996396
_cell_volume 592.557969
_symmetry_space_group_name_H-M "P -1"
_symmetry_group_IT_number 2
_symmetry_cell_setting 'triclinic'
loop_
_space_group_symop_operation_xyz
x,y,z
-x,-y,-z
loop_
_atom_site_type_symbol
_atom_site_label
_atom_site_fract_x
_atom_site_fract_y
_atom_site_fract_z
Si Si1 0.767114 0.477194 0.324344
Si Si2 0.788439 0.220488 0.293573
Si Si3 0.619551 0.147952 0.377608
Si Si4 0.108057 0.567102 0.229516
Si Si5 0.794196 0.196757 0.628738
Si Si6 0.166988 0.339040 0.629939
Si Si7 0.404505 0.114498 0.141565
O O1 0.690173 0.426132 0.361928
O O2 0.615045 0.708196 0.420387
O O3 0.777358 0.255252 0.511650
O O4 0.000000 0.500000 0.000000
O O5 0.669461 0.227367 0.357112
O O6 0.776827 0.984704 0.507960
O O7 0.021417 0.245953 0.950670
O O8 0.634922 0.875441 0.517069
O O9 0.796000 0.206991 0.040356
O O10 0.311862 0.368077 0.068568
O O11 0.000000 0.500000 0.500000
O O12 0.942650 0.585866 0.362164
O O13 0.772079 0.433540 0.560507
O O14 0.587012 0.101342 0.980654
O O15 0.000000 0.000000 0.500000
O O16 0.500000 0.000000 0.000000
#
# Coordination Sequence:
#
# PCOD8031507 Si02
#       7
#     2   2   2   2   2   2   2
#     4  12  25  46  73 105 139 191 234 289 350 418
#     4  11  23  44  76 104 136 187 238 284 349 423
#     4  11  24  46  71 106 142 182 242 286 350 428
#     4  11  22  44  70 101 138 184 235 285 352 417
#     4  12  27  47  68 102 147 181 237 289 356 408
#     4  11  25  47  71 105 144 184 230 299 352 424
#     4  12  23  42  70 104 136 183 235 289 343 412
#
# _framework density 23.626380000000001
#
# number of rings (size 3 to 8) (size 9 to 14) (size 15 to 20)
#    0.000    0.571    4.286    4.714    2.000    2.857 
#    0.000    2.857    0.000    0.000    0.000    0.000 
#    0.000    0.000    0.000    0.000    0.000    0.000 
#
# Total GULP energy -173454.491445 kJ/mol
# GULP energy per Si atom -12389.606532 kJ/mol
# Density = 2.357261 g / cm^3
# Si number density = 23.626380 Si / 1000 Ang^3
#
#
#
# Elastic Constant Matrix: (Units=GPa)
#
#
# Indices 1 2 3 4 5 6 
#
# 1 81.8446 67.6282 61.0133 -2.3355 12.6699 6.9437
# 2 67.6282 174.5598 33.2858 6.0738 -13.8302 4.3282
# 3 61.0133 33.2858 94.9536 -5.7432 -4.7282 6.5322
# 4 -2.3355 6.0738 -5.7432 28.4289 1.7057 -6.2085
# 5 12.6699 -13.8302 -4.7282 1.7057 35.2426 -4.7520
# 6 6.9437 4.3282 6.5322 -6.2085 -4.7520 36.7701
#
#
#
# Elastic Compliance Matrix: (Units=1/GPa)
#
#
# Indices 1 2 3 4 5 6 
#
# 1 0.055277 -0.018144 -0.030130 0.002809 -0.032063 -0.006620
# 2 -0.018144 0.012371 0.007658 -0.002969 0.012786 0.001761
# 3 -0.030130 0.007658 0.027998 0.000973 0.017854 0.002286
# 4 0.002809 -0.002969 0.000973 0.037647 -0.003111 0.005601
# 5 -0.032063 0.012786 0.017854 -0.003111 0.048424 0.007111
# 6 -0.006620 0.001761 0.002286 0.005601 0.007111 0.029697
#
#
# Mechanical properties :
#
#
# Convention : Reuss Voigt Hill
#
# Bulk Modulus (GPa) = 69.37751 75.02361 72.20056
# Shear Modulus (GPa) = 16.80959 32.71704 24.76331
#
# Velocity S-wave (km/s) = 2.67024 3.72528 3.24098
# Velocity P-wave (km/s) = 6.23980 7.09414 6.68064
#
# Compressibility (1/GPa) = 0.01441389
#
# Stress axis : x y z
#
# Youngs Moduli (GPa) = 18.09068 80.83731 35.71740
#
# Poissons Ratio (x) = 1.46673 1.07615
# Poissons Ratio (y) = 0.32824 -0.27353
# Poissons Ratio (z) = 0.54507 -0.61907
#
# Static dielectric constant tensor:
#      x y z
#    x 4.203020 0.211520 0.015510 
#    y 0.211520 4.279550 -0.325150 
#    z 0.015510 -0.325150 6.299190 
# 
# 
# High freq. dielectric constant tensor:
#      x y z
#    x 1.932960 0.001800 0.005160 
#    y 0.001800 1.943570 -0.003380 
#    z 0.005160 -0.003380 1.940000 
# 
# From -- ./inp_files/242974.got.cif
#   From: 2010.06.25/outbox.cif.g09.slc.cpg/sg2_122_cif.got.tgz:242974.got - 2010.06.27 13:26:56.
