data_PCOD8031024
_publ_section_title
;
Structure prediction by ZEFSAII (Michael W. Deem and Ramdas Pophale) SiO2 
 PCOD8031024
Probable space group: P -1
;
_chemical_formula_sum "Si O2"
_cell_formula_units_Z 16
_cell_length_a 9.407211
_cell_length_b 12.938105
_cell_length_c 8.469212
_cell_angle_alpha 101.215394
_cell_angle_beta 108.956456
_cell_angle_gamma 46.733754
_cell_volume 709.302954
_symmetry_space_group_name_H-M "P -1"
_symmetry_group_IT_number 2
_symmetry_cell_setting 'triclinic'
loop_
_space_group_symop_operation_xyz
x,y,z
-x,-y,-z
loop_
_atom_site_type_symbol
_atom_site_label
_atom_site_fract_x
_atom_site_fract_y
_atom_site_fract_z
Si Si1 0.365167 0.531496 0.109808
Si Si2 0.672396 0.671184 0.055282
Si Si3 0.913594 0.256618 0.482969
Si Si4 0.810499 0.519454 0.394168
Si Si5 0.749684 0.023005 0.011674
Si Si6 0.915629 0.998000 0.736324
Si Si7 0.933583 0.741370 0.121945
Si Si8 0.403237 0.687185 0.415552
O O1 0.445488 0.560463 0.293951
O O2 0.123068 0.668956 0.049590
O O3 0.500000 0.500000 0.000000
O O4 0.380631 0.397849 0.106968
O O5 0.726801 0.586888 0.212359
O O6 0.856709 0.657186 0.057968
O O7 0.480184 0.836141 0.055927
O O8 0.878853 0.365098 0.375687
O O9 0.698824 0.298564 0.452323
O O10 0.068420 0.097304 0.422733
O O11 0.003579 0.263237 0.677064
O O12 0.631163 0.627258 0.491698
O O13 0.000000 0.500000 0.500000
O O14 0.868021 0.046227 0.179073
O O15 0.755396 0.903705 0.052602
O O16 0.860320 0.965629 0.867110
O O17 0.744718 0.163414 0.683603
#
# Coordination Sequence:
#
# PCOD8031024 Si02
#       8
#     2   2   2   2   2   2   2   2
#     4  11  22  41  73 100 130 177 230 282 337 395
#     4  12  25  45  69 100 142 181 224 283 347 402
#     4  11  25  43  72 100 138 182 226 278 341 404
#     4  12  25  45  67  94 142 183 221 277 343 408
#     4  11  24  42  73 102 137 174 232 283 340 402
#     4  11  23  43  73 105 133 177 229 289 336 399
#     4  11  25  47  66 103 142 178 227 285 337 411
#     4  11  23  46  68 101 136 172 236 280 332 408
#
# _framework density 22.557357
#
# number of rings (size 3 to 8) (size 9 to 14) (size 15 to 20)
#    0.000    0.750    6.250    1.500    5.250    0.000 
#    0.000    2.500    0.000    0.000    0.000    0.000 
#    0.000    0.000    0.000    0.000    0.000    0.000 
#
# Total GULP energy -198354.339221 kJ/mol
# GULP energy per Si atom -12397.146201 kJ/mol
# Density = 2.250602 g / cm^3
# Si number density = 22.557357 Si / 1000 Ang^3
#
#
#
# Elastic Constant Matrix: (Units=GPa)
#
#
# Indices 1 2 3 4 5 6 
#
# 1 143.2667 58.8561 35.1142 0.5663 8.3428 0.6792
# 2 58.8561 135.5855 55.9187 -2.9728 -3.1458 11.0736
# 3 35.1142 55.9187 51.6402 7.8141 1.6664 2.3693
# 4 0.5663 -2.9728 7.8141 40.7730 2.5401 -5.4897
# 5 8.3428 -3.1458 1.6664 2.5401 20.8696 -7.3909
# 6 0.6792 11.0736 2.3693 -5.4897 -7.3909 34.6606
#
#
#
# Elastic Compliance Matrix: (Units=1/GPa)
#
#
# Indices 1 2 3 4 5 6 
#
# 1 0.009102 -0.002714 -0.003220 0.000554 -0.003791 0.000188
# 2 -0.002714 0.015110 -0.015033 0.003481 0.003253 -0.002502
# 3 -0.003220 -0.015033 0.039182 -0.008343 -0.003013 0.000224
# 4 0.000554 0.003481 -0.008343 0.026906 -0.001073 0.003480
# 5 -0.003791 0.003253 -0.003013 -0.001073 0.054046 0.010595
# 6 0.000188 -0.002502 0.000224 0.003480 0.010595 0.032442
#
#
# Mechanical properties :
#
#
# Convention : Reuss Voigt Hill
#
# Bulk Modulus (GPa) = 46.60006 70.03003 58.31504
# Shear Modulus (GPa) = 22.13602 31.30087 26.71844
#
# Velocity S-wave (km/s) = 3.13600 3.72911 3.44534
# Velocity P-wave (km/s) = 5.81515 7.04659 6.46028
#
# Compressibility (1/GPa) = 0.02145920
#
# Stress axis : x y z
#
# Youngs Moduli (GPa) = 109.86620 66.18312 25.52173
#
# Poissons Ratio (x) = 0.17963 0.08219
# Poissons Ratio (y) = 0.29819 0.38366
# Poissons Ratio (z) = 0.35381 0.99492
#
# Static dielectric constant tensor:
#      x y z
#    x 4.367380 0.045590 -0.033680 
#    y 0.045590 4.167250 0.060800 
#    z -0.033680 0.060800 3.887570 
# 
# 
# High freq. dielectric constant tensor:
#      x y z
#    x 1.898970 0.001810 -0.005800 
#    y 0.001810 1.904210 -0.004190 
#    z -0.005800 -0.004190 1.866260 
# 
# From -- ./inp_files/188643.got.cif
#   From: 2010.06.25/outbox.cif.g09.slc.cpg/sg2_95_cif.got.tgz:188643.got - 2010.06.27 13:26:56.
