data_PCOD8031532
_publ_section_title
;
Structure prediction by ZEFSAII (Michael W. Deem and Ramdas Pophale) SiO2 
 PCOD8031532
Probable space group: P -1
;
_chemical_formula_sum "Si O2"
_cell_formula_units_Z 16
_cell_length_a 14.775361
_cell_length_b 9.066331
_cell_length_c 9.386347
_cell_angle_alpha 68.092226
_cell_angle_beta 134.146296
_cell_angle_gamma 86.520582
_cell_volume 733.664905
_symmetry_space_group_name_H-M "P -1"
_symmetry_group_IT_number 2
_symmetry_cell_setting 'triclinic'
loop_
_space_group_symop_operation_xyz
x,y,z
-x,-y,-z
loop_
_atom_site_type_symbol
_atom_site_label
_atom_site_fract_x
_atom_site_fract_y
_atom_site_fract_z
Si Si1 0.528242 0.786757 0.897465
Si Si2 0.250297 0.786317 0.487271
Si Si3 0.768417 0.038877 0.884684
Si Si4 0.303619 0.402564 0.584323
Si Si5 0.022945 0.397795 0.211401
Si Si6 0.008055 0.037995 0.329915
Si Si7 0.243369 0.305665 0.037465
Si Si8 0.547357 0.823101 0.428416
O O1 0.403037 0.741134 0.736579
O O2 0.669618 0.658626 0.005066
O O3 0.478559 0.997812 0.748403
O O4 0.571022 0.736526 0.125596
O O5 0.198858 0.934411 0.251917
O O6 0.260017 0.607655 0.494328
O O7 0.132101 0.858520 0.456298
O O8 0.600301 0.167705 0.686749
O O9 0.817485 0.826374 0.036518
O O10 0.855160 0.094135 0.070518
O O11 0.162132 0.379745 0.451348
O O12 0.367072 0.353399 0.512211
O O13 0.047019 0.197308 0.286922
O O14 0.000000 0.500000 0.000000
O O15 0.884761 0.503708 0.122389
O O16 0.000000 0.000000 0.500000
O O17 0.356876 0.193399 0.324931
#
# Coordination Sequence:
#
# PCOD8031532 Si02
#       8
#     2   2   2   2   2   2   2   2
#     4  11  24  43  69 101 136 177 221 288 344 403
#     4  12  24  47  67  98 142 179 227 276 348 414
#     4  11  23  45  71  98 137 184 224 279 343 409
#     4  12  27  40  71 101 137 181 224 284 341 399
#     4  12  25  46  71  99 136 183 235 276 332 416
#     4  12  30  45  70 103 141 180 230 290 345 401
#     4  11  22  44  74  98 134 177 234 276 334 412
#     4  11  22  44  71 102 131 178 233 275 338 407
#
# _framework density 21.808322
#
# number of rings (size 3 to 8) (size 9 to 14) (size 15 to 20)
#    0.000    0.500    3.750    4.875    7.000    2.000 
#    0.000    0.000    0.000    0.000    0.000    0.000 
#    0.000    0.000    0.000    0.000    0.000    0.000 
#
# Total GULP energy -198531.274508 kJ/mol
# GULP energy per Si atom -12408.204657 kJ/mol
# Density = 2.175869 g / cm^3
# Si number density = 21.808322 Si / 1000 Ang^3
#
#
#
# Elastic Constant Matrix: (Units=GPa)
#
#
# Indices 1 2 3 4 5 6 
#
# 1 105.1817 39.9292 15.0813 8.3582 13.5742 -11.2176
# 2 39.9292 117.8409 16.1596 4.3146 20.7841 5.0633
# 3 15.0813 16.1596 71.5621 26.5449 9.8035 13.4746
# 4 8.3582 4.3146 26.5449 40.0201 1.1877 10.6856
# 5 13.5742 20.7841 9.8035 1.1877 38.5002 -2.3510
# 6 -11.2176 5.0633 13.4746 10.6856 -2.3510 40.5343
#
#
#
# Elastic Compliance Matrix: (Units=1/GPa)
#
#
# Indices 1 2 3 4 5 6 
#
# 1 0.012036 -0.003730 -0.001535 -0.002342 -0.001471 0.004839
# 2 -0.003730 0.010733 -0.000937 0.001070 -0.004432 -0.002600
# 3 -0.001535 -0.000937 0.020194 -0.011745 -0.003986 -0.004156
# 4 -0.002342 0.001070 -0.011745 0.034677 0.001808 -0.005914
# 5 -0.001471 -0.004432 -0.003986 0.001808 0.030011 0.002736
# 6 0.004839 -0.002600 -0.004156 -0.005914 0.002736 0.029434
#
#
# Mechanical properties :
#
#
# Convention : Reuss Voigt Hill
#
# Bulk Modulus (GPa) = 32.72578 48.54724 40.63651
# Shear Modulus (GPa) = 31.31337 38.70523 35.00930
#
# Velocity S-wave (km/s) = 3.79337 4.21740 4.01099
# Velocity P-wave (km/s) = 5.85020 6.78413 6.33440
#
# Compressibility (1/GPa) = 0.03055695
#
# Stress axis : x y z
#
# Youngs Moduli (GPa) = 83.08695 93.17227 49.51876
#
# Poissons Ratio (x) = 0.34757 0.07602
# Poissons Ratio (y) = 0.30994 0.04642
# Poissons Ratio (z) = 0.12755 0.08734
#
# Static dielectric constant tensor:
#      x y z
#    x 4.108910 -0.094240 0.110220 
#    y -0.094240 3.936690 0.160270 
#    z 0.110220 0.160270 3.892100 
# 
# 
# High freq. dielectric constant tensor:
#      x y z
#    x 1.865230 -0.004580 0.009490 
#    y -0.004580 1.864940 0.010630 
#    z 0.009490 0.010630 1.858550 
# 
# From -- ./inp_files/207919.got.cif
#   From: 2010.06.25/outbox.cif.g09.slc.cpg/sg2_104_cif.got.tgz:207919.got - 2010.06.27 13:26:56.
