data_PCOD8031183
_publ_section_title
;
Structure prediction by ZEFSAII (Michael W. Deem and Ramdas Pophale) SiO2 
 PCOD8031183
Probable space group: P -1
;
_chemical_formula_sum "Si O2"
_cell_formula_units_Z 14
_cell_length_a 10.533889
_cell_length_b 6.601886
_cell_length_c 17.471843
_cell_angle_alpha 108.468196
_cell_angle_beta 147.534122
_cell_angle_gamma 70.281178
_cell_volume 612.749557
_symmetry_space_group_name_H-M "P -1"
_symmetry_group_IT_number 2
_symmetry_cell_setting 'triclinic'
loop_
_space_group_symop_operation_xyz
x,y,z
-x,-y,-z
loop_
_atom_site_type_symbol
_atom_site_label
_atom_site_fract_x
_atom_site_fract_y
_atom_site_fract_z
Si Si1 0.237029 0.532930 0.337226
Si Si2 0.658501 0.566050 0.798676
Si Si3 0.809651 0.366613 0.352071
Si Si4 0.949388 0.165669 0.928601
Si Si5 0.548026 0.641871 0.113850
Si Si6 0.078053 0.823869 0.845432
Si Si7 0.102201 0.053649 0.736759
O O1 0.500000 0.500000 0.500000
O O2 0.253376 0.470391 0.248522
O O3 0.125802 0.777751 0.332018
O O4 0.072069 0.371810 0.273975
O O5 0.381835 0.660767 0.680837
O O6 0.707148 0.330948 0.835593
O O7 0.818576 0.712358 0.944805
O O8 0.666890 0.495827 0.225281
O O9 0.000000 0.500000 0.500000
O O10 0.949645 0.131218 0.372703
O O11 0.907194 0.032018 0.814541
O O12 0.000000 0.000000 0.000000
O O13 0.704820 0.822445 0.190009
O O14 0.500000 0.500000 0.000000
O O15 0.278093 0.759110 0.006244
O O16 0.201224 0.906001 0.841812
#
# Coordination Sequence:
#
# PCOD8031183 Si02
#       7
#     2   2   2   2   2   2   2
#     4  12  28  47  74 106 148 191 243 293 364 446
#     4  11  26  44  72 107 144 182 238 299 359 428
#     4  12  30  50  72 106 153 195 244 299 371 436
#     4  11  22  42  71 106 141 179 231 301 364 415
#     4  12  25  44  78 109 145 190 250 301 357 436
#     4  12  24  45  76 109 140 190 247 301 361 430
#     4  12  26  49  76 105 144 194 247 303 363 429
#
# _framework density 22.847833999999999
#
# number of rings (size 3 to 8) (size 9 to 14) (size 15 to 20)
#    0.000    0.286    5.714    2.143    8.000    2.286 
#    2.571    0.000    0.000    0.000    0.000    0.000 
#    0.000    0.000    0.000    0.000    0.000    0.000 
#
# Total GULP energy -173449.483178 kJ/mol
# GULP energy per Si atom -12389.248798 kJ/mol
# Density = 2.279583 g / cm^3
# Si number density = 22.847834 Si / 1000 Ang^3
#
#
#
# Elastic Constant Matrix: (Units=GPa)
#
#
# Indices 1 2 3 4 5 6 
#
# 1 87.7028 49.7842 16.2442 5.5303 5.6212 -17.3030
# 2 49.7842 151.0238 44.1616 15.2532 -0.5179 -19.8531
# 3 16.2442 44.1616 108.1000 8.3676 11.3344 -13.5556
# 4 5.5303 15.2532 8.3676 35.2868 -7.1127 -5.1847
# 5 5.6212 -0.5179 11.3344 -7.1127 29.2963 2.5853
# 6 -17.3030 -19.8531 -13.5556 -5.1847 2.5853 48.0412
#
#
#
# Elastic Compliance Matrix: (Units=1/GPa)
#
#
# Indices 1 2 3 4 5 6 
#
# 1 0.014883 -0.004503 0.000509 -0.000685 -0.003631 0.003764
# 2 -0.004503 0.009349 -0.003007 -0.002146 0.001576 0.001077
# 3 0.000509 -0.003007 0.011407 -0.002230 -0.005300 0.002204
# 4 -0.000685 -0.002146 -0.002230 0.031809 0.008572 0.001209
# 5 -0.003631 0.001576 -0.005300 0.008572 0.039285 -0.003341
# 6 0.003764 0.001077 0.002204 0.001209 -0.003341 0.023548
#
#
# Mechanical properties :
#
#
# Convention : Reuss Voigt Hill
#
# Bulk Modulus (GPa) = 46.21708 63.02297 54.62002
# Shear Modulus (GPa) = 33.00442 38.30064 35.65253
#
# Velocity S-wave (km/s) = 3.80482 4.09875 3.95452
# Velocity P-wave (km/s) = 6.29082 7.07413 6.69394
#
# Compressibility (1/GPa) = 0.02163702
#
# Stress axis : x y z
#
# Youngs Moduli (GPa) = 67.19209 106.96486 87.66408
#
# Poissons Ratio (x) = 0.48169 -0.04463
# Poissons Ratio (y) = 0.30258 0.26358
# Poissons Ratio (z) = -0.03420 0.32161
#
# Static dielectric constant tensor:
#      x y z
#    x 4.136760 0.035960 -0.440600 
#    y 0.035960 4.352600 0.239650 
#    z -0.440600 0.239650 3.252160 
# 
# 
# High freq. dielectric constant tensor:
#      x y z
#    x 1.913810 -0.013140 -0.006140 
#    y -0.013140 1.929970 0.002330 
#    z -0.006140 0.002330 1.876360 
# 
# From -- ./inp_files/564497.got.cif
#   From: 2010.06.25/outbox.cif.g09.slc.cpg/sg2_283_cif.got.tgz:564497.got - 2010.06.27 13:26:56.
