data_PCOD8031618
_publ_section_title
;
Structure prediction by ZEFSAII (Michael W. Deem and Ramdas Pophale) SiO2 
 PCOD8031618
Probable space group: P -1
;
_chemical_formula_sum "Si O2"
_cell_formula_units_Z 16
_cell_length_a 13.857025
_cell_length_b 18.049785
_cell_length_c 8.895244
_cell_angle_alpha 31.868919
_cell_angle_beta 138.867795
_cell_angle_gamma 139.946187
_cell_volume 720.237591
_symmetry_space_group_name_H-M "P -1"
_symmetry_group_IT_number 2
_symmetry_cell_setting 'triclinic'
loop_
_space_group_symop_operation_xyz
x,y,z
-x,-y,-z
loop_
_atom_site_type_symbol
_atom_site_label
_atom_site_fract_x
_atom_site_fract_y
_atom_site_fract_z
Si Si1 0.174159 0.656710 0.051171
Si Si2 0.654171 0.015150 0.243420
Si Si3 0.651944 0.871295 0.798344
Si Si4 0.683479 0.282530 0.215330
Si Si5 0.798806 0.650589 0.389453
Si Si6 0.829573 0.610052 0.818241
Si Si7 0.884479 0.863288 0.686709
Si Si8 0.088406 0.859434 0.218540
O O1 0.231485 0.520734 0.406469
O O2 0.234884 0.810434 0.954360
O O3 0.248857 0.710397 0.884226
O O4 0.985590 0.591545 0.960576
O O5 0.619747 0.968463 0.458048
O O6 0.726333 0.897332 0.464488
O O7 0.500000 0.000000 0.000000
O O8 0.499845 0.822316 0.812018
O O9 0.813410 0.971523 0.900944
O O10 0.685932 0.721405 0.045124
O O11 0.782447 0.210506 0.561869
O O12 0.713025 0.449896 0.020431
O O13 0.752670 0.656895 0.501280
O O14 0.982551 0.756243 0.405076
O O15 0.851657 0.715475 0.804729
O O16 0.000000 0.000000 0.500000
O O17 0.965559 0.852373 0.956600
#
# Coordination Sequence:
#
# PCOD8031618 Si02
#       8
#     2   2   2   2   2   2   2   2
#     4  11  22  45  71 101 138 182 234 285 350 410
#     4  12  28  47  68 103 147 184 224 292 361 410
#     4  12  26  43  70 107 141 184 237 287 346 413
#     4  11  24  42  72 105 137 184 233 291 347 408
#     4  11  22  44  76  97 135 186 235 288 335 415
#     4  11  22  45  71 104 141 179 236 286 350 409
#     4  12  27  43  71 106 138 186 232 284 351 413
#     4  12  23  44  72 102 140 182 242 283 331 424
#
# _framework density 22.214893
#
# number of rings (size 3 to 8) (size 9 to 14) (size 15 to 20)
#    0.000    0.500    6.250    2.250    1.750    4.500 
#    2.250    1.250    0.000    0.000    0.000    0.000 
#    0.000    0.000    0.000    0.000    0.000    0.000 
#
# Total GULP energy -198286.963221 kJ/mol
# GULP energy per Si atom -12392.935201 kJ/mol
# Density = 2.216433 g / cm^3
# Si number density = 22.214893 Si / 1000 Ang^3
#
#
#
# Elastic Constant Matrix: (Units=GPa)
#
#
# Indices 1 2 3 4 5 6 
#
# 1 97.7208 39.8015 34.6758 -8.9789 10.1690 9.1334
# 2 39.8015 90.3211 55.0486 -15.4822 3.4268 -4.1157
# 3 34.6758 55.0486 148.3795 -9.9931 16.1703 1.6777
# 4 -8.9789 -15.4822 -9.9931 39.2475 3.8790 1.9016
# 5 10.1690 3.4268 16.1703 3.8790 28.2817 -1.2103
# 6 9.1334 -4.1157 1.6777 1.9016 -1.2103 39.1882
#
#
#
# Elastic Compliance Matrix: (Units=1/GPa)
#
#
# Indices 1 2 3 4 5 6 
#
# 1 0.013578 -0.005412 -0.000558 0.001441 -0.004272 -0.003911
# 2 -0.005412 0.017353 -0.005212 0.003885 0.002427 0.003193
# 3 -0.000558 -0.005212 0.009371 0.000712 -0.004666 -0.000997
# 4 0.001441 0.003885 0.000712 0.028120 -0.005316 -0.001487
# 5 -0.004272 0.002427 -0.004666 -0.005316 0.040124 0.002948
# 6 -0.003911 0.003193 -0.000997 -0.001487 0.002948 0.026971
#
#
# Mechanical properties :
#
#
# Convention : Reuss Voigt Hill
#
# Bulk Modulus (GPa) = 55.75073 66.16369 60.95721
# Shear Modulus (GPa) = 30.51360 35.13651 32.82506
#
# Velocity S-wave (km/s) = 3.71018 3.98133 3.84815
# Velocity P-wave (km/s) = 6.59580 7.14022 6.87340
#
# Compressibility (1/GPa) = 0.01793699
#
# Stress axis : x y z
#
# Youngs Moduli (GPa) = 73.64681 57.62834 106.70868
#
# Poissons Ratio (x) = 0.31190 0.05959
# Poissons Ratio (y) = 0.39860 0.55615
# Poissons Ratio (z) = 0.04112 0.30035
#
# Static dielectric constant tensor:
#      x y z
#    x 3.834380 0.276100 0.012180 
#    y 0.276100 3.743530 -0.315550 
#    z 0.012180 -0.315550 4.213020 
# 
# 
# High freq. dielectric constant tensor:
#      x y z
#    x 1.868780 0.014690 0.009330 
#    y 0.014690 1.856920 -0.026820 
#    z 0.009330 -0.026820 1.893380 
# 
# From -- ./inp_files/207419.got.cif
#   From: 2010.06.25/outbox.cif.g09.slc.cpg/sg2_104_cif.got.tgz:207419.got - 2010.06.27 13:26:56.
