data_PCOD8031979
_publ_section_title
;
Structure prediction by ZEFSAII (Michael W. Deem and Ramdas Pophale) SiO2 
 PCOD8031979
Probable space group: P -1
;
_chemical_formula_sum "Si O2"
_cell_formula_units_Z 8
_cell_length_a 15.302086
_cell_length_b 9.670996
_cell_length_c 15.391349
_cell_angle_alpha 30.697003
_cell_angle_beta 161.315446
_cell_angle_gamma 142.068711
_cell_volume 367.832247
_symmetry_space_group_name_H-M "P -1"
_symmetry_group_IT_number 2
_symmetry_cell_setting 'triclinic'
loop_
_space_group_symop_operation_xyz
x,y,z
-x,-y,-z
loop_
_atom_site_type_symbol
_atom_site_label
_atom_site_fract_x
_atom_site_fract_y
_atom_site_fract_z
Si Si1 0.101371 0.541793 0.429604
Si Si2 0.703528 0.646735 0.666943
Si Si3 0.624269 0.686223 0.772257
Si Si4 0.756834 0.249652 0.377328
O O1 0.421324 0.486778 0.729616
O O2 0.084237 0.761695 0.373925
O O3 0.983217 0.278835 0.499640
O O4 0.917602 0.651858 0.114953
O O5 0.500000 0.500000 0.500000
O O6 0.661624 0.607646 0.750308
O O7 0.648031 0.965259 0.414963
O O8 0.000000 0.500000 0.000000
O O9 0.500000 0.000000 0.500000
O O10 0.500000 0.500000 0.000000
#
# Coordination Sequence:
#
# PCOD8031979 Si02
#       4
#     2   2   2   2
#     4  11  23  39  74 101 128 176 249 279 320 399
#     4  12  29  46  69 104 148 179 221 295 364 396
#     4  12  23  43  71 103 135 182 240 279 331 421
#     4  11  24  45  74 103 139 185 236 278 344 419
#
# _framework density 21.749043
#
# number of rings (size 3 to 8) (size 9 to 14) (size 15 to 20)
#    0.000    0.500    5.000    2.250   10.500    0.000 
#    0.000    7.500    0.000    0.000    0.000    0.000 
#    0.000    0.000    0.000    0.000    0.000    0.000 
#
# Total GULP energy -99175.937132 kJ/mol
# GULP energy per Si atom -12396.992141 kJ/mol
# Density = 2.169954 g / cm^3
# Si number density = 21.749043 Si / 1000 Ang^3
#
#
#
# Elastic Constant Matrix: (Units=GPa)
#
#
# Indices 1 2 3 4 5 6 
#
# 1 173.6061 68.7145 37.6031 6.1382 4.4484 -4.5312
# 2 68.7145 172.2350 61.4868 9.0802 -10.3782 0.8441
# 3 37.6031 61.4868 98.6709 13.2503 1.3259 -10.4412
# 4 6.1382 9.0802 13.2503 42.0892 -1.5701 -5.7396
# 5 4.4484 -10.3782 1.3259 -1.5701 36.5521 16.6065
# 6 -4.5312 0.8441 -10.4412 -5.7396 16.6065 49.4673
#
#
#
# Elastic Compliance Matrix: (Units=1/GPa)
#
#
# Indices 1 2 3 4 5 6 
#
# 1 0.007087 -0.002641 -0.000885 -0.000100 -0.002136 0.001213
# 2 -0.002641 0.008883 -0.004862 -0.000234 0.004327 -0.002900
# 3 -0.000885 -0.004862 0.014364 -0.002945 -0.003709 0.003937
# 4 -0.000100 -0.000234 -0.002945 0.025062 0.000109 0.002244
# 5 -0.002136 0.004327 -0.003709 0.000109 0.034760 -0.012709
# 6 0.001213 -0.002900 0.003937 0.002244 -0.012709 0.025734
#
#
# Mechanical properties :
#
#
# Convention : Reuss Voigt Hill
#
# Bulk Modulus (GPa) = 73.75942 86.68010 80.21976
# Shear Modulus (GPa) = 36.44738 44.06889 40.25814
#
# Velocity S-wave (km/s) = 4.09811 4.50627 4.30703
# Velocity P-wave (km/s) = 7.50868 8.18636 7.85483
#
# Compressibility (1/GPa) = 0.01355759
#
# Stress axis : x y z
#
# Youngs Moduli (GPa) = 141.10347 112.57722 69.61926
#
# Poissons Ratio (x) = 0.29731 0.06159
# Poissons Ratio (y) = 0.37265 0.33851
# Poissons Ratio (z) = 0.12484 0.54739
#
# Static dielectric constant tensor:
#      x y z
#    x 2.903410 -0.425180 0.317300 
#    y -0.425180 3.889500 0.489950 
#    z 0.317300 0.489950 3.690640 
# 
# 
# High freq. dielectric constant tensor:
#      x y z
#    x 1.876000 0.015740 -0.012330 
#    y 0.015740 1.858560 0.035910 
#    z -0.012330 0.035910 1.837390 
# 
# From -- ./inp_files/16225.got.cif
#   From: 2010.06.25/outbox.cif.g09.slc.cpg/sg2_9_cif.got.tgz:16225.got - 2010.06.27 13:26:56.
