data_PCOD8031131
_publ_section_title
;
Structure prediction by ZEFSAII (Michael W. Deem and Ramdas Pophale) SiO2 
 PCOD8031131
Probable space group: P -1
;
_chemical_formula_sum "Si O2"
_cell_formula_units_Z 14
_cell_length_a 13.687392
_cell_length_b 16.385454
_cell_length_c 9.051666
_cell_angle_alpha 127.198526
_cell_angle_beta 127.642410
_cell_angle_gamma 22.826871
_cell_volume 617.849606
_symmetry_space_group_name_H-M "P -1"
_symmetry_group_IT_number 2
_symmetry_cell_setting 'triclinic'
loop_
_space_group_symop_operation_xyz
x,y,z
-x,-y,-z
loop_
_atom_site_type_symbol
_atom_site_label
_atom_site_fract_x
_atom_site_fract_y
_atom_site_fract_z
Si Si1 0.915803 0.963065 0.792567
Si Si2 0.547508 0.901702 0.290568
Si Si3 0.278159 0.516708 0.560286
Si Si4 0.952213 0.653957 0.164570
Si Si5 0.851912 0.140669 0.658500
Si Si6 0.344871 0.365147 0.751704
Si Si7 0.958084 0.776676 0.005962
O O1 0.101537 0.730415 0.710029
O O2 0.888279 0.016102 0.657483
O O3 0.646554 0.130728 0.799526
O O4 0.000000 0.000000 0.000000
O O5 0.702188 0.849786 0.250298
O O6 0.745348 0.670640 0.282527
O O7 0.500000 0.000000 0.500000
O O8 0.280122 0.063915 0.148150
O O9 0.546433 0.377418 0.617651
O O10 0.293854 0.412788 0.581284
O O11 0.185708 0.533505 0.340473
O O12 0.908481 0.754361 0.089315
O O13 0.000000 0.500000 0.000000
O O14 0.993899 0.138271 0.842670
O O15 0.000000 0.000000 0.500000
O O16 0.220903 0.549162 0.924703
#
# Coordination Sequence:
#
# PCOD8031131 Si02
#       7
#     2   2   2   2   2   2   2
#     4  11  22  42  69 103 141 181 234 290 354 423
#     4  12  27  46  73 103 141 192 241 291 351 421
#     4  11  26  46  71 105 145 186 238 291 358 427
#     4  12  27  47  70 102 144 191 235 295 351 420
#     4  11  26  43  71 103 142 185 231 295 356 422
#     4  11  23  43  70 102 139 183 236 287 350 420
#     4  12  26  46  73 105 142 186 238 292 359 421
#
# _framework density 22.659236
#
# number of rings (size 3 to 8) (size 9 to 14) (size 15 to 20)
#    0.000    0.571    1.429    6.429    4.000    8.000 
#    0.000    0.000    0.000    0.000    0.000    0.000 
#    0.000    0.000    0.000    0.000    0.000    0.000 
#
# Total GULP energy -173487.202570 kJ/mol
# GULP energy per Si atom -12391.943041 kJ/mol
# Density = 2.260766 g / cm^3
# Si number density = 22.659236 Si / 1000 Ang^3
#
#
#
# Elastic Constant Matrix: (Units=GPa)
#
#
# Indices 1 2 3 4 5 6 
#
# 1 125.9738 51.1801 40.7493 -7.0555 -19.3205 2.8256
# 2 51.1801 130.9485 56.0543 -1.4848 -6.2854 -10.8907
# 3 40.7493 56.0543 143.8054 -12.2977 -3.3615 -4.8798
# 4 -7.0555 -1.4848 -12.2977 39.7995 -7.7278 -5.0547
# 5 -19.3205 -6.2854 -3.3615 -7.7278 42.9364 1.1344
# 6 2.8256 -10.8907 -4.8798 -5.0547 1.1344 47.7831
#
#
#
# Elastic Compliance Matrix: (Units=1/GPa)
#
#
# Indices 1 2 3 4 5 6 
#
# 1 0.010644 -0.003416 -0.001455 0.002014 0.004576 -0.001452
# 2 -0.003416 0.010458 -0.003132 -0.001002 -0.000489 0.002171
# 3 -0.001455 -0.003132 0.008811 0.002414 -0.000003 0.000527
# 4 0.002014 -0.001002 0.002414 0.027670 0.005858 0.002687
# 5 0.004576 -0.000489 -0.000003 0.005858 0.026342 -0.000388
# 6 -0.001452 0.002171 0.000527 0.002687 -0.000388 0.021856
#
#
# Mechanical properties :
#
#
# Convention : Reuss Voigt Hill
#
# Bulk Modulus (GPa) = 71.90010 77.41055 74.65532
# Shear Modulus (GPa) = 39.55006 42.95340 41.25173
#
# Velocity S-wave (km/s) = 4.18236 4.35860 4.27139
# Velocity P-wave (km/s) = 7.42447 7.71796 7.57264
#
# Compressibility (1/GPa) = 0.01390819
#
# Stress axis : x y z
#
# Youngs Moduli (GPa) = 93.95294 95.62068 113.49164
#
# Poissons Ratio (x) = 0.32659 0.16510
# Poissons Ratio (y) = 0.32090 0.35546
# Poissons Ratio (z) = 0.13668 0.29949
#
# Static dielectric constant tensor:
#      x y z
#    x 4.671700 -0.044100 -0.378920 
#    y -0.044100 4.131160 -0.228110 
#    z -0.378920 -0.228110 3.957170 
# 
# 
# High freq. dielectric constant tensor:
#      x y z
#    x 1.920890 0.002270 -0.012530 
#    y 0.002270 1.900960 0.002140 
#    z -0.012530 0.002140 1.898360 
# 
# From -- ./inp_files/28155.got.cif
#   From: 2010.06.25/outbox.cif.g09.slc.cpg/sg2_15_cif.got.tgz:28155.got - 2010.06.27 13:26:56.
