data_PCOD8031191
_publ_section_title
;
Structure prediction by ZEFSAII (Michael W. Deem and Ramdas Pophale) SiO2 
 PCOD8031191
Probable space group: P -1
;
_chemical_formula_sum "Si O2"
_cell_formula_units_Z 16
_cell_length_a 12.003914
_cell_length_b 16.637912
_cell_length_c 8.947556
_cell_angle_alpha 132.137521
_cell_angle_beta 38.036522
_cell_angle_gamma 135.252001
_cell_volume 749.090997
_symmetry_space_group_name_H-M "P -1"
_symmetry_group_IT_number 2
_symmetry_cell_setting 'triclinic'
loop_
_space_group_symop_operation_xyz
x,y,z
-x,-y,-z
loop_
_atom_site_type_symbol
_atom_site_label
_atom_site_fract_x
_atom_site_fract_y
_atom_site_fract_z
Si Si1 0.640324 0.005012 0.048969
Si Si2 0.360282 0.121007 0.389263
Si Si3 0.440241 0.600503 0.498947
Si Si4 0.550788 0.196518 0.782424
Si Si5 0.105589 0.788994 0.773848
Si Si6 0.061017 0.558592 0.669640
Si Si7 0.168783 0.107666 0.875662
Si Si8 0.670102 0.442966 0.101507
O O1 0.552000 0.094037 0.186020
O O2 0.810388 0.081105 0.077821
O O3 0.472824 0.898727 0.182715
O O4 0.732015 0.948910 0.753867
O O5 0.426714 0.260713 0.474113
O O6 0.199800 0.073149 0.630257
O O7 0.272512 0.562395 0.500849
O O8 0.580434 0.531098 0.236011
O O9 0.335970 0.561998 0.720242
O O10 0.757238 0.224552 0.518517
O O11 0.377175 0.145872 0.783300
O O12 0.546337 0.314022 0.004906
O O13 0.071979 0.691221 0.813748
O O14 0.898675 0.781619 0.913927
O O15 0.000000 0.500000 0.500000
O O16 0.898864 0.487012 0.872678
O O17 0.000000 0.000000 0.000000
#
# Coordination Sequence:
#
# PCOD8031191 Si02
#       8
#     2   2   2   2   2   2   2   2
#     4  11  22  42  71  96 130 179 218 265 341 392
#     4  11  23  43  69  98 132 177 220 273 333 395
#     4  11  24  48  68  96 136 176 226 278 329 396
#     4  12  23  45  67  97 137 177 217 274 333 400
#     4  12  24  43  69  99 136 174 220 276 334 396
#     4  12  25  43  66 101 132 173 227 273 328 395
#     4  12  25  41  65 100 135 170 222 271 329 401
#     4  11  26  44  71  96 134 181 223 275 335 390
#
# _framework density 21.359221999999999
#
# number of rings (size 3 to 8) (size 9 to 14) (size 15 to 20)
#    0.000    0.500    6.250    2.250    1.750    1.000 
#    0.000    0.000    0.000    0.000    0.000    0.000 
#    0.000    0.000    0.000    0.000    0.000    0.000 
#
# Total GULP energy -198446.373838 kJ/mol
# GULP energy per Si atom -12402.898365 kJ/mol
# Density = 2.131061 g / cm^3
# Si number density = 21.359222 Si / 1000 Ang^3
#
#
#
# Elastic Constant Matrix: (Units=GPa)
#
#
# Indices 1 2 3 4 5 6 
#
# 1 74.0996 10.8046 34.4859 13.2207 2.2682 -13.3377
# 2 10.8046 105.1980 21.7075 13.3489 8.6544 -11.5738
# 3 34.4859 21.7075 90.6935 5.8038 6.1200 3.9191
# 4 13.2207 13.3489 5.8038 44.0576 -4.0737 1.8534
# 5 2.2682 8.6544 6.1200 -4.0737 33.8113 4.4668
# 6 -13.3377 -11.5738 3.9191 1.8534 4.4668 27.9381
#
#
#
# Elastic Compliance Matrix: (Units=1/GPa)
#
#
# Indices 1 2 3 4 5 6 
#
# 1 0.020578 0.002053 -0.008255 -0.006511 -0.002877 0.012724
# 2 0.002053 0.011661 -0.003333 -0.004383 -0.004000 0.007209
# 3 -0.008255 -0.003333 0.015183 0.001793 -0.000128 -0.007550
# 4 -0.006511 -0.004383 0.001793 0.026578 0.005469 -0.007813
# 5 -0.002877 -0.004000 -0.000128 0.005469 0.032609 -0.008589
# 6 0.012724 0.007209 -0.007550 -0.007813 -0.008589 0.047805
#
#
# Mechanical properties :
#
#
# Convention : Reuss Voigt Hill
#
# Bulk Modulus (GPa) = 35.27109 44.88746 40.07927
# Shear Modulus (GPa) = 27.33215 34.69427 31.01321
#
# Velocity S-wave (km/s) = 3.58109 4.03466 3.81462
# Velocity P-wave (km/s) = 5.80070 6.53955 6.18117
#
# Compressibility (1/GPa) = 0.02835183
#
# Stress axis : x y z
#
# Youngs Moduli (GPa) = 48.59555 85.75532 65.86311
#
# Poissons Ratio (x) = -0.17603 0.54371
# Poissons Ratio (y) = -0.09975 0.21950
# Poissons Ratio (z) = 0.40116 0.28580
#
# Static dielectric constant tensor:
#      x y z
#    x 3.915660 -0.167900 0.080480 
#    y -0.167900 4.028290 0.056830 
#    z 0.080480 0.056830 3.927950 
# 
# 
# High freq. dielectric constant tensor:
#      x y z
#    x 1.835840 -0.014950 0.002370 
#    y -0.014950 1.848060 0.002600 
#    z 0.002370 0.002600 1.843940 
# 
# From -- ./inp_files/274259.got.cif
#   From: 2010.06.25/outbox.cif.g09.slc.cpg/sg2_138_cif.got.tgz:274259.got - 2010.06.27 13:26:56.
