data_PCOD8031074
_publ_section_title
;
Structure prediction by ZEFSAII (Michael W. Deem and Ramdas Pophale) SiO2 
 PCOD8031074
Probable space group: P -1
;
_chemical_formula_sum "Si O2"
_cell_formula_units_Z 14
_cell_length_a 9.255168
_cell_length_b 13.291968
_cell_length_c 14.066858
_cell_angle_alpha 32.382422
_cell_angle_beta 137.432928
_cell_angle_gamma 128.425306
_cell_volume 626.934631
_symmetry_space_group_name_H-M "P -1"
_symmetry_group_IT_number 2
_symmetry_cell_setting 'triclinic'
loop_
_space_group_symop_operation_xyz
x,y,z
-x,-y,-z
loop_
_atom_site_type_symbol
_atom_site_label
_atom_site_fract_x
_atom_site_fract_y
_atom_site_fract_z
Si Si1 0.692527 0.980122 0.182587
Si Si2 0.446488 0.951507 0.359036
Si Si3 0.389499 0.542337 0.568017
Si Si4 0.830333 0.941151 0.685599
Si Si5 0.876802 0.512944 0.029584
Si Si6 0.232357 0.417169 0.404887
Si Si7 0.494922 0.730503 0.008101
O O1 0.653286 0.784027 0.372041
O O2 0.680381 0.148257 0.116928
O O3 0.933712 0.969289 0.268732
O O4 0.500000 0.000000 0.000000
O O5 0.399946 0.752157 0.446223
O O6 0.694718 0.969047 0.499472
O O7 0.292994 0.958910 0.368778
O O8 0.387192 0.126312 0.120945
O O9 0.215285 0.523991 0.413473
O O10 0.615165 0.475756 0.682528
O O11 0.340835 0.383052 0.752426
O O12 0.856297 0.722025 0.891106
O O13 0.638970 0.431513 0.979093
O O14 0.999025 0.398389 0.262306
O O15 0.000000 0.500000 0.000000
#
# Coordination Sequence:
#
# PCOD8031074 Si02
#       7
#     2   2   2   2   2   2   2
#     4  12  24  42  70 103 134 175 234 283 336 402
#     4  11  25  46  70  98 144 182 221 280 346 410
#     4  11  22  42  66 101 136 177 225 280 342 402
#     4  11  25  45  67 104 139 180 227 280 342 409
#     4  12  22  40  68 103 132 174 231 283 333 395
#     4  11  23  39  68 100 138 175 225 290 337 391
#     4  12  23  41  73 100 132 178 231 285 333 403
#
# _framework density 22.330877000000001
#
# number of rings (size 3 to 8) (size 9 to 14) (size 15 to 20)
#    0.000    0.571    7.143    0.857    2.000    1.714 
#    2.571    3.571    0.000    0.000    0.000    0.000 
#    0.000    0.000    0.000    0.000    0.000    0.000 
#
# Total GULP energy -173539.228979 kJ/mol
# GULP energy per Si atom -12395.659213 kJ/mol
# Density = 2.228005 g / cm^3
# Si number density = 22.330877 Si / 1000 Ang^3
#
#
#
# Elastic Constant Matrix: (Units=GPa)
#
#
# Indices 1 2 3 4 5 6 
#
# 1 53.3127 26.2582 14.7508 6.1621 -0.7500 -4.9421
# 2 26.2582 116.6283 41.2350 5.2366 -3.8067 -16.2949
# 3 14.7508 41.2350 117.6472 9.5743 -20.5262 -8.7032
# 4 6.1621 5.2366 9.5743 42.9053 5.8457 1.1768
# 5 -0.7500 -3.8067 -20.5262 5.8457 31.6453 0.9871
# 6 -4.9421 -16.2949 -8.7032 1.1768 0.9871 29.4645
#
#
#
# Elastic Compliance Matrix: (Units=1/GPa)
#
#
# Indices 1 2 3 4 5 6 
#
# 1 0.021485 -0.004245 -0.000977 -0.002347 -0.000235 0.001069
# 2 -0.004245 0.011294 -0.003256 -0.000034 -0.000991 0.004607
# 3 -0.000977 -0.003256 0.011420 -0.003070 0.007520 0.001280
# 4 -0.002347 -0.000034 -0.003070 0.025299 -0.006659 -0.002106
# 5 -0.000235 -0.000991 0.007520 -0.006659 0.037563 0.000641
# 6 0.001069 0.004607 0.001280 -0.002106 0.000641 0.037107
#
#
# Mechanical properties :
#
#
# Convention : Reuss Voigt Hill
#
# Bulk Modulus (GPa) = 36.70463 50.23070 43.46766
# Shear Modulus (GPa) = 29.37646 34.49261 31.93454
#
# Velocity S-wave (km/s) = 3.63093 3.93442 3.78572
# Velocity P-wave (km/s) = 5.83529 6.57132 6.21421
#
# Compressibility (1/GPa) = 0.02724452
#
# Stress axis : x y z
#
# Youngs Moduli (GPa) = 46.54331 88.54410 87.56453
#
# Poissons Ratio (x) = 0.37585 0.08555
# Poissons Ratio (y) = 0.19757 0.28508
# Poissons Ratio (z) = 0.04547 0.28827
#
# Static dielectric constant tensor:
#      x y z
#    x 3.735610 -0.068480 -0.165510 
#    y -0.068480 4.187080 0.048090 
#    z -0.165510 0.048090 4.184830 
# 
# 
# High freq. dielectric constant tensor:
#      x y z
#    x 1.839520 -0.007250 -0.012930 
#    y -0.007250 1.896790 -0.002600 
#    z -0.012930 -0.002600 1.891560 
# 
# From -- ./inp_files/391893.got.cif
#   From: 2010.06.25/outbox.cif.g09.slc.cpg/sg2_196_cif.got.tgz:391893.got - 2010.06.27 13:26:56.
