data_PCOD8031057
_publ_section_title
;
Structure prediction by ZEFSAII (Michael W. Deem and Ramdas Pophale) SiO2 
 PCOD8031057
Probable space group: P -1
;
_chemical_formula_sum "Si O2"
_cell_formula_units_Z 14
_cell_length_a 22.535827
_cell_length_b 12.831454
_cell_length_c 12.960125
_cell_angle_alpha 135.792368
_cell_angle_beta 33.542263
_cell_angle_gamma 159.531170
_cell_volume 683.219726
_symmetry_space_group_name_H-M "P -1"
_symmetry_group_IT_number 2
_symmetry_cell_setting 'triclinic'
loop_
_space_group_symop_operation_xyz
x,y,z
-x,-y,-z
loop_
_atom_site_type_symbol
_atom_site_label
_atom_site_fract_x
_atom_site_fract_y
_atom_site_fract_z
Si Si1 0.676601 0.618926 0.542829
Si Si2 0.339272 0.662531 0.477385
Si Si3 0.979624 0.951754 0.827795
Si Si4 0.147152 0.868396 0.258818
Si Si5 0.587881 0.293366 0.827446
Si Si6 0.097206 0.587136 0.531966
Si Si7 0.192812 0.033207 0.752290
O O1 0.614909 0.399065 0.543175
O O2 0.456249 0.398710 0.641368
O O3 0.753461 0.844301 0.667756
O O4 0.876220 0.822587 0.319500
O O5 0.391857 0.647068 0.281121
O O6 0.079722 0.401480 0.672436
O O7 0.500000 0.000000 0.500000
O O8 0.735803 0.593502 0.890259
O O9 0.953257 0.064420 0.017219
O O10 0.108162 0.978622 0.723216
O O11 0.091615 0.733529 0.356420
O O12 0.327743 0.985473 0.021768
O O13 0.674594 0.231484 0.679756
O O14 0.000000 0.500000 0.500000
O O15 0.158146 0.814618 0.662857
#
# Coordination Sequence:
#
# PCOD8031057 Si02
#       7
#     2   2   2   2   2   2   2
#     4  12  22  42  71  96 127 178 221 269 328 386
#     4  11  26  45  67  96 134 168 224 277 328 391
#     4  11  23  42  67  99 136 169 221 268 324 392
#     4  11  24  41  68  97 129 175 220 266 333 388
#     4  11  23  44  66  97 135 172 218 272 325 390
#     4  11  22  42  64  96 139 173 213 268 320 384
#     4  11  24  41  66 101 134 171 218 272 320 391
#
# _framework density 20.491212000000001
#
# number of rings (size 3 to 8) (size 9 to 14) (size 15 to 20)
#    0.000    0.857    5.714    2.571    0.000    5.143 
#    0.000    0.000    0.000    0.000    0.000    0.000 
#    0.000    0.000    0.000    0.000    0.000    0.000 
#
# Total GULP energy -173686.964974 kJ/mol
# GULP energy per Si atom -12406.211784 kJ/mol
# Density = 2.044457 g / cm^3
# Si number density = 20.491212 Si / 1000 Ang^3
#
#
#
# Elastic Constant Matrix: (Units=GPa)
#
#
# Indices 1 2 3 4 5 6 
#
# 1 96.1752 37.2101 41.1051 -4.1122 4.4387 -0.3936
# 2 37.2101 124.7346 34.2810 1.6561 -10.3550 -1.8777
# 3 41.1051 34.2810 140.2847 -8.9213 -13.4637 -1.3314
# 4 -4.1122 1.6561 -8.9213 38.1623 5.9066 -9.5183
# 5 4.4387 -10.3550 -13.4637 5.9066 21.5321 1.5073
# 6 -0.3936 -1.8777 -1.3314 -9.5183 1.5073 39.0507
#
#
#
# Elastic Compliance Matrix: (Units=1/GPa)
#
#
# Indices 1 2 3 4 5 6 
#
# 1 0.013905 -0.003773 -0.003745 0.002132 -0.007653 0.000646
# 2 -0.003773 0.009871 -0.000905 -0.001973 0.005520 -0.000288
# 3 -0.003745 -0.000905 0.009058 0.000924 0.005731 0.000232
# 4 0.002132 -0.001973 0.000924 0.030138 -0.009615 0.007675
# 5 -0.007653 0.005520 0.005731 -0.009615 0.057187 -0.004167
# 6 0.000646 -0.000288 0.000232 0.007675 -0.004167 0.027640
#
#
# Mechanical properties :
#
#
# Convention : Reuss Voigt Hill
#
# Bulk Modulus (GPa) = 62.54582 65.15410 63.84996
# Shear Modulus (GPa) = 29.41617 36.32223 32.86920
#
# Velocity S-wave (km/s) = 3.79298 4.21476 4.00942
# Velocity P-wave (km/s) = 7.05491 7.45324 7.25681
#
# Compressibility (1/GPa) = 0.01598828
#
# Stress axis : x y z
#
# Youngs Moduli (GPa) = 71.91662 101.30311 110.40089
#
# Poissons Ratio (x) = 0.38218 0.41347
# Poissons Ratio (y) = 0.27132 0.09993
# Poissons Ratio (z) = 0.26934 0.09170
#
# Static dielectric constant tensor:
#      x y z
#    x 3.764210 0.086080 -0.066480 
#    y 0.086080 3.773320 0.043850 
#    z -0.066480 0.043850 3.718050 
# 
# 
# High freq. dielectric constant tensor:
#      x y z
#    x 1.805240 0.008350 -0.002980 
#    y 0.008350 1.807280 0.003650 
#    z -0.002980 0.003650 1.803610 
# 
# From -- ./inp_files/178552.got.cif
#   From: 2010.06.25/outbox.cif.g09.slc.cpg/sg2_90_cif.got.tgz:178552.got - 2010.06.27 13:26:56.
