data_PCOD8031644
_publ_section_title
;
Structure prediction by ZEFSAII (Michael W. Deem and Ramdas Pophale) SiO2 
 PCOD8031644
Probable space group: P -1
;
_chemical_formula_sum "Si O2"
_cell_formula_units_Z 16
_cell_length_a 22.093110
_cell_length_b 7.857990
_cell_length_c 7.902805
_cell_angle_alpha 62.442906
_cell_angle_beta 34.585132
_cell_angle_gamma 52.355155
_cell_volume 614.176015
_symmetry_space_group_name_H-M "P -1"
_symmetry_group_IT_number 2
_symmetry_cell_setting 'triclinic'
loop_
_space_group_symop_operation_xyz
x,y,z
-x,-y,-z
loop_
_atom_site_type_symbol
_atom_site_label
_atom_site_fract_x
_atom_site_fract_y
_atom_site_fract_z
Si Si1 0.970054 0.177662 0.312216
Si Si2 0.057321 0.703742 0.039438
Si Si3 0.336794 0.942290 0.263031
Si Si4 0.286304 0.626631 0.715965
Si Si5 0.736671 0.554523 0.795366
Si Si6 0.845191 0.927544 0.639011
Si Si7 0.812577 0.774638 0.111682
Si Si8 0.614048 0.683222 0.690198
O O1 0.878742 0.405108 0.502400
O O2 0.920803 0.007369 0.559153
O O3 0.958021 0.138412 0.155387
O O4 0.110659 0.114378 0.036563
O O5 0.934685 0.742901 0.393035
O O6 0.144872 0.717879 0.972667
O O7 0.108040 0.478955 0.926903
O O8 0.319532 0.826969 0.527272
O O9 0.281957 0.200982 0.268548
O O10 0.263852 0.891425 0.303302
O O11 0.475174 0.842995 0.944704
O O12 0.358879 0.454721 0.480284
O O13 0.313135 0.518662 0.890621
O O14 0.659381 0.534353 0.823485
O O15 0.788366 0.819367 0.946661
O O16 0.683232 0.834937 0.465354
#
# Coordination Sequence:
#
# PCOD8031644 Si02
#       8
#     2   2   2   2   2   2   2   2
#     4  12  24  45  69 106 148 185 232 305 368 424
#     4  11  22  45  68 105 143 187 234 296 374 422
#     4  12  26  47  77 104 145 196 242 297 353 430
#     4  11  25  48  78 105 147 189 238 303 360 429
#     4  12  26  47  73 109 147 188 242 296 365 428
#     4  12  25  42  73 107 142 189 242 295 365 432
#     4  11  24  42  72 103 144 189 234 301 360 432
#     4  11  26  50  72 106 147 190 245 293 356 423
#
# _framework density 26.051164
#
# number of rings (size 3 to 8) (size 9 to 14) (size 15 to 20)
#    0.000    0.500    3.750    5.250    1.750    3.500 
#    0.000    1.250    0.000    0.000    0.000    0.000 
#    0.000    0.000    0.000    0.000    0.000    0.000 
#
# Total GULP energy -198249.499617 kJ/mol
# GULP energy per Si atom -12390.593726 kJ/mol
# Density = 2.599187 g / cm^3
# Si number density = 26.051164 Si / 1000 Ang^3
#
#
#
# Elastic Constant Matrix: (Units=GPa)
#
#
# Indices 1 2 3 4 5 6 
#
# 1 -27.3472 12.5822 116.6393 51.0830 -17.9072 47.0869
# 2 12.5822 81.5036 59.9502 -23.8179 6.4167 -0.1730
# 3 116.6393 59.9502 170.1996 -28.6791 5.4512 -41.4913
# 4 51.0830 -23.8179 -28.6791 1.5865 1.7530 -25.2901
# 5 -17.9072 6.4167 5.4512 1.7530 49.8758 3.7078
# 6 47.0869 -0.1730 -41.4913 -25.2901 3.7078 4.0716
#
#
#
# Elastic Compliance Matrix: (Units=1/GPa)
#
#
# Indices 1 2 3 4 5 6 
#
# 1 0.006004 0.003435 -0.000503 0.013725 0.000516 0.010360
# 2 0.003435 0.023771 -0.008554 0.019345 -0.001226 -0.004619
# 3 -0.000503 -0.008554 0.006816 -0.012183 0.000708 -0.001404
# 4 0.013725 0.019345 -0.012183 0.043746 0.003218 -0.013255
# 5 0.000516 -0.001226 0.000708 0.003218 0.019981 0.002982
# 6 0.010360 -0.004619 -0.001404 -0.013255 0.002982 0.026243
#
#
# Mechanical properties :
#
#
# Convention : Reuss Voigt Hill
#
# Bulk Modulus (GPa) = 39.45315 66.96658 53.20987
# Shear Modulus (GPa) = 34.18701 13.45241 23.81971
#
# Velocity S-wave (km/s) = 3.62650 2.27487 3.02709
# Velocity P-wave (km/s) = 5.71950 5.71504 5.71727
#
# Compressibility (1/GPa) = 0.02534652
#
# Stress axis : x y z
#
# Youngs Moduli (GPa) = 166.54932 42.06783 146.72007
#
# Poissons Ratio (x) = -0.14452 0.07382
# Poissons Ratio (y) = -0.57215 1.25511
# Poissons Ratio (z) = 0.08380 0.35987
#
# Static dielectric constant tensor:
#      x y z
#    x 4.857100 -0.102570 0.051500 
#    y -0.102570 4.586530 -0.251610 
#    z 0.051500 -0.251610 4.800780 
# 
# 
# High freq. dielectric constant tensor:
#      x y z
#    x 2.049010 0.002320 0.017000 
#    y 0.002320 2.041300 -0.013320 
#    z 0.017000 -0.013320 2.048440 
# 
# From -- ./inp_files/352103.got.cif
#   From: 2010.06.25/outbox.cif.g09.slc.cpg/sg2_177_cif.got.tgz:352103.got - 2010.06.27 13:26:56.
