data_PCOD8031437
_publ_section_title
;
Structure prediction by ZEFSAII (Michael W. Deem and Ramdas Pophale) SiO2 
 PCOD8031437
Probable space group: P -1
;
_chemical_formula_sum "Si O2"
_cell_formula_units_Z 12
_cell_length_a 10.193310
_cell_length_b 9.011282
_cell_length_c 8.823689
_cell_angle_alpha 113.007446
_cell_angle_beta 46.990249
_cell_angle_gamma 109.236813
_cell_volume 543.137798
_symmetry_space_group_name_H-M "P -1"
_symmetry_group_IT_number 2
_symmetry_cell_setting 'triclinic'
loop_
_space_group_symop_operation_xyz
x,y,z
-x,-y,-z
loop_
_atom_site_type_symbol
_atom_site_label
_atom_site_fract_x
_atom_site_fract_y
_atom_site_fract_z
Si Si1 0.438476 0.015435 0.880862
Si Si2 0.660971 0.633340 0.959567
Si Si3 0.043885 0.461758 0.121244
Si Si4 0.806593 0.955688 0.485917
Si Si5 0.943004 0.740709 0.533046
Si Si6 0.935801 0.132734 0.995159
O O1 0.592248 0.951318 0.625468
O O2 0.418537 0.195266 0.909168
O O3 0.500000 0.000000 0.000000
O O4 0.251525 0.908406 0.959807
O O5 0.749936 0.581181 0.027451
O O6 0.826064 0.640280 0.712164
O O7 0.500000 0.500000 0.000000
O O8 0.001784 0.607571 0.318678
O O9 0.000000 0.500000 0.000000
O O10 0.920509 0.291859 0.173784
O O11 0.824721 0.872899 0.603318
O O12 0.905512 0.844470 0.246486
O O13 0.885387 0.145767 0.492474
O O14 0.000000 0.000000 0.000000
#
# Coordination Sequence:
#
# PCOD8031437 Si02
#       6
#     2   2   2   2   2   2
#     4  12  24  44  75 103 135 190 243 287 345 432
#     4  12  26  45  71 106 142 186 246 288 346 432
#     4  12  26  44  70 104 148 184 228 304 364 403
#     4  11  22  43  79 102 136 191 244 282 353 432
#     4  11  22  46  72 105 141 191 238 289 353 430
#     4  12  25  48  68 106 150 183 230 300 360 418
#
# _framework density 22.093841000000001
#
# number of rings (size 3 to 8) (size 9 to 14) (size 15 to 20)
#    0.000    0.333    6.667    2.500    2.333    2.000 
#    3.000    1.667    0.000    0.000    0.000    0.000 
#    0.000    0.000    0.000    0.000    0.000    0.000 
#
# Total GULP energy -148683.278504 kJ/mol
# GULP energy per Si atom -12390.273209 kJ/mol
# Density = 2.204355 g / cm^3
# Si number density = 22.093841 Si / 1000 Ang^3
#
#
#
# Elastic Constant Matrix: (Units=GPa)
#
#
# Indices 1 2 3 4 5 6 
#
# 1 155.5428 41.4008 30.5897 -9.7026 -20.8059 -4.9581
# 2 41.4008 128.2910 20.4721 12.1848 -5.9334 7.4571
# 3 30.5897 20.4721 90.1428 0.1998 -26.2816 3.3585
# 4 -9.7026 12.1848 0.1998 37.9523 -0.4341 4.6821
# 5 -20.8059 -5.9334 -26.2816 -0.4341 35.4020 -0.4735
# 6 -4.9581 7.4571 3.3585 4.6821 -0.4735 41.5344
#
#
#
# Elastic Compliance Matrix: (Units=1/GPa)
#
#
# Indices 1 2 3 4 5 6 
#
# 1 0.008022 -0.002576 -0.001182 0.002770 0.003456 0.001243
# 2 -0.002576 0.009224 -0.001489 -0.003444 -0.001135 -0.001468
# 3 -0.001182 -0.001489 0.014793 0.000335 0.010028 -0.000993
# 4 0.002770 -0.003444 0.000335 0.028459 0.001618 -0.002268
# 5 0.003456 -0.001135 0.010028 0.001618 0.037553 0.000051
# 6 0.001243 -0.001468 -0.000993 -0.002268 0.000051 0.024825
#
#
# Mechanical properties :
#
#
# Convention : Reuss Voigt Hill
#
# Bulk Modulus (GPa) = 46.41648 62.10019 54.25833
# Shear Modulus (GPa) = 35.57425 41.74533 38.65979
#
# Velocity S-wave (km/s) = 4.01701 4.35150 4.18760
# Velocity P-wave (km/s) = 6.52454 7.30862 6.92768
#
# Compressibility (1/GPa) = 0.02154407
#
# Stress axis : x y z
#
# Youngs Moduli (GPa) = 124.66040 108.41862 67.59939
#
# Poissons Ratio (x) = 0.27924 0.07991
# Poissons Ratio (y) = 0.32107 0.10068
# Poissons Ratio (z) = 0.14736 0.16148
#
# Static dielectric constant tensor:
#      x y z
#    x 4.146600 -0.329610 -0.365260 
#    y -0.329610 4.370120 -0.174120 
#    z -0.365260 -0.174120 3.463010 
# 
# 
# High freq. dielectric constant tensor:
#      x y z
#    x 1.882000 -0.014240 -0.004190 
#    y -0.014240 1.884720 0.008150 
#    z -0.004190 0.008150 1.853070 
# 
# From -- ./inp_files/159479.got.cif
#   From: 2010.06.25/outbox.cif.g09.slc.cpg/sg2_80_cif.got.tgz:159479.got - 2010.06.27 13:26:56.
