data_PCOD8031724
_publ_section_title
;
Structure prediction by ZEFSAII (Michael W. Deem and Ramdas Pophale) SiO2 
 PCOD8031724
Probable space group: P -1
;
_chemical_formula_sum "Si O2"
_cell_formula_units_Z 16
_cell_length_a 9.394175
_cell_length_b 14.514773
_cell_length_c 11.473497
_cell_angle_alpha 95.754293
_cell_angle_beta 76.676375
_cell_angle_gamma 151.861712
_cell_volume 699.643118
_symmetry_space_group_name_H-M "P -1"
_symmetry_group_IT_number 2
_symmetry_cell_setting 'triclinic'
loop_
_space_group_symop_operation_xyz
x,y,z
-x,-y,-z
loop_
_atom_site_type_symbol
_atom_site_label
_atom_site_fract_x
_atom_site_fract_y
_atom_site_fract_z
Si Si1 0.352467 0.624598 0.828081
Si Si2 0.389199 0.439169 0.881917
Si Si3 0.641048 0.524256 0.624741
Si Si4 0.000220 0.758991 0.370688
Si Si5 0.715643 0.899265 0.586320
Si Si6 0.293363 0.744367 0.196346
Si Si7 0.348169 0.679712 0.415603
Si Si8 0.824743 0.986172 0.965182
O O1 0.304252 0.495552 0.871315
O O2 0.500331 0.710180 0.681027
O O3 0.991395 0.459774 0.854957
O O4 0.581411 0.811781 0.892054
O O5 0.681333 0.565853 0.761513
O O6 0.500000 0.500000 0.000000
O O7 0.084698 0.201486 0.888440
O O8 0.536838 0.361171 0.600680
O O9 0.958929 0.721856 0.514553
O O10 0.355700 0.434426 0.635396
O O11 0.189937 0.784726 0.273835
O O12 0.188787 0.958990 0.335928
O O13 0.549315 0.847435 0.495428
O O14 0.000000 0.000000 0.500000
O O15 0.394429 0.735317 0.281876
O O16 0.613811 0.930426 0.084786
O O17 0.000000 0.500000 0.500000
O O18 0.000000 0.000000 0.000000
#
# Coordination Sequence:
#
# PCOD8031724 Si02
#       8
#     2   2   2   2   2   2   2   2
#     4  12  26  50  74 109 149 201 250 306 383 435
#     4  12  26  48  77 109 145 196 253 310 369 441
#     4  11  22  45  74 102 149 190 246 296 377 444
#     4  11  23  44  76 111 141 196 243 312 371 444
#     4  12  25  43  76 111 147 197 251 304 374 457
#     4  12  27  50  75 109 156 193 253 316 377 443
#     4  12  24  46  70 107 149 192 240 307 376 442
#     4  12  28  51  77 110 146 203 259 305 370 459
#
# _framework density 22.868803
#
# number of rings (size 3 to 8) (size 9 to 14) (size 15 to 20)
#    0.000    0.250    6.250    2.625    1.750    2.000 
#    4.500    0.000    0.000    0.000    0.000    0.000 
#    0.000    0.000    0.000    0.000    0.000    0.000 
#
# Total GULP energy -198299.402213 kJ/mol
# GULP energy per Si atom -12393.712638 kJ/mol
# Density = 2.281675 g / cm^3
# Si number density = 22.868803 Si / 1000 Ang^3
#
#
#
# Elastic Constant Matrix: (Units=GPa)
#
#
# Indices 1 2 3 4 5 6 
#
# 1 112.2560 41.1873 48.5054 -4.6936 -2.2449 -4.4885
# 2 41.1873 112.2242 38.8301 10.7557 8.2307 -2.6188
# 3 48.5054 38.8301 132.6763 6.6327 -4.9905 6.8225
# 4 -4.6936 10.7557 6.6327 39.0182 6.9650 6.2692
# 5 -2.2449 8.2307 -4.9905 6.9650 49.2994 -4.2012
# 6 -4.4885 -2.6188 6.8225 6.2692 -4.2012 39.6843
#
#
#
# Elastic Compliance Matrix: (Units=1/GPa)
#
#
# Indices 1 2 3 4 5 6 
#
# 1 0.011849 -0.003388 -0.003524 0.002653 0.000489 0.001355
# 2 -0.003388 0.011299 -0.002034 -0.003029 -0.001733 0.001007
# 3 -0.003524 -0.002034 0.009631 -0.001419 0.001198 -0.001838
# 4 0.002653 -0.003029 -0.001419 0.028459 -0.003927 -0.004567
# 5 0.000489 -0.001733 0.001198 -0.003927 0.021496 0.002631
# 6 0.001355 0.001007 -0.001838 -0.004567 0.002631 0.026735
#
#
# Mechanical properties :
#
#
# Convention : Reuss Voigt Hill
#
# Bulk Modulus (GPa) = 67.17172 68.24465 67.70818
# Shear Modulus (GPa) = 37.78634 40.84264 39.31449
#
# Velocity S-wave (km/s) = 4.06927 4.23064 4.15074
# Velocity P-wave (km/s) = 7.17740 7.33287 7.25555
#
# Compressibility (1/GPa) = 0.01488722
#
# Stress axis : x y z
#
# Youngs Moduli (GPa) = 84.39570 88.50621 103.82797
#
# Poissons Ratio (x) = 0.29984 0.36592
# Poissons Ratio (y) = 0.28591 0.21116
# Poissons Ratio (z) = 0.29744 0.18000
#
# Static dielectric constant tensor:
#      x y z
#    x 3.940630 -0.081120 0.134030 
#    y -0.081120 4.319920 0.017620 
#    z 0.134030 0.017620 4.718630 
# 
# 
# High freq. dielectric constant tensor:
#      x y z
#    x 1.900800 -0.002310 0.005850 
#    y -0.002310 1.894800 0.004730 
#    z 0.005850 0.004730 1.926340 
# 
# From -- ./inp_files/399115.got.cif
#   From: 2010.06.25/outbox.cif.g09.slc.cpg/sg2_200_cif.got.tgz:399115.got - 2010.06.27 13:26:56.
