data_PCOD8031054
_publ_section_title
;
Structure prediction by ZEFSAII (Michael W. Deem and Ramdas Pophale) SiO2 
 PCOD8031054
Probable space group: P -1
;
_chemical_formula_sum "Si O2"
_cell_formula_units_Z 14
_cell_length_a 20.241575
_cell_length_b 12.899411
_cell_length_c 9.351119
_cell_angle_alpha 38.953674
_cell_angle_beta 46.950967
_cell_angle_gamma 25.161365
_cell_volume 650.581261
_symmetry_space_group_name_H-M "P -1"
_symmetry_group_IT_number 2
_symmetry_cell_setting 'triclinic'
loop_
_space_group_symop_operation_xyz
x,y,z
-x,-y,-z
loop_
_atom_site_type_symbol
_atom_site_label
_atom_site_fract_x
_atom_site_fract_y
_atom_site_fract_z
Si Si1 0.721936 0.755411 0.327092
Si Si2 0.966179 0.852127 0.518660
Si Si3 0.083452 0.210527 0.636891
Si Si4 0.124487 0.118284 0.073043
Si Si5 0.378080 0.270566 0.224925
Si Si6 0.666037 0.315619 0.000798
Si Si7 0.889291 0.322645 0.016647
O O1 0.682494 0.784262 0.521859
O O2 0.846433 0.436543 0.427080
O O3 0.562143 0.977494 0.235017
O O4 0.798985 0.818798 0.128745
O O5 0.918045 0.797533 0.522833
O O6 0.876616 0.926137 0.712337
O O7 0.911279 0.115068 0.280906
O O8 0.000000 0.500000 0.500000
O O9 0.989420 0.193324 0.860862
O O10 0.259923 0.930509 0.735696
O O11 0.949439 0.370768 0.991140
O O12 0.225343 0.833225 0.141604
O O13 0.344742 0.493520 0.111316
O O14 0.290976 0.386095 0.076495
O O15 0.500000 0.500000 0.000000
#
# Coordination Sequence:
#
# PCOD8031054 Si02
#       7
#     2   2   2   2   2   2   2
#     4  11  23  40  65  96 131 170 214 272 330 374
#     4  12  22  43  64  99 135 171 213 272 331 385
#     4  11  23  38  66  97 123 169 225 264 310 386
#     4  11  25  39  67  99 133 174 212 271 331 391
#     4  11  23  41  66  96 128 171 222 278 313 379
#     4  11  22  42  64  93 127 168 224 264 320 385
#     4  11  23  41  66  96 130 173 227 260 317 392
#
# _framework density 21.519219
#
# number of rings (size 3 to 8) (size 9 to 14) (size 15 to 20)
#    0.000    0.857    4.286    4.714    0.000    0.000 
#    0.000    3.571    0.000    0.000    0.000    0.000 
#    0.000    0.000    0.000    0.000    0.000    0.000 
#
# Total GULP energy -173535.477729 kJ/mol
# GULP energy per Si atom -12395.391266 kJ/mol
# Density = 2.147024 g / cm^3
# Si number density = 21.519219 Si / 1000 Ang^3
#
#
#
# Elastic Constant Matrix: (Units=GPa)
#
#
# Indices 1 2 3 4 5 6 
#
# 1 116.9654 49.2142 73.9188 11.0571 22.7157 -24.9288
# 2 49.2142 100.9772 62.4568 -11.4579 24.3753 -24.0479
# 3 73.9188 62.4568 143.9004 -0.8230 8.4797 -19.3309
# 4 11.0571 -11.4579 -0.8230 32.6531 -2.3947 14.0079
# 5 22.7157 24.3753 8.4797 -2.3947 37.8383 1.1670
# 6 -24.9288 -24.0479 -19.3309 14.0079 1.1670 40.9281
#
#
#
# Elastic Compliance Matrix: (Units=1/GPa)
#
#
# Indices 1 2 3 4 5 6 
#
# 1 0.019821 -0.000811 -0.007515 -0.013567 -0.010952 0.013002
# 2 -0.000811 0.018408 -0.006060 0.002957 -0.010034 0.006734
# 3 -0.007515 -0.006060 0.012684 0.002530 0.005831 -0.003179
# 4 -0.013567 0.002957 0.002530 0.046180 0.009256 -0.021401
# 5 -0.010952 -0.010034 0.005831 0.009256 0.039181 -0.014097
# 6 0.013002 0.006734 -0.003179 -0.021401 -0.014097 0.042534
#
#
# Mechanical properties :
#
#
# Convention : Reuss Voigt Hill
#
# Bulk Modulus (GPa) = 45.16763 81.44695 63.30729
# Shear Modulus (GPa) = 23.26013 34.03411 28.64712
#
# Velocity S-wave (km/s) = 3.29127 3.98121 3.65257
# Velocity P-wave (km/s) = 5.95637 7.68531 6.87540
#
# Compressibility (1/GPa) = 0.02213975
#
# Stress axis : x y z
#
# Youngs Moduli (GPa) = 50.45204 54.32324 78.84184
#
# Poissons Ratio (x) = 0.04407 0.59250
# Poissons Ratio (y) = 0.04093 0.47780
# Poissons Ratio (z) = 0.37915 0.32921
#
# Static dielectric constant tensor:
#      x y z
#    x 4.111440 -0.237810 0.160320 
#    y -0.237810 4.010660 -0.245640 
#    z 0.160320 -0.245640 4.094200 
# 
# 
# High freq. dielectric constant tensor:
#      x y z
#    x 1.846540 -0.018970 -0.001850 
#    y -0.018970 1.820800 -0.018310 
#    z -0.001850 -0.018310 1.853190 
# 
# From -- ./inp_files/332704.got.cif
#   From: 2010.06.25/outbox.cif.g09.slc.cpg/sg2_167_cif.got.tgz:332704.got - 2010.06.27 13:26:56.
