data_PCOD8031044
_publ_section_title
;
Structure prediction by ZEFSAII (Michael W. Deem and Ramdas Pophale) SiO2 
 PCOD8031044
Probable space group: P -1
;
_chemical_formula_sum "Si O2"
_cell_formula_units_Z 14
_cell_length_a 16.537500
_cell_length_b 29.322257
_cell_length_c 16.962019
_cell_angle_alpha 163.710214
_cell_angle_beta 17.331240
_cell_angle_gamma 162.501725
_cell_volume 614.389212
_symmetry_space_group_name_H-M "P -1"
_symmetry_group_IT_number 2
_symmetry_cell_setting 'triclinic'
loop_
_space_group_symop_operation_xyz
x,y,z
-x,-y,-z
loop_
_atom_site_type_symbol
_atom_site_label
_atom_site_fract_x
_atom_site_fract_y
_atom_site_fract_z
Si Si1 0.781414 0.985383 0.749563
Si Si2 0.024812 0.794773 0.919475
Si Si3 0.838176 0.452198 0.834154
Si Si4 0.630141 0.416939 0.807687
Si Si5 0.545138 0.642976 0.516892
Si Si6 0.491354 0.975611 0.560107
Si Si7 0.179940 0.108486 0.187600
O O1 0.689983 0.805888 0.589360
O O2 0.000000 0.000000 0.500000
O O3 0.500000 0.000000 0.000000
O O4 0.955156 0.162615 0.935752
O O5 0.143663 0.645271 0.548806
O O6 0.677321 0.735795 0.119528
O O7 0.234101 0.967417 0.959356
O O8 0.808481 0.536234 0.915897
O O9 0.723855 0.236093 0.570304
O O10 0.184239 0.553964 0.707730
O O11 0.640620 0.487967 0.144170
O O12 0.500000 0.500000 0.000000
O O13 0.665669 0.703152 0.594166
O O14 0.500000 0.000000 0.500000
O O15 0.830490 0.052458 0.404684
O O16 0.349390 0.103877 0.941591
#
# Coordination Sequence:
#
# PCOD8031044 Si02
#       7
#     2   2   2   2   2   2   2
#     4  11  24  39  61  89 131 176 234 272 312 395
#     4  11  22  42  61  89 125 182 223 267 325 391
#     4  12  24  45  67 101 138 171 233 284 335 401
#     4  12  25  38  64  92 137 175 223 277 333 381
#     4  11  26  42  70  96 136 186 216 283 347 382
#     4  12  25  46  77 103 130 175 224 279 346 420
#     4  11  22  48  69  97 136 177 222 269 339 417
#
# _framework density 22.786857999999999
#
# number of rings (size 3 to 8) (size 9 to 14) (size 15 to 20)
#    0.000    0.571    2.857    5.143    6.000    4.571 
#    0.000    4.286    0.000    0.000    0.000    0.000 
#    0.000    0.000    0.000    0.000    0.000    0.000 
#
# Total GULP energy -173561.642078 kJ/mol
# GULP energy per Si atom -12397.260148 kJ/mol
# Density = 2.273499 g / cm^3
# Si number density = 22.786858 Si / 1000 Ang^3
#
#
#
# Elastic Constant Matrix: (Units=GPa)
#
#
# Indices 1 2 3 4 5 6 
#
# 1 112.2107 45.2155 32.6864 -2.7392 21.5807 22.7721
# 2 45.2155 74.2585 25.1913 -18.4978 2.1339 29.0656
# 3 32.6864 25.1913 126.8389 -17.6604 31.9906 16.9379
# 4 -2.7392 -18.4978 -17.6604 37.2315 6.2841 1.0540
# 5 21.5807 2.1339 31.9906 6.2841 42.2972 -2.7309
# 6 22.7721 29.0656 16.9379 1.0540 -2.7309 42.1027
#
#
#
# Elastic Compliance Matrix: (Units=1/GPa)
#
#
# Indices 1 2 3 4 5 6 
#
# 1 0.013701 -0.007542 -0.000405 -0.001819 -0.006188 -0.002396
# 2 -0.007542 0.027466 0.000894 0.014184 -0.001334 -0.015683
# 3 -0.000405 0.000894 0.012635 0.008457 -0.011065 -0.006411
# 4 -0.001819 0.014184 0.008457 0.040392 -0.013093 -0.014071
# 5 -0.006188 -0.001334 -0.011065 -0.013093 0.037923 0.011506
# 6 -0.002396 -0.015683 -0.006411 -0.014071 0.011506 0.039552
#
#
# Mechanical properties :
#
#
# Convention : Reuss Voigt Hill
#
# Bulk Modulus (GPa) = 25.19227 57.72162 41.45695
# Shear Modulus (GPa) = 25.12469 38.34062 31.73265
#
# Velocity S-wave (km/s) = 3.32414 4.10637 3.73578
# Velocity P-wave (km/s) = 5.08063 6.91875 6.06968
#
# Compressibility (1/GPa) = 0.03969471
#
# Stress axis : x y z
#
# Youngs Moduli (GPa) = 72.98702 36.40916 79.14412
#
# Poissons Ratio (x) = 0.27461 0.03209
# Poissons Ratio (y) = 0.55050 -0.07078
# Poissons Ratio (z) = 0.02959 -0.03256
#
# Static dielectric constant tensor:
#      x y z
#    x 4.403840 -0.054780 0.307260 
#    y -0.054780 4.597170 -0.194050 
#    z 0.307260 -0.194050 4.212750 
# 
# 
# High freq. dielectric constant tensor:
#      x y z
#    x 1.910430 0.017350 0.013450 
#    y 0.017350 1.893530 -0.015390 
#    z 0.013450 -0.015390 1.908940 
# 
# From -- ./inp_files/226025.got.cif
#   From: 2010.06.25/outbox.cif.g09.slc.cpg/sg2_114_cif.got.tgz:226025.got - 2010.06.27 13:26:56.
