data_PCOD8031845
_publ_section_title
;
Structure prediction by ZEFSAII (Michael W. Deem and Ramdas Pophale) SiO2 
 PCOD8031845
Probable space group: P -1
;
_chemical_formula_sum "Si O2"
_cell_formula_units_Z 16
_cell_length_a 21.899757
_cell_length_b 14.084611
_cell_length_c 9.080397
_cell_angle_alpha 144.453535
_cell_angle_beta 143.720175
_cell_angle_gamma 28.781708
_cell_volume 739.441120
_symmetry_space_group_name_H-M "P -1"
_symmetry_group_IT_number 2
_symmetry_cell_setting 'triclinic'
loop_
_space_group_symop_operation_xyz
x,y,z
-x,-y,-z
loop_
_atom_site_type_symbol
_atom_site_label
_atom_site_fract_x
_atom_site_fract_y
_atom_site_fract_z
Si Si1 0.122207 0.806480 0.083929
Si Si2 0.698944 0.627700 0.297465
Si Si3 0.547541 0.812698 0.964573
Si Si4 0.329538 0.497818 0.429239
Si Si5 0.775959 0.876878 0.887465
Si Si6 0.492439 0.698301 0.212442
Si Si7 0.687672 0.158214 0.331451
Si Si8 0.962395 0.199933 0.766495
O O1 0.219479 0.856977 0.381963
O O2 0.060315 0.795993 0.098873
O O3 0.196259 0.601784 0.863150
O O4 0.000000 0.000000 0.000000
O O5 0.584713 0.648107 0.189931
O O6 0.771878 0.685776 0.616287
O O7 0.616195 0.813066 0.245740
O O8 0.663154 0.592779 0.830393
O O9 0.436301 0.790547 0.757839
O O10 0.500000 0.000000 0.000000
O O11 0.438904 0.305030 0.507175
O O12 0.350450 0.671860 0.657882
O O13 0.181162 0.606832 0.341726
O O14 0.658032 0.080997 0.818661
O O15 0.759855 0.936506 0.104162
O O16 0.923538 0.780605 0.002345
O O17 0.500000 0.500000 0.000000
O O18 0.000000 0.000000 0.500000
#
# Coordination Sequence:
#
# PCOD8031845 Si02
#       8
#     2   2   2   2   2   2   2   2
#     4  11  27  46  72 102 138 186 240 292 345 425
#     4  12  27  46  68 108 148 174 236 307 347 406
#     4  12  25  44  70 103 144 182 232 294 356 412
#     4  11  23  43  72 101 135 189 233 286 344 421
#     4  12  25  43  73 102 146 187 222 300 354 410
#     4  12  24  41  74 109 137 185 241 286 351 423
#     4  11  23  46  72  99 140 184 235 283 352 414
#     4  11  22  47  71  96 139 186 238 272 352 427
#
# _framework density 21.637964
#
# number of rings (size 3 to 8) (size 9 to 14) (size 15 to 20)
#    0.000    0.500    7.500    1.500    7.000    1.500 
#    2.250    1.250    0.000    0.000    0.000    0.000 
#    0.000    0.000    0.000    0.000    0.000    0.000 
#
# Total GULP energy -198315.890533 kJ/mol
# GULP energy per Si atom -12394.743158 kJ/mol
# Density = 2.158871 g / cm^3
# Si number density = 21.637964 Si / 1000 Ang^3
#
#
#
# Elastic Constant Matrix: (Units=GPa)
#
#
# Indices 1 2 3 4 5 6 
#
# 1 101.5603 45.3874 33.3653 4.1404 7.9598 -17.3473
# 2 45.3874 94.8458 43.6481 -10.4458 12.6133 -10.5570
# 3 33.3653 43.6481 131.7838 16.2143 5.2347 -10.2442
# 4 4.1404 -10.4458 16.2143 34.5641 -6.9725 -5.9730
# 5 7.9598 12.6133 5.2347 -6.9725 34.9871 -8.1257
# 6 -17.3473 -10.5570 -10.2442 -5.9730 -8.1257 40.3397
#
#
#
# Elastic Compliance Matrix: (Units=1/GPa)
#
#
# Indices 1 2 3 4 5 6 
#
# 1 0.013508 -0.005868 -0.000876 -0.002458 -0.000483 0.003589
# 2 -0.005868 0.016919 -0.004900 0.007929 -0.002125 0.001406
# 3 -0.000876 -0.004900 0.010240 -0.006389 -0.000882 -0.000182
# 4 -0.002458 0.007929 -0.006389 0.037261 0.007578 0.006439
# 5 -0.000483 -0.002125 -0.000882 0.007578 0.032659 0.006713
# 6 0.003589 0.001406 -0.000182 0.006439 0.006713 0.028960
#
#
# Mechanical properties :
#
#
# Convention : Reuss Voigt Hill
#
# Bulk Modulus (GPa) = 57.54069 63.66571 60.60320
# Shear Modulus (GPa) = 29.65144 35.69746 32.67445
#
# Velocity S-wave (km/s) = 3.70583 4.06613 3.89015
# Velocity P-wave (km/s) = 6.70530 7.17855 6.94596
#
# Compressibility (1/GPa) = 0.01737901
#
# Stress axis : x y z
#
# Youngs Moduli (GPa) = 74.03265 59.10654 97.65875
#
# Poissons Ratio (x) = 0.34682 0.08553
# Poissons Ratio (y) = 0.43441 0.47851
# Poissons Ratio (z) = 0.06484 0.28961
#
# Static dielectric constant tensor:
#      x y z
#    x 4.052670 -0.225430 -0.361660 
#    y -0.225430 4.408070 0.138950 
#    z -0.361660 0.138950 4.633920 
# 
# 
# High freq. dielectric constant tensor:
#      x y z
#    x 1.849660 -0.012840 -0.012770 
#    y -0.012840 1.847230 -0.003660 
#    z -0.012770 -0.003660 1.867190 
# 
# From -- ./inp_files/347715.got.cif
#   From: 2010.06.25/outbox.cif.g09.slc.cpg/sg2_174_cif.got.tgz:347715.got - 2010.06.27 13:26:56.
