data_PCOD8031230
_publ_section_title
;
Structure prediction by ZEFSAII (Michael W. Deem and Ramdas Pophale) SiO2 
 PCOD8031230
Probable space group: P -1
;
_chemical_formula_sum "Si O2"
_cell_formula_units_Z 16
_cell_length_a 8.512896
_cell_length_b 19.769550
_cell_length_c 12.882038
_cell_angle_alpha 27.147822
_cell_angle_beta 48.290404
_cell_angle_gamma 47.261363
_cell_volume 714.222165
_symmetry_space_group_name_H-M "P -1"
_symmetry_group_IT_number 2
_symmetry_cell_setting 'triclinic'
loop_
_space_group_symop_operation_xyz
x,y,z
-x,-y,-z
loop_
_atom_site_type_symbol
_atom_site_label
_atom_site_fract_x
_atom_site_fract_y
_atom_site_fract_z
Si Si1 0.641838 0.124929 0.391486
Si Si2 0.826077 0.352451 0.548665
Si Si3 0.100927 0.324168 0.661899
Si Si4 0.391103 0.307385 0.845025
Si Si5 0.058436 0.651058 0.730509
Si Si6 0.411575 0.780678 0.481073
Si Si7 0.616754 0.804874 0.784545
Si Si8 0.117245 0.106400 0.138498
O O1 0.562270 0.208084 0.421669
O O2 0.531887 0.227283 0.201569
O O3 0.902898 0.092890 0.313332
O O4 0.545130 0.975295 0.631805
O O5 0.637796 0.260554 0.757497
O O6 0.726692 0.531199 0.374727
O O7 0.940022 0.335175 0.412188
O O8 0.001298 0.284680 0.651974
O O9 0.360141 0.282398 0.590941
O O10 0.000000 0.500000 0.500000
O O11 0.046476 0.207446 0.929183
O O12 0.399310 0.319596 0.950183
O O13 0.259484 0.183767 0.045559
O O14 0.280962 0.654655 0.684612
O O15 0.862869 0.792407 0.657902
O O16 0.000000 0.500000 0.000000
O O17 0.273224 0.939246 0.273450
#
# Coordination Sequence:
#
# PCOD8031230 Si02
#       8
#     2   2   2   2   2   2   2   2
#     4  11  24  42  73 103 142 174 232 289 343 412
#     4  11  25  44  65  99 136 182 229 283 344 414
#     4  12  27  46  69 102 142 181 234 289 345 407
#     4  11  22  42  73  93 136 183 231 280 347 409
#     4  12  25  43  70 100 139 183 229 277 346 419
#     4  12  26  46  71 104 139 184 234 285 347 414
#     4  11  22  44  68 105 137 182 223 284 349 407
#     4  12  23  46  73 103 136 186 232 286 347 408
#
# _framework density 22.401993000000001
#
# number of rings (size 3 to 8) (size 9 to 14) (size 15 to 20)
#    0.000    0.500    5.000    3.750    1.750    1.000 
#    0.000    3.125    0.000    0.000    0.000    0.000 
#    0.000    0.000    0.000    0.000    0.000    0.000 
#
# Total GULP energy -198428.467949 kJ/mol
# GULP energy per Si atom -12401.779247 kJ/mol
# Density = 2.235100 g / cm^3
# Si number density = 22.401993 Si / 1000 Ang^3
#
#
#
# Elastic Constant Matrix: (Units=GPa)
#
#
# Indices 1 2 3 4 5 6 
#
# 1 103.7341 12.9842 37.7464 3.8576 13.5247 9.5215
# 2 12.9842 91.7943 22.7477 13.9807 3.6236 -4.9994
# 3 37.7464 22.7477 88.7158 12.4271 9.1092 5.1697
# 4 3.8576 13.9807 12.4271 34.3640 7.0536 1.8602
# 5 13.5247 3.6236 9.1092 7.0536 46.8190 9.5006
# 6 9.5215 -4.9994 5.1697 1.8602 9.5006 46.4692
#
#
#
# Elastic Compliance Matrix: (Units=1/GPa)
#
#
# Indices 1 2 3 4 5 6 
#
# 1 0.011836 -0.000687 -0.004701 0.001211 -0.002319 -0.001550
# 2 -0.000687 0.012324 -0.002391 -0.004165 -0.000050 0.001910
# 3 -0.004701 -0.002391 0.014486 -0.003579 -0.000607 -0.000638
# 4 0.001211 -0.004165 -0.003579 0.032841 -0.004122 -0.000770
# 5 -0.002319 -0.000050 -0.000607 -0.004122 0.023609 -0.004124
# 6 -0.001550 0.001910 -0.000638 -0.000770 -0.004124 0.022988
#
#
# Mechanical properties :
#
#
# Convention : Reuss Voigt Hill
#
# Bulk Modulus (GPa) = 43.30925 47.91120 45.61022
# Shear Modulus (GPa) = 35.37654 39.58150 37.47902
#
# Velocity S-wave (km/s) = 3.97819 4.20798 4.09470
# Velocity P-wave (km/s) = 6.36208 6.71140 6.53907
#
# Compressibility (1/GPa) = 0.02308976
#
# Stress axis : x y z
#
# Youngs Moduli (GPa) = 84.48621 81.14379 69.03231
#
# Poissons Ratio (x) = 0.05571 0.32453
# Poissons Ratio (y) = 0.05800 0.16502
# Poissons Ratio (z) = 0.39718 0.19397
#
# Static dielectric constant tensor:
#      x y z
#    x 4.224430 -0.113330 0.103400 
#    y -0.113330 4.016770 0.117120 
#    z 0.103400 0.117120 4.100730 
# 
# 
# High freq. dielectric constant tensor:
#      x y z
#    x 1.898120 0.001790 0.003800 
#    y 0.001790 1.877610 0.013240 
#    z 0.003800 0.013240 1.884580 
# 
# From -- ./inp_files/263164.got.cif
#   From: 2010.06.25/outbox.cif.g09.slc.cpg/sg2_132_cif.got.tgz:263164.got - 2010.06.27 13:26:56.
