data_PCOD8031764
_publ_section_title
;
Structure prediction by ZEFSAII (Michael W. Deem and Ramdas Pophale) SiO2 
 PCOD8031764
Probable space group: P -1
;
_chemical_formula_sum "Si O2"
_cell_formula_units_Z 16
_cell_length_a 14.405464
_cell_length_b 11.768034
_cell_length_c 8.133447
_cell_angle_alpha 128.609768
_cell_angle_beta 39.069001
_cell_angle_gamma 130.339128
_cell_volume 640.862565
_symmetry_space_group_name_H-M "P -1"
_symmetry_group_IT_number 2
_symmetry_cell_setting 'triclinic'
loop_
_space_group_symop_operation_xyz
x,y,z
-x,-y,-z
loop_
_atom_site_type_symbol
_atom_site_label
_atom_site_fract_x
_atom_site_fract_y
_atom_site_fract_z
Si Si1 0.704711 0.838895 0.545339
Si Si2 0.965883 0.028031 0.885600
Si Si3 0.815121 0.369790 0.796177
Si Si4 0.588769 0.546569 0.250613
Si Si5 0.398277 0.874933 0.896883
Si Si6 0.666868 0.855874 0.959039
Si Si7 0.584481 0.322743 0.605606
Si Si8 0.088057 0.658788 0.714384
O O1 0.703556 0.721384 0.292558
O O2 0.575986 0.934158 0.795164
O O3 0.878168 0.963126 0.422204
O O4 0.672316 0.755195 0.695751
O O5 0.923659 0.183560 0.055812
O O6 0.821353 0.886592 0.886246
O O7 0.000000 0.000000 0.000000
O O8 0.899652 0.320893 0.481869
O O9 0.940838 0.514325 0.844722
O O10 0.678507 0.430463 0.972825
O O11 0.742916 0.224880 0.882663
O O12 0.500000 0.500000 0.500000
O O13 0.484374 0.540332 0.223855
O O14 0.440980 0.760829 0.610344
O O15 0.340298 0.985204 0.961559
O O16 0.512922 0.783591 0.211680
O O17 0.764606 0.381645 0.456315
#
# Coordination Sequence:
#
# PCOD8031764 Si02
#       8
#     2   2   2   2   2   2   2   2
#     4  11  24  43  69 101 134 180 224 284 339 399
#     4  12  26  44  68  97 142 183 226 284 340 399
#     4  11  24  47  69  99 137 179 230 273 348 400
#     4  11  22  46  70  99 133 178 228 277 341 403
#     4  11  23  44  73 100 135 182 222 287 339 411
#     4  12  26  45  68 105 137 176 236 277 345 408
#     4  11  24  43  70 101 134 180 224 280 339 400
#     4  11  26  45  68 101 135 181 229 283 336 409
#
# _framework density 24.966353000000002
#
# number of rings (size 3 to 8) (size 9 to 14) (size 15 to 20)
#    0.000    0.750    5.000    3.375    3.500    1.000 
#    2.250    0.000    0.000    0.000    0.000    0.000 
#    0.000    0.000    0.000    0.000    0.000    0.000 
#
# Total GULP energy -198365.635647 kJ/mol
# GULP energy per Si atom -12397.852228 kJ/mol
# Density = 2.490953 g / cm^3
# Si number density = 24.966353 Si / 1000 Ang^3
#
#
#
# Elastic Constant Matrix: (Units=GPa)
#
#
# Indices 1 2 3 4 5 6 
#
# 1 125.7031 26.4802 12.7188 -19.2043 -12.2249 -9.7115
# 2 26.4802 93.8987 28.2904 -25.2713 -12.8337 -19.3611
# 3 12.7188 28.2904 89.4214 -25.3867 -6.4315 -2.3314
# 4 -19.2043 -25.2713 -25.3867 44.7992 2.6657 0.3400
# 5 -12.2249 -12.8337 -6.4315 2.6657 38.0149 -4.0667
# 6 -9.7115 -19.3611 -2.3314 0.3400 -4.0667 36.3260
#
#
#
# Elastic Compliance Matrix: (Units=1/GPa)
#
#
# Indices 1 2 3 4 5 6 
#
# 1 0.009060 -0.000902 0.000183 0.003305 0.002646 0.002219
# 2 -0.000902 0.015953 -0.002366 0.006901 0.005134 0.008620
# 3 0.000183 -0.002366 0.013829 0.006516 0.001115 -0.000261
# 4 0.003305 0.006901 0.006516 0.031116 0.002849 0.005008
# 5 0.002646 0.005134 0.001115 0.002849 0.029606 0.006803
# 6 0.002219 0.008620 -0.000261 0.005008 0.006803 0.033414
#
#
# Mechanical properties :
#
#
# Convention : Reuss Voigt Hill
#
# Bulk Modulus (GPa) = 30.60604 49.33354 39.96979
# Shear Modulus (GPa) = 33.32478 39.93028 36.62753
#
# Velocity S-wave (km/s) = 3.65744 4.00354 3.83440
# Velocity P-wave (km/s) = 5.48829 6.41670 5.97057
#
# Compressibility (1/GPa) = 0.03267329
#
# Stress axis : x y z
#
# Youngs Moduli (GPa) = 110.37198 62.68342 72.31332
#
# Poissons Ratio (x) = 0.05652 -0.01323
# Poissons Ratio (y) = 0.09953 0.17107
# Poissons Ratio (z) = -0.02019 0.14829
#
# Static dielectric constant tensor:
#      x y z
#    x 5.180830 0.935360 1.031770 
#    y 0.935360 5.345760 1.324230 
#    z 1.031770 1.324230 6.453400 
# 
# 
# High freq. dielectric constant tensor:
#      x y z
#    x 2.007970 0.006330 0.000100 
#    y 0.006330 1.988210 0.002200 
#    z 0.000100 0.002200 2.011020 
# 
# From -- ./inp_files/308265.got.cif
#   From: 2010.06.25/outbox.cif.g09.slc.cpg/sg2_155_cif.got.tgz:308265.got - 2010.06.27 13:26:56.
