data_PCOD8031961
_publ_section_title
;
Structure prediction by ZEFSAII (Michael W. Deem and Ramdas Pophale) SiO2 
 PCOD8031961
Probable space group: P -1
;
_chemical_formula_sum "Si O2"
_cell_formula_units_Z 16
_cell_length_a 9.281859
_cell_length_b 9.594413
_cell_length_c 16.714526
_cell_angle_alpha 147.358397
_cell_angle_beta 67.018046
_cell_angle_gamma 107.440168
_cell_volume 737.875443
_symmetry_space_group_name_H-M "P -1"
_symmetry_group_IT_number 2
_symmetry_cell_setting 'triclinic'
loop_
_space_group_symop_operation_xyz
x,y,z
-x,-y,-z
loop_
_atom_site_type_symbol
_atom_site_label
_atom_site_fract_x
_atom_site_fract_y
_atom_site_fract_z
Si Si1 0.940231 0.011674 0.107389
Si Si2 0.338939 0.460038 0.724265
Si Si3 0.286083 0.998975 0.232272
Si Si4 0.183077 0.026322 0.446750
Si Si5 0.374266 0.018119 0.905836
Si Si6 0.136575 0.620750 0.983723
Si Si7 0.658401 0.445618 0.730080
Si Si8 0.094525 0.382488 0.350583
O O1 0.961269 0.295034 0.275624
O O2 0.761125 0.933719 0.108200
O O3 0.000000 0.000000 0.000000
O O4 0.054344 0.840159 0.054045
O O5 0.233792 0.429727 0.811391
O O6 0.512515 0.364549 0.669008
O O7 0.341223 0.757036 0.836173
O O8 0.262967 0.273226 0.586557
O O9 0.199151 0.066704 0.367332
O O10 0.472543 0.023105 0.202576
O O11 0.218782 0.171450 0.257417
O O12 0.252446 0.710939 0.071651
O O13 0.292975 0.767940 0.316863
O O14 0.000000 0.000000 0.500000
O O15 0.375143 0.265658 0.085187
O O16 0.000000 0.500000 0.000000
O O17 0.805184 0.422391 0.626714
O O18 0.000000 0.500000 0.500000
#
# Coordination Sequence:
#
# PCOD8031961 Si02
#       8
#     2   2   2   2   2   2   2   2
#     4  11  23  39  67 104 134 184 239 287 336 416
#     4  12  25  47  74 103 143 190 231 291 362 418
#     4  11  25  46  67 105 140 184 233 296 344 417
#     4  12  30  47  71 104 152 185 230 290 362 424
#     4  12  24  43  80 104 136 180 252 290 342 411
#     4  11  24  41  69 100 143 182 236 284 349 418
#     4  12  25  47  74 103 143 190 231 291 362 418
#     4  11  24  41  69 100 143 182 236 284 349 418
#
# _framework density 21.683878
#
# number of rings (size 3 to 8) (size 9 to 14) (size 15 to 20)
#    0.000    0.500    5.000    3.000    7.000    4.000 
#    0.000    0.000    0.000    0.000    0.000    0.000 
#    0.000    0.000    0.000    0.000    0.000    0.000 
#
# Total GULP energy -198260.725214 kJ/mol
# GULP energy per Si atom -12391.295326 kJ/mol
# Density = 2.163452 g / cm^3
# Si number density = 21.683878 Si / 1000 Ang^3
#
#
#
# Elastic Constant Matrix: (Units=GPa)
#
#
# Indices 1 2 3 4 5 6 
#
# 1 142.1966 21.9299 49.8070 -7.8258 21.8396 21.0796
# 2 21.9299 90.8174 46.8057 -13.0309 10.6123 20.1714
# 3 49.8070 46.8057 119.0487 -16.2552 15.8656 13.1843
# 4 -7.8258 -13.0309 -16.2552 44.1180 0.6186 -10.3323
# 5 21.8396 10.6123 15.8656 0.6186 37.6314 -5.9159
# 6 21.0796 20.1714 13.1843 -10.3323 -5.9159 39.6271
#
#
#
# Elastic Compliance Matrix: (Units=1/GPa)
#
#
# Indices 1 2 3 4 5 6 
#
# 1 0.009602 0.001127 -0.003175 -0.000352 -0.005415 -0.005525
# 2 0.001127 0.015609 -0.005102 0.001323 -0.004044 -0.007106
# 3 -0.003175 -0.005102 0.012269 0.002620 -0.001838 0.000613
# 4 -0.000352 0.001323 0.002620 0.025160 -0.000890 0.005069
# 5 -0.005415 -0.004044 -0.001838 -0.000890 0.033263 0.010284
# 6 -0.005525 -0.007106 0.000613 0.005069 0.010284 0.034445
#
#
# Mechanical properties :
#
#
# Convention : Reuss Voigt Hill
#
# Bulk Modulus (GPa) = 43.13913 65.46085 54.29999
# Shear Modulus (GPa) = 32.81391 39.84330 36.32860
#
# Velocity S-wave (km/s) = 3.89432 4.29121 4.09757
# Velocity P-wave (km/s) = 6.33709 7.40317 6.89078
#
# Compressibility (1/GPa) = 0.02318081
#
# Stress axis : x y z
#
# Youngs Moduli (GPa) = 104.14329 64.06489 81.50663
#
# Poissons Ratio (x) = -0.07221 0.25878
# Poissons Ratio (y) = -0.11739 0.41584
# Poissons Ratio (z) = 0.33065 0.32686
#
# Static dielectric constant tensor:
#      x y z
#    x 4.679190 0.105620 0.236130 
#    y 0.105620 3.586410 -0.017390 
#    z 0.236130 -0.017390 4.000580 
# 
# 
# High freq. dielectric constant tensor:
#      x y z
#    x 1.875790 0.004540 0.006650 
#    y 0.004540 1.850710 -0.007450 
#    z 0.006650 -0.007450 1.847990 
# 
# From -- ./inp_files/206441.got.cif
#   From: 2010.06.25/outbox.cif.g09.slc.cpg/sg2_104_cif.got.tgz:206441.got - 2010.06.27 13:26:56.
