data_PCOD8031849
_publ_section_title
;
Structure prediction by ZEFSAII (Michael W. Deem and Ramdas Pophale) SiO2 
 PCOD8031849
Probable space group: P -1
;
_chemical_formula_sum "Si O2"
_cell_formula_units_Z 16
_cell_length_a 9.263003
_cell_length_b 23.284735
_cell_length_c 9.525488
_cell_angle_alpha 39.573045
_cell_angle_beta 92.341455
_cell_angle_gamma 124.642872
_cell_volume 702.258404
_symmetry_space_group_name_H-M "P -1"
_symmetry_group_IT_number 2
_symmetry_cell_setting 'triclinic'
loop_
_space_group_symop_operation_xyz
x,y,z
-x,-y,-z
loop_
_atom_site_type_symbol
_atom_site_label
_atom_site_fract_x
_atom_site_fract_y
_atom_site_fract_z
Si Si1 0.914635 0.080094 0.166373
Si Si2 0.028695 0.630781 0.090906
Si Si3 0.043214 0.803015 0.580133
Si Si4 0.646113 0.749469 0.752048
Si Si5 0.792420 0.155702 0.782371
Si Si6 0.429042 0.089187 0.256062
Si Si7 0.479978 0.319716 0.802418
Si Si8 0.924245 0.511087 0.836061
O O1 0.808267 0.927058 0.400716
O O2 0.810742 0.043419 0.389015
O O3 0.807187 0.102041 0.021293
O O4 0.239218 0.250038 0.852660
O O5 0.770391 0.506570 0.413347
O O6 0.072210 0.553110 0.178802
O O7 0.978453 0.669328 0.885009
O O8 0.290346 0.797020 0.879864
O O9 0.025333 0.790732 0.434624
O O10 0.823501 0.759017 0.698854
O O11 0.338645 0.982684 0.318429
O O12 0.542461 0.679601 0.035481
O O13 0.374669 0.610317 0.913011
O O14 0.877191 0.302427 0.544874
O O15 0.500000 0.000000 0.000000
O O16 0.452060 0.200962 0.984412
O O17 0.000000 0.500000 0.000000
#
# Coordination Sequence:
#
# PCOD8031849 Si02
#       8
#     2   2   2   2   2   2   2   2
#     4  11  22  47  73 105 145 190 238 294 364 428
#     4  12  26  43  75 108 145 186 248 299 359 424
#     4  12  26  46  73 108 144 191 241 297 365 431
#     4  11  24  46  75 101 150 189 237 299 364 429
#     4  12  29  46  73 108 143 191 249 295 361 434
#     4  11  22  48  73 105 143 195 235 298 356 432
#     4  11  23  43  72 112 142 186 242 299 366 419
#     4  12  26  49  71  98 147 198 234 297 362 432
#
# _framework density 22.783638
#
# number of rings (size 3 to 8) (size 9 to 14) (size 15 to 20)
#    0.000    0.500    6.250    3.000    3.500    3.500 
#    0.000    0.000    0.000    0.000    0.000    0.000 
#    0.000    0.000    0.000    0.000    0.000    0.000 
#
# Total GULP energy -198451.288467 kJ/mol
# GULP energy per Si atom -12403.205529 kJ/mol
# Density = 2.273178 g / cm^3
# Si number density = 22.783638 Si / 1000 Ang^3
#
#
#
# Elastic Constant Matrix: (Units=GPa)
#
#
# Indices 1 2 3 4 5 6 
#
# 1 90.9795 19.1652 28.6961 -16.8365 4.5703 17.4804
# 2 19.1652 72.5074 13.5139 -14.5879 2.2725 12.8811
# 3 28.6961 13.5139 84.0093 -13.4858 -15.2854 6.2107
# 4 -16.8365 -14.5879 -13.4858 30.4544 11.1315 -3.4220
# 5 4.5703 2.2725 -15.2854 11.1315 31.9572 -9.1777
# 6 17.4804 12.8811 6.2107 -3.4220 -9.1777 49.0866
#
#
#
# Elastic Compliance Matrix: (Units=1/GPa)
#
#
# Indices 1 2 3 4 5 6 
#
# 1 0.016140 0.000083 -0.005350 0.009544 -0.010006 -0.006298
# 2 0.000083 0.017126 -0.002193 0.009253 -0.006907 -0.004893
# 3 -0.005350 -0.002193 0.015537 -0.000188 0.009048 0.002193
# 4 0.009544 0.009253 -0.000188 0.049487 -0.021163 -0.006310
# 5 -0.010006 -0.006907 0.009048 -0.021163 0.048298 0.011786
# 6 -0.006298 -0.004893 0.002193 -0.006310 0.011786 0.025385
#
#
# Mechanical properties :
#
#
# Convention : Reuss Voigt Hill
#
# Bulk Modulus (GPa) = 29.51147 41.13851 35.32499
# Shear Modulus (GPa) = 25.22872 34.70772 29.96822
#
# Velocity S-wave (km/s) = 3.33125 3.90726 3.63070
# Velocity P-wave (km/s) = 5.27042 6.20088 5.75449
#
# Compressibility (1/GPa) = 0.03388514
#
# Stress axis : x y z
#
# Youngs Moduli (GPa) = 61.95746 58.39188 64.36068
#
# Poissons Ratio (x) = -0.00488 0.34430
# Poissons Ratio (y) = -0.00517 0.14114
# Poissons Ratio (z) = 0.33144 0.12805
#
# Static dielectric constant tensor:
#      x y z
#    x 4.168020 0.262090 -0.133010 
#    y 0.262090 3.737390 0.039440 
#    z -0.133010 0.039440 4.205370 
# 
# 
# High freq. dielectric constant tensor:
#      x y z
#    x 1.912360 0.008060 -0.000160 
#    y 0.008060 1.899580 -0.006800 
#    z -0.000160 -0.006800 1.900490 
# 
# From -- ./inp_files/225976.got.cif
#   From: 2010.06.25/outbox.cif.g09.slc.cpg/sg2_113_cif.got.tgz:225976.got - 2010.06.27 13:26:56.
