data_PCOD8031671
_publ_section_title
;
Structure prediction by ZEFSAII (Michael W. Deem and Ramdas Pophale) SiO2 
 PCOD8031671
Probable space group: P -1
;
_chemical_formula_sum "Si O2"
_cell_formula_units_Z 16
_cell_length_a 9.212155
_cell_length_b 11.734337
_cell_length_c 8.606846
_cell_angle_alpha 83.351790
_cell_angle_beta 91.980695
_cell_angle_gamma 51.690473
_cell_volume 718.361019
_symmetry_space_group_name_H-M "P -1"
_symmetry_group_IT_number 2
_symmetry_cell_setting 'triclinic'
loop_
_space_group_symop_operation_xyz
x,y,z
-x,-y,-z
loop_
_atom_site_type_symbol
_atom_site_label
_atom_site_fract_x
_atom_site_fract_y
_atom_site_fract_z
Si Si1 0.003920 0.543470 0.167163
Si Si2 0.747588 0.828236 0.290570
Si Si3 0.247447 0.925931 0.685546
Si Si4 0.723596 0.395622 0.852356
Si Si5 0.101286 0.918836 0.175867
Si Si6 0.334652 0.970257 0.342071
Si Si7 0.312664 0.645883 0.791550
Si Si8 0.960186 0.711525 0.627273
O O1 0.191217 0.524066 0.203463
O O2 0.007113 0.435521 0.300711
O O3 0.819947 0.714617 0.167363
O O4 0.000000 0.500000 0.000000
O O5 0.553193 0.882780 0.346318
O O6 0.909433 0.739632 0.440048
O O7 0.717676 0.977712 0.220693
O O8 0.298528 0.925918 0.511013
O O9 0.359940 0.758747 0.775075
O O10 0.031637 0.996923 0.692746
O O11 0.835256 0.243414 0.789679
O O12 0.508298 0.489899 0.779458
O O13 0.753847 0.362174 0.041676
O O14 0.275353 0.917675 0.206303
O O15 0.000000 0.000000 0.000000
O O16 0.211010 0.148024 0.302462
O O17 0.151997 0.688467 0.658395
#
# Coordination Sequence:
#
# PCOD8031671 Si02
#       8
#     2   2   2   2   2   2   2   2
#     4  12  26  46  70  95 140 182 223 278 347 405
#     4  11  27  45  69 101 136 179 232 281 335 411
#     4  11  22  45  70  99 134 183 222 282 343 390
#     4  11  25  43  66 106 137 178 228 279 336 410
#     4  12  23  44  72  98 138 179 227 282 337 397
#     4  11  26  44  70 102 136 177 233 281 336 404
#     4  11  24  42  71 101 140 176 227 284 338 400
#     4  11  23  46  67  98 141 181 220 281 341 397
#
# _framework density 22.272925000000001
#
# number of rings (size 3 to 8) (size 9 to 14) (size 15 to 20)
#    0.000    0.750    5.000    2.250    7.000    0.000 
#    0.000    2.500    0.000    0.000    0.000    0.000 
#    0.000    0.000    0.000    0.000    0.000    0.000 
#
# Total GULP energy -198388.220169 kJ/mol
# GULP energy per Si atom -12399.263761 kJ/mol
# Density = 2.222223 g / cm^3
# Si number density = 22.272925 Si / 1000 Ang^3
#
#
#
# Elastic Constant Matrix: (Units=GPa)
#
#
# Indices 1 2 3 4 5 6 
#
# 1 119.3106 47.6021 46.9399 -4.9931 1.3584 2.5436
# 2 47.6021 119.0033 45.0502 2.0768 1.3452 10.6890
# 3 46.9399 45.0502 55.6078 4.8352 0.1202 -6.2303
# 4 -4.9931 2.0768 4.8352 30.1887 6.0543 -5.1920
# 5 1.3584 1.3452 0.1202 6.0543 35.1411 -5.8596
# 6 2.5436 10.6890 -6.2303 -5.1920 -5.8596 50.0484
#
#
#
# Elastic Compliance Matrix: (Units=1/GPa)
#
#
# Indices 1 2 3 4 5 6 
#
# 1 0.013317 -0.001144 -0.010833 0.004031 -0.001383 -0.001525
# 2 -0.001144 0.013055 -0.010073 0.000043 -0.001114 -0.004110
# 3 -0.010833 -0.010073 0.036612 -0.006357 0.002932 0.006943
# 4 0.004031 0.000043 -0.006357 0.036376 -0.006060 0.002059
# 5 -0.001383 -0.001114 0.002932 -0.006060 0.030183 0.003578
# 6 -0.001525 -0.004110 0.006943 0.002059 0.003578 0.022433
#
#
# Mechanical properties :
#
#
# Convention : Reuss Voigt Hill
#
# Bulk Modulus (GPa) = 52.95143 63.67846 58.31495
# Shear Modulus (GPa) = 24.70742 33.36427 29.03585
#
# Velocity S-wave (km/s) = 3.33423 3.87457 3.61451
# Velocity P-wave (km/s) = 6.21678 6.97628 6.60745
#
# Compressibility (1/GPa) = 0.01888523
#
# Stress axis : x y z
#
# Youngs Moduli (GPa) = 75.09416 76.60105 27.31362
#
# Poissons Ratio (x) = 0.08760 0.29588
# Poissons Ratio (y) = 0.08588 0.27512
# Poissons Ratio (z) = 0.81348 0.77156
#
# Static dielectric constant tensor:
#      x y z
#    x 4.208030 0.199480 -0.071460 
#    y 0.199480 4.343130 -0.023750 
#    z -0.071460 -0.023750 3.745770 
# 
# 
# High freq. dielectric constant tensor:
#      x y z
#    x 1.886500 0.008360 -0.008400 
#    y 0.008360 1.890900 0.003020 
#    z -0.008400 0.003020 1.855770 
# 
# From -- ./inp_files/186699.got.cif
#   From: 2010.06.25/outbox.cif.g09.slc.cpg/sg2_94_cif.got.tgz:186699.got - 2010.06.27 13:26:56.
