data_PCOD8031313
_publ_section_title
;
Structure prediction by ZEFSAII (Michael W. Deem and Ramdas Pophale) SiO2 
 PCOD8031313
Probable space group: P -1
;
_chemical_formula_sum "Si O2"
_cell_formula_units_Z 14
_cell_length_a 8.959509
_cell_length_b 9.611296
_cell_length_c 12.457614
_cell_angle_alpha 68.258293
_cell_angle_beta 145.440526
_cell_angle_gamma 109.251075
_cell_volume 564.625122
_symmetry_space_group_name_H-M "P -1"
_symmetry_group_IT_number 2
_symmetry_cell_setting 'triclinic'
loop_
_space_group_symop_operation_xyz
x,y,z
-x,-y,-z
loop_
_atom_site_type_symbol
_atom_site_label
_atom_site_fract_x
_atom_site_fract_y
_atom_site_fract_z
Si Si1 0.779828 0.385384 0.782466
Si Si2 0.306519 0.113801 0.402546
Si Si3 0.739873 0.156641 0.999788
Si Si4 0.693080 0.003330 0.340113
Si Si5 0.619282 0.394206 0.456598
Si Si6 0.228650 0.569481 0.919702
Si Si7 0.319483 0.654060 0.725989
O O1 0.838862 0.239219 0.925791
O O2 0.795662 0.346885 0.675157
O O3 0.498096 0.443022 0.639097
O O4 0.998849 0.522526 0.881329
O O5 0.366585 0.115383 0.565451
O O6 0.370163 0.274653 0.340234
O O7 0.500000 0.000000 0.500000
O O8 0.994907 0.068057 0.214598
O O9 0.486880 0.045049 0.855910
O O10 0.648704 0.273828 0.003740
O O11 0.619016 0.168515 0.285792
O O12 0.000000 0.000000 0.500000
O O13 0.782576 0.392012 0.441229
O O14 0.127414 0.602664 0.727108
O O15 0.417316 0.431790 0.070151
#
# Coordination Sequence:
#
# PCOD8031313 Si02
#       7
#     2   2   2   2   2   2   2
#     4  11  23  41  79 106 140 191 243 303 373 430
#     4  12  25  44  71 108 146 190 247 297 363 444
#     4  12  25  48  79 104 149 199 244 306 373 433
#     4  12  29  49  72 106 151 199 244 301 374 447
#     4  11  22  43  69 108 143 185 243 304 358 436
#     4  11  24  45  72 106 140 191 245 301 365 438
#     4  11  25  46  68 103 148 182 246 303 358 433
#
# _framework density 24.795211999999999
#
# number of rings (size 3 to 8) (size 9 to 14) (size 15 to 20)
#    0.000    0.571    5.714    2.143    0.000    4.571 
#    5.143    0.000    0.000    0.000    0.000    0.000 
#    0.000    0.000    0.000    0.000    0.000    0.000 
#
# Total GULP energy -173514.791026 kJ/mol
# GULP energy per Si atom -12393.913645 kJ/mol
# Density = 2.473878 g / cm^3
# Si number density = 24.795212 Si / 1000 Ang^3
#
#
#
# Elastic Constant Matrix: (Units=GPa)
#
#
# Indices 1 2 3 4 5 6 
#
# 1 98.6151 25.9634 13.1875 -9.0658 -22.4931 -15.1454
# 2 25.9634 87.0711 30.8671 -7.3222 1.9796 -28.5923
# 3 13.1875 30.8671 89.9228 -8.1616 1.6338 -25.3932
# 4 -9.0658 -7.3222 -8.1616 33.0724 1.5682 -4.3286
# 5 -22.4931 1.9796 1.6338 1.5682 54.1448 0.4238
# 6 -15.1454 -28.5923 -25.3932 -4.3286 0.4238 33.7820
#
#
#
# Elastic Compliance Matrix: (Units=1/GPa)
#
#
# Indices 1 2 3 4 5 6 
#
# 1 0.012922 -0.002355 0.000393 0.003451 0.005308 0.004471
# 2 -0.002355 0.017502 -0.001449 0.004698 -0.001814 0.013293
# 3 0.000393 -0.001449 0.015113 0.004972 -0.000470 0.010953
# 4 0.003451 0.004698 0.004972 0.035254 -0.000017 0.013778
# 5 0.005308 -0.001814 -0.000470 -0.000017 0.020753 0.000228
# 6 0.004471 0.013293 0.010953 0.013778 0.000228 0.052853
#
#
# Mechanical properties :
#
#
# Convention : Reuss Voigt Hill
#
# Bulk Modulus (GPa) = 25.82957 46.18278 36.00618
# Shear Modulus (GPa) = 28.71489 37.90593 33.31041
#
# Velocity S-wave (km/s) = 3.40675 3.91418 3.66925
# Velocity P-wave (km/s) = 5.09062 6.25251 5.70124
#
# Compressibility (1/GPa) = 0.03871532
#
# Stress axis : x y z
#
# Youngs Moduli (GPa) = 77.38463 57.13543 66.16688
#
# Poissons Ratio (x) = 0.13453 -0.02598
# Poissons Ratio (y) = 0.18221 0.09590
# Poissons Ratio (z) = -0.03038 0.08281
#
# Static dielectric constant tensor:
#      x y z
#    x 4.798310 0.144180 -0.520510 
#    y 0.144180 4.522280 -0.113590 
#    z -0.520510 -0.113590 4.512880 
# 
# 
# High freq. dielectric constant tensor:
#      x y z
#    x 1.991850 -0.000980 -0.026960 
#    y -0.000980 1.980000 -0.005930 
#    z -0.026960 -0.005930 1.984020 
# 
# From -- ./inp_files/382160.got.cif
#   From: 2010.06.25/outbox.cif.g09.slc.cpg/sg2_192_cif.got.tgz:382160.got - 2010.06.27 13:26:56.
