data_PCOD8031927
_publ_section_title
;
Structure prediction by ZEFSAII (Michael W. Deem and Ramdas Pophale) SiO2 
 PCOD8031927
Probable space group: P -1
;
_chemical_formula_sum "Si O2"
_cell_formula_units_Z 16
_cell_length_a 13.644813
_cell_length_b 9.961488
_cell_length_c 10.998170
_cell_angle_alpha 88.262897
_cell_angle_beta 32.245868
_cell_angle_gamma 100.123991
_cell_volume 738.197637
_symmetry_space_group_name_H-M "P -1"
_symmetry_group_IT_number 2
_symmetry_cell_setting 'triclinic'
loop_
_space_group_symop_operation_xyz
x,y,z
-x,-y,-z
loop_
_atom_site_type_symbol
_atom_site_label
_atom_site_fract_x
_atom_site_fract_y
_atom_site_fract_z
Si Si1 0.507953 0.863573 0.423357
Si Si2 0.255009 0.006703 0.335290
Si Si3 0.359335 0.975295 0.962909
Si Si4 0.936575 0.791025 0.358814
Si Si5 0.730809 0.526964 0.747659
Si Si6 0.869678 0.831628 0.153595
Si Si7 0.927013 0.336589 0.438129
Si Si8 0.077498 0.643215 0.834706
O O1 0.645116 0.799446 0.354668
O O2 0.297553 0.735484 0.644659
O O3 0.500000 0.000000 0.500000
O O4 0.592622 0.906462 0.197498
O O5 0.147020 0.835907 0.474597
O O6 0.451401 0.068723 0.211971
O O7 0.108397 0.083457 0.526727
O O8 0.314694 0.045638 0.131256
O O9 0.172645 0.831903 0.123961
O O10 0.820318 0.635347 0.540033
O O11 0.874757 0.778696 0.285332
O O12 0.769439 0.380937 0.680650
O O13 0.849972 0.595170 0.743946
O O14 0.500000 0.500000 0.000000
O O15 0.946433 0.739656 0.984865
O O16 0.000000 0.000000 0.000000
O O17 0.931564 0.396874 0.296153
O O18 0.000000 0.500000 0.000000
#
# Coordination Sequence:
#
# PCOD8031927 Si02
#       8
#     2   2   2   2   2   2   2   2
#     4  12  24  43  70 102 136 181 227 283 340 396
#     4  11  24  39  70 100 127 168 222 277 334 395
#     4  11  23  38  67  99 131 163 220 277 332 384
#     4  12  24  42  66  99 132 170 223 275 329 394
#     4  11  28  44  67  95 139 178 215 272 343 403
#     4  12  24  42  70 100 134 179 230 277 337 403
#     4  11  25  47  66  98 135 175 224 271 339 403
#     4  12  27  46  70  99 141 181 228 283 336 406
#
# _framework density 21.674415
#
# number of rings (size 3 to 8) (size 9 to 14) (size 15 to 20)
#    0.000    0.500    5.000    2.625    3.500    2.500 
#    0.000    0.000    0.000    0.000    0.000    0.000 
#    0.000    0.000    0.000    0.000    0.000    0.000 
#
# Total GULP energy -198489.593320 kJ/mol
# GULP energy per Si atom -12405.599583 kJ/mol
# Density = 2.162508 g / cm^3
# Si number density = 21.674415 Si / 1000 Ang^3
#
#
#
# Elastic Constant Matrix: (Units=GPa)
#
#
# Indices 1 2 3 4 5 6 
#
# 1 166.3195 23.2526 60.5261 -7.6573 -14.8815 8.2672
# 2 23.2526 80.7552 40.5084 -4.2832 -8.6829 -5.0851
# 3 60.5261 40.5084 116.6511 -15.5685 -23.6223 7.2086
# 4 -7.6573 -4.2832 -15.5685 39.6189 -5.9962 2.3559
# 5 -14.8815 -8.6829 -23.6223 -5.9962 54.0594 2.7398
# 6 8.2672 -5.0851 7.2086 2.3559 2.7398 23.5060
#
#
#
# Elastic Compliance Matrix: (Units=1/GPa)
#
#
# Indices 1 2 3 4 5 6 
#
# 1 0.007489 -0.000451 -0.003472 0.000228 0.000587 -0.001758
# 2 -0.000451 0.015649 -0.005794 -0.001080 -0.000540 0.005492
# 3 -0.003472 -0.005794 0.014574 0.005584 0.005390 -0.005690
# 4 0.000228 -0.001080 0.005584 0.028568 0.005780 -0.005563
# 5 0.000587 -0.000540 0.005390 0.005780 0.021828 -0.005100
# 6 -0.001758 0.005492 -0.005690 -0.005563 -0.005100 0.047246
#
#
# Mechanical properties :
#
#
# Convention : Reuss Voigt Hill
#
# Bulk Modulus (GPa) = 54.70087 68.03333 61.36710
# Shear Modulus (GPa) = 31.07929 39.39942 35.23936
#
# Velocity S-wave (km/s) = 3.79082 4.26817 4.03656
# Velocity P-wave (km/s) = 6.66729 7.46637 7.07811
#
# Compressibility (1/GPa) = 0.01828125
#
# Stress axis : x y z
#
# Youngs Moduli (GPa) = 133.52478 63.89994 68.61518
#
# Poissons Ratio (x) = 0.02879 0.23820
# Poissons Ratio (y) = 0.06016 0.39753
# Poissons Ratio (z) = 0.46354 0.37021
#
# Static dielectric constant tensor:
#      x y z
#    x 4.241740 0.039570 -0.034370 
#    y 0.039570 3.819860 0.057140 
#    z -0.034370 0.057140 4.098280 
# 
# 
# High freq. dielectric constant tensor:
#      x y z
#    x 1.876810 -0.001320 -0.002270 
#    y -0.001320 1.839740 0.001540 
#    z -0.002270 0.001540 1.859020 
# 
# From -- ./inp_files/447471.got.cif
#   From: 2010.06.25/outbox.cif.g09.slc.cpg/sg2_224_cif.got.tgz:447471.got - 2010.06.27 13:26:56.
