data_PCOD8031942
_publ_section_title
;
Structure prediction by ZEFSAII (Michael W. Deem and Ramdas Pophale) SiO2 
 PCOD8031942
Probable space group: P -1
;
_chemical_formula_sum "Si O2"
_cell_formula_units_Z 16
_cell_length_a 6.597335
_cell_length_b 18.309800
_cell_length_c 9.375233
_cell_angle_alpha 52.900847
_cell_angle_beta 99.224704
_cell_angle_gamma 119.656670
_cell_volume 769.191839
_symmetry_space_group_name_H-M "P -1"
_symmetry_group_IT_number 2
_symmetry_cell_setting 'triclinic'
loop_
_space_group_symop_operation_xyz
x,y,z
-x,-y,-z
loop_
_atom_site_type_symbol
_atom_site_label
_atom_site_fract_x
_atom_site_fract_y
_atom_site_fract_z
Si Si1 0.658089 0.871582 0.525545
Si Si2 0.421777 0.286022 0.540332
Si Si3 0.814446 0.244548 0.251237
Si Si4 0.886708 0.376163 0.646112
Si Si5 0.034134 0.884972 0.772228
Si Si6 0.180275 0.264407 0.828634
Si Si7 0.656788 0.372137 0.910452
Si Si8 0.684375 0.566254 0.815117
O O1 0.690528 0.804205 0.484988
O O2 0.377690 0.833096 0.561716
O O3 0.792505 0.863320 0.691386
O O4 0.778776 0.991262 0.344502
O O5 0.687704 0.316117 0.574287
O O6 0.262301 0.239388 0.718855
O O7 0.441578 0.394552 0.357398
O O8 0.839078 0.172104 0.221544
O O9 0.077908 0.328555 0.232887
O O10 0.676892 0.305745 0.118778
O O11 0.789842 0.350234 0.825051
O O12 0.000000 0.500000 0.500000
O O13 0.070617 0.336854 0.690660
O O14 0.988293 0.845035 0.978409
O O15 0.388616 0.333912 0.881812
O O16 0.769618 0.493895 0.829031
O O17 0.500000 0.500000 0.000000
#
# Coordination Sequence:
#
# PCOD8031942 Si02
#       8
#     2   2   2   2   2   2   2   2
#     4  11  25  44  71 100 129 174 229 288 339 387
#     4  11  26  43  63 101 137 173 223 279 330 396
#     4  12  23  42  68 100 134 172 224 279 337 396
#     4  11  24  39  67  90 135 183 218 263 329 400
#     4  11  23  46  73  96 128 178 230 282 340 395
#     4  11  23  46  66  95 139 177 222 274 330 398
#     4  11  23  39  63  97 129 177 218 261 331 402
#     4  12  25  41  66 100 138 178 220 275 336 402
#
# _framework density 20.801051999999999
#
# number of rings (size 3 to 8) (size 9 to 14) (size 15 to 20)
#    0.000    0.750    3.750    3.750    5.250    2.500 
#    0.000    0.625    0.000    0.000    0.000    0.000 
#    0.000    0.000    0.000    0.000    0.000    0.000 
#
# Total GULP energy -198388.227609 kJ/mol
# GULP energy per Si atom -12399.264226 kJ/mol
# Density = 2.075371 g / cm^3
# Si number density = 20.801052 Si / 1000 Ang^3
#
#
#
# Elastic Constant Matrix: (Units=GPa)
#
#
# Indices 1 2 3 4 5 6 
#
# 1 101.4965 24.6961 32.5727 -8.7372 4.6297 12.3853
# 2 24.6961 87.2431 28.6586 -13.6080 -4.7301 2.9950
# 3 32.5727 28.6586 111.4748 -10.5032 -4.3360 6.6805
# 4 -8.7372 -13.6080 -10.5032 31.8990 -1.1608 0.6409
# 5 4.6297 -4.7301 -4.3360 -1.1608 33.8871 -7.6665
# 6 12.3853 2.9950 6.6805 0.6409 -7.6665 29.5211
#
#
#
# Elastic Compliance Matrix: (Units=1/GPa)
#
#
# Indices 1 2 3 4 5 6 
#
# 1 0.012194 -0.002369 -0.002641 0.001438 -0.003464 -0.005209
# 2 -0.002369 0.013708 -0.002359 0.004491 0.002229 0.000618
# 3 -0.002641 -0.002359 0.010617 0.001828 0.001280 -0.000762
# 4 0.001438 0.004491 0.001828 0.034349 0.001422 -0.001849
# 5 -0.003464 0.002229 0.001280 0.001422 0.032629 0.009380
# 6 -0.005209 0.000618 -0.000762 -0.001849 0.009380 0.038645
#
#
# Mechanical properties :
#
#
# Convention : Reuss Voigt Hill
#
# Bulk Modulus (GPa) = 45.91338 52.45213 49.18276
# Shear Modulus (GPa) = 30.46185 33.34725 31.90455
#
# Velocity S-wave (km/s) = 3.83095 4.00828 3.92062
# Velocity P-wave (km/s) = 6.45668 6.83320 6.64761
#
# Compressibility (1/GPa) = 0.02178014
#
# Stress axis : x y z
#
# Youngs Moduli (GPa) = 82.00798 72.95117 94.19255
#
# Poissons Ratio (x) = 0.17281 0.24877
# Poissons Ratio (y) = 0.19426 0.22221
# Poissons Ratio (z) = 0.21659 0.17210
#
# Static dielectric constant tensor:
#      x y z
#    x 4.303700 0.266660 0.161960 
#    y 0.266660 3.680920 -0.136530 
#    z 0.161960 -0.136530 3.393680 
# 
# 
# High freq. dielectric constant tensor:
#      x y z
#    x 1.826120 -0.001920 -0.000150 
#    y -0.001920 1.807010 -0.003320 
#    z -0.000150 -0.003320 1.822260 
# 
# From -- ./inp_files/77735.got.cif
#   From: 2010.06.25/outbox.cif.g09.slc.cpg/sg2_39_cif.got.tgz:77735.got - 2010.06.27 13:26:56.
