data_PCOD8031415
_publ_section_title
;
Structure prediction by ZEFSAII (Michael W. Deem and Ramdas Pophale) SiO2 
 PCOD8031415
Probable space group: P -1
;
_chemical_formula_sum "Si O2"
_cell_formula_units_Z 16
_cell_length_a 11.393195
_cell_length_b 12.949892
_cell_length_c 12.003407
_cell_angle_alpha 35.249986
_cell_angle_beta 86.385205
_cell_angle_gamma 111.481394
_cell_volume 702.415800
_symmetry_space_group_name_H-M "P -1"
_symmetry_group_IT_number 2
_symmetry_cell_setting 'triclinic'
loop_
_space_group_symop_operation_xyz
x,y,z
-x,-y,-z
loop_
_atom_site_type_symbol
_atom_site_label
_atom_site_fract_x
_atom_site_fract_y
_atom_site_fract_z
Si Si1 0.581244 0.915669 0.382662
Si Si2 0.311594 0.166959 0.045134
Si Si3 0.118526 0.245723 0.353744
Si Si4 0.964412 0.468959 0.899860
Si Si5 0.331700 0.365961 0.436455
Si Si6 0.759235 0.304783 0.485033
Si Si7 0.187072 0.277745 0.759622
Si Si8 0.382857 0.499802 0.939166
O O1 0.596435 0.755797 0.446076
O O2 0.440480 0.894292 0.359029
O O3 0.508425 0.781308 0.626431
O O4 0.770683 0.200849 0.122997
O O5 0.214420 0.868497 0.317697
O O6 0.513639 0.343419 0.876486
O O7 0.273708 0.234129 0.876235
O O8 0.270743 0.256523 0.072321
O O9 0.180300 0.204865 0.495022
O O10 0.017178 0.308956 0.343295
O O11 0.267926 0.475760 0.057531
O O12 0.000000 0.000000 0.500000
O O13 0.110312 0.517966 0.782839
O O14 0.000000 0.500000 0.000000
O O15 0.277306 0.380655 0.544699
O O16 0.811394 0.514020 0.385544
O O17 0.000000 0.000000 0.000000
O O18 0.500000 0.500000 0.000000
#
# Coordination Sequence:
#
# PCOD8031415 Si02
#       8
#     2   2   2   2   2   2   2   2
#     4  11  24  46  74 103 153 189 240 304 370 436
#     4  11  25  47  74 107 143 189 249 295 367 443
#     4  12  25  43  73 106 148 190 237 307 367 437
#     4  12  28  43  69 113 149 190 247 300 366 447
#     4  11  24  48  74 106 139 197 246 294 374 437
#     4  12  27  50  74 108 146 195 246 306 371 435
#     4  12  28  49  75 103 148 191 246 313 365 436
#     4  11  22  43  74 106 142 192 239 290 370 438
#
# _framework density 22.77853
#
# number of rings (size 3 to 8) (size 9 to 14) (size 15 to 20)
#    0.000    0.500    5.000    4.125    5.250    2.000 
#    2.250    0.000    0.000    0.000    0.000    0.000 
#    0.000    0.000    0.000    0.000    0.000    0.000 
#
# Total GULP energy -198323.878280 kJ/mol
# GULP energy per Si atom -12395.242392 kJ/mol
# Density = 2.272669 g / cm^3
# Si number density = 22.778530 Si / 1000 Ang^3
#
#
#
# Elastic Constant Matrix: (Units=GPa)
#
#
# Indices 1 2 3 4 5 6 
#
# 1 97.4707 49.6209 30.6320 -2.0054 -2.2464 -7.5914
# 2 49.6209 143.8364 45.3967 11.3411 -6.1352 -4.8153
# 3 30.6320 45.3967 85.3411 -17.9060 2.9450 -9.5970
# 4 -2.0054 11.3411 -17.9060 39.8270 1.6411 -10.5710
# 5 -2.2464 -6.1352 2.9450 1.6411 42.9925 3.2134
# 6 -7.5914 -4.8153 -9.5970 -10.5710 3.2134 41.9212
#
#
#
# Elastic Compliance Matrix: (Units=1/GPa)
#
#
# Indices 1 2 3 4 5 6 
#
# 1 0.013072 -0.003849 -0.002199 0.001218 0.000109 0.001720
# 2 -0.003849 0.010775 -0.006181 -0.006870 0.002230 -0.002778
# 3 -0.002199 -0.006181 0.019205 0.012173 -0.003271 0.006609
# 4 0.001218 -0.006870 0.012173 0.035831 -0.003982 0.011559
# 5 0.000109 0.002230 -0.003271 -0.003982 0.024209 -0.003333
# 6 0.001720 -0.002778 0.006609 0.011559 -0.003333 0.028530
#
#
# Mechanical properties :
#
#
# Convention : Reuss Voigt Hill
#
# Bulk Modulus (GPa) = 53.78306 64.21638 58.99972
# Shear Modulus (GPa) = 30.81152 38.34805 34.57978
#
# Velocity S-wave (km/s) = 3.68184 4.10752 3.90049
# Velocity P-wave (km/s) = 6.46043 7.12380 6.80021
#
# Compressibility (1/GPa) = 0.01859321
#
# Stress axis : x y z
#
# Youngs Moduli (GPa) = 76.50098 92.80973 52.06999
#
# Poissons Ratio (x) = 0.35724 0.11451
# Poissons Ratio (y) = 0.29446 0.32183
# Poissons Ratio (z) = 0.16824 0.57363
#
# Static dielectric constant tensor:
#      x y z
#    x 4.284050 0.482980 -0.179120 
#    y 0.482980 1.357370 -0.721470 
#    z -0.179120 -0.721470 4.078600 
# 
# 
# High freq. dielectric constant tensor:
#      x y z
#    x 1.909420 -0.004380 -0.011500 
#    y -0.004380 1.895410 -0.000910 
#    z -0.011500 -0.000910 1.906040 
# 
# From -- ./inp_files/427395.got.cif
#   From: 2010.06.25/outbox.cif.g09.slc.cpg/sg2_214_cif.got.tgz:427395.got - 2010.06.27 13:26:56.
