data_PCOD8031896
_publ_section_title
;
Structure prediction by ZEFSAII (Michael W. Deem and Ramdas Pophale) SiO2 
 PCOD8031896
Probable space group: P -1
;
_chemical_formula_sum "Si O2"
_cell_formula_units_Z 14
_cell_length_a 5.414744
_cell_length_b 23.437350
_cell_length_c 14.534974
_cell_angle_alpha 21.266724
_cell_angle_beta 59.829879
_cell_angle_gamma 64.252833
_cell_volume 575.021833
_symmetry_space_group_name_H-M "P -1"
_symmetry_group_IT_number 2
_symmetry_cell_setting 'triclinic'
loop_
_space_group_symop_operation_xyz
x,y,z
-x,-y,-z
loop_
_atom_site_type_symbol
_atom_site_label
_atom_site_fract_x
_atom_site_fract_y
_atom_site_fract_z
Si Si1 0.800753 0.335900 0.937118
Si Si2 0.896628 0.169908 0.764589
Si Si3 0.573778 0.520500 0.060476
Si Si4 0.042334 0.650565 0.336296
Si Si5 0.599876 0.774311 0.974039
Si Si6 0.916566 0.256480 0.431735
Si Si7 0.288032 0.090399 0.072359
O O1 0.557060 0.211118 0.118877
O O2 0.894578 0.467843 0.640730
O O3 0.076666 0.270242 0.030555
O O4 0.670945 0.416767 0.926690
O O5 0.034159 0.276173 0.661735
O O6 0.009687 0.260274 0.515322
O O7 0.551324 0.143917 0.875048
O O8 0.000000 0.000000 0.000000
O O9 0.849975 0.651871 0.817029
O O10 0.500000 0.500000 0.000000
O O11 0.633196 0.348060 0.344914
O O12 0.386900 0.649865 0.261063
O O13 0.925793 0.769455 0.102248
O O14 0.622946 0.927689 0.808327
O O15 0.866041 0.076424 0.679219
#
# Coordination Sequence:
#
# PCOD8031896 Si02
#       7
#     2   2   2   2   2   2   2
#     4  12  26  44  72 102 144 185 247 286 350 429
#     4  11  23  37  68 110 147 180 224 292 369 426
#     4  11  28  47  73  98 137 195 237 299 349 416
#     4  11  23  40  69 107 145 187 226 296 359 421
#     4  11  26  44  69 105 143 190 233 295 356 420
#     4  11  25  46  68 104 143 181 245 288 359 427
#     4  11  24  42  69 104 146 182 232 292 363 423
#
# _framework density 24.346902
#
# number of rings (size 3 to 8) (size 9 to 14) (size 15 to 20)
#    0.000    0.857    2.857    3.000   14.000    0.000 
#    0.000    1.429    0.000    0.000    0.000    0.000 
#    0.000    0.000    0.000    0.000    0.000    0.000 
#
# Total GULP energy -173493.167428 kJ/mol
# GULP energy per Si atom -12392.369102 kJ/mol
# Density = 2.429149 g / cm^3
# Si number density = 24.346902 Si / 1000 Ang^3
#
#
#
# Elastic Constant Matrix: (Units=GPa)
#
#
# Indices 1 2 3 4 5 6 
#
# 1 128.2247 40.3006 12.5274 -12.5153 7.4328 1.7820
# 2 40.3006 109.9106 3.5720 -4.7063 2.1994 -1.7213
# 3 12.5274 3.5720 72.8118 -14.2003 5.3880 -3.1672
# 4 -12.5153 -4.7063 -14.2003 34.3902 6.6535 -2.7459
# 5 7.4328 2.1994 5.3880 6.6535 31.7908 -3.9309
# 6 1.7820 -1.7213 -3.1672 -2.7459 -3.9309 53.6606
#
#
#
# Elastic Compliance Matrix: (Units=1/GPa)
#
#
# Indices 1 2 3 4 5 6 
#
# 1 0.009339 -0.003224 -0.000668 0.003140 -0.002564 -0.000480
# 2 -0.003224 0.010297 0.000133 0.000326 0.000008 0.000462
# 3 -0.000668 0.000133 0.015538 0.007013 -0.003828 0.001022
# 4 0.003140 0.000326 0.007013 0.035037 -0.009099 0.001446
# 5 -0.002564 0.000008 -0.003828 -0.009099 0.034848 0.001947
# 6 -0.000480 0.000462 0.001022 0.001446 0.001947 0.018943
#
#
# Mechanical properties :
#
#
# Convention : Reuss Voigt Hill
#
# Bulk Modulus (GPa) = 36.15876 47.08303 41.62090
# Shear Modulus (GPa) = 35.52641 40.93811 38.23226
#
# Velocity S-wave (km/s) = 3.82406 4.10500 3.96702
# Velocity P-wave (km/s) = 5.86359 6.46903 6.17374
#
# Compressibility (1/GPa) = 0.02765582
#
# Stress axis : x y z
#
# Youngs Moduli (GPa) = 107.07578 97.11253 64.35883
#
# Poissons Ratio (x) = 0.31314 0.04296
# Poissons Ratio (y) = 0.34526 -0.00854
# Poissons Ratio (z) = 0.07148 -0.01289
#
# Static dielectric constant tensor:
#      x y z
#    x 4.814380 -0.026680 -0.245540 
#    y -0.026680 4.810240 -0.067690 
#    z -0.245540 -0.067690 4.096040 
# 
# 
# High freq. dielectric constant tensor:
#      x y z
#    x 1.979780 0.008630 -0.013380 
#    y 0.008630 2.005280 -0.011860 
#    z -0.013380 -0.011860 1.927320 
# 
# From -- ./inp_files/68879.got.cif
#   From: 2010.06.25/outbox.cif.g09.slc.cpg/sg2_35_cif.got.tgz:68879.got - 2010.06.27 13:26:56.
