data_PCOD8031032
_publ_section_title
;
Structure prediction by ZEFSAII (Michael W. Deem and Ramdas Pophale) SiO2 
 PCOD8031032
Probable space group: P -1
;
_chemical_formula_sum "Si O2"
_cell_formula_units_Z 16
_cell_length_a 9.999076
_cell_length_b 12.771763
_cell_length_c 8.248836
_cell_angle_alpha 70.346280
_cell_angle_beta 63.440954
_cell_angle_gamma 45.731288
_cell_volume 674.245376
_symmetry_space_group_name_H-M "P -1"
_symmetry_group_IT_number 2
_symmetry_cell_setting 'triclinic'
loop_
_space_group_symop_operation_xyz
x,y,z
-x,-y,-z
loop_
_atom_site_type_symbol
_atom_site_label
_atom_site_fract_x
_atom_site_fract_y
_atom_site_fract_z
Si Si1 0.751513 0.510192 0.459480
Si Si2 0.959975 0.304633 0.719627
Si Si3 0.185568 0.727160 0.638176
Si Si4 0.219495 0.133645 0.358773
Si Si5 0.050502 0.506254 0.148229
Si Si6 0.410000 0.818738 0.349300
Si Si7 0.455639 0.235568 0.062620
Si Si8 0.659831 0.329029 0.052576
O O1 0.779007 0.467001 0.656000
O O2 0.691703 0.430261 0.432867
O O3 0.598950 0.681541 0.417112
O O4 0.975583 0.437853 0.329201
O O5 0.047404 0.334414 0.807514
O O6 0.856046 0.246438 0.878454
O O7 0.125691 0.195319 0.556054
O O8 0.230160 0.818926 0.467430
O O9 0.952137 0.811464 0.709612
O O10 0.274127 0.690127 0.788047
O O11 0.358421 0.959494 0.388068
O O12 0.365250 0.162858 0.211416
O O13 0.282688 0.410170 0.066779
O O14 0.000000 0.500000 0.000000
O O15 0.454484 0.819656 0.136195
O O16 0.605823 0.224743 0.108370
O O17 0.500000 0.500000 0.000000
#
# Coordination Sequence:
#
# PCOD8031032 Si02
#       8
#     2   2   2   2   2   2   2   2
#     4  11  22  41  73 107 134 181 235 297 345 409
#     4  11  24  43  74 104 145 180 235 290 358 416
#     4  11  24  46  74 104 141 183 239 291 357 412
#     4  11  27  49  70 102 144 197 231 283 354 433
#     4  12  22  41  72 105 140 180 233 296 356 407
#     4  12  25  45  73 102 143 188 239 288 349 423
#     4  12  24  44  71 102 144 182 240 289 350 415
#     4  12  24  41  72 111 141 175 236 305 349 406
#
# _framework density 23.730235
#
# number of rings (size 3 to 8) (size 9 to 14) (size 15 to 20)
#    0.000    0.500    5.000    5.250    0.000    0.000 
#    0.000    5.000    0.000    0.000    0.000    0.000 
#    0.000    0.000    0.000    0.000    0.000    0.000 
#
# Total GULP energy -198227.330732 kJ/mol
# GULP energy per Si atom -12389.208171 kJ/mol
# Density = 2.367622 g / cm^3
# Si number density = 23.730235 Si / 1000 Ang^3
#
#
#
# Elastic Constant Matrix: (Units=GPa)
#
#
# Indices 1 2 3 4 5 6 
#
# 1 142.3603 49.8941 77.6776 -2.2559 -5.4820 36.5191
# 2 49.8941 125.9946 59.2819 8.2609 6.3124 23.9324
# 3 77.6776 59.2819 159.3523 13.4737 -14.5214 23.7642
# 4 -2.2559 8.2609 13.4737 28.2588 14.7623 2.7819
# 5 -5.4820 6.3124 -14.5214 14.7623 50.8518 -10.1222
# 6 36.5191 23.9324 23.7642 2.7819 -10.1222 31.0967
#
#
#
# Elastic Compliance Matrix: (Units=1/GPa)
#
#
# Indices 1 2 3 4 5 6 
#
# 1 0.013718 -0.000424 -0.005597 0.007938 -0.005136 -0.013888
# 2 -0.000424 0.011141 -0.003374 0.001146 -0.004106 -0.006936
# 3 -0.005597 -0.003374 0.010982 -0.008181 0.006017 0.003468
# 4 0.007938 0.001146 -0.008181 0.051209 -0.019447 -0.014863
# 5 -0.005136 -0.004106 0.006017 -0.019447 0.030202 0.016164
# 6 -0.013888 -0.006936 0.003468 -0.014863 0.016164 0.057746
#
#
# Mechanical properties :
#
#
# Convention : Reuss Voigt Hill
#
# Bulk Modulus (GPa) = 58.65398 89.04603 73.85000
# Shear Modulus (GPa) = 25.06622 38.09836 31.58229
#
# Velocity S-wave (km/s) = 3.25360 4.01119 3.65209
# Velocity P-wave (km/s) = 6.23580 7.68496 6.99799
#
# Compressibility (1/GPa) = 0.01704914
#
# Stress axis : x y z
#
# Youngs Moduli (GPa) = 72.89892 89.76258 91.05812
#
# Poissons Ratio (x) = 0.03805 0.50967
# Poissons Ratio (y) = 0.03090 0.30727
# Poissons Ratio (z) = 0.40803 0.30290
#
# Static dielectric constant tensor:
#      x y z
#    x 4.314130 0.150020 -0.092420 
#    y 0.150020 4.286350 -0.361690 
#    z -0.092420 -0.361690 4.997370 
# 
# 
# High freq. dielectric constant tensor:
#      x y z
#    x 1.955960 0.020770 -0.014940 
#    y 0.020770 1.911360 0.009540 
#    z -0.014940 0.009540 1.956950 
# 
# From -- ./inp_files/169310.got.cif
#   From: 2010.06.25/outbox.cif.g09.slc.cpg/sg2_85_cif.got.tgz:169310.got - 2010.06.27 13:26:56.
