data_PCOD8031731
_publ_section_title
;
Structure prediction by ZEFSAII (Michael W. Deem and Ramdas Pophale) SiO2 
 PCOD8031731
Probable space group: P -1
;
_chemical_formula_sum "Si O2"
_cell_formula_units_Z 16
_cell_length_a 9.116492
_cell_length_b 15.092655
_cell_length_c 15.640865
_cell_angle_alpha 152.555497
_cell_angle_beta 112.720930
_cell_angle_gamma 85.710153
_cell_volume 710.245648
_symmetry_space_group_name_H-M "P -1"
_symmetry_group_IT_number 2
_symmetry_cell_setting 'triclinic'
loop_
_space_group_symop_operation_xyz
x,y,z
-x,-y,-z
loop_
_atom_site_type_symbol
_atom_site_label
_atom_site_fract_x
_atom_site_fract_y
_atom_site_fract_z
Si Si1 0.650332 0.484019 0.574908
Si Si2 0.038879 0.022407 0.428674
Si Si3 0.584474 0.721741 0.495950
Si Si4 0.018545 0.975468 0.882523
Si Si5 0.620124 0.804716 0.064314
Si Si6 0.227353 0.553286 0.863326
Si Si7 0.866034 0.281656 0.418027
Si Si8 0.670470 0.055765 0.650742
O O1 0.500000 0.500000 0.500000
O O2 0.532172 0.280775 0.449875
O O3 0.764193 0.409159 0.478168
O O4 0.809593 0.752927 0.883835
O O5 0.185365 0.306131 0.673654
O O6 0.154659 0.916255 0.339901
O O7 0.000000 0.000000 0.500000
O O8 0.818306 0.856442 0.193466
O O9 0.823436 0.890359 0.712687
O O10 0.553276 0.828384 0.497144
O O11 0.503987 0.445218 0.231638
O O12 0.072868 0.793851 0.717566
O O13 0.000000 0.000000 0.000000
O O14 0.692561 0.035062 0.219488
O O15 0.461254 0.758830 0.060718
O O16 0.064659 0.481791 0.691613
O O17 0.208105 0.681696 0.048977
O O18 0.500000 0.000000 0.500000
#
# Coordination Sequence:
#
# PCOD8031731 Si02
#       8
#     2   2   2   2   2   2   2   2
#     4  12  27  47  72 107 147 190 243 303 366 438
#     4  11  26  44  69 103 146 186 242 307 356 429
#     4  12  24  48  73 103 150 187 241 312 358 431
#     4  12  25  48  72 108 146 190 245 306 371 431
#     4  11  22  45  75  99 139 193 237 295 371 421
#     4  11  24  46  71 104 142 186 241 299 365 429
#     4  11  25  44  75 105 141 191 242 293 372 441
#     4  12  27  46  74 109 146 195 243 296 370 437
#
# _framework density 22.527418000000001
#
# number of rings (size 3 to 8) (size 9 to 14) (size 15 to 20)
#    0.000    0.500    5.000    3.000    3.500    3.500 
#    0.000    0.000    0.000    0.000    0.000    0.000 
#    0.000    0.000    0.000    0.000    0.000    0.000 
#
# Total GULP energy -198421.185564 kJ/mol
# GULP energy per Si atom -12401.324098 kJ/mol
# Density = 2.247614 g / cm^3
# Si number density = 22.527418 Si / 1000 Ang^3
#
#
#
# Elastic Constant Matrix: (Units=GPa)
#
#
# Indices 1 2 3 4 5 6 
#
# 1 179.1024 61.3789 70.5363 -14.1515 -13.7833 -4.4949
# 2 61.3789 109.7479 32.1001 -18.9226 9.2455 -1.2410
# 3 70.5363 32.1001 144.3861 -11.8931 3.2271 -9.0314
# 4 -14.1515 -18.9226 -11.8931 23.9727 11.6890 -0.4059
# 5 -13.7833 9.2455 3.2271 11.6890 45.3112 2.5012
# 6 -4.4949 -1.2410 -9.0314 -0.4059 2.5012 40.9662
#
#
#
# Elastic Compliance Matrix: (Units=1/GPa)
#
#
# Indices 1 2 3 4 5 6 
#
# 1 0.008718 -0.004650 -0.003547 -0.002487 0.004510 -0.000266
# 2 -0.004650 0.014437 0.000302 0.012540 -0.007649 0.000585
# 3 -0.003547 0.000302 0.009115 0.004141 -0.002960 0.001851
# 4 -0.002487 0.012540 0.004141 0.061866 -0.019727 0.002837
# 5 0.004510 -0.007649 -0.002960 -0.019727 0.030437 -0.002443
# 6 -0.000266 0.000585 0.001851 0.002837 -0.002443 0.024984
#
#
# Mechanical properties :
#
#
# Convention : Reuss Voigt Hill
#
# Bulk Modulus (GPa) = 60.68003 84.58525 72.63264
# Shear Modulus (GPa) = 29.26724 39.99809 34.63266
#
# Velocity S-wave (km/s) = 3.60833 4.21827 3.92517
# Velocity P-wave (km/s) = 6.65993 7.83290 7.27011
#
# Compressibility (1/GPa) = 0.01647989
#
# Stress axis : x y z
#
# Youngs Moduli (GPa) = 114.70716 69.26616 109.71224
#
# Poissons Ratio (x) = 0.32208 0.38920
# Poissons Ratio (y) = 0.53337 -0.03318
# Poissons Ratio (z) = 0.40692 -0.02095
#
# Static dielectric constant tensor:
#      x y z
#    x 4.432840 0.207510 0.187930 
#    y 0.207510 3.894650 0.175000 
#    z 0.187930 0.175000 4.643420 
# 
# 
# High freq. dielectric constant tensor:
#      x y z
#    x 1.907840 0.008280 0.000090 
#    y 0.008280 1.877700 0.003650 
#    z 0.000090 0.003650 1.902060 
# 
# From -- ./inp_files/505922.got.cif
#   From: 2010.06.25/outbox.cif.g09.slc.cpg/sg2_253_cif.got.tgz:505922.got - 2010.06.27 13:26:56.
