data_PCOD8031480
_publ_section_title
;
Structure prediction by ZEFSAII (Michael W. Deem and Ramdas Pophale) SiO2 
 PCOD8031480
Probable space group: P -1
;
_chemical_formula_sum "Si O2"
_cell_formula_units_Z 16
_cell_length_a 11.547514
_cell_length_b 12.248474
_cell_length_c 11.861263
_cell_angle_alpha 104.699886
_cell_angle_beta 120.554745
_cell_angle_gamma 125.345188
_cell_volume 737.517649
_symmetry_space_group_name_H-M "P -1"
_symmetry_group_IT_number 2
_symmetry_cell_setting 'triclinic'
loop_
_space_group_symop_operation_xyz
x,y,z
-x,-y,-z
loop_
_atom_site_type_symbol
_atom_site_label
_atom_site_fract_x
_atom_site_fract_y
_atom_site_fract_z
Si Si1 0.420202 0.048102 0.232378
Si Si2 0.492130 0.859267 0.456796
Si Si3 0.872906 0.966415 0.259995
Si Si4 0.293106 0.404591 0.455963
Si Si5 0.470341 0.686795 0.801916
Si Si6 0.105239 0.912372 0.460463
Si Si7 0.980210 0.590333 0.814030
Si Si8 0.001969 0.599675 0.381030
O O1 0.396333 0.094900 0.352986
O O2 0.362697 0.100279 0.123581
O O3 0.699102 0.193972 0.387882
O O4 0.213537 0.802217 0.058518
O O5 0.637210 0.908196 0.437468
O O6 0.211445 0.605412 0.244026
O O7 0.500000 0.000000 0.500000
O O8 0.094733 0.168666 0.339293
O O9 0.929040 0.883169 0.314521
O O10 0.831956 0.021860 0.359257
O O11 0.609187 0.763364 0.008797
O O12 0.500000 0.500000 0.500000
O O13 0.448947 0.559191 0.682866
O O14 0.149782 0.405078 0.323891
O O15 0.181696 0.528449 0.634569
O O16 0.960433 0.689406 0.318898
O O17 0.089714 0.571488 0.782356
#
# Coordination Sequence:
#
# PCOD8031480 Si02
#       8
#     2   2   2   2   2   2   2   2
#     4  11  24  42  71 109 137 176 233 288 353 407
#     4  11  22  44  68  99 146 177 223 288 338 417
#     4  11  27  46  73  98 141 188 233 285 340 422
#     4  12  25  46  71 102 144 179 229 287 350 413
#     4  12  25  45  73 106 136 179 236 290 352 400
#     4  11  24  50  66 100 146 186 233 279 341 415
#     4  11  24  43  71 106 137 186 227 287 356 400
#     4  11  24  43  72  99 146 178 227 298 335 415
#
# _framework density 21.694396000000001
#
# number of rings (size 3 to 8) (size 9 to 14) (size 15 to 20)
#    0.000    0.750    7.500    1.125    1.750    3.000 
#    2.250    0.000    0.000    0.000    0.000    0.000 
#    0.000    0.000    0.000    0.000    0.000    0.000 
#
# Total GULP energy -198383.261898 kJ/mol
# GULP energy per Si atom -12398.953869 kJ/mol
# Density = 2.164502 g / cm^3
# Si number density = 21.694396 Si / 1000 Ang^3
#
#
#
# Elastic Constant Matrix: (Units=GPa)
#
#
# Indices 1 2 3 4 5 6 
#
# 1 135.2186 30.6574 39.1678 -0.2133 -11.1714 22.6611
# 2 30.6574 100.3367 27.6162 9.0569 -1.0945 6.4800
# 3 39.1678 27.6162 125.8464 15.4132 -12.0438 11.8060
# 4 -0.2133 9.0569 15.4132 35.7440 -5.5037 -1.7653
# 5 -11.1714 -1.0945 -12.0438 -5.5037 16.1640 0.6647
# 6 22.6611 6.4800 11.8060 -1.7653 0.6647 49.5746
#
#
#
# Elastic Compliance Matrix: (Units=1/GPa)
#
#
# Indices 1 2 3 4 5 6 
#
# 1 0.009553 -0.002314 -0.001818 0.002168 0.005979 -0.003634
# 2 -0.002314 0.011358 -0.001734 -0.002610 -0.003009 -0.000066
# 3 -0.001818 -0.001734 0.009893 -0.003142 0.004989 -0.001477
# 4 0.002168 -0.002610 -0.003142 0.031550 0.009678 0.001092
# 5 0.005979 -0.003009 0.004989 0.009678 0.072978 -0.004162
# 6 -0.003634 -0.000066 -0.001477 0.001092 -0.004162 0.022288
#
#
# Mechanical properties :
#
#
# Convention : Reuss Voigt Hill
#
# Bulk Modulus (GPa) = 52.43310 61.80937 57.12124
# Shear Modulus (GPa) = 28.45581 37.89388 33.17484
#
# Velocity S-wave (km/s) = 3.62562 4.18390 3.91473
# Velocity P-wave (km/s) = 6.46129 7.20367 6.84256
#
# Compressibility (1/GPa) = 0.01907192
#
# Stress axis : x y z
#
# Youngs Moduli (GPa) = 104.67685 88.04385 101.07768
#
# Poissons Ratio (x) = 0.20377 0.18374
# Poissons Ratio (y) = 0.24226 0.17528
# Poissons Ratio (z) = 0.19028 0.15268
#
# Static dielectric constant tensor:
#      x y z
#    x 4.039730 0.056050 -0.127850 
#    y 0.056050 4.319440 0.091640 
#    z -0.127850 0.091640 3.682440 
# 
# 
# High freq. dielectric constant tensor:
#      x y z
#    x 1.852620 0.001350 -0.007850 
#    y 0.001350 1.876170 0.009560 
#    z -0.007850 0.009560 1.835700 
# 
# From -- ./inp_files/428431.got.cif
#   From: 2010.06.25/outbox.cif.g09.slc.cpg/sg2_215_cif.got.tgz:428431.got - 2010.06.27 13:26:56.
