data_PCOD8031908
_publ_section_title
;
Structure prediction by ZEFSAII (Michael W. Deem and Ramdas Pophale) SiO2 
 PCOD8031908
Probable space group: P -1
;
_chemical_formula_sum "Si O2"
_cell_formula_units_Z 16
_cell_length_a 8.194267
_cell_length_b 9.783561
_cell_length_c 24.286789
_cell_angle_alpha 46.129964
_cell_angle_beta 46.930182
_cell_angle_gamma 31.688308
_cell_volume 714.667577
_symmetry_space_group_name_H-M "P -1"
_symmetry_group_IT_number 2
_symmetry_cell_setting 'triclinic'
loop_
_space_group_symop_operation_xyz
x,y,z
-x,-y,-z
loop_
_atom_site_type_symbol
_atom_site_label
_atom_site_fract_x
_atom_site_fract_y
_atom_site_fract_z
Si Si1 0.170468 0.209621 0.286123
Si Si2 0.756150 0.230171 0.781258
Si Si3 0.389050 0.881364 0.437303
Si Si4 0.878425 0.313030 0.502582
Si Si5 0.701070 0.489839 0.000004
Si Si6 0.577503 0.308023 0.182149
Si Si7 0.427460 0.049751 0.939287
Si Si8 0.403509 0.702732 0.321543
O O1 0.319496 0.326308 0.207220
O O2 0.786776 0.454180 0.308715
O O3 0.321202 0.054451 0.352729
O O4 0.288964 0.991303 0.272930
O O5 0.581177 0.490511 0.786238
O O6 0.591523 0.127010 0.851686
O O7 0.717264 0.312500 0.703630
O O8 0.125175 0.995992 0.779618
O O9 0.766085 0.599869 0.437510
O O10 0.248846 0.752755 0.497774
O O11 0.260500 0.062782 0.472254
O O12 0.776996 0.309103 0.587340
O O13 0.700923 0.387772 0.087801
O O14 0.500000 0.500000 0.000000
O O15 0.051163 0.292347 0.949054
O O16 0.558746 0.784227 0.954207
O O17 0.500000 0.000000 0.000000
#
# Coordination Sequence:
#
# PCOD8031908 Si02
#       8
#     2   2   2   2   2   2   2   2
#     4  11  23  38  62  91 125 154 205 250 303 353
#     4  12  26  42  65  86 125 167 200 242 302 362
#     4   9  16  30  55  86 115 155 187 250 301 344
#     4   9  16  30  55  85 119 144 200 247 295 341
#     4  12  26  42  67  95 121 154 200 259 303 344
#     4  12  25  44  60  89 126 165 194 244 310 368
#     4  12  23  45  67  90 119 161 209 241 291 370
#     4  11  23  38  61  94 118 159 203 256 291 351
#
# _framework density 22.388030000000001
#
# number of rings (size 3 to 8) (size 9 to 14) (size 15 to 20)
#    0.000    1.000    2.500    6.750    3.500    0.000 
#    0.000    0.000    0.000    4.500    0.000    0.000 
#    0.000    0.000    0.000    0.000    0.000    0.000 
#
# Total GULP energy -198384.044961 kJ/mol
# GULP energy per Si atom -12399.002810 kJ/mol
# Density = 2.233707 g / cm^3
# Si number density = 22.388030 Si / 1000 Ang^3
#
#
#
# Elastic Constant Matrix: (Units=GPa)
#
#
# Indices 1 2 3 4 5 6 
#
# 1 68.6213 24.6454 -2.3290 11.8516 12.7575 1.8718
# 2 24.6454 177.0962 13.6508 13.9686 7.3914 0.5570
# 3 -2.3290 13.6508 35.1356 6.3844 17.7266 -3.2357
# 4 11.8516 13.9686 6.3844 29.2568 6.6923 2.0624
# 5 12.7575 7.3914 17.7266 6.6923 29.8795 2.2080
# 6 1.8718 0.5570 -3.2357 2.0624 2.2080 37.9953
#
#
#
# Elastic Compliance Matrix: (Units=1/GPa)
#
#
# Indices 1 2 3 4 5 6 
#
# 1 0.018924 -0.002393 0.009255 -0.005925 -0.011717 0.000894
# 2 -0.002393 0.006290 -0.003208 -0.001721 0.001774 -0.000257
# 3 0.009255 -0.003208 0.047187 -0.006001 -0.030229 0.005692
# 4 -0.005925 -0.001721 -0.006001 0.039356 -0.002136 -0.002206
# 5 -0.011717 0.001774 -0.030229 -0.002136 0.056829 -0.005210
# 6 0.000894 -0.000257 0.005692 -0.002206 -0.005210 0.027186
#
#
# Mechanical properties :
#
#
# Convention : Reuss Voigt Hill
#
# Bulk Modulus (GPa) = 12.54601 39.19861 25.87231
# Shear Modulus (GPa) = 23.25231 35.75206 29.50218
#
# Velocity S-wave (km/s) = 3.22623 4.00049 3.63404
# Velocity P-wave (km/s) = 4.41522 6.23581 5.40275
#
# Compressibility (1/GPa) = 0.07970661
#
# Stress axis : x y z
#
# Youngs Moduli (GPa) = 52.84363 158.99491 21.19250
#
# Poissons Ratio (x) = 0.38052 -0.19613
# Poissons Ratio (y) = 0.12647 0.06799
# Poissons Ratio (z) = -0.48905 0.51006
#
# Static dielectric constant tensor:
#      x y z
#    x 3.764140 -0.159630 -0.191650 
#    y -0.159630 4.287870 -0.502050 
#    z -0.191650 -0.502050 2.945270 
# 
# 
# High freq. dielectric constant tensor:
#      x y z
#    x 1.853900 -0.000780 0.005810 
#    y -0.000780 1.915640 0.002900 
#    z 0.005810 0.002900 1.877840 
# 
# From -- ./inp_files/606662.got.cif
#   From: 2010.06.25/outbox.cif.g09.slc.cpg/sg2_304_cif.got.tgz:606662.got - 2010.06.27 13:26:56.
