data_PCOD8031657
_publ_section_title
;
Structure prediction by ZEFSAII (Michael W. Deem and Ramdas Pophale) SiO2 
 PCOD8031657
Probable space group: P -1
;
_chemical_formula_sum "Si O2"
_cell_formula_units_Z 16
_cell_length_a 9.429598
_cell_length_b 9.299210
_cell_length_c 15.915118
_cell_angle_alpha 108.320119
_cell_angle_beta 143.344527
_cell_angle_gamma 63.702993
_cell_volume 744.725662
_symmetry_space_group_name_H-M "P -1"
_symmetry_group_IT_number 2
_symmetry_cell_setting 'triclinic'
loop_
_space_group_symop_operation_xyz
x,y,z
-x,-y,-z
loop_
_atom_site_type_symbol
_atom_site_label
_atom_site_fract_x
_atom_site_fract_y
_atom_site_fract_z
Si Si1 0.317976 0.506706 0.992787
Si Si2 0.795478 0.485940 0.464380
Si Si3 0.582953 0.232237 0.585647
Si Si4 0.138056 0.121412 0.309864
Si Si5 0.160075 0.857511 0.990911
Si Si6 0.958073 0.365027 0.704175
Si Si7 0.589162 0.955399 0.129097
Si Si8 0.308538 0.736725 0.751366
O O1 0.254193 0.678186 0.043409
O O2 0.063528 0.476024 0.834810
O O3 0.500000 0.500000 0.000000
O O4 0.465903 0.368504 0.101782
O O5 0.568145 0.656760 0.389377
O O6 0.918310 0.440349 0.606236
O O7 0.695216 0.350135 0.354452
O O8 0.000000 0.500000 0.500000
O O9 0.385838 0.172055 0.428420
O O10 0.694464 0.348794 0.606816
O O11 0.798527 0.071704 0.690628
O O12 0.993997 0.175312 0.165699
O O13 0.962038 0.212016 0.320256
O O14 0.392096 0.904833 0.079340
O O15 0.000000 0.000000 0.000000
O O16 0.149885 0.186165 0.765428
O O17 0.627790 0.108178 0.218828
O O18 0.500000 0.000000 0.000000
#
# Coordination Sequence:
#
# PCOD8031657 Si02
#       8
#     2   2   2   2   2   2   2   2
#     4  12  22  44  75  99 135 189 230 277 351 421
#     4  12  27  43  68 105 142 181 234 290 344 412
#     4  11  25  43  70  99 139 184 230 285 349 414
#     4  11  22  45  69  94 143 188 226 278 357 419
#     4  12  27  42  70 106 139 176 237 290 344 405
#     4  12  24  44  77  99 140 185 236 283 350 415
#     4  12  22  46  73 102 135 187 231 284 345 415
#     4  12  24  44  73 103 136 184 235 283 345 416
#
# _framework density 21.484421000000001
#
# number of rings (size 3 to 8) (size 9 to 14) (size 15 to 20)
#    0.000    0.250    7.500    1.875    1.750    2.500 
#    0.000    1.250    0.000    0.000    0.000    0.000 
#    0.000    0.000    0.000    0.000    0.000    0.000 
#
# Total GULP energy -198385.427680 kJ/mol
# GULP energy per Si atom -12399.089230 kJ/mol
# Density = 2.143552 g / cm^3
# Si number density = 21.484421 Si / 1000 Ang^3
#
#
#
# Elastic Constant Matrix: (Units=GPa)
#
#
# Indices 1 2 3 4 5 6 
#
# 1 95.2953 52.9272 30.3948 6.5175 14.5976 2.5050
# 2 52.9272 154.2252 23.5996 12.9297 7.3009 -11.7718
# 3 30.3948 23.5996 73.8151 10.4015 9.2570 4.2116
# 4 6.5175 12.9297 10.4015 43.0377 6.9360 6.6047
# 5 14.5976 7.3009 9.2570 6.9360 24.8387 10.2815
# 6 2.5050 -11.7718 4.2116 6.6047 10.2815 47.1571
#
#
#
# Elastic Compliance Matrix: (Units=1/GPa)
#
#
# Indices 1 2 3 4 5 6 
#
# 1 0.015151 -0.004378 -0.004193 0.001087 -0.006226 -0.000318
# 2 -0.004378 0.008497 -0.000750 -0.002100 -0.000200 0.002759
# 3 -0.004193 -0.000750 0.016211 -0.002588 -0.002418 -0.000523
# 4 0.001087 -0.002100 -0.002588 0.025572 -0.005023 -0.002837
# 5 -0.006226 -0.000200 -0.002418 -0.005023 0.050327 -0.009772
# 6 -0.000318 0.002759 -0.000523 -0.002837 -0.009772 0.024486
#
#
# Mechanical properties :
#
#
# Convention : Reuss Voigt Hill
#
# Bulk Modulus (GPa) = 47.13334 59.68655 53.40995
# Shear Modulus (GPa) = 30.12786 37.43431 33.78108
#
# Velocity S-wave (km/s) = 3.74881 4.17873 3.96959
# Velocity P-wave (km/s) = 6.38154 7.15010 6.77673
#
# Compressibility (1/GPa) = 0.02121640
#
# Stress axis : x y z
#
# Youngs Moduli (GPa) = 66.00395 117.68178 61.68478
#
# Poissons Ratio (x) = 0.51526 0.25864
# Poissons Ratio (y) = 0.28899 0.04628
# Poissons Ratio (z) = 0.27675 0.08829
#
# Static dielectric constant tensor:
#      x y z
#    x 3.157040 -0.192340 0.660210 
#    y -0.192340 4.641670 0.010530 
#    z 0.660210 0.010530 4.402050 
# 
# 
# High freq. dielectric constant tensor:
#      x y z
#    x 1.822760 0.001720 0.021670 
#    y 0.001720 1.877620 0.001800 
#    z 0.021670 0.001800 1.845890 
# 
# From -- ./inp_files/185359.got.cif
#   From: 2010.06.25/outbox.cif.g09.slc.cpg/sg2_93_cif.got.tgz:185359.got - 2010.06.27 13:26:56.
