data_PCOD8032424
_publ_section_title
;
Structure prediction by ZEFSAII (Michael W. Deem and Ramdas Pophale) SiO2 
 PCOD8032424
Probable space group: P -1
;
_chemical_formula_sum "Si O2"
_cell_formula_units_Z 16
_cell_length_a 9.637915
_cell_length_b 14.643818
_cell_length_c 10.948139
_cell_angle_alpha 67.311130
_cell_angle_beta 114.262476
_cell_angle_gamma 58.121239
_cell_volume 750.691281
_symmetry_space_group_name_H-M "P -1"
_symmetry_group_IT_number 2
_symmetry_cell_setting 'triclinic'
loop_
_space_group_symop_operation_xyz
x,y,z
-x,-y,-z
loop_
_atom_site_type_symbol
_atom_site_label
_atom_site_fract_x
_atom_site_fract_y
_atom_site_fract_z
Si Si1 0.087079 0.216651 0.789967
Si Si2 0.140711 0.574564 0.162668
Si Si3 0.445830 0.349181 0.871567
Si Si4 0.127164 0.834383 0.683767
Si Si5 0.324227 0.628942 0.620484
Si Si6 0.186036 0.166620 0.307262
Si Si7 0.554433 0.828711 0.203427
Si Si8 0.904052 0.610304 0.662887
O O1 0.206391 0.244444 0.742502
O O2 0.895349 0.361586 0.748731
O O3 0.920559 0.233833 0.631495
O O4 0.315828 0.031458 0.030879
O O5 0.441879 0.423698 0.307826
O O6 0.091822 0.483168 0.193824
O O7 0.935264 0.737474 0.915281
O O8 0.441328 0.456499 0.747387
O O9 0.551962 0.210003 0.888516
O O10 0.156492 0.469271 0.741832
O O11 0.626571 0.259099 0.101750
O O12 0.227315 0.708750 0.678797
O O13 0.917928 0.887095 0.665546
O O14 0.000000 0.000000 0.500000
O O15 0.084742 0.295075 0.306603
O O16 0.500000 0.000000 0.500000
O O17 0.646901 0.745322 0.413776
#
# Coordination Sequence:
#
# PCOD8032424 Si02
#       8
#     2   2   2   2   2   2   2   2
#     4  11  23  43  67 100 137 174 217 277 335 390
#     4  12  26  43  67 103 137 173 220 277 336 389
#     4  12  22  43  71  96 131 174 228 271 319 397
#     4  12  27  45  70  99 132 180 223 271 335 397
#     4  12  24  46  69  96 135 176 225 277 324 393
#     4  12  27  46  67 100 139 173 218 279 335 396
#     4  11  23  42  70 100 131 176 226 270 329 400
#     4  12  24  44  71  99 132 179 226 271 328 394
#
# _framework density 21.313687000000002
#
# number of rings (size 3 to 8) (size 9 to 14) (size 15 to 20)
#    0.000    0.250    5.000    4.500    3.500    2.000 
#    0.000    1.250    0.000    0.000    0.000    0.000 
#    0.000    0.000    0.000    0.000    0.000    0.000 
#
# Total GULP energy -198522.346802 kJ/mol
# GULP energy per Si atom -12407.646675 kJ/mol
# Density = 2.126518 g / cm^3
# Si number density = 21.313687 Si / 1000 Ang^3
#
#
#
# Elastic Constant Matrix: (Units=GPa)
#
#
# Indices 1 2 3 4 5 6 
#
# 1 75.7044 17.4642 28.6591 -11.6189 -22.5149 12.9332
# 2 17.4642 67.9223 11.0168 6.8046 -1.6459 10.0467
# 3 28.6591 11.0168 125.7421 12.4094 -7.1982 5.1137
# 4 -11.6189 6.8046 12.4094 37.3070 3.5921 -0.4323
# 5 -22.5149 -1.6459 -7.1982 3.5921 33.5032 -3.9657
# 6 12.9332 10.0467 5.1137 -0.4323 -3.9657 33.5523
#
#
#
# Elastic Compliance Matrix: (Units=1/GPa)
#
#
# Indices 1 2 3 4 5 6 
#
# 1 0.021459 -0.004600 -0.004385 0.007784 0.011859 -0.004724
# 2 -0.004600 0.016812 0.000022 -0.004334 -0.002220 -0.003583
# 3 -0.004385 0.000022 0.009357 -0.004438 -0.000442 0.000148
# 4 0.007784 -0.004334 -0.004438 0.031429 0.000630 -0.000547
# 5 0.011859 -0.002220 -0.000442 0.000630 0.037619 0.000615
# 6 -0.004724 -0.003583 0.000148 -0.000547 0.000615 0.032741
#
#
# Mechanical properties :
#
#
# Convention : Reuss Voigt Hill
#
# Bulk Modulus (GPa) = 33.66826 42.62767 38.14796
# Shear Modulus (GPa) = 28.20967 35.02109 31.61538
#
# Velocity S-wave (km/s) = 3.64201 4.05795 3.85559
# Velocity P-wave (km/s) = 5.78934 6.48070 6.14475
#
# Compressibility (1/GPa) = 0.02970156
#
# Stress axis : x y z
#
# Youngs Moduli (GPa) = 46.59990 59.48046 106.87228
#
# Poissons Ratio (x) = 0.27361 0.46865
# Poissons Ratio (y) = 0.21436 -0.00233
# Poissons Ratio (z) = 0.20435 -0.00130
#
# Static dielectric constant tensor:
#      x y z
#    x 3.917860 0.130230 0.035500 
#    y 0.130230 3.827800 0.086230 
#    z 0.035500 0.086230 4.166030 
# 
# 
# High freq. dielectric constant tensor:
#      x y z
#    x 1.837020 0.007440 -0.002830 
#    y 0.007440 1.840800 0.004470 
#    z -0.002830 0.004470 1.850240 
# 
# From -- ./inp_files/205270.got.cif
#   From: 2010.06.25/outbox.cif.g09.slc.cpg/sg2_103_cif.got.tgz:205270.got - 2010.06.27 13:26:56.
