data_PCOD8032540
_publ_section_title
;
Structure prediction by ZEFSAII (Michael W. Deem and Ramdas Pophale) SiO2 
 PCOD8032540
Probable space group: P -1
;
_chemical_formula_sum "Si O2"
_cell_formula_units_Z 16
_cell_length_a 12.201164
_cell_length_b 9.401567
_cell_length_c 13.975892
_cell_angle_alpha 48.559819
_cell_angle_beta 138.039886
_cell_angle_gamma 131.115836
_cell_volume 758.518809
_symmetry_space_group_name_H-M "P -1"
_symmetry_group_IT_number 2
_symmetry_cell_setting 'triclinic'
loop_
_space_group_symop_operation_xyz
x,y,z
-x,-y,-z
loop_
_atom_site_type_symbol
_atom_site_label
_atom_site_fract_x
_atom_site_fract_y
_atom_site_fract_z
Si Si1 0.503247 0.528583 0.602958
Si Si2 0.201268 0.020005 0.121461
Si Si3 0.836872 0.419487 0.677528
Si Si4 0.620976 0.680327 0.057102
Si Si5 0.197783 0.105877 0.290043
Si Si6 0.978759 0.333555 0.136805
Si Si7 0.582641 0.235576 0.940141
Si Si8 0.982209 0.655295 0.345228
O O1 0.500000 0.500000 0.500000
O O2 0.310380 0.528698 0.503762
O O3 0.637887 0.752533 0.608412
O O4 0.550206 0.352682 0.770686
O O5 0.261930 0.143297 0.204663
O O6 0.234504 0.808193 0.228710
O O7 0.309996 0.130076 0.052471
O O8 0.000000 0.000000 0.000000
O O9 0.895942 0.579933 0.730175
O O10 0.997421 0.428504 0.709336
O O11 0.490596 0.684645 0.053254
O O12 0.788446 0.656888 0.226832
O O13 0.500000 0.500000 0.000000
O O14 0.029448 0.161257 0.190022
O O15 0.135582 0.865954 0.373183
O O16 0.782605 0.263093 0.075118
O O17 0.000000 0.500000 0.000000
O O18 0.500000 0.000000 0.000000
O O19 0.000000 0.500000 0.500000
#
# Coordination Sequence:
#
# PCOD8032540 Si02
#       8
#     2   2   2   2   2   2   2   2
#     4  12  25  46  69 108 142 186 241 297 348 428
#     4  11  23  42  75 102 132 184 244 283 352 431
#     4  11  24  42  71 101 136 182 243 287 348 431
#     4  12  25  43  68 103 143 174 230 304 353 412
#     4  11  23  43  76  99 137 187 244 288 347 429
#     4  12  23  43  75 100 136 189 237 287 354 433
#     4  12  28  44  70 108 145 181 237 302 359 410
#     4  11  25  45  66  97 142 189 228 288 364 424
#
# _framework density 21.093741000000001
#
# number of rings (size 3 to 8) (size 9 to 14) (size 15 to 20)
#    0.000    0.500    5.000    3.750    3.500    3.000 
#    2.250    1.250    0.000    0.000    0.000    0.000 
#    0.000    0.000    0.000    0.000    0.000    0.000 
#
# Total GULP energy -198234.207975 kJ/mol
# GULP energy per Si atom -12389.637998 kJ/mol
# Density = 2.104573 g / cm^3
# Si number density = 21.093741 Si / 1000 Ang^3
#
#
#
# Elastic Constant Matrix: (Units=GPa)
#
#
# Indices 1 2 3 4 5 6 
#
# 1 115.2099 30.0110 31.4218 -2.6917 -6.3726 1.6306
# 2 30.0110 114.0557 54.3171 6.9984 -14.9320 1.9624
# 3 31.4218 54.3171 115.4300 -1.3664 -4.3125 8.7893
# 4 -2.6917 6.9984 -1.3664 38.9923 6.5567 2.8491
# 5 -6.3726 -14.9320 -4.3125 6.5567 43.2972 2.4825
# 6 1.6306 1.9624 8.7893 2.8491 2.4825 40.2115
#
#
#
# Elastic Compliance Matrix: (Units=1/GPa)
#
#
# Indices 1 2 3 4 5 6 
#
# 1 0.009656 -0.001651 -0.001821 0.000807 0.000548 -0.000004
# 2 -0.001651 0.012460 -0.005350 -0.003252 0.003978 0.000613
# 3 -0.001821 -0.005350 0.011832 0.001593 -0.001044 -0.002300
# 4 0.000807 -0.003252 0.001593 0.027296 -0.004871 -0.001855
# 5 0.000548 0.003978 -0.001044 -0.004871 0.025251 -0.001202
# 6 -0.000004 0.000613 -0.002300 -0.001855 -0.001202 0.025547
#
#
# Mechanical properties :
#
#
# Convention : Reuss Voigt Hill
#
# Bulk Modulus (GPa) = 61.34109 64.02173 62.68141
# Shear Modulus (GPa) = 37.00391 39.76326 38.38358
#
# Velocity S-wave (km/s) = 4.19293 4.34645 4.27038
# Velocity P-wave (km/s) = 7.25150 7.45693 7.35493
#
# Compressibility (1/GPa) = 0.01630229
#
# Stress axis : x y z
#
# Youngs Moduli (GPa) = 103.56427 80.25765 84.51947
#
# Poissons Ratio (x) = 0.13251 0.15393
# Poissons Ratio (y) = 0.17099 0.45220
# Poissons Ratio (z) = 0.18861 0.42940
#
# Static dielectric constant tensor:
#      x y z
#    x 4.409420 -0.400600 -0.112350 
#    y -0.400600 4.077550 0.183820 
#    z -0.112350 0.183820 4.088430 
# 
# 
# High freq. dielectric constant tensor:
#      x y z
#    x 1.848760 -0.005780 0.006390 
#    y -0.005780 1.833400 0.003030 
#    z 0.006390 0.003030 1.824240 
# 
# From -- ./inp_files/515130.got.cif
#   From: 2010.06.25/outbox.cif.g09.slc.cpg/sg2_258_cif.got.tgz:515130.got - 2010.06.27 13:26:56.
