data_PCOD8032912
_publ_section_title
;
Structure prediction by ZEFSAII (Michael W. Deem and Ramdas Pophale) SiO2 
 PCOD8032912
Probable space group: P -1
;
_chemical_formula_sum "Si O2"
_cell_formula_units_Z 14
_cell_length_a 8.195262
_cell_length_b 9.453909
_cell_length_c 8.939845
_cell_angle_alpha 116.412681
_cell_angle_beta 103.865857
_cell_angle_gamma 91.055425
_cell_volume 595.997913
_symmetry_space_group_name_H-M "P -1"
_symmetry_group_IT_number 2
_symmetry_cell_setting 'triclinic'
loop_
_space_group_symop_operation_xyz
x,y,z
-x,-y,-z
loop_
_atom_site_type_symbol
_atom_site_label
_atom_site_fract_x
_atom_site_fract_y
_atom_site_fract_z
Si Si1 0.167476 0.958190 0.439990
Si Si2 0.298103 0.794042 0.906809
Si Si3 0.984048 0.652431 0.171173
Si Si4 0.575076 0.007722 0.233656
Si Si5 0.828041 0.526035 0.381828
Si Si6 0.952843 0.824666 0.968091
Si Si7 0.295928 0.203338 0.344761
O O1 0.155885 0.764875 0.322011
O O2 0.325619 0.026309 0.611723
O O3 0.191755 0.045493 0.326073
O O4 0.000000 0.000000 0.500000
O O5 0.300433 0.940351 0.856450
O O6 0.308157 0.633874 0.739525
O O7 0.120290 0.744912 0.930262
O O8 0.448007 0.847251 0.084767
O O9 0.871338 0.600026 0.263559
O O10 0.904228 0.784129 0.111900
O O11 0.000000 0.500000 0.000000
O O12 0.478481 0.159346 0.319870
O O13 0.708491 0.643427 0.481758
O O14 0.000000 0.500000 0.500000
O O15 0.791729 0.747216 0.802498
O O16 0.000000 0.000000 0.000000
#
# Coordination Sequence:
#
# PCOD8032912 Si02
#       7
#     2   2   2   2   2   2   2
#     4  12  24  44  72 101 135 182 243 286 351 426
#     4  11  23  44  68 101 144 180 236 284 354 409
#     4  12  24  41  73 110 135 180 241 294 350 411
#     4  11  26  43  70 100 140 187 235 293 353 419
#     4  12  24  43  71 109 143 184 235 294 348 418
#     4  12  22  41  74 104 138 184 238 286 344 429
#     4  12  24  43  69 105 140 184 231 292 352 415
#
# _framework density 23.490013999999999
#
# number of rings (size 3 to 8) (size 9 to 14) (size 15 to 20)
#    0.000    0.286    7.143    2.143    0.000    0.571 
#    0.000    2.143    0.000    0.000    0.000    0.000 
#    0.000    0.000    0.000    0.000    0.000    0.000 
#
# Total GULP energy -173436.358684 kJ/mol
# GULP energy per Si atom -12388.311335 kJ/mol
# Density = 2.343655 g / cm^3
# Si number density = 23.490014 Si / 1000 Ang^3
#
#
#
# Elastic Constant Matrix: (Units=GPa)
#
#
# Indices 1 2 3 4 5 6 
#
# 1 65.6104 7.9160 37.0208 -10.0782 13.8101 -4.8521
# 2 7.9160 102.2380 55.4044 2.8312 10.5260 7.2445
# 3 37.0208 55.4044 161.2227 3.4537 16.5800 -8.1101
# 4 -10.0782 2.8312 3.4537 66.3512 2.6658 -14.7828
# 5 13.8101 10.5260 16.5800 2.6658 35.8610 -3.0263
# 6 -4.8521 7.2445 -8.1101 -14.7828 -3.0263 20.8771
#
#
#
# Elastic Compliance Matrix: (Units=1/GPa)
#
#
# Indices 1 2 3 4 5 6 
#
# 1 0.019738 0.000773 -0.004034 0.004553 -0.005869 0.005125
# 2 0.000773 0.013204 -0.004821 -0.001868 -0.002477 -0.007957
# 3 -0.004034 -0.004821 0.009086 0.000092 -0.000885 0.004201
# 4 0.004553 -0.001868 0.000092 0.019278 -0.001398 0.015190
# 5 -0.005869 -0.002477 -0.000885 -0.001398 0.031617 0.002745
# 6 0.005125 -0.007957 0.004201 0.015190 0.002745 0.064637
#
#
# Mechanical properties :
#
#
# Convention : Reuss Voigt Hill
#
# Bulk Modulus (GPa) = 38.66297 58.86150 48.76223
# Shear Modulus (GPa) = 27.42034 39.86652 33.64343
#
# Velocity S-wave (km/s) = 3.42031 4.12414 3.78861
# Velocity P-wave (km/s) = 5.66508 6.91307 6.31995
#
# Compressibility (1/GPa) = 0.02586454
#
# Stress axis : x y z
#
# Youngs Moduli (GPa) = 50.66327 75.73323 110.06050
#
# Poissons Ratio (x) = -0.05854 0.44400
# Poissons Ratio (y) = -0.03916 0.53056
# Poissons Ratio (z) = 0.20438 0.36508
#
# Static dielectric constant tensor:
#      x y z
#    x 3.807630 0.166580 -0.230760 
#    y 0.166580 4.333990 0.104480 
#    z -0.230760 0.104480 4.807950 
# 
# 
# High freq. dielectric constant tensor:
#      x y z
#    x 1.900960 0.011990 -0.015630 
#    y 0.011990 1.927350 0.001180 
#    z -0.015630 0.001180 1.959140 
# 
# From -- ./inp_files/159990.got.cif
#   From: 2010.06.25/outbox.cif.g09.slc.cpg/sg2_80_cif.got.tgz:159990.got - 2010.06.27 13:26:56.
