data_PCOD8032702
_publ_section_title
;
Structure prediction by ZEFSAII (Michael W. Deem and Ramdas Pophale) SiO2 
 PCOD8032702
Probable space group: P -1
;
_chemical_formula_sum "Si O2"
_cell_formula_units_Z 16
_cell_length_a 11.560626
_cell_length_b 12.272299
_cell_length_c 14.920887
_cell_angle_alpha 19.658099
_cell_angle_beta 79.846482
_cell_angle_gamma 80.306267
_cell_volume 700.971005
_symmetry_space_group_name_H-M "P -1"
_symmetry_group_IT_number 2
_symmetry_cell_setting 'triclinic'
loop_
_space_group_symop_operation_xyz
x,y,z
-x,-y,-z
loop_
_atom_site_type_symbol
_atom_site_label
_atom_site_fract_x
_atom_site_fract_y
_atom_site_fract_z
Si Si1 0.595441 0.373534 0.652673
Si Si2 0.395353 0.329777 0.850762
Si Si3 0.690231 0.351466 0.057363
Si Si4 0.155813 0.600722 0.682280
Si Si5 0.124913 0.354456 0.076426
Si Si6 0.206773 0.233250 0.590649
Si Si7 0.490937 0.621744 0.787874
Si Si8 0.947263 0.227077 0.906811
O O1 0.500000 0.500000 0.500000
O O2 0.522344 0.346810 0.774408
O O3 0.705672 0.605934 0.473908
O O4 0.646641 0.041135 0.862444
O O5 0.282718 0.530055 0.672095
O O6 0.416659 0.471997 0.834549
O O7 0.590757 0.467256 0.049458
O O8 0.719645 0.970951 0.335480
O O9 0.804482 0.541746 0.924783
O O10 0.624592 0.474331 0.880430
O O11 0.054086 0.381406 0.826122
O O12 0.121774 0.966969 0.379068
O O13 0.170559 0.509482 0.856656
O O14 0.000000 0.500000 0.000000
O O15 0.132251 0.500347 0.340931
O O16 0.126681 0.981954 0.850608
O O17 0.500000 0.000000 0.500000
O O18 0.000000 0.000000 0.000000
#
# Coordination Sequence:
#
# PCOD8032702 Si02
#       8
#     2   2   2   2   2   2   2   2
#     4  11  27  45  75 105 147 191 238 307 364 431
#     4  11  25  45  72 109 144 191 244 298 365 439
#     4  11  25  42  70 105 145 193 231 300 361 433
#     4  12  26  47  75 103 147 189 244 299 360 433
#     4  12  26  46  71 107 143 191 242 297 362 428
#     4  12  28  48  77 107 148 188 249 296 368 435
#     4  11  23  43  70 104 148 186 241 289 364 436
#     4  12  28  50  75 107 142 196 246 306 360 428
#
# _framework density 22.825481
#
# number of rings (size 3 to 8) (size 9 to 14) (size 15 to 20)
#    0.000    0.500    1.250    6.000   10.500    2.000 
#    0.000    0.000    0.000    0.000    0.000    0.000 
#    0.000    0.000    0.000    0.000    0.000    0.000 
#
# Total GULP energy -198251.177012 kJ/mol
# GULP energy per Si atom -12390.698563 kJ/mol
# Density = 2.277353 g / cm^3
# Si number density = 22.825481 Si / 1000 Ang^3
#
#
#
# Elastic Constant Matrix: (Units=GPa)
#
#
# Indices 1 2 3 4 5 6 
#
# 1 177.6217 42.1394 62.8425 -27.3992 14.2004 22.3629
# 2 42.1394 93.2129 44.6916 -29.6383 7.1251 9.9632
# 3 62.8425 44.6916 146.9537 -20.2165 16.5959 -2.3059
# 4 -27.3992 -29.6383 -20.2165 46.6145 0.9646 2.1383
# 5 14.2004 7.1251 16.5959 0.9646 47.1924 -12.4175
# 6 22.3629 9.9632 -2.3059 2.1383 -12.4175 34.9759
#
#
#
# Elastic Compliance Matrix: (Units=1/GPa)
#
#
# Indices 1 2 3 4 5 6 
#
# 1 0.008411 -0.000221 -0.002694 0.004027 -0.003466 -0.006969
# 2 -0.000221 0.016238 -0.003346 0.009098 -0.003065 -0.006350
# 3 -0.002694 -0.003346 0.009172 0.000160 -0.001161 0.002858
# 4 0.004027 0.009098 0.000160 0.030203 -0.005627 -0.009000
# 5 -0.003466 -0.003065 -0.001161 -0.005627 0.026586 0.012796
# 6 -0.006969 -0.006350 0.002858 -0.009000 0.012796 0.040138
#
#
# Mechanical properties :
#
#
# Convention : Reuss Voigt Hill
#
# Bulk Modulus (GPa) = 46.94570 79.68172 63.31371
# Shear Modulus (GPa) = 33.25164 43.63089 38.44127
#
# Velocity S-wave (km/s) = 3.82092 4.37681 4.10828
# Velocity P-wave (km/s) = 6.33070 7.77990 7.09241
#
# Compressibility (1/GPa) = 0.02130120
#
# Stress axis : x y z
#
# Youngs Moduli (GPa) = 118.89089 61.58420 109.02368
#
# Poissons Ratio (x) = 0.01359 0.29367
# Poissons Ratio (y) = 0.02623 0.36476
# Poissons Ratio (z) = 0.32025 0.20604
#
# Static dielectric constant tensor:
#      x y z
#    x 3.890520 -0.237330 0.053270 
#    y -0.237330 3.768300 -0.468030 
#    z 0.053270 -0.468030 3.915830 
# 
# 
# High freq. dielectric constant tensor:
#      x y z
#    x 1.932830 0.003650 0.007760 
#    y 0.003650 1.910430 -0.016590 
#    z 0.007760 -0.016590 1.902030 
# 
# From -- ./inp_files/124258.got.cif
#   From: 2010.06.25/outbox.cif.g09.slc.cpg/sg2_63_cif.got.tgz:124258.got - 2010.06.27 13:26:56.
