data_PCOD8032785
_publ_section_title
;
Structure prediction by ZEFSAII (Michael W. Deem and Ramdas Pophale) SiO2 
 PCOD8032785
Probable space group: P -1
;
_chemical_formula_sum "Si O2"
_cell_formula_units_Z 16
_cell_length_a 11.474846
_cell_length_b 9.528453
_cell_length_c 14.758566
_cell_angle_alpha 79.981653
_cell_angle_beta 30.161673
_cell_angle_gamma 67.594123
_cell_volume 706.262277
_symmetry_space_group_name_H-M "P -1"
_symmetry_group_IT_number 2
_symmetry_cell_setting 'triclinic'
loop_
_space_group_symop_operation_xyz
x,y,z
-x,-y,-z
loop_
_atom_site_type_symbol
_atom_site_label
_atom_site_fract_x
_atom_site_fract_y
_atom_site_fract_z
Si Si1 0.715885 0.020974 0.907035
Si Si2 0.573906 0.640903 0.456303
Si Si3 0.013091 0.620447 0.050418
Si Si4 0.273466 0.665387 0.170192
Si Si5 0.613189 0.461043 0.699365
Si Si6 0.694963 0.726926 0.552097
Si Si7 0.362165 0.066378 0.832729
Si Si8 0.739016 0.187122 0.514851
O O1 0.962880 0.938591 0.683932
O O2 0.649258 0.205924 0.939350
O O3 0.752583 0.946086 0.991204
O O4 0.500000 0.000000 0.000000
O O5 0.500000 0.500000 0.500000
O O6 0.871774 0.594768 0.235980
O O7 0.536692 0.698897 0.578221
O O8 0.389466 0.790611 0.500452
O O9 0.877125 0.802076 0.080963
O O10 0.000000 0.500000 0.000000
O O11 0.301936 0.573024 0.894688
O O12 0.287848 0.661870 0.269717
O O13 0.975570 0.711701 0.336220
O O14 0.500000 0.500000 0.000000
O O15 0.743295 0.580931 0.604652
O O16 0.710918 0.354303 0.554551
O O17 0.499930 0.897041 0.707300
O O18 0.586057 0.122372 0.691589
#
# Coordination Sequence:
#
# PCOD8032785 Si02
#       8
#     2   2   2   2   2   2   2   2
#     4  12  29  46  79 106 147 200 249 300 360 443
#     4  11  23  43  74 106 142 190 248 295 375 438
#     4  11  23  43  72 108 147 187 246 307 359 438
#     4  12  28  49  70 109 150 194 248 299 371 446
#     4  12  25  45  76 103 148 200 241 301 369 440
#     4  12  26  47  73 107 152 194 237 314 374 433
#     4  11  26  48  71 111 151 187 245 307 376 424
#     4  11  25  46  73 110 145 188 248 306 355 445
#
# _framework density 22.654474
#
# number of rings (size 3 to 8) (size 9 to 14) (size 15 to 20)
#    0.000    0.500    5.000    2.625    7.000    3.500 
#    2.250    0.000    0.000    0.000    0.000    0.000 
#    0.000    0.000    0.000    0.000    0.000    0.000 
#
# Total GULP energy -198406.083353 kJ/mol
# GULP energy per Si atom -12400.380210 kJ/mol
# Density = 2.260291 g / cm^3
# Si number density = 22.654474 Si / 1000 Ang^3
#
#
#
# Elastic Constant Matrix: (Units=GPa)
#
#
# Indices 1 2 3 4 5 6 
#
# 1 90.4264 29.0345 15.4113 -1.7696 -2.1191 -0.3944
# 2 29.0345 148.1148 40.6255 -4.2797 -1.6744 6.7108
# 3 15.4113 40.6255 90.1081 2.1241 -3.7371 -2.3908
# 4 -1.7696 -4.2797 2.1241 49.0684 0.0963 5.1557
# 5 -2.1191 -1.6744 -3.7371 0.0963 31.8837 -4.8470
# 6 -0.3944 6.7108 -2.3908 5.1557 -4.8470 35.3202
#
#
#
# Elastic Compliance Matrix: (Units=1/GPa)
#
#
# Indices 1 2 3 4 5 6 
#
# 1 0.011923 -0.002049 -0.001082 0.000244 0.000633 0.000500
# 2 -0.002049 0.008215 -0.003448 0.001005 -0.000419 -0.002021
# 3 -0.001082 -0.003448 0.012978 -0.001104 0.001560 0.001897
# 4 0.000244 0.001005 -0.001104 0.020882 -0.000640 -0.003399
# 5 0.000633 -0.000419 0.001560 -0.000640 0.032286 0.004716
# 6 0.000500 -0.002021 0.001897 -0.003399 0.004716 0.029974
#
#
# Mechanical properties :
#
#
# Convention : Reuss Voigt Hill
#
# Bulk Modulus (GPa) = 50.10303 55.42131 52.76217
# Shear Modulus (GPa) = 36.74638 39.49298 38.11968
#
# Velocity S-wave (km/s) = 4.03182 4.17978 4.10647
# Velocity P-wave (km/s) = 6.62105 6.91455 6.76939
#
# Compressibility (1/GPa) = 0.01995887
#
# Stress axis : x y z
#
# Youngs Moduli (GPa) = 83.87326 121.73201 77.05162
#
# Poissons Ratio (x) = 0.24943 0.08334
# Poissons Ratio (y) = 0.17185 0.26567
# Poissons Ratio (z) = 0.09072 0.41972
#
# Static dielectric constant tensor:
#      x y z
#    x 3.989850 0.272800 0.261750 
#    y 0.272800 2.579490 -1.495350 
#    z 0.261750 -1.495350 4.771350 
# 
# 
# High freq. dielectric constant tensor:
#      x y z
#    x 1.888780 -0.002050 0.000680 
#    y -0.002050 1.904860 -0.006890 
#    z 0.000680 -0.006890 1.905840 
# 
# From -- ./inp_files/515488.got.cif
#   From: 2010.06.25/outbox.cif.g09.slc.cpg/sg2_258_cif.got.tgz:515488.got - 2010.06.27 13:26:56.
