data_PCOD8032208
_publ_section_title
;
Structure prediction by ZEFSAII (Michael W. Deem and Ramdas Pophale) SiO2 
 PCOD8032208
Probable space group: P -1
;
_chemical_formula_sum "Si O2"
_cell_formula_units_Z 14
_cell_length_a 8.891149
_cell_length_b 12.487900
_cell_length_c 9.345234
_cell_angle_alpha 94.704524
_cell_angle_beta 137.205791
_cell_angle_gamma 111.762562
_cell_volume 541.872351
_symmetry_space_group_name_H-M "P -1"
_symmetry_group_IT_number 2
_symmetry_cell_setting 'triclinic'
loop_
_space_group_symop_operation_xyz
x,y,z
-x,-y,-z
loop_
_atom_site_type_symbol
_atom_site_label
_atom_site_fract_x
_atom_site_fract_y
_atom_site_fract_z
Si Si1 0.848633 0.398814 0.517977
Si Si2 0.129592 0.177602 0.262999
Si Si3 0.295009 0.202193 0.984691
Si Si4 0.591989 0.745352 0.246255
Si Si5 0.055518 0.394330 0.168845
Si Si6 0.722322 0.558762 0.978030
Si Si7 0.281630 0.011111 0.270111
O O1 0.000000 0.500000 0.500000
O O2 0.790282 0.473969 0.604213
O O3 0.046775 0.370140 0.725574
O O4 0.580407 0.241351 0.261285
O O5 0.161989 0.161024 0.451892
O O6 0.199224 0.322832 0.297442
O O7 0.355092 0.162430 0.339860
O O8 0.806654 0.055881 0.958497
O O9 0.278231 0.170458 0.801684
O O10 0.379347 0.351742 0.097307
O O11 0.003758 0.077456 0.840741
O O12 0.290942 0.712794 0.066459
O O13 0.537448 0.600560 0.178201
O O14 0.131941 0.444332 0.063987
O O15 0.500000 0.000000 0.500000
#
# Coordination Sequence:
#
# PCOD8032208 Si02
#       7
#     2   2   2   2   2   2   2
#     4  11  23  41  69 106 149 180 218 277 357 419
#     4  11  25  45  75  94 134 187 236 288 347 399
#     4  12  25  43  71 102 141 184 229 285 351 404
#     4  11  24  41  68 106 143 175 224 284 351 425
#     4  11  23  42  68 107 144 181 226 281 340 427
#     4  11  24  39  69 106 147 181 223 276 346 426
#     4  11  27  50  70  99 134 184 245 297 335 401
#
# _framework density 25.836341000000001
#
# number of rings (size 3 to 8) (size 9 to 14) (size 15 to 20)
#    0.000    0.857    4.286    3.857    6.000    2.857 
#    0.000    1.429    0.000    0.000    0.000    0.000 
#    0.000    0.000    0.000    0.000    0.000    0.000 
#
# Total GULP energy -173471.070059 kJ/mol
# GULP energy per Si atom -12390.790719 kJ/mol
# Density = 2.577754 g / cm^3
# Si number density = 25.836341 Si / 1000 Ang^3
#
#
#
# Elastic Constant Matrix: (Units=GPa)
#
#
# Indices 1 2 3 4 5 6 
#
# 1 66.8826 -2.2772 32.3800 -8.1697 -11.1880 28.9370
# 2 -2.2772 47.1282 3.2525 -6.4549 2.6021 -10.2199
# 3 32.3800 3.2525 202.4725 -28.0077 -26.2495 14.5843
# 4 -8.1697 -6.4549 -28.0077 30.6249 2.8952 -0.3944
# 5 -11.1880 2.6021 -26.2495 2.8952 44.6153 -10.1485
# 6 28.9370 -10.2199 14.5843 -0.3944 -10.1485 55.5025
#
#
#
# Elastic Compliance Matrix: (Units=1/GPa)
#
#
# Indices 1 2 3 4 5 6 
#
# 1 0.020976 -0.000697 -0.001925 0.003403 0.001618 -0.010239
# 2 -0.000697 0.022849 -0.000027 0.004740 -0.000816 0.004462
# 3 -0.001925 -0.000027 0.006319 0.004985 0.002891 -0.000098
# 4 0.003403 0.004740 0.004985 0.039042 0.000560 -0.001832
# 5 0.001618 -0.000816 0.002891 0.000560 0.025181 0.002855
# 6 -0.010239 0.004462 -0.000098 -0.001832 0.002855 0.024711
#
#
# Mechanical properties :
#
#
# Convention : Reuss Voigt Hill
#
# Bulk Modulus (GPa) = 22.29930 42.57710 32.43820
# Shear Modulus (GPa) = 31.38232 45.02375 38.20303
#
# Velocity S-wave (km/s) = 3.48898 4.17904 3.84950
# Velocity P-wave (km/s) = 4.98802 6.30881 5.68689
#
# Compressibility (1/GPa) = 0.04484445
#
# Stress axis : x y z
#
# Youngs Moduli (GPa) = 47.67336 43.76604 158.26281
#
# Poissons Ratio (x) = 0.03051 0.30471
# Poissons Ratio (y) = 0.03323 0.00429
# Poissons Ratio (z) = 0.09179 0.00119
#
# Static dielectric constant tensor:
#      x y z
#    x 4.557430 -0.148640 -0.222460 
#    y -0.148640 4.831450 -0.320740 
#    z -0.222460 -0.320740 5.090360 
# 
# 
# High freq. dielectric constant tensor:
#      x y z
#    x 2.016630 -0.005000 -0.017220 
#    y -0.005000 2.029340 -0.024850 
#    z -0.017220 -0.024850 2.055590 
# 
# From -- ./inp_files/202756.got.cif
#   From: 2010.06.25/outbox.cif.g09.slc.cpg/sg2_102_cif.got.tgz:202756.got - 2010.06.27 13:26:56.
