data_PCOD8032906
_publ_section_title
;
Structure prediction by ZEFSAII (Michael W. Deem and Ramdas Pophale) SiO2 
 PCOD8032906
Probable space group: P -1
;
_chemical_formula_sum "Si O2"
_cell_formula_units_Z 16
_cell_length_a 22.358589
_cell_length_b 18.854009
_cell_length_c 12.820894
_cell_angle_alpha 160.970070
_cell_angle_beta 36.125980
_cell_angle_gamma 153.496349
_cell_volume 758.715807
_symmetry_space_group_name_H-M "P -1"
_symmetry_group_IT_number 2
_symmetry_cell_setting 'triclinic'
loop_
_space_group_symop_operation_xyz
x,y,z
-x,-y,-z
loop_
_atom_site_type_symbol
_atom_site_label
_atom_site_fract_x
_atom_site_fract_y
_atom_site_fract_z
Si Si1 0.860353 0.384958 0.281290
Si Si2 0.375329 0.873214 0.191309
Si Si3 0.997904 0.166871 0.467181
Si Si4 0.308243 0.161895 0.551635
Si Si5 0.410587 0.162621 0.192852
Si Si6 0.378219 0.764154 0.268639
Si Si7 0.092085 0.430640 0.298430
Si Si8 0.940797 0.685104 0.177241
O O1 0.883578 0.550555 0.585834
O O2 0.881506 0.588789 0.442356
O O3 0.975319 0.365968 0.080391
O O4 0.702911 0.061424 0.048219
O O5 0.417803 0.918194 0.314675
O O6 0.387830 0.136327 0.492554
O O7 0.484732 0.880198 0.987383
O O8 0.220965 0.554617 0.954323
O O9 0.039984 0.315118 0.727107
O O10 0.852126 0.069090 0.507424
O O11 0.983457 0.887069 0.087875
O O12 0.320980 0.068955 0.292431
O O13 0.367464 0.488488 0.907367
O O14 0.500000 0.500000 0.500000
O O15 0.238737 0.679017 0.381571
O O16 0.500000 0.000000 0.500000
O O17 0.000000 0.500000 0.500000
O O18 0.000000 0.000000 0.500000
#
# Coordination Sequence:
#
# PCOD8032906 Si02
#       8
#     2   2   2   2   2   2   2   2
#     4  12  23  43  69  95 135 179 218 276 343 397
#     4  12  24  42  70 100 133 177 230 279 333 408
#     4  11  23  44  68 100 139 172 221 283 341 395
#     4  11  23  44  70 100 135 178 224 284 335 404
#     4  12  24  42  67 101 140 171 225 284 340 393
#     4  11  25  48  67  92 141 183 224 275 343 404
#     4  11  25  43  66 100 133 173 226 279 333 401
#     4  12  22  40  71  99 130 177 225 271 340 406
#
# _framework density 21.088265
#
# number of rings (size 3 to 8) (size 9 to 14) (size 15 to 20)
#    0.000    0.500    3.750    6.375    0.000    0.500 
#    2.250    0.000    0.000    0.000    0.000    0.000 
#    0.000    0.000    0.000    0.000    0.000    0.000 
#
# Total GULP energy -198439.382028 kJ/mol
# GULP energy per Si atom -12402.461377 kJ/mol
# Density = 2.104027 g / cm^3
# Si number density = 21.088265 Si / 1000 Ang^3
#
#
#
# Elastic Constant Matrix: (Units=GPa)
#
#
# Indices 1 2 3 4 5 6 
#
# 1 109.7894 15.2795 33.2745 -1.6127 -9.3515 -2.7310
# 2 15.2795 79.2511 30.4067 -5.2018 -10.4363 11.0107
# 3 33.2745 30.4067 63.3915 -15.7359 5.1410 12.1368
# 4 -1.6127 -5.2018 -15.7359 32.2089 6.8330 -1.6079
# 5 -9.3515 -10.4363 5.1410 6.8330 40.3175 -2.5850
# 6 -2.7310 11.0107 12.1368 -1.6079 -2.5850 48.8796
#
#
#
# Elastic Compliance Matrix: (Units=1/GPa)
#
#
# Indices 1 2 3 4 5 6 
#
# 1 0.012121 0.001107 -0.008980 -0.004565 0.005195 0.002782
# 2 0.001107 0.016970 -0.009893 -0.003455 0.006427 -0.001078
# 3 -0.008980 -0.009893 0.031152 0.015329 -0.011606 -0.006118
# 4 -0.004565 -0.003455 0.015329 0.039922 -0.010837 -0.002543
# 5 0.005195 0.006427 -0.011606 -0.010837 0.031182 0.003017
# 6 0.002782 -0.001078 -0.006118 -0.002543 0.003017 0.022452
#
#
# Mechanical properties :
#
#
# Convention : Reuss Voigt Hill
#
# Bulk Modulus (GPa) = 40.47111 45.59483 43.03297
# Shear Modulus (GPa) = 25.30781 35.84594 30.57688
#
# Velocity S-wave (km/s) = 3.46799 4.12734 3.81195
# Velocity P-wave (km/s) = 5.93876 6.66192 6.31071
#
# Compressibility (1/GPa) = 0.02470898
#
# Stress axis : x y z
#
# Youngs Moduli (GPa) = 82.50382 58.92774 32.10091
#
# Poissons Ratio (x) = -0.06520 0.28827
# Poissons Ratio (y) = -0.09129 0.31758
# Poissons Ratio (z) = 0.74089 0.58298
#
# Static dielectric constant tensor:
#      x y z
#    x 3.895370 0.006080 0.000400 
#    y 0.006080 3.959110 -0.085790 
#    z 0.000400 -0.085790 4.179940 
# 
# 
# High freq. dielectric constant tensor:
#      x y z
#    x 1.830510 -0.001690 -0.003560 
#    y -0.001690 1.840650 -0.004720 
#    z -0.003560 -0.004720 1.829430 
# 
# From -- ./inp_files/261822.got.cif
#   From: 2010.06.25/outbox.cif.g09.slc.cpg/sg2_131_cif.got.tgz:261822.got - 2010.06.27 13:26:56.
