data_PCOD8032031
_publ_section_title
;
Structure prediction by ZEFSAII (Michael W. Deem and Ramdas Pophale) SiO2 
 PCOD8032031
Probable space group: P -1
;
_chemical_formula_sum "Si O2"
_cell_formula_units_Z 16
_cell_length_a 16.012127
_cell_length_b 9.284783
_cell_length_c 23.073335
_cell_angle_alpha 136.298736
_cell_angle_beta 161.013440
_cell_angle_gamma 42.343383
_cell_volume 747.191280
_symmetry_space_group_name_H-M "P -1"
_symmetry_group_IT_number 2
_symmetry_cell_setting 'triclinic'
loop_
_space_group_symop_operation_xyz
x,y,z
-x,-y,-z
loop_
_atom_site_type_symbol
_atom_site_label
_atom_site_fract_x
_atom_site_fract_y
_atom_site_fract_z
Si Si1 0.975257 0.786529 0.980981
Si Si2 0.000754 0.092251 0.591835
Si Si3 0.514318 0.591286 0.599838
Si Si4 0.741448 0.221223 0.727927
Si Si5 0.860335 0.748378 0.477418
Si Si6 0.714609 0.258878 0.934858
Si Si7 0.762506 0.533342 0.153314
Si Si8 0.812094 0.793044 0.592301
O O1 0.700961 0.753264 0.767661
O O2 0.935441 0.042826 0.032145
O O3 0.054710 0.699592 0.072628
O O4 0.217537 0.671366 0.064595
O O5 0.240304 0.213969 0.783973
O O6 0.753303 0.281697 0.507149
O O7 0.000000 0.000000 0.500000
O O8 0.033338 0.888140 0.597048
O O9 0.500000 0.500000 0.500000
O O10 0.657856 0.385763 0.669931
O O11 0.492860 0.199492 0.596389
O O12 0.891282 0.992113 0.733106
O O13 0.583314 0.772226 0.268520
O O14 0.839462 0.829862 0.552876
O O15 0.000000 0.500000 0.500000
O O16 0.772866 0.434557 0.067720
O O17 0.004301 0.424796 0.323441
O O18 0.500000 0.500000 0.000000
#
# Coordination Sequence:
#
# PCOD8032031 Si02
#       8
#     2   2   2   2   2   2   2   2
#     4  11  23  40  67 100 140 180 226 295 357 412
#     4  12  26  45  71 105 141 188 235 292 363 432
#     4  12  25  43  70 105 144 183 241 300 357 434
#     4  11  23  40  67 100 140 180 226 295 357 412
#     4  12  25  46  71 100 139 189 238 292 357 431
#     4  11  23  42  68  99 135 181 234 288 354 421
#     4  12  25  46  71 100 139 189 238 292 357 431
#     4  11  23  42  68  99 135 181 234 288 354 421
#
# _framework density 21.413525
#
# number of rings (size 3 to 8) (size 9 to 14) (size 15 to 20)
#    0.000    0.500    5.000    4.125    0.000    0.000 
#    0.000    3.750    0.000    0.000    0.000    0.000 
#    0.000    0.000    0.000    0.000    0.000    0.000 
#
# Total GULP energy -198332.804920 kJ/mol
# GULP energy per Si atom -12395.800308 kJ/mol
# Density = 2.136479 g / cm^3
# Si number density = 21.413525 Si / 1000 Ang^3
#
#
#
# Elastic Constant Matrix: (Units=GPa)
#
#
# Indices 1 2 3 4 5 6 
#
# 1 137.7708 47.0316 49.4456 14.9315 -25.5443 -3.3424
# 2 47.0316 105.9186 32.8962 14.9701 -4.4187 7.6259
# 3 49.4456 32.8962 100.3580 19.4898 -16.6409 -2.9080
# 4 14.9315 14.9701 19.4898 39.3248 1.3478 -0.0857
# 5 -25.5443 -4.4187 -16.6409 1.3478 47.4007 1.3832
# 6 -3.3424 7.6259 -2.9080 -0.0857 1.3832 41.7771
#
#
#
# Elastic Compliance Matrix: (Units=1/GPa)
#
#
# Indices 1 2 3 4 5 6 
#
# 1 0.010480 -0.003424 -0.003048 -0.001309 0.004264 0.001107
# 2 -0.003424 0.012066 -0.002138 -0.002194 -0.001333 -0.002586
# 3 -0.003048 -0.002138 0.013655 -0.004899 0.003062 0.000985
# 4 -0.001309 -0.002194 -0.004899 0.029308 -0.003467 0.000130
# 5 0.004264 -0.001333 0.003062 -0.003467 0.024444 -0.000019
# 6 0.001107 -0.002586 0.000985 0.000130 -0.000019 0.024567
#
#
# Mechanical properties :
#
#
# Convention : Reuss Voigt Hill
#
# Bulk Modulus (GPa) = 52.68421 66.97713 59.83067
# Shear Modulus (GPa) = 36.21401 40.01210 38.11306
#
# Velocity S-wave (km/s) = 4.11685 4.32735 4.22341
# Velocity P-wave (km/s) = 6.87420 7.50426 7.19613
#
# Compressibility (1/GPa) = 0.01898102
#
# Stress axis : x y z
#
# Youngs Moduli (GPa) = 95.41563 82.87610 73.23490
#
# Poissons Ratio (x) = 0.28376 0.22322
# Poissons Ratio (y) = 0.32669 0.15659
# Poissons Ratio (z) = 0.29083 0.17721
#
# Static dielectric constant tensor:
#      x y z
#    x 4.837440 -0.024090 -0.309290 
#    y -0.024090 3.963620 0.183190 
#    z -0.309290 0.183190 4.014610 
# 
# 
# High freq. dielectric constant tensor:
#      x y z
#    x 1.859480 -0.003730 -0.010320 
#    y -0.003730 1.840200 0.012310 
#    z -0.010320 0.012310 1.834630 
# 
# From -- ./inp_files/274855.got.cif
#   From: 2010.06.25/outbox.cif.g09.slc.cpg/sg2_138_cif.got.tgz:274855.got - 2010.06.27 13:26:56.
