data_PCOD8032903
_publ_section_title
;
Structure prediction by ZEFSAII (Michael W. Deem and Ramdas Pophale) SiO2 
 PCOD8032903
Probable space group: P -1
;
_chemical_formula_sum "Si O2"
_cell_formula_units_Z 16
_cell_length_a 20.002247
_cell_length_b 7.841221
_cell_length_c 5.578527
_cell_angle_alpha 118.177420
_cell_angle_beta 63.487559
_cell_angle_gamma 107.527906
_cell_volume 685.604214
_symmetry_space_group_name_H-M "P -1"
_symmetry_group_IT_number 2
_symmetry_cell_setting 'triclinic'
loop_
_space_group_symop_operation_xyz
x,y,z
-x,-y,-z
loop_
_atom_site_type_symbol
_atom_site_label
_atom_site_fract_x
_atom_site_fract_y
_atom_site_fract_z
Si Si1 0.225818 0.640420 0.412560
Si Si2 0.361363 0.632227 0.517277
Si Si3 0.390002 0.245291 0.389230
Si Si4 0.158993 0.954474 0.027739
Si Si5 0.286814 0.914445 0.125268
Si Si6 0.100835 0.343409 0.270655
Si Si7 0.522510 0.790109 0.278555
Si Si8 0.046066 0.624884 0.204608
O O1 0.301322 0.582529 0.370883
O O2 0.245737 0.709942 0.156978
O O3 0.160217 0.462655 0.433870
O O4 0.196600 0.830919 0.692323
O O5 0.351808 0.445174 0.583772
O O6 0.445533 0.644589 0.283733
O O7 0.349185 0.838451 0.798149
O O8 0.433173 0.254848 0.579000
O O9 0.326637 0.057464 0.360067
O O10 0.435944 0.228219 0.054358
O O11 0.128986 0.133111 0.051688
O O12 0.224292 0.025885 0.162851
O O13 0.089246 0.825877 0.177819
O O14 0.103474 0.480958 0.122763
O O15 0.014212 0.311345 0.467498
O O16 0.500000 0.000000 0.500000
O O17 0.000000 0.500000 0.000000
#
# Coordination Sequence:
#
# PCOD8032903 Si02
#       8
#     2   2   2   2   2   2   2   2
#     4  11  24  44  67  98 138 175 231 281 341 418
#     4  11  26  43  70  99 136 179 229 290 345 420
#     4  12  27  45  72 104 136 187 238 286 363 422
#     4  11  24  44  67 101 132 182 228 278 355 413
#     4  11  25  44  68  97 141 180 226 290 342 420
#     4  11  24  43  70  95 136 177 223 287 342 418
#     4  12  25  47  72 100 141 181 234 297 355 417
#     4  11  23  44  67  99 134 171 228 284 342 414
#
# _framework density 23.337081999999999
#
# number of rings (size 3 to 8) (size 9 to 14) (size 15 to 20)
#    0.000    0.750    3.750    3.000    5.250    2.500 
#    0.000    0.000    0.000    0.000    0.000    0.000 
#    0.000    0.000    0.000    0.000    0.000    0.000 
#
# Total GULP energy -198284.603759 kJ/mol
# GULP energy per Si atom -12392.787735 kJ/mol
# Density = 2.328397 g / cm^3
# Si number density = 23.337082 Si / 1000 Ang^3
#
#
#
# Elastic Constant Matrix: (Units=GPa)
#
#
# Indices 1 2 3 4 5 6 
#
# 1 138.5073 53.4176 35.3420 11.9994 1.4897 -0.8578
# 2 53.4176 113.1893 10.0388 8.8813 -9.1318 -8.0838
# 3 35.3420 10.0388 51.7800 -8.0573 4.1960 -4.8044
# 4 11.9994 8.8813 -8.0573 32.7024 -1.7167 -7.2975
# 5 1.4897 -9.1318 4.1960 -1.7167 29.4995 -1.1575
# 6 -0.8578 -8.0838 -4.8044 -7.2975 -1.1575 50.2419
#
#
#
# Elastic Compliance Matrix: (Units=1/GPa)
#
#
# Indices 1 2 3 4 5 6 
#
# 1 0.011449 -0.004529 -0.007878 -0.005448 -0.001259 -0.002107
# 2 -0.004529 0.011395 0.000645 -0.000677 0.003696 0.001805
# 3 -0.007878 0.000645 0.026690 0.010037 -0.002461 0.003923
# 4 -0.005448 -0.000677 0.010037 0.036650 0.001010 0.006104
# 5 -0.001259 0.003696 -0.002461 0.001010 0.035567 0.001304
# 6 -0.002107 0.001805 0.003923 0.006104 0.001304 0.021450
#
#
# Mechanical properties :
#
#
# Convention : Reuss Voigt Hill
#
# Bulk Modulus (GPa) = 38.44728 55.67482 47.06105
# Shear Modulus (GPa) = 28.50715 36.13399 32.32057
#
# Velocity S-wave (km/s) = 3.49884 3.93918 3.72552
# Velocity P-wave (km/s) = 5.73001 6.67818 6.22218
#
# Compressibility (1/GPa) = 0.02600964
#
# Stress axis : x y z
#
# Youngs Moduli (GPa) = 87.34290 87.75607 37.46785
#
# Poissons Ratio (x) = 0.39746 0.29516
# Poissons Ratio (y) = 0.39559 -0.02415
# Poissons Ratio (z) = 0.68805 -0.05657
#
# Static dielectric constant tensor:
#      x y z
#    x 4.960210 0.274440 -0.224290 
#    y 0.274440 4.442800 -0.193760 
#    z -0.224290 -0.193760 4.172810 
# 
# 
# High freq. dielectric constant tensor:
#      x y z
#    x 1.940060 0.002830 -0.007330 
#    y 0.002830 1.936160 -0.001790 
#    z -0.007330 -0.001790 1.907300 
# 
# From -- ./inp_files/56047.got.cif
#   From: 2010.06.25/outbox.cif.g09.slc.cpg/sg2_29_cif.got.tgz:56047.got - 2010.06.27 13:26:56.
