data_PCOD8032049
_publ_section_title
;
Structure prediction by ZEFSAII (Michael W. Deem and Ramdas Pophale) SiO2 
 PCOD8032049
Probable space group: P -1
;
_chemical_formula_sum "Si O2"
_cell_formula_units_Z 16
_cell_length_a 15.170075
_cell_length_b 15.177790
_cell_length_c 14.763241
_cell_angle_alpha 43.107430
_cell_angle_beta 161.046854
_cell_angle_gamma 141.699970
_cell_volume 683.016278
_symmetry_space_group_name_H-M "P -1"
_symmetry_group_IT_number 2
_symmetry_cell_setting 'triclinic'
loop_
_space_group_symop_operation_xyz
x,y,z
-x,-y,-z
loop_
_atom_site_type_symbol
_atom_site_label
_atom_site_fract_x
_atom_site_fract_y
_atom_site_fract_z
Si Si1 0.579317 0.212726 0.265950
Si Si2 0.569932 0.240073 0.437230
Si Si3 0.355325 0.503284 0.565210
Si Si4 0.543717 0.129879 0.879339
Si Si5 0.002173 0.068235 0.270497
Si Si6 0.834972 0.447431 0.973913
Si Si7 0.167197 0.244356 0.709897
Si Si8 0.049458 0.902024 0.000347
O O1 0.686637 0.284108 0.414878
O O2 0.855549 0.208068 0.484365
O O3 0.321035 0.055580 0.147011
O O4 0.438014 0.300544 0.004127
O O5 0.515950 0.366789 0.337008
O O6 0.815412 0.206254 0.754289
O O7 0.232732 0.109239 0.202974
O O8 0.073023 0.509409 0.238156
O O9 0.242602 0.358240 0.619836
O O10 0.591845 0.509489 0.712618
O O11 0.246441 0.119842 0.548339
O O12 0.679672 0.276312 0.957021
O O13 0.760785 0.128963 0.011577
O O14 0.500000 0.000000 0.000000
O O15 0.849616 0.897326 0.248682
O O16 0.112287 0.135020 0.228158
O O17 0.000000 0.500000 0.000000
#
# Coordination Sequence:
#
# PCOD8032049 Si02
#       8
#     2   2   2   2   2   2   2   2
#     4  11  23  42  68 103 132 180 220 280 330 381
#     4  12  25  41  69  97 140 179 226 265 330 416
#     4  12  27  47  68  97 136 182 220 276 341 404
#     4  12  24  42  70  97 128 172 227 284 337 399
#     4  11  23  40  68  97 126 170 223 273 332 393
#     4  12  28  47  68  98 140 176 227 286 344 407
#     4  11  23  44  69  99 141 170 223 277 335 396
#     4  11  23  41  65  99 138 175 220 277 329 393
#
# _framework density 23.425502999999999
#
# number of rings (size 3 to 8) (size 9 to 14) (size 15 to 20)
#    0.000    0.500    0.000    9.750    5.250    1.000 
#    0.000    0.000    0.000    0.000    0.000    0.000 
#    0.000    0.000    0.000    0.000    0.000    0.000 
#
# Total GULP energy -198427.961174 kJ/mol
# GULP energy per Si atom -12401.747573 kJ/mol
# Density = 2.337219 g / cm^3
# Si number density = 23.425503 Si / 1000 Ang^3
#
#
#
# Elastic Constant Matrix: (Units=GPa)
#
#
# Indices 1 2 3 4 5 6 
#
# 1 90.5582 10.7554 21.6881 3.5187 -3.1672 -11.6959
# 2 10.7554 41.4728 13.9851 4.5624 -5.0646 -10.0633
# 3 21.6881 13.9851 108.5136 -1.1080 -12.4042 -0.2214
# 4 3.5187 4.5624 -1.1080 22.4519 -4.5573 -0.6641
# 5 -3.1672 -5.0646 -12.4042 -4.5573 35.3197 0.7538
# 6 -11.6959 -10.0633 -0.2214 -0.6641 0.7538 19.7276
#
#
#
# Elastic Compliance Matrix: (Units=1/GPa)
#
#
# Indices 1 2 3 4 5 6 
#
# 1 0.012694 -0.000533 -0.002496 -0.001834 -0.000204 0.007172
# 2 -0.000533 0.029811 -0.003532 -0.005313 0.001989 0.014596
# 3 -0.002496 -0.003532 0.010567 0.002212 0.003335 -0.003216
# 4 -0.001834 -0.005313 0.002212 0.047160 0.005987 -0.002414
# 5 -0.000204 0.001989 0.003335 0.005987 0.030524 -0.000034
# 6 0.007172 0.014596 -0.003216 -0.002414 -0.000034 0.062272
#
#
# Mechanical properties :
#
#
# Convention : Reuss Voigt Hill
#
# Bulk Modulus (GPa) = 25.03234 37.04465 31.03850
# Shear Modulus (GPa) = 22.78246 28.44091 25.61169
#
# Velocity S-wave (km/s) = 3.12196 3.48817 3.31013
# Velocity P-wave (km/s) = 4.86874 5.66315 5.28090
#
# Compressibility (1/GPa) = 0.03994832
#
# Stress axis : x y z
#
# Youngs Moduli (GPa) = 78.77691 33.54478 94.63655
#
# Poissons Ratio (x) = 0.01789 0.23619
# Poissons Ratio (y) = 0.04202 0.33430
# Poissons Ratio (z) = 0.19661 0.11850
#
# Static dielectric constant tensor:
#      x y z
#    x 4.557460 0.094840 -0.062030 
#    y 0.094840 4.097760 0.013700 
#    z -0.062030 0.013700 4.499060 
# 
# 
# High freq. dielectric constant tensor:
#      x y z
#    x 1.943980 0.001850 -0.000830 
#    y 0.001850 1.912790 -0.000130 
#    z -0.000830 -0.000130 1.945480 
# 
# From -- ./inp_files/534298.got.cif
#   From: 2010.06.25/outbox.cif.g09.slc.cpg/sg2_268_cif.got.tgz:534298.got - 2010.06.27 13:26:56.
